data_PCOD9041517
_publ_section_title
;
Structure prediction by ZEFSAII (Michael W. Deem and Ramdas Pophale) SiO2 
 PCOD9041517
Probable space group: P -1
;
_chemical_formula_sum "Si O2"
_cell_formula_units_Z 16
_cell_length_a 13.112078
_cell_length_b 19.536310
_cell_length_c 23.591953
_cell_angle_alpha 163.205457
_cell_angle_beta 158.603005
_cell_angle_gamma 27.774516
_cell_volume 635.811825
_symmetry_space_group_name_H-M "P -1"
_symmetry_group_IT_number 2
_symmetry_cell_setting 'triclinic'
loop_
_space_group_symop_operation_xyz
x,y,z
-x,-y,-z
loop_
_atom_site_type_symbol
_atom_site_label
_atom_site_fract_x
_atom_site_fract_y
_atom_site_fract_z
Si Si1 0.752922 0.181712 0.753133
Si Si2 0.421358 0.967053 0.074726
Si Si3 0.797467 0.165481 0.331298
Si Si4 0.156398 0.398592 0.946520
Si Si5 0.169212 0.584156 0.571311
Si Si6 0.422988 0.797661 0.547524
Si Si7 0.185514 0.581971 0.909795
Si Si8 0.800940 0.185759 0.015394
O O1 0.500000 0.000000 0.500000
O O2 0.687716 0.387211 0.838002
O O3 0.858197 0.307508 0.964706
O O4 0.996895 0.041551 0.739642
O O5 0.646484 0.794749 0.080451
O O6 0.533700 0.081138 0.165103
O O7 0.438891 0.170771 0.293359
O O8 0.168524 0.777516 0.774423
O O9 0.739579 0.282950 0.334352
O O10 0.974085 0.359634 0.613298
O O11 0.901649 0.281136 0.683616
O O12 0.000000 0.500000 0.000000
O O13 0.405663 0.394097 0.550516
O O14 0.884501 0.430290 0.285529
O O15 0.495171 0.056014 0.761438
O O16 0.147686 0.767282 0.986495
O O17 0.500000 0.500000 0.000000
O O18 0.000000 0.000000 0.000000
#
# Coordination Sequence:
#
# PCOD9041517 Si02
#       8
#     2   2   2   2   2   2   2   2
#     4  12  26  43  69 100 135 182 224 281 351 403
#     4  12  25  41  71  96 138 183 223 287 340 410
#     4  11  24  43  65 100 133 178 230 278 344 406
#     4  12  25  44  69 102 138 176 234 286 336 413
#     4  10  23  44  64 100 135 176 235 281 331 418
#     4  11  24  43  69  98 136 180 227 279 353 397
#     4  11  24  41  67  98 136 174 231 284 332 410
#     4   9  23  43  68  98 138 182 226 285 339 408
#
# _framework density 25.164679
#
# number of rings (size 3 to 8) (size 9 to 14) (size 15 to 20)
#    0.000    1.000    3.750    1.500    5.250    4.000 
#    0.000    0.000    0.000    0.000    0.000    0.000 
#    0.000    0.000    0.000    0.000    0.000    0.000 
#
# Total GULP energy -89588.926437 kJ/mol
# GULP energy per Si atom -5599.307902 kJ/mol
# Density = 2.510740 g / cm^3
# Si number density = 25.164679 Si / 1000 Ang^3
#
#
#
# Elastic Constant Matrix: (Units=GPa)
#
#
# Indices 1 2 3 4 5 6 
#
# 1 98.4279 11.8168 42.5336 9.7837 -12.6778 16.3892
# 2 11.8168 64.8062 7.3676 9.0920 5.6024 17.6342
# 3 42.5336 7.3676 156.1445 -0.9344 -15.6413 11.9871
# 4 9.7837 9.0920 -0.9344 25.5546 5.9740 -0.3859
# 5 -12.6778 5.6024 -15.6413 5.9740 57.8731 5.3589
# 6 16.3892 17.6342 11.9871 -0.3859 5.3589 33.6711
#
#
#
# Elastic Compliance Matrix: (Units=1/GPa)
#
#
# Indices 1 2 3 4 5 6 
#
# 1 0.013481 0.000140 -0.002902 -0.006199 0.003370 -0.006209
# 2 0.000140 0.019171 -0.000235 -0.006980 -0.000236 -0.010067
# 3 -0.002902 -0.000235 0.007456 0.001117 0.001410 -0.001330
# 4 -0.006199 -0.006980 0.001117 0.045500 -0.005792 0.007718
# 5 0.003370 -0.000236 0.001410 -0.005792 0.019500 -0.005189
# 6 -0.006209 -0.010067 -0.001330 0.007718 -0.005189 0.039381
#
#
# Mechanical properties :
#
#
# Convention : Reuss Voigt Hill
#
# Bulk Modulus (GPa) = 29.31410 49.20165 39.25787
# Shear Modulus (GPa) = 30.89204 40.59714 35.74459
#
# Velocity S-wave (km/s) = 3.50751 4.02090 3.77294
# Velocity P-wave (km/s) = 5.29884 6.41491 5.88340
#
# Compressibility (1/GPa) = 0.03411328
#
# Stress axis : x y z
#
# Youngs Moduli (GPa) = 74.17851 52.16285 134.12220
#
# Poissons Ratio (x) = -0.00728 0.38917
# Poissons Ratio (y) = -0.01036 0.03155
# Poissons Ratio (z) = 0.21524 0.01227
#
# Static dielectric constant tensor:
#      x y z
#    x 2.008620 -0.030870 0.003950 
#    y -0.030870 2.078740 -0.009530 
#    z 0.003950 -0.009530 2.002070 
# 
# From -- ./inp_files/428667.got.cif
#   From: 2010.05.17/outbox.cif.g08.bks.cpg/sg2_215_cif.got.tgz:428667.got - 2010.06.03 11:33:40.
