data_PCOD9041949
_publ_section_title
;
Structure prediction by ZEFSAII (Michael W. Deem and Ramdas Pophale) SiO2 
 PCOD9041949
Probable space group: P -1
;
_chemical_formula_sum "Si O2"
_cell_formula_units_Z 16
_cell_length_a 9.319605
_cell_length_b 14.793997
_cell_length_c 12.093974
_cell_angle_alpha 67.889760
_cell_angle_beta 107.280479
_cell_angle_gamma 49.095861
_cell_volume 736.163285
_symmetry_space_group_name_H-M "P -1"
_symmetry_group_IT_number 2
_symmetry_cell_setting 'triclinic'
loop_
_space_group_symop_operation_xyz
x,y,z
-x,-y,-z
loop_
_atom_site_type_symbol
_atom_site_label
_atom_site_fract_x
_atom_site_fract_y
_atom_site_fract_z
Si Si1 0.002860 0.881819 0.532135
Si Si2 0.933494 0.817509 0.778020
Si Si3 0.373197 0.546402 0.199105
Si Si4 0.407653 0.135359 0.178646
Si Si5 0.233565 0.719221 0.287656
Si Si6 0.439225 0.937484 0.099668
Si Si7 0.979076 0.603515 0.206730
Si Si8 0.553733 0.198078 0.633013
O O1 0.301280 0.682131 0.628716
O O2 0.996279 0.815451 0.669497
O O3 0.000000 0.000000 0.500000
O O4 0.713671 0.014246 0.335313
O O5 0.746255 0.825401 0.765549
O O6 0.737906 0.016265 0.689931
O O7 0.230306 0.640408 0.002983
O O8 0.337051 0.664895 0.207447
O O9 0.170529 0.585173 0.206399
O O10 0.447536 0.022561 0.151862
O O11 0.200186 0.328468 0.975017
O O12 0.500000 0.500000 0.500000
O O13 0.273838 0.797048 0.324309
O O14 0.877314 0.892695 0.118791
O O15 0.728883 0.773160 0.162388
O O16 0.462849 0.831023 0.232817
O O17 0.224226 0.396881 0.413717
#
# Coordination Sequence:
#
# PCOD9041949 Si02
#       8
#     2   2   2   2   2   2   2   2
#     4  12  27  45  72  98 128 174 233 284 335 386
#     4  10  23  49  69  94 135 176 225 281 324 400
#     4  11  24  44  67  96 133 175 225 268 337 391
#     4  10  23  44  68  94 129 177 222 272 335 393
#     4  12  23  40  70 100 142 174 213 272 333 405
#     4  11  23  40  65 100 141 175 215 265 335 409
#     4  11  22  40  64  98 137 175 213 264 330 402
#     4  11  22  41  66 103 139 169 221 269 330 394
#
# _framework density 21.734310000000001
#
# number of rings (size 3 to 8) (size 9 to 14) (size 15 to 20)
#    0.000    1.000    5.000    2.625    3.500    0.000 
#    0.000    8.125    0.000    0.000    0.000    0.000 
#    0.000    0.000    0.000    0.000    0.000    0.000 
#
# Total GULP energy -89273.430722 kJ/mol
# GULP energy per Si atom -5579.589420 kJ/mol
# Density = 2.168484 g / cm^3
# Si number density = 21.734310 Si / 1000 Ang^3
#
#
#
# Elastic Constant Matrix: (Units=GPa)
#
#
# Indices 1 2 3 4 5 6 
#
# 1 78.2858 33.0176 66.4261 -3.7381 5.9228 -15.0609
# 2 33.0176 49.4768 15.8918 -5.8186 17.4043 -20.6382
# 3 66.4261 15.8918 184.6014 -3.2487 19.9836 -1.4631
# 4 -3.7381 -5.8186 -3.2487 21.5489 -4.1190 -4.4914
# 5 5.9228 17.4043 19.9836 -4.1190 39.1283 6.1720
# 6 -15.0609 -20.6382 -1.4631 -4.4914 6.1720 35.0322
#
#
#
# Elastic Compliance Matrix: (Units=1/GPa)
#
#
# Indices 1 2 3 4 5 6 
#
# 1 0.028117 -0.019947 -0.009472 -0.000465 0.009693 -0.001826
# 2 -0.019947 0.056710 0.005911 0.013895 -0.028799 0.031936
# 3 -0.009472 0.005911 0.008966 0.000362 -0.005873 0.000865
# 4 -0.000465 0.013895 0.000362 0.052720 -0.003162 0.015318
# 5 0.009693 -0.028799 -0.005873 -0.003162 0.042879 -0.021004
# 6 -0.001826 0.031936 0.000865 0.015318 -0.021004 0.052274
#
#
# Mechanical properties :
#
#
# Convention : Reuss Voigt Hill
#
# Bulk Modulus (GPa) = 21.37856 60.33722 40.85789
# Shear Modulus (GPa) = 16.43245 32.27710 24.35477
#
# Velocity S-wave (km/s) = 2.75264 3.85785 3.35112
# Velocity P-wave (km/s) = 4.46770 6.90402 5.81489
#
# Compressibility (1/GPa) = 0.04677583
#
# Stress axis : x y z
#
# Youngs Moduli (GPa) = 35.56577 17.63346 111.53700
#
# Poissons Ratio (x) = 0.35174 1.05650
# Poissons Ratio (y) = 0.70944 -0.65928
# Poissons Ratio (z) = 0.33689 -0.10423
#
# Static dielectric constant tensor:
#      x y z
#    x 1.860340 0.005090 -0.029220 
#    y 0.005090 1.794860 0.027130 
#    z -0.029220 0.027130 1.848290 
# 
# From -- ./inp_files/398961.got.cif
#   From: 2010.05.17/outbox.cif.g08.bks.cpg/sg2_200_cif.got.tgz:398961.got - 2010.06.03 11:33:40.
