data_PCOD9041599
_publ_section_title
;
Structure prediction by ZEFSAII (Michael W. Deem and Ramdas Pophale) SiO2 
 PCOD9041599
Probable space group: P -1
;
_chemical_formula_sum "Si O2"
_cell_formula_units_Z 16
_cell_length_a 13.005425
_cell_length_b 5.232930
_cell_length_c 15.763997
_cell_angle_alpha 93.069974
_cell_angle_beta 130.041622
_cell_angle_gamma 113.275463
_cell_volume 678.410895
_symmetry_space_group_name_H-M "P -1"
_symmetry_group_IT_number 2
_symmetry_cell_setting 'triclinic'
loop_
_space_group_symop_operation_xyz
x,y,z
-x,-y,-z
loop_
_atom_site_type_symbol
_atom_site_label
_atom_site_fract_x
_atom_site_fract_y
_atom_site_fract_z
Si Si1 0.796662 0.865617 0.022236
Si Si2 0.599737 0.364552 0.016290
Si Si3 0.895201 0.113463 0.624839
Si Si4 0.888498 0.125421 0.442081
Si Si5 0.238540 0.691070 0.746114
Si Si6 0.463428 0.048381 0.180574
Si Si7 0.163577 0.502365 0.106254
Si Si8 0.104985 0.384821 0.263508
O O1 0.774726 0.663946 0.087409
O O2 0.852923 0.755652 0.971105
O O3 0.919093 0.208231 0.128446
O O4 0.628627 0.814414 0.907904
O O5 0.644106 0.206460 0.108928
O O6 0.500000 0.500000 0.000000
O O7 0.549840 0.202201 0.895749
O O8 0.795353 0.013038 0.480427
O O9 0.845843 0.299789 0.660342
O O10 0.073660 0.380725 0.685982
O O11 0.880678 0.836412 0.666483
O O12 0.795978 0.060459 0.302556
O O13 0.000000 0.500000 0.500000
O O14 0.000000 0.000000 0.500000
O O15 0.342707 0.688934 0.720283
O O16 0.333823 0.831772 0.180640
O O17 0.183294 0.433480 0.212915
O O18 0.000000 0.500000 0.000000
#
# Coordination Sequence:
#
# PCOD9041599 Si02
#       8
#     2   2   2   2   2   2   2   2
#     4  11  22  37  57  90 132 168 216 258 311 390
#     4  11  22  35  56  94 135 172 203 250 318 407
#     4  11  24  39  65  96 120 161 219 268 327 373
#     4  10  23  44  65  94 128 166 217 275 327 391
#     4  11  22  39  64  91 132 169 205 265 331 390
#     4  11  24  37  58  93 131 174 210 255 319 395
#     4  11  24  40  60  88 131 175 221 259 311 383
#     4  12  23  39  66  89 126 171 212 266 313 375
#
# _framework density 23.584527999999999
#
# number of rings (size 3 to 8) (size 9 to 14) (size 15 to 20)
#    0.000    1.000    3.750    3.750    3.500    2.000 
#    0.000    0.000    0.000    1.500    0.000    0.000 
#    0.000    0.000    0.000    0.000    0.000    0.000 
#
# Total GULP energy -89096.526778 kJ/mol
# GULP energy per Si atom -5568.532924 kJ/mol
# Density = 2.353085 g / cm^3
# Si number density = 23.584528 Si / 1000 Ang^3
#
#
#
# Elastic Constant Matrix: (Units=GPa)
#
#
# Indices 1 2 3 4 5 6 
#
# 1 111.4602 45.6724 30.8908 -26.2505 -18.8744 -6.7843
# 2 45.6724 98.9127 40.5249 -49.5314 -7.9896 -2.2698
# 3 30.8908 40.5249 88.5948 -45.3450 -21.0433 -6.6894
# 4 -26.2505 -49.5314 -45.3450 50.0664 3.5349 -7.1438
# 5 -18.8744 -7.9896 -21.0433 3.5349 41.8491 -1.0820
# 6 -6.7843 -2.2698 -6.6894 -7.1438 -1.0820 68.0609
#
#
#
# Elastic Compliance Matrix: (Units=1/GPa)
#
#
# Indices 1 2 3 4 5 6 
#
# 1 0.011985 -0.004099 -0.000144 0.001975 0.004418 0.001321
# 2 -0.004099 0.022988 0.004775 0.025216 0.002902 0.003520
# 3 -0.000144 0.004775 0.027924 0.029944 0.012520 0.006231
# 4 0.001975 0.025216 0.029944 0.073734 0.014843 0.011956
# 5 0.004418 0.002902 0.012520 0.014843 0.031582 0.003828
# 6 0.001321 0.003520 0.006231 0.011956 0.003828 0.016870
#
#
# Mechanical properties :
#
#
# Convention : Reuss Voigt Hill
#
# Bulk Modulus (GPa) = 15.63428 59.23821 37.43624
# Shear Modulus (GPa) = 24.34988 44.12058 34.23523
#
# Velocity S-wave (km/s) = 3.21666 4.32990 3.81412
# Velocity P-wave (km/s) = 4.52099 7.08303 5.94174
#
# Compressibility (1/GPa) = 0.06396201
#
# Stress axis : x y z
#
# Youngs Moduli (GPa) = 83.43806 43.50003 35.81184
#
# Poissons Ratio (x) = 0.17830 0.00516
# Poissons Ratio (y) = 0.34199 -0.17101
# Poissons Ratio (z) = 0.01201 -0.20772
#
# Static dielectric constant tensor:
#      x y z
#    x 1.981840 0.099610 0.057440 
#    y 0.099610 2.100550 0.134370 
#    z 0.057440 0.134370 2.181560 
# 
# From -- ./inp_files/510999.got.cif
#   From: 2010.05.17/outbox.cif.g08.bks.cpg/sg2_256_cif.got.tgz:510999.got - 2010.06.03 11:33:40.
