data_PCOD9041470
_publ_section_title
;
Structure prediction by ZEFSAII (Michael W. Deem and Ramdas Pophale) SiO2 
 PCOD9041470
Probable space group: P -1
;
_chemical_formula_sum "Si O2"
_cell_formula_units_Z 14
_cell_length_a 5.387280
_cell_length_b 8.470414
_cell_length_c 13.345994
_cell_angle_alpha 79.324684
_cell_angle_beta 118.318785
_cell_angle_gamma 97.508375
_cell_volume 526.201708
_symmetry_space_group_name_H-M "P -1"
_symmetry_group_IT_number 2
_symmetry_cell_setting 'triclinic'
loop_
_space_group_symop_operation_xyz
x,y,z
-x,-y,-z
loop_
_atom_site_type_symbol
_atom_site_label
_atom_site_fract_x
_atom_site_fract_y
_atom_site_fract_z
Si Si1 0.616506 0.342750 0.237053
Si Si2 0.942618 0.403148 0.717297
Si Si3 0.717336 0.022183 0.222789
Si Si4 0.905657 0.084334 0.856378
Si Si5 0.850670 0.630965 0.018535
Si Si6 0.519826 0.669159 0.575827
Si Si7 0.084165 0.176113 0.538941
O O1 0.438429 0.361317 0.099014
O O2 0.424485 0.281700 0.301879
O O3 0.795350 0.498424 0.299078
O O4 0.810855 0.194532 0.267536
O O5 0.847957 0.219126 0.743338
O O6 0.664341 0.496002 0.625939
O O7 0.095923 0.434128 0.851864
O O8 0.381019 0.010702 0.162302
O O9 0.790281 0.871855 0.324213
O O10 0.846906 0.005794 0.139958
O O11 0.005567 0.191408 0.958352
O O12 0.000000 0.500000 0.000000
O O13 0.693043 0.755250 0.508538
O O14 0.186915 0.715297 0.501370
O O15 0.000000 0.000000 0.500000
#
# Coordination Sequence:
#
# PCOD9041470 Si02
#       7
#     2   2   2   2   2   2   2
#     4  12  24  42  78 104 140 187 243 289 344 429
#     4  10  24  45  71 101 144 185 240 285 341 430
#     4  12  27  47  69 106 149 182 230 303 361 405
#     4  10  28  46  71 102 155 181 225 298 366 410
#     4  10  23  43  78 104 141 189 243 280 354 423
#     4  12  23  41  73 106 129 181 252 288 330 413
#     4  12  25  43  71 103 142 188 237 289 352 422
#
# _framework density 26.605765000000002
#
# number of rings (size 3 to 8) (size 9 to 14) (size 15 to 20)
#    0.857    0.000    4.286    1.714    8.000    1.143 
#    0.000    4.286    0.000    0.000    0.000    0.000 
#    0.000    0.000    0.000    0.000    0.000    0.000 
#
# Total GULP energy -77999.054476 kJ/mol
# GULP energy per Si atom -5571.361034 kJ/mol
# Density = 2.654521 g / cm^3
# Si number density = 26.605765 Si / 1000 Ang^3
#
#
#
# Elastic Constant Matrix: (Units=GPa)
#
#
# Indices 1 2 3 4 5 6 
#
# 1 192.3880 51.2354 49.4381 2.1427 -14.3234 -1.2853
# 2 51.2354 84.4484 -2.5455 -1.3608 6.0750 0.1600
# 3 49.4381 -2.5455 129.7466 -34.7288 12.7419 9.5797
# 4 2.1427 -1.3608 -34.7288 48.7891 -3.7604 13.8287
# 5 -14.3234 6.0750 12.7419 -3.7604 43.8904 6.1568
# 6 -1.2853 0.1600 9.5797 13.8287 6.1568 26.6349
#
#
#
# Elastic Compliance Matrix: (Units=1/GPa)
#
#
# Indices 1 2 3 4 5 6 
#
# 1 0.008539 -0.005738 -0.005518 -0.005351 0.004128 0.004255
# 2 -0.005738 0.015854 0.004325 0.004310 -0.004516 -0.003121
# 3 -0.005518 0.004325 0.014955 0.014152 -0.003826 -0.012134
# 4 -0.005351 0.004310 0.014152 0.038107 0.000354 -0.025241
# 5 0.004128 -0.004516 -0.003826 0.000354 0.026559 -0.004721
# 6 0.004255 -0.003121 -0.012134 -0.025241 -0.004721 0.056329
#
#
# Mechanical properties :
#
#
# Convention : Reuss Voigt Hill
#
# Bulk Modulus (GPa) = 39.23980 66.98211 53.11096
# Shear Modulus (GPa) = 27.36698 44.42656 35.89677
#
# Velocity S-wave (km/s) = 3.21068 4.09076 3.67714
# Velocity P-wave (km/s) = 5.34090 6.89514 6.16718
#
# Compressibility (1/GPa) = 0.02548433
#
# Stress axis : x y z
#
# Youngs Moduli (GPa) = 117.10373 63.07676 66.86892
#
# Poissons Ratio (x) = 0.36197 0.36900
# Poissons Ratio (y) = 0.67200 -0.28921
# Poissons Ratio (z) = 0.64621 -0.27281
#
# Static dielectric constant tensor:
#      x y z
#    x 1.792320 0.083170 -0.226710 
#    y 0.083170 2.128830 0.000950 
#    z -0.226710 0.000950 2.103530 
# 
# From -- ./inp_files/480449.got.cif
#   From: 2010.05.17/outbox.cif.g08.bks.cpg/sg2_241_cif.got.tgz:480449.got - 2010.06.03 11:33:40.
