data_PCOD9041832
_publ_section_title
;
Structure prediction by ZEFSAII (Michael W. Deem and Ramdas Pophale) SiO2 
 PCOD9041832
Probable space group: P -1
;
_chemical_formula_sum "Si O2"
_cell_formula_units_Z 16
_cell_length_a 9.664739
_cell_length_b 13.561540
_cell_length_c 5.471661
_cell_angle_alpha 73.122289
_cell_angle_beta 91.935838
_cell_angle_gamma 77.332247
_cell_volume 665.910645
_symmetry_space_group_name_H-M "P -1"
_symmetry_group_IT_number 2
_symmetry_cell_setting 'triclinic'
loop_
_space_group_symop_operation_xyz
x,y,z
-x,-y,-z
loop_
_atom_site_type_symbol
_atom_site_label
_atom_site_fract_x
_atom_site_fract_y
_atom_site_fract_z
Si Si1 0.499146 0.404337 0.382932
Si Si2 0.663645 0.767920 0.313876
Si Si3 0.149999 0.443370 0.666133
Si Si4 0.763268 0.479944 0.886345
Si Si5 0.382568 0.873572 0.994640
Si Si6 0.742331 0.274313 0.207168
Si Si7 0.119670 0.917839 0.325487
Si Si8 0.186378 0.070487 0.596280
O O1 0.500000 0.500000 0.500000
O O2 0.439850 0.302663 0.535218
O O3 0.398514 0.455975 0.114220
O O4 0.661196 0.352741 0.352930
O O5 0.784420 0.683430 0.232527
O O6 0.545049 0.857366 0.101681
O O7 0.754167 0.824527 0.460894
O O8 0.234454 0.479505 0.418732
O O9 0.000000 0.500000 0.500000
O O10 0.152434 0.484981 0.910545
O O11 0.800708 0.353008 0.980074
O O12 0.254801 0.881944 0.179809
O O13 0.375087 0.771440 0.907481
O O14 0.320069 0.977111 0.755339
O O15 0.851922 0.174697 0.398629
O O16 0.136829 0.027207 0.371259
O O17 0.046069 0.074511 0.757480
#
# Coordination Sequence:
#
# PCOD9041832 Si02
#       8
#     2   2   2   2   2   2   2   2
#     4  11  22  43  69 104 144 188 240 298 359 433
#     4  11  23  42  70 101 139 183 234 297 362 423
#     4  11  26  46  65 103 152 191 241 291 366 433
#     4  11  24  41  69  99 141 189 242 293 346 431
#     4  11  22  42  68 102 131 179 237 295 364 428
#     4  11  22  38  70  95 135 179 238 284 363 427
#     4  10  23  44  67  96 137 178 232 293 358 441
#     4  10  24  44  66 100 135 178 235 291 363 435
#
# _framework density 24.027248
#
# number of rings (size 3 to 8) (size 9 to 14) (size 15 to 20)
#    0.000    1.250    1.250    4.500    3.500    0.500 
#    6.750    0.000    0.000    0.000    0.000    0.000 
#    0.000    0.000    0.000    0.000    0.000    0.000 
#
# Total GULP energy -89150.034488 kJ/mol
# GULP energy per Si atom -5571.877155 kJ/mol
# Density = 2.397256 g / cm^3
# Si number density = 24.027248 Si / 1000 Ang^3
#
#
#
# Elastic Constant Matrix: (Units=GPa)
#
#
# Indices 1 2 3 4 5 6 
#
# 1 98.2355 36.1417 15.9926 11.0129 33.5476 -13.8386
# 2 36.1417 125.9106 24.3263 18.5804 9.1367 12.6960
# 3 15.9926 24.3263 52.7486 13.3955 21.0903 10.5208
# 4 11.0129 18.5804 13.3955 27.5739 -2.9643 3.2273
# 5 33.5476 9.1367 21.0903 -2.9643 41.5058 -2.1116
# 6 -13.8386 12.6960 10.5208 3.2273 -2.1116 30.0797
#
#
#
# Elastic Compliance Matrix: (Units=1/GPa)
#
#
# Indices 1 2 3 4 5 6 
#
# 1 0.019295 -0.004596 0.003221 -0.009048 -0.016383 0.009511
# 2 -0.004596 0.010591 -0.002483 -0.003254 0.002147 -0.005216
# 3 0.003221 -0.002483 0.033532 -0.017103 -0.020765 -0.008821
# 4 -0.009048 -0.003254 -0.017103 0.052698 0.020432 -0.001027
# 5 -0.016383 0.002147 -0.020765 0.020432 0.048875 0.000059
# 6 0.009511 -0.005216 -0.008821 -0.001027 0.000059 0.043022
#
#
# Mechanical properties :
#
#
# Convention : Reuss Voigt Hill
#
# Bulk Modulus (GPa) = 17.95260 47.75732 32.85496
# Shear Modulus (GPa) = 21.34047 33.19416 27.26732
#
# Velocity S-wave (km/s) = 2.98346 3.72091 3.37241
# Velocity P-wave (km/s) = 4.39955 6.19514 5.37289
#
# Compressibility (1/GPa) = 0.05570224
#
# Stress axis : x y z
#
# Youngs Moduli (GPa) = 51.82683 94.41666 29.82267
#
# Poissons Ratio (x) = 0.43391 -0.09604
# Poissons Ratio (y) = 0.23818 0.07404
# Poissons Ratio (z) = -0.16691 0.23441
#
# Static dielectric constant tensor:
#      x y z
#    x -4.015400 2.114940 -0.004560 
#    y 2.114940 1.188660 -0.040580 
#    z -0.004560 -0.040580 2.118310 
# 
# From -- ./inp_files/66425.got.cif
#   From: 2010.05.17/outbox.cif.g08.bks.cpg/sg2_34_cif.got.tgz:66425.got - 2010.06.03 11:33:40.
