data_PCOD9041684
_publ_section_title
;
Structure prediction by ZEFSAII (Michael W. Deem and Ramdas Pophale) SiO2 
 PCOD9041684
Probable space group: P -1
;
_chemical_formula_sum "Si O2"
_cell_formula_units_Z 12
_cell_length_a 7.780534
_cell_length_b 16.501004
_cell_length_c 13.924208
_cell_angle_alpha 25.527693
_cell_angle_beta 61.864605
_cell_angle_gamma 47.311137
_cell_volume 507.730529
_symmetry_space_group_name_H-M "P -1"
_symmetry_group_IT_number 2
_symmetry_cell_setting 'triclinic'
loop_
_space_group_symop_operation_xyz
x,y,z
-x,-y,-z
loop_
_atom_site_type_symbol
_atom_site_label
_atom_site_fract_x
_atom_site_fract_y
_atom_site_fract_z
Si Si1 0.069670 0.244054 0.293137
Si Si2 0.409579 0.692216 0.732134
Si Si3 0.829088 0.453255 0.326349
Si Si4 0.577750 0.556887 0.631562
Si Si5 0.432896 0.019844 0.108669
Si Si6 0.993843 0.788230 0.258232
O O1 0.836815 0.258931 0.301675
O O2 0.049374 0.272760 0.382916
O O3 0.322602 0.959772 0.498707
O O4 0.000000 0.500000 0.000000
O O5 0.612686 0.560739 0.731099
O O6 0.500000 0.500000 0.000000
O O7 0.560606 0.548673 0.247779
O O8 0.873560 0.325444 0.552658
O O9 0.785675 0.698473 0.099572
O O10 0.374988 0.844688 0.339980
O O11 0.835765 0.417703 0.649875
O O12 0.702179 0.899594 0.219116
O O13 0.500000 0.000000 0.000000
O O14 0.000000 0.000000 0.000000
#
# Coordination Sequence:
#
# PCOD9041684 Si02
#       6
#     2   2   2   2   2   2
#     4  10  23  44  66  94 126 166 214 260 313 370
#     4  10  24  43  65  94 126 167 213 261 311 370
#     4  11  24  42  65  92 129 164 204 262 309 370
#     4  11  23  43  63  92 130 163 207 259 308 373
#     4  12  24  41  62  94 128 162 209 252 311 378
#     4  12  24  40  64  94 125 167 205 251 321 371
#
# _framework density 23.634582999999999
#
# number of rings (size 3 to 8) (size 9 to 14) (size 15 to 20)
#    0.000    1.000    3.333    3.000    2.333    2.000 
#    3.000    0.000    0.000    0.000    0.000    0.000 
#    0.000    0.000    0.000    0.000    0.000    0.000 
#
# Total GULP energy -67129.486493 kJ/mol
# GULP energy per Si atom -5594.123874 kJ/mol
# Density = 2.358079 g / cm^3
# Si number density = 23.634583 Si / 1000 Ang^3
#
#
#
# Elastic Constant Matrix: (Units=GPa)
#
#
# Indices 1 2 3 4 5 6 
#
# 1 46.8790 30.9314 7.0422 -20.6413 -5.8354 1.3258
# 2 30.9314 189.9333 74.4312 10.6941 8.0676 37.9471
# 3 7.0422 74.4312 139.8481 -4.1749 -25.4852 26.9825
# 4 -20.6413 10.6941 -4.1749 38.1384 8.9722 -5.7432
# 5 -5.8354 8.0676 -25.4852 8.9722 42.9570 -3.1244
# 6 1.3258 37.9471 26.9825 -5.7432 -3.1244 28.2816
#
#
#
# Elastic Compliance Matrix: (Units=1/GPa)
#
#
# Indices 1 2 3 4 5 6 
#
# 1 0.043830 -0.014670 0.003554 0.029954 0.006088 0.020994
# 2 -0.014670 0.013941 -0.004944 -0.013508 -0.005938 -0.016700
# 3 0.003554 -0.004944 0.011721 0.002282 0.007641 -0.003408
# 4 0.029954 -0.013508 0.002282 0.050367 -0.000764 0.024687
# 5 0.006088 -0.005938 0.007641 -0.000764 0.030174 0.003570
# 6 0.020994 -0.016700 -0.003408 0.024687 0.003570 0.065440
#
#
# Mechanical properties :
#
#
# Convention : Reuss Voigt Hill
#
# Bulk Modulus (GPa) = 26.75857 66.82999 46.79428
# Shear Modulus (GPa) = 19.22697 39.49244 29.35970
#
# Velocity S-wave (km/s) = 2.85530 4.09217 3.52836
# Velocity P-wave (km/s) = 4.71346 7.11798 6.03665
#
# Compressibility (1/GPa) = 0.03737121
#
# Stress axis : x y z
#
# Youngs Moduli (GPa) = 22.81522 71.73149 85.31587
#
# Poissons Ratio (x) = 1.05232 -0.30320
# Poissons Ratio (y) = 0.33470 0.42182
# Poissons Ratio (z) = -0.08108 0.35466
#
# Static dielectric constant tensor:
#      x y z
#    x -1.880920 -1.358800 2.513110 
#    y -1.358800 1.439160 0.857640 
#    z 2.513110 0.857640 0.217720 
# 
# From -- ./inp_files/27369.got.cif
#   From: 2010.05.17/outbox.cif.g08.bks.cpg/sg2_14_cif.got.tgz:27369.got - 2010.06.03 11:33:40.
