data_PCOD9041598
_publ_section_title
;
Structure prediction by ZEFSAII (Michael W. Deem and Ramdas Pophale) SiO2 
 PCOD9041598
Probable space group: P -1
;
_chemical_formula_sum "Si O2"
_cell_formula_units_Z 14
_cell_length_a 9.039697
_cell_length_b 8.845253
_cell_length_c 13.995182
_cell_angle_alpha 36.320993
_cell_angle_beta 73.837410
_cell_angle_gamma 67.763501
_cell_volume 612.799455
_symmetry_space_group_name_H-M "P -1"
_symmetry_group_IT_number 2
_symmetry_cell_setting 'triclinic'
loop_
_space_group_symop_operation_xyz
x,y,z
-x,-y,-z
loop_
_atom_site_type_symbol
_atom_site_label
_atom_site_fract_x
_atom_site_fract_y
_atom_site_fract_z
Si Si1 0.139254 0.545182 0.381308
Si Si2 0.697873 0.058503 0.342166
Si Si3 0.147895 0.765160 0.962105
Si Si4 0.585657 0.730547 0.842141
Si Si5 0.174557 0.790399 0.567433
Si Si6 0.366361 0.770812 0.356139
Si Si7 0.102907 0.238891 0.852291
O O1 0.251461 0.704445 0.330104
O O2 0.000000 0.500000 0.500000
O O3 0.049543 0.670307 0.238355
O O4 0.247337 0.252444 0.491770
O O5 0.810908 0.133067 0.200338
O O6 0.517299 0.136325 0.297737
O O7 0.726361 0.197790 0.361905
O O8 0.200865 0.964261 0.926215
O O9 0.237506 0.455174 0.112281
O O10 0.967105 0.788216 0.016563
O O11 0.571514 0.966430 0.801440
O O12 0.500000 0.500000 0.000000
O O13 0.257393 0.860550 0.423210
O O14 0.174715 0.485587 0.710095
O O15 0.000000 0.000000 0.500000
O O16 0.500000 0.500000 0.500000
#
# Coordination Sequence:
#
# PCOD9041598 Si02
#       7
#     2   2   2   2   2   2   2
#     4  12  21  42  72  99 137 181 236 293 349 402
#     4  11  22  42  69  96 135 185 226 290 347 410
#     4  10  23  44  65  93 140 187 224 282 357 412
#     4  10  24  45  66  95 143 184 226 284 353 423
#     4  12  24  40  70 106 135 178 240 294 342 410
#     4  12  25  43  73 105 138 183 240 290 351 413
#     4  11  23  42  67 100 139 179 236 291 337 423
#
# _framework density 22.845973999999998
#
# number of rings (size 3 to 8) (size 9 to 14) (size 15 to 20)
#    0.000    0.857    5.714    0.857    2.000    2.286 
#   10.286    0.714    0.000    0.000    0.000    0.000 
#    0.000    0.000    0.000    0.000    0.000    0.000 
#
# Total GULP energy -78198.934094 kJ/mol
# GULP energy per Si atom -5585.638150 kJ/mol
# Density = 2.279398 g / cm^3
# Si number density = 22.845974 Si / 1000 Ang^3
#
#
#
# Elastic Constant Matrix: (Units=GPa)
#
#
# Indices 1 2 3 4 5 6 
#
# 1 77.6565 22.3461 20.4680 -13.8938 3.5372 37.1082
# 2 22.3461 84.7595 32.5678 -20.8673 1.7916 21.3202
# 3 20.4680 32.5678 80.0170 -32.0414 -5.3516 9.6337
# 4 -13.8938 -20.8673 -32.0414 60.0046 -2.0738 -6.9151
# 5 3.5372 1.7916 -5.3516 -2.0738 40.6310 -3.6873
# 6 37.1082 21.3202 9.6337 -6.9151 -3.6873 52.9947
#
#
#
# Elastic Compliance Matrix: (Units=1/GPa)
#
#
# Indices 1 2 3 4 5 6 
#
# 1 0.020892 -0.000369 -0.003241 0.001250 -0.003433 -0.013967
# 2 -0.000369 0.015582 -0.004932 0.002072 -0.001649 -0.004958
# 3 -0.003241 -0.004932 0.018405 0.007733 0.003515 0.002162
# 4 0.001250 0.002072 0.007733 0.021856 0.001922 -0.000129
# 5 -0.003433 -0.001649 0.003515 0.001922 0.025951 0.004485
# 6 -0.013967 -0.004958 0.002162 -0.000129 0.004485 0.030547
#
#
# Mechanical properties :
#
#
# Convention : Reuss Voigt Hill
#
# Bulk Modulus (GPa) = 26.45803 43.68852 35.07327
# Shear Modulus (GPa) = 30.69061 41.86279 36.27670
#
# Velocity S-wave (km/s) = 3.66918 4.28529 3.98915
# Velocity P-wave (km/s) = 5.43661 6.60678 6.05005
#
# Compressibility (1/GPa) = 0.03779571
#
# Stress axis : x y z
#
# Youngs Moduli (GPa) = 47.86529 64.17501 54.33301
#
# Poissons Ratio (x) = 0.02368 0.17611
# Poissons Ratio (y) = 0.01766 0.26794
# Poissons Ratio (z) = 0.15515 0.31648
#
# Static dielectric constant tensor:
#      x y z
#    x 1.953260 -0.053410 -0.078780 
#    y -0.053410 1.879200 -0.029490 
#    z -0.078780 -0.029490 1.968530 
# 
# From -- ./inp_files/456624.got.cif
#   From: 2010.05.17/outbox.cif.g08.bks.cpg/sg2_229_cif.got.tgz:456624.got - 2010.06.03 11:33:40.
