data_PCOD9041687
_publ_section_title
;
Structure prediction by ZEFSAII (Michael W. Deem and Ramdas Pophale) SiO2 
 PCOD9041687
Probable space group: P -1
;
_chemical_formula_sum "Si O2"
_cell_formula_units_Z 12
_cell_length_a 14.957027
_cell_length_b 9.524947
_cell_length_c 10.623983
_cell_angle_alpha 54.198481
_cell_angle_beta 152.393530
_cell_angle_gamma 133.416799
_cell_volume 508.152257
_symmetry_space_group_name_H-M "P -1"
_symmetry_group_IT_number 2
_symmetry_cell_setting 'triclinic'
loop_
_space_group_symop_operation_xyz
x,y,z
-x,-y,-z
loop_
_atom_site_type_symbol
_atom_site_label
_atom_site_fract_x
_atom_site_fract_y
_atom_site_fract_z
Si Si1 0.700954 0.937951 0.435752
Si Si2 0.741822 0.714402 0.819390
Si Si3 0.248261 0.657949 0.980778
Si Si4 0.129005 0.704090 0.398548
Si Si5 0.953258 0.824089 0.628973
Si Si6 0.559525 0.438253 0.240036
O O1 0.651762 0.835199 0.564220
O O2 0.893606 0.897410 0.643922
O O3 0.779378 0.164751 0.433041
O O4 0.480811 0.823279 0.143168
O O5 0.633413 0.658697 0.851022
O O6 0.001042 0.195962 0.886849
O O7 0.702943 0.511479 0.810572
O O8 0.057979 0.521004 0.717044
O O9 0.142596 0.759286 0.886130
O O10 0.326430 0.698009 0.575247
O O11 0.739309 0.633670 0.423441
O O12 0.000000 0.000000 0.500000
O O13 0.500000 0.500000 0.000000
#
# Coordination Sequence:
#
# PCOD9041687 Si02
#       6
#     2   2   2   2   2   2
#     4  12  23  43  70  94 129 168 211 264 317 379
#     4  10  23  44  66  94 130 166 212 262 319 375
#     4   9  23  42  63  97 129 166 210 263 317 376
#     4   9  24  41  64  99 125 168 213 260 316 378
#     4  11  26  42  64  98 127 166 218 262 314 380
#     4  11  25  44  65  92 132 170 209 265 319 373
#
# _framework density 23.614968000000001
#
# number of rings (size 3 to 8) (size 9 to 14) (size 15 to 20)
#    1.000    0.667    1.667    1.000    4.667    5.333 
#    0.000    0.000    0.000    0.000    0.000    0.000 
#    0.000    0.000    0.000    0.000    0.000    0.000 
#
# Total GULP energy -66893.073504 kJ/mol
# GULP energy per Si atom -5574.422792 kJ/mol
# Density = 2.356122 g / cm^3
# Si number density = 23.614968 Si / 1000 Ang^3
#
#
#
# Elastic Constant Matrix: (Units=GPa)
#
#
# Indices 1 2 3 4 5 6 
#
# 1 116.2512 24.0649 31.7272 -13.5625 27.9299 -20.1537
# 2 24.0649 132.4481 40.4845 -16.1470 0.5288 -21.9628
# 3 31.7272 40.4845 101.9719 -20.6924 20.0365 -6.2911
# 4 -13.5625 -16.1470 -20.6924 46.9286 -3.0731 -11.5817
# 5 27.9299 0.5288 20.0365 -3.0731 40.3470 -21.5038
# 6 -20.1537 -21.9628 -6.2911 -11.5817 -21.5038 46.0335
#
#
#
# Elastic Compliance Matrix: (Units=1/GPa)
#
#
# Indices 1 2 3 4 5 6 
#
# 1 0.011213 -0.000917 -0.001360 0.002513 -0.005675 0.002267
# 2 -0.000917 0.010966 -0.004126 0.004396 0.007640 0.008942
# 3 -0.001360 -0.004126 0.013701 0.002898 -0.007414 -0.003426
# 4 0.002513 0.004396 0.002898 0.028620 0.006253 0.013716
# 5 -0.005675 0.007640 -0.007414 0.006253 0.044856 0.022675
# 6 0.002267 0.008942 -0.003426 0.013716 0.022675 0.040557
#
#
# Mechanical properties :
#
#
# Convention : Reuss Voigt Hill
#
# Bulk Modulus (GPa) = 43.33697 60.35829 51.84763
# Shear Modulus (GPa) = 29.34108 43.62145 36.48126
#
# Velocity S-wave (km/s) = 3.52870 4.30256 3.93470
# Velocity P-wave (km/s) = 5.91554 7.09208 6.53036
#
# Compressibility (1/GPa) = 0.02307499
#
# Stress axis : x y z
#
# Youngs Moduli (GPa) = 89.18543 91.19071 72.98611
#
# Poissons Ratio (x) = 0.08358 0.09925
# Poissons Ratio (y) = 0.08174 0.30114
# Poissons Ratio (z) = 0.12128 0.37626
#
# Static dielectric constant tensor:
#      x y z
#    x 1.922800 -0.018830 -0.031320 
#    y -0.018830 1.949370 0.061720 
#    z -0.031320 0.061720 1.925410 
# 
# From -- ./inp_files/447005.got.cif
#   From: 2010.05.17/outbox.cif.g08.bks.cpg/sg2_224_cif.got.tgz:447005.got - 2010.06.03 11:33:40.
