data_PCOD9041982
_publ_section_title
;
Structure prediction by ZEFSAII (Michael W. Deem and Ramdas Pophale) SiO2 
 PCOD9041982
Probable space group: P -1
;
_chemical_formula_sum "Si O2"
_cell_formula_units_Z 16
_cell_length_a 11.535068
_cell_length_b 11.783374
_cell_length_c 9.912417
_cell_angle_alpha 81.733375
_cell_angle_beta 50.689858
_cell_angle_gamma 120.589631
_cell_volume 640.948767
_symmetry_space_group_name_H-M "P -1"
_symmetry_group_IT_number 2
_symmetry_cell_setting 'triclinic'
loop_
_space_group_symop_operation_xyz
x,y,z
-x,-y,-z
loop_
_atom_site_type_symbol
_atom_site_label
_atom_site_fract_x
_atom_site_fract_y
_atom_site_fract_z
Si Si1 0.533757 0.707473 0.908073
Si Si2 0.328517 0.879043 0.418940
Si Si3 0.131270 0.530715 0.730350
Si Si4 0.189541 0.328126 0.624041
Si Si5 0.116132 0.275577 0.286677
Si Si6 0.272567 0.307746 0.872842
Si Si7 0.698683 0.930575 0.003454
Si Si8 0.400469 0.760396 0.730165
O O1 0.773571 0.774030 0.726545
O O2 0.488684 0.738396 0.793516
O O3 0.309397 0.489470 0.142009
O O4 0.559508 0.813459 0.990710
O O5 0.157296 0.674194 0.631520
O O6 0.554218 0.948007 0.176439
O O7 0.152456 0.847106 0.458757
O O8 0.427278 0.026630 0.432469
O O9 0.148518 0.440051 0.626556
O O10 0.356751 0.659971 0.645876
O O11 0.871575 0.360426 0.018700
O O12 0.177932 0.286751 0.799055
O O13 0.461264 0.476747 0.347962
O O14 0.974948 0.132808 0.745364
O O15 0.124294 0.262042 0.119587
O O16 0.294264 0.183038 0.894566
#
# Coordination Sequence:
#
# PCOD9041982 Si02
#       8
#     2   2   2   2   2   2   2   2
#     4  10  23  48  65  95 139 183 227 269 333 404
#     4  12  24  43  70 105 133 174 223 284 340 392
#     4  11  23  43  69 102 135 173 224 283 335 395
#     4  11  22  43  69 100 133 187 224 273 344 393
#     4  10  23  46  70  98 135 182 223 277 337 396
#     4  10  23  44  68  96 141 178 227 281 328 403
#     4  11  24  44  68 101 139 174 228 277 334 409
#     4  11  24  43  68 100 138 176 224 278 333 405
#
# _framework density 24.962993000000001
#
# number of rings (size 3 to 8) (size 9 to 14) (size 15 to 20)
#    0.000    1.250    3.750    1.500    1.750    2.500 
#   20.250    0.000    0.000    0.000    0.000    0.000 
#    0.000    0.000    0.000    0.000    0.000    0.000 
#
# Total GULP energy -89614.604028 kJ/mol
# GULP energy per Si atom -5600.912752 kJ/mol
# Density = 2.490618 g / cm^3
# Si number density = 24.962993 Si / 1000 Ang^3
#
#
#
# Elastic Constant Matrix: (Units=GPa)
#
#
# Indices 1 2 3 4 5 6 
#
# 1 108.3251 21.0535 6.3815 -3.6483 -7.6383 6.0554
# 2 21.0535 100.8680 35.0621 -26.2089 -2.0350 0.8683
# 3 6.3815 35.0621 85.1948 -15.1549 -18.4858 -5.4010
# 4 -3.6483 -26.2089 -15.1549 33.2077 7.8001 -3.4371
# 5 -7.6383 -2.0350 -18.4858 7.8001 26.4146 3.0036
# 6 6.0554 0.8683 -5.4010 -3.4371 3.0036 30.1593
#
#
#
# Elastic Compliance Matrix: (Units=1/GPa)
#
#
# Indices 1 2 3 4 5 6 
#
# 1 0.010085 -0.002776 0.000776 -0.001943 0.004096 -0.002435
# 2 -0.002776 0.015050 -0.005473 0.010775 -0.006774 0.001047
# 3 0.000776 -0.005473 0.016600 0.000988 0.010900 0.002002
# 4 -0.001943 0.010775 0.000988 0.042392 -0.012276 0.006311
# 5 0.004096 -0.006774 0.010900 -0.012276 0.050352 -0.005089
# 6 -0.002435 0.001047 0.002002 0.006311 -0.005089 0.035201
#
#
# Mechanical properties :
#
#
# Convention : Reuss Voigt Hill
#
# Bulk Modulus (GPa) = 37.32887 46.59799 41.96343
# Shear Modulus (GPa) = 25.83263 33.41571 29.62417
#
# Velocity S-wave (km/s) = 3.22038 3.66267 3.44862
# Velocity P-wave (km/s) = 5.36786 6.04932 5.71875
#
# Compressibility (1/GPa) = 0.02678892
#
# Stress axis : x y z
#
# Youngs Moduli (GPa) = 99.15927 66.44701 60.24139
#
# Poissons Ratio (x) = 0.18445 -0.04673
# Poissons Ratio (y) = 0.27525 0.32968
# Poissons Ratio (z) = -0.07692 0.36364
#
# Static dielectric constant tensor:
#      x y z
#    x 1.986570 0.014240 0.049990 
#    y 0.014240 1.947630 0.030820 
#    z 0.049990 0.030820 1.959660 
# 
# From -- ./inp_files/428098.got.cif
#   From: 2010.05.17/outbox.cif.g08.bks.cpg/sg2_215_cif.got.tgz:428098.got - 2010.06.03 11:33:40.
