data_PCOD9041305
_publ_section_title
;
Structure prediction by ZEFSAII (Michael W. Deem and Ramdas Pophale) SiO2 
 PCOD9041305
Probable space group: P -1
;
_chemical_formula_sum "Si O2"
_cell_formula_units_Z 16
_cell_length_a 8.869919
_cell_length_b 23.037559
_cell_length_c 11.610368
_cell_angle_alpha 150.126721
_cell_angle_beta 49.278884
_cell_angle_gamma 142.242416
_cell_volume 719.280497
_symmetry_space_group_name_H-M "P -1"
_symmetry_group_IT_number 2
_symmetry_cell_setting 'triclinic'
loop_
_space_group_symop_operation_xyz
x,y,z
-x,-y,-z
loop_
_atom_site_type_symbol
_atom_site_label
_atom_site_fract_x
_atom_site_fract_y
_atom_site_fract_z
Si Si1 0.103649 0.164565 0.904299
Si Si2 0.228323 0.094751 0.957811
Si Si3 0.089986 0.803305 0.449981
Si Si4 0.781422 0.571044 0.023059
Si Si5 0.584466 0.710505 0.609308
Si Si6 0.426746 0.101185 0.265073
Si Si7 0.877092 0.575477 0.727205
Si Si8 0.398010 0.723237 0.288231
O O1 0.172081 0.162141 0.998038
O O2 0.332689 0.215226 0.793065
O O3 0.031315 0.273839 0.113388
O O4 0.855389 0.005498 0.733132
O O5 0.251036 0.977010 0.682337
O O6 0.449640 0.223694 0.146156
O O7 0.000000 0.000000 0.000000
O O8 0.253706 0.753082 0.321498
O O9 0.944598 0.726052 0.271217
O O10 0.851313 0.742782 0.545482
O O11 0.500000 0.500000 0.000000
O O12 0.908407 0.591222 0.874195
O O13 0.750419 0.447098 0.904713
O O14 0.570904 0.798807 0.663094
O O15 0.402492 0.542962 0.379916
O O16 0.580165 0.198635 0.467007
O O17 0.500000 0.000000 0.000000
O O18 0.000000 0.500000 0.500000
#
# Coordination Sequence:
#
# PCOD9041305 Si02
#       8
#     2   2   2   2   2   2   2   2
#     4  12  26  44  70 112 143 183 247 303 351 424
#     4  10  23  43  72  99 145 186 233 292 363 413
#     4  11  23  42  72 104 139 192 239 283 362 433
#     4  12  23  47  73  98 151 195 230 294 369 428
#     4  11  22  47  72  98 145 194 231 291 363 427
#     4  12  24  44  75 103 143 196 244 285 359 436
#     4  12  27  44  73 108 141 186 245 298 355 429
#     4  12  26  42  73 110 145 188 243 298 358 428
#
# _framework density 22.244451999999999
#
# number of rings (size 3 to 8) (size 9 to 14) (size 15 to 20)
#    0.000    0.500    6.250    2.250    1.750    3.000 
#    0.000    0.000    0.000    0.000    0.000    0.000 
#    0.000    0.000    0.000    0.000    0.000    0.000 
#
# Total GULP energy -89374.525076 kJ/mol
# GULP energy per Si atom -5585.907817 kJ/mol
# Density = 2.219382 g / cm^3
# Si number density = 22.244452 Si / 1000 Ang^3
#
#
#
# Elastic Constant Matrix: (Units=GPa)
#
#
# Indices 1 2 3 4 5 6 
#
# 1 67.5441 13.9609 25.0397 -13.8368 -5.0864 -4.9523
# 2 13.9609 46.8643 17.5154 6.0541 -0.4639 -22.0367
# 3 25.0397 17.5154 124.7173 -15.4829 27.6075 -7.3073
# 4 -13.8368 6.0541 -15.4829 23.5050 7.2857 6.5873
# 5 -5.0864 -0.4639 27.6075 7.2857 44.7361 3.2230
# 6 -4.9523 -22.0367 -7.3073 6.5873 3.2230 30.9024
#
#
#
# Elastic Compliance Matrix: (Units=1/GPa)
#
#
# Indices 1 2 3 4 5 6 
#
# 1 0.020617 -0.012491 -0.000969 0.017179 0.000704 -0.009568
# 2 -0.012491 0.054440 -0.009983 -0.042744 0.009197 0.042611
# 3 -0.000969 -0.009983 0.013630 0.016106 -0.010790 -0.006359
# 4 0.017179 -0.042744 0.016106 0.092234 -0.020465 -0.041446
# 5 0.000704 0.009197 -0.010790 -0.020465 0.032151 0.005129
# 6 -0.009568 0.042611 -0.006359 -0.041446 0.005129 0.068009
#
#
# Mechanical properties :
#
#
# Convention : Reuss Voigt Hill
#
# Bulk Modulus (GPa) = 23.92290 39.12862 31.52576
# Shear Modulus (GPa) = 14.62413 32.00268 23.31341
#
# Velocity S-wave (km/s) = 2.56682 3.79711 3.24088
# Velocity P-wave (km/s) = 4.42297 6.07063 5.31108
#
# Compressibility (1/GPa) = 0.04180094
#
# Stress axis : x y z
#
# Youngs Moduli (GPa) = 48.50414 18.36878 73.36743
#
# Poissons Ratio (x) = 0.22944 0.07108
# Poissons Ratio (y) = 0.60586 0.73245
# Poissons Ratio (z) = 0.04699 0.18338
#
# Static dielectric constant tensor:
#      x y z
#    x 1.978250 0.234520 0.070490 
#    y 0.234520 2.069160 0.059490 
#    z 0.070490 0.059490 1.883480 
# 
# From -- ./inp_files/406754.got.cif
#   From: 2010.05.17/outbox.cif.g08.bks.cpg/sg2_204_cif.got.tgz:406754.got - 2010.06.03 11:33:40.
