data_PCOD9041390
_publ_section_title
;
Structure prediction by ZEFSAII (Michael W. Deem and Ramdas Pophale) SiO2 
 PCOD9041390
Probable space group: P -1
;
_chemical_formula_sum "Si O2"
_cell_formula_units_Z 12
_cell_length_a 15.311152
_cell_length_b 9.715322
_cell_length_c 8.206174
_cell_angle_alpha 108.572352
_cell_angle_beta 79.811786
_cell_angle_gamma 39.550909
_cell_volume 526.255486
_symmetry_space_group_name_H-M "P -1"
_symmetry_group_IT_number 2
_symmetry_cell_setting 'triclinic'
loop_
_space_group_symop_operation_xyz
x,y,z
-x,-y,-z
loop_
_atom_site_type_symbol
_atom_site_label
_atom_site_fract_x
_atom_site_fract_y
_atom_site_fract_z
Si Si1 0.480569 0.816654 0.577767
Si Si2 0.347793 0.196006 0.267510
Si Si3 0.169455 0.862071 0.928817
Si Si4 0.112229 0.272393 0.032081
Si Si5 0.226976 0.111791 0.457992
Si Si6 0.940074 0.941903 0.598428
O O1 0.574116 0.833158 0.607048
O O2 0.647704 0.459759 0.351494
O O3 0.332942 0.995366 0.839098
O O4 0.350207 0.987014 0.524831
O O5 0.324627 0.058524 0.259650
O O6 0.143379 0.569046 0.435414
O O7 0.500000 0.000000 0.000000
O O8 0.108490 0.106373 0.976539
O O9 0.177478 0.852889 0.119462
O O10 0.000000 0.000000 0.000000
O O11 0.000000 0.500000 0.000000
O O12 0.986946 0.512578 0.311774
O O13 0.191734 0.990206 0.419391
O O14 0.000000 0.000000 0.500000
#
# Coordination Sequence:
#
# PCOD9041390 Si02
#       6
#     2   2   2   2   2   2
#     4  11  25  44  77 106 142 186 241 285 366 426
#     4  12  26  47  75 106 143 186 244 296 354 422
#     4  12  25  46  71 102 150 187 237 293 360 427
#     4  10  23  43  74 103 139 183 241 293 352 419
#     4  11  25  50  72 105 144 189 240 296 355 425
#     4  12  29  47  71 104 150 192 235 296 361 418
#
# _framework density 22.802612
#
# number of rings (size 3 to 8) (size 9 to 14) (size 15 to 20)
#    0.000    0.667    3.333    2.500    9.333    3.333 
#    0.000    0.000    0.000    0.000    0.000    0.000 
#    0.000    0.000    0.000    0.000    0.000    0.000 
#
# Total GULP energy -67033.095250 kJ/mol
# GULP energy per Si atom -5586.091271 kJ/mol
# Density = 2.275071 g / cm^3
# Si number density = 22.802612 Si / 1000 Ang^3
#
#
#
# Elastic Constant Matrix: (Units=GPa)
#
#
# Indices 1 2 3 4 5 6 
#
# 1 187.0269 77.9729 15.7748 -7.0611 8.3769 17.5199
# 2 77.9729 85.4530 24.3288 -14.6591 -1.6784 8.2043
# 3 15.7748 24.3288 114.7021 -4.9144 -2.7298 10.7083
# 4 -7.0611 -14.6591 -4.9144 28.6137 3.1879 -1.8379
# 5 8.3769 -1.6784 -2.7298 3.1879 32.6403 -9.6558
# 6 17.5199 8.2043 10.7083 -1.8379 -9.6558 54.5128
#
#
#
# Elastic Compliance Matrix: (Units=1/GPa)
#
#
# Indices 1 2 3 4 5 6 
#
# 1 0.009263 -0.008796 0.000659 -0.001895 -0.003309 -0.002433
# 2 -0.008796 0.022016 -0.003122 0.008341 0.002569 0.000863
# 3 0.000659 -0.003122 0.009442 0.000085 -0.000021 -0.001598
# 4 -0.001895 0.008341 0.000085 0.039096 -0.002852 0.000150
# 5 -0.003309 0.002569 -0.000021 -0.002852 0.033841 0.006579
# 6 -0.002433 0.000863 -0.001598 0.000150 0.006579 0.020480
#
#
# Mechanical properties :
#
#
# Convention : Reuss Voigt Hill
#
# Bulk Modulus (GPa) = 54.93777 69.25946 62.09862
# Shear Modulus (GPa) = 30.72669 41.09375 35.91022
#
# Velocity S-wave (km/s) = 3.67482 4.24978 3.97272
# Velocity P-wave (km/s) = 6.49237 7.38378 6.95238
#
# Compressibility (1/GPa) = 0.01820241
#
# Stress axis : x y z
#
# Youngs Moduli (GPa) = 107.95579 45.42141 105.90904
#
# Poissons Ratio (x) = 0.39954 -0.06979
# Poissons Ratio (y) = 0.94962 0.33065
# Poissons Ratio (z) = -0.07114 0.14181
#
# Static dielectric constant tensor:
#      x y z
#    x 1.868960 -0.037860 -0.038040 
#    y -0.037860 1.889900 -0.083360 
#    z -0.038040 -0.083360 1.952810 
# 
# From -- ./inp_files/157554.got.cif
#   From: 2010.05.17/outbox.cif.g08.bks.cpg/sg2_79_cif.got.tgz:157554.got - 2010.06.03 11:33:40.
