data_PCOD9041808
_publ_section_title
;
Structure prediction by ZEFSAII (Michael W. Deem and Ramdas Pophale) SiO2 
 PCOD9041808
Probable space group: P -1
;
_chemical_formula_sum "Si O2"
_cell_formula_units_Z 16
_cell_length_a 14.908444
_cell_length_b 11.314800
_cell_length_c 12.800661
_cell_angle_alpha 59.021948
_cell_angle_beta 140.161878
_cell_angle_gamma 91.269007
_cell_volume 870.396219
_symmetry_space_group_name_H-M "P -1"
_symmetry_group_IT_number 2
_symmetry_cell_setting 'triclinic'
loop_
_space_group_symop_operation_xyz
x,y,z
-x,-y,-z
loop_
_atom_site_type_symbol
_atom_site_label
_atom_site_fract_x
_atom_site_fract_y
_atom_site_fract_z
Si Si1 0.774136 0.308311 0.486143
Si Si2 0.218375 0.680656 0.159496
Si Si3 0.787975 0.990772 0.648746
Si Si4 0.509292 0.982075 0.754107
Si Si5 0.497418 0.416536 0.703067
Si Si6 0.792700 0.591207 0.309357
Si Si7 0.195437 0.001680 0.090673
Si Si8 0.406096 0.188790 0.768929
O O1 0.770038 0.156215 0.508063
O O2 0.603161 0.441064 0.355431
O O3 0.765818 0.444854 0.340169
O O4 0.977760 0.185639 0.783462
O O5 0.339182 0.509721 0.426737
O O6 0.329189 0.617854 0.178001
O O7 0.226447 0.829043 0.149470
O O8 0.997892 0.791852 0.901825
O O9 0.622886 0.003311 0.454877
O O10 0.781792 0.015618 0.756736
O O11 0.656285 0.991923 0.830636
O O12 0.378345 0.148252 0.646864
O O13 0.635737 0.782867 0.018263
O O14 0.544196 0.229293 0.863438
O O15 0.761866 0.645276 0.381028
O O16 0.000000 0.500000 0.500000
O O17 0.500000 0.000000 0.000000
#
# Coordination Sequence:
#
# PCOD9041808 Si02
#       8
#     2   2   2   2   2   2   2   2
#     4  10  19  35  61  80 108 140 194 226 261 324
#     4  10  19  32  58  77 108 145 191 217 266 324
#     4  11  22  35  52  85 119 145 174 225 283 330
#     4  11  22  37  54  81 118 147 175 225 286 321
#     4  10  17  33  58  80  99 140 194 229 252 309
#     4  10  20  37  63  83 100 142 196 232 261 319
#     4  11  18  36  55  81 111 153 183 215 267 340
#     4   9  20  35  56  79 105 142 186 223 264 325
#
# _framework density 18.382432999999999
#
# number of rings (size 3 to 8) (size 9 to 14) (size 15 to 20)
#    0.000    1.750    5.000    1.125    0.000    0.500 
#    0.000    1.875    0.000    7.500    0.000    0.000 
#    0.000    0.000    0.000    0.000    0.000    0.000 
#
# Total GULP energy -89224.594071 kJ/mol
# GULP energy per Si atom -5576.537129 kJ/mol
# Density = 1.834059 g / cm^3
# Si number density = 18.382433 Si / 1000 Ang^3
#
#
#
# Elastic Constant Matrix: (Units=GPa)
#
#
# Indices 1 2 3 4 5 6 
#
# 1 72.4743 -0.5904 12.9112 0.2209 17.7366 8.2006
# 2 -0.5904 41.9552 17.8737 -0.6309 -1.2508 10.9025
# 3 12.9112 17.8737 56.4412 5.4911 8.6200 -0.7259
# 4 0.2209 -0.6309 5.4911 28.6688 6.3485 -4.2239
# 5 17.7366 -1.2508 8.6200 6.3485 19.7127 -11.3390
# 6 8.2006 10.9025 -0.7259 -4.2239 -11.3390 26.1472
#
#
#
# Elastic Compliance Matrix: (Units=1/GPa)
#
#
# Indices 1 2 3 4 5 6 
#
# 1 0.028259 0.008565 -0.003641 0.005628 -0.042356 -0.029994
# 2 0.008565 0.034361 -0.011115 0.002692 -0.014984 -0.023386
# 3 -0.003641 -0.011115 0.023058 -0.003109 -0.004142 0.004118
# 4 0.005628 0.002692 -0.003109 0.038956 -0.018880 -0.004868
# 5 -0.042356 -0.014984 -0.004142 -0.018880 0.140155 0.077147
# 6 -0.029994 -0.023386 0.004118 -0.004868 0.077147 0.090186
#
#
# Mechanical properties :
#
#
# Convention : Reuss Voigt Hill
#
# Bulk Modulus (GPa) = 13.64324 25.69553 19.66938
# Shear Modulus (GPa) = 12.76192 24.28415 18.52304
#
# Velocity S-wave (km/s) = 2.63771 3.63857 3.17779
# Velocity P-wave (km/s) = 4.08836 5.62680 4.91811
#
# Compressibility (1/GPa) = 0.07329639
#
# Stress axis : x y z
#
# Youngs Moduli (GPa) = 35.38706 29.10237 43.36817
#
# Poissons Ratio (x) = -0.24926 0.15792
# Poissons Ratio (y) = -0.30309 0.48204
# Poissons Ratio (z) = 0.12885 0.32347
#
# Static dielectric constant tensor:
#      x y z
#    x 1.660220 0.003560 -0.007580 
#    y 0.003560 1.652330 -0.040530 
#    z -0.007580 -0.040530 1.615940 
# 
# From -- ./inp_files/532424.got.cif
#   From: 2010.05.17/outbox.cif.g08.bks.cpg/sg2_267_cif.got.tgz:532424.got - 2010.06.03 11:33:40.
