data_PCOD9041141
_publ_section_title
;
Structure prediction by ZEFSAII (Michael W. Deem and Ramdas Pophale) SiO2 
 PCOD9041141
Probable space group: P -1
;
_chemical_formula_sum "Si O2"
_cell_formula_units_Z 10
_cell_length_a 8.097767
_cell_length_b 19.774200
_cell_length_c 5.530734
_cell_angle_alpha 120.042810
_cell_angle_beta 56.323297
_cell_angle_gamma 145.002616
_cell_volume 420.692103
_symmetry_space_group_name_H-M "P -1"
_symmetry_group_IT_number 2
_symmetry_cell_setting 'triclinic'
loop_
_space_group_symop_operation_xyz
x,y,z
-x,-y,-z
loop_
_atom_site_type_symbol
_atom_site_label
_atom_site_fract_x
_atom_site_fract_y
_atom_site_fract_z
Si Si1 0.267510 0.255172 0.758954
Si Si2 0.730700 0.341461 0.161742
Si Si3 0.729889 0.885814 0.167941
Si Si4 0.601113 0.460901 0.171111
Si Si5 0.661787 0.026646 0.667398
O O1 0.572446 0.311445 0.492071
O O2 0.177085 0.167404 0.882055
O O3 0.988999 0.165381 0.643656
O O4 0.348758 0.361193 0.003197
O O5 0.662913 0.401126 0.173538
O O6 0.554984 0.219166 0.954329
O O7 0.084113 0.430590 0.025614
O O8 0.673973 0.936145 0.498209
O O9 0.000000 0.000000 0.000000
O O10 0.500000 0.500000 0.500000
O O11 0.500000 0.000000 0.500000
O O12 0.500000 0.000000 0.000000
#
# Coordination Sequence:
#
# PCOD9041141 Si02
#       5
#     2   2   2   2   2
#     4  11  24  45  72 100 144 197 242 297 370 444
#     4  10  23  43  71 102 142 185 247 295 372 439
#     4  11  23  45  71 100 146 195 237 298 371 445
#     4  10  24  45  70 103 141 189 244 309 364 432
#     4  12  28  43  69 112 150 187 247 305 368 441
#
# _framework density 23.770353
#
# number of rings (size 3 to 8) (size 9 to 14) (size 15 to 20)
#    0.000    1.200    2.000    2.400    8.400    0.800 
#    0.000    0.000    0.000    0.000    0.000    0.000 
#    0.000    0.000    0.000    0.000    0.000    0.000 
#
# Total GULP energy -55992.379180 kJ/mol
# GULP energy per Si atom -5599.237918 kJ/mol
# Density = 2.371625 g / cm^3
# Si number density = 23.770353 Si / 1000 Ang^3
#
#
#
# Elastic Constant Matrix: (Units=GPa)
#
#
# Indices 1 2 3 4 5 6 
#
# 1 76.1335 49.3783 20.6097 8.0970 8.5153 15.0538
# 2 49.3783 184.1381 86.3401 20.2165 -0.4590 18.8044
# 3 20.6097 86.3401 198.9285 23.9419 -13.4064 14.6269
# 4 8.0970 20.2165 23.9419 59.1659 -3.1659 16.9494
# 5 8.5153 -0.4590 -13.4064 -3.1659 32.7774 1.1616
# 6 15.0538 18.8044 14.6269 16.9494 1.1616 22.8818
#
#
#
# Elastic Compliance Matrix: (Units=1/GPa)
#
#
# Indices 1 2 3 4 5 6 
#
# 1 0.017904 -0.004082 0.000159 0.001317 -0.004187 -0.009289
# 2 -0.004082 0.008127 -0.002912 -0.000546 -0.000008 -0.001727
# 3 0.000159 -0.002912 0.006686 -0.001255 0.002573 -0.001187
# 4 0.001317 -0.000546 -0.001255 0.022126 0.001845 -0.016100
# 5 -0.004187 -0.000008 0.002573 0.001845 0.032895 -0.001920
# 6 -0.009289 -0.001727 -0.001187 -0.016100 -0.001920 0.064015
#
#
# Mechanical properties :
#
#
# Convention : Reuss Voigt Hill
#
# Bulk Modulus (GPa) = 52.50240 85.76180 69.13210
# Shear Modulus (GPa) = 29.10794 43.15648 36.13221
#
# Velocity S-wave (km/s) = 3.50315 4.26556 3.90302
# Velocity P-wave (km/s) = 6.20468 7.77288 7.03263
#
# Compressibility (1/GPa) = 0.01904675
#
# Stress axis : x y z
#
# Youngs Moduli (GPa) = 55.85226 123.04288 149.56197
#
# Poissons Ratio (x) = 0.50230 -0.02381
# Poissons Ratio (y) = 0.22800 0.43559
# Poissons Ratio (z) = -0.00889 0.35835
#
# Static dielectric constant tensor:
#      x y z
#    x 1.987520 0.012440 -0.005760 
#    y 0.012440 1.900320 -0.001350 
#    z -0.005760 -0.001350 1.928740 
# 
# From -- ./inp_files/2140.got.cif
#   From: 2010.05.17/outbox.cif.g08.bks.cpg/sg2_2_cif.got.tgz:2140.got - 2010.06.03 11:33:40.
