data_PCOD9041818
_publ_section_title
;
Structure prediction by ZEFSAII (Michael W. Deem and Ramdas Pophale) SiO2 
 PCOD9041818
Probable space group: P -1
;
_chemical_formula_sum "Si O2"
_cell_formula_units_Z 14
_cell_length_a 11.698688
_cell_length_b 11.888520
_cell_length_c 10.862362
_cell_angle_alpha 103.657936
_cell_angle_beta 114.629430
_cell_angle_gamma 29.115382
_cell_volume 639.628080
_symmetry_space_group_name_H-M "P -1"
_symmetry_group_IT_number 2
_symmetry_cell_setting 'triclinic'
loop_
_space_group_symop_operation_xyz
x,y,z
-x,-y,-z
loop_
_atom_site_type_symbol
_atom_site_label
_atom_site_fract_x
_atom_site_fract_y
_atom_site_fract_z
Si Si1 0.471896 0.134414 0.936683
Si Si2 0.058886 0.550058 0.689019
Si Si3 0.750723 0.380436 0.570841
Si Si4 0.082756 0.783621 0.678535
Si Si5 0.751458 0.103455 0.208008
Si Si6 0.411392 0.840441 0.580786
Si Si7 0.493038 0.039833 0.663498
O O1 0.612776 0.992916 0.833093
O O2 0.174197 0.401457 0.827898
O O3 0.589099 0.150980 0.060629
O O4 0.500000 0.000000 0.000000
O O5 0.146072 0.613024 0.728664
O O6 0.240689 0.330467 0.615493
O O7 0.740434 0.820089 0.625690
O O8 0.500000 0.500000 0.500000
O O9 0.852892 0.278092 0.453289
O O10 0.693928 0.562446 0.603029
O O11 0.953768 0.180987 0.715034
O O12 0.223977 0.783288 0.791014
O O13 0.768086 0.050405 0.588547
O O14 0.648192 0.174998 0.320820
O O15 0.388238 0.995174 0.630878
#
# Coordination Sequence:
#
# PCOD9041818 Si02
#       7
#     2   2   2   2   2   2   2
#     4  10  23  44  67  95 128 175 226 275 322 389
#     4  10  26  46  63  99 137 175 221 266 335 393
#     4  11  21  38  64 102 130 170 219 272 332 392
#     4  11  24  40  64  94 140 169 219 271 335 397
#     4  11  21  41  64 100 126 172 220 275 328 386
#     4  11  22  38  67  96 129 170 221 275 332 384
#     4  10  25  45  65  98 130 173 224 270 327 390
#
# _framework density 21.887718
#
# number of rings (size 3 to 8) (size 9 to 14) (size 15 to 20)
#    0.857    0.571    4.286    0.857    8.000    3.429 
#    0.000    0.714    0.000    0.000    0.000    0.000 
#    0.000    0.000    0.000    0.000    0.000    0.000 
#
# Total GULP energy -77979.353595 kJ/mol
# GULP energy per Si atom -5569.953828 kJ/mol
# Density = 2.183790 g / cm^3
# Si number density = 21.887718 Si / 1000 Ang^3
#
#
#
# Elastic Constant Matrix: (Units=GPa)
#
#
# Indices 1 2 3 4 5 6 
#
# 1 100.2318 48.8522 14.5166 0.4407 14.3949 29.4436
# 2 48.8522 134.4961 31.4533 -3.3718 10.7798 18.6749
# 3 14.5166 31.4533 70.9639 5.3171 14.6863 3.0977
# 4 0.4407 -3.3718 5.3171 33.3546 8.7131 7.4403
# 5 14.3949 10.7798 14.6863 8.7131 35.4440 4.4503
# 6 29.4436 18.6749 3.0977 7.4403 4.4503 38.9684
#
#
#
# Elastic Compliance Matrix: (Units=1/GPa)
#
#
# Indices 1 2 3 4 5 6 
#
# 1 0.015340 -0.003697 -0.000369 0.002827 -0.004414 -0.009825
# 2 -0.003697 0.010011 -0.003694 0.002193 -0.000289 -0.002097
# 3 -0.000369 -0.003694 0.017019 -0.002028 -0.005495 0.001711
# 4 0.002827 0.002193 -0.002028 0.034617 -0.008395 -0.008677
# 5 -0.004414 -0.000289 -0.005495 -0.008395 0.034233 0.001604
# 6 -0.009825 -0.002097 0.001711 -0.008677 0.001604 0.035428
#
#
# Mechanical properties :
#
#
# Convention : Reuss Voigt Hill
#
# Bulk Modulus (GPa) = 37.24331 55.03734 46.14032
# Shear Modulus (GPa) = 29.21986 35.61140 32.41563
#
# Velocity S-wave (km/s) = 3.65771 4.03799 3.85255
# Velocity P-wave (km/s) = 5.90686 6.85130 6.39654
#
# Compressibility (1/GPa) = 0.02685046
#
# Stress axis : x y z
#
# Youngs Moduli (GPa) = 65.19039 99.89069 58.75829
#
# Poissons Ratio (x) = 0.36925 0.02168
# Poissons Ratio (y) = 0.24098 0.21705
# Poissons Ratio (z) = 0.02405 0.36900
#
# Static dielectric constant tensor:
#      x y z
#    x 1.859430 -0.056080 0.041680 
#    y -0.056080 1.911430 -0.021610 
#    z 0.041680 -0.021610 1.806860 
# 
# From -- ./inp_files/66826.got.cif
#   From: 2010.05.17/outbox.cif.g08.bks.cpg/sg2_34_cif.got.tgz:66826.got - 2010.06.03 11:33:40.
