data_PCOD9041406
_publ_section_title
;
Structure prediction by ZEFSAII (Michael W. Deem and Ramdas Pophale) SiO2 
 PCOD9041406
Probable space group: P -1
;
_chemical_formula_sum "Si O2"
_cell_formula_units_Z 16
_cell_length_a 12.533533
_cell_length_b 13.187757
_cell_length_c 5.203628
_cell_angle_alpha 103.387062
_cell_angle_beta 81.128652
_cell_angle_gamma 128.844423
_cell_volume 651.645018
_symmetry_space_group_name_H-M "P -1"
_symmetry_group_IT_number 2
_symmetry_cell_setting 'triclinic'
loop_
_space_group_symop_operation_xyz
x,y,z
-x,-y,-z
loop_
_atom_site_type_symbol
_atom_site_label
_atom_site_fract_x
_atom_site_fract_y
_atom_site_fract_z
Si Si1 0.435259 0.163146 0.093544
Si Si2 0.014209 0.682272 0.054623
Si Si3 0.592030 0.189163 0.547585
Si Si4 0.875231 0.416908 0.689384
Si Si5 0.093114 0.995986 0.663960
Si Si6 0.236196 0.902836 0.719333
Si Si7 0.857100 0.774295 0.999273
Si Si8 0.574613 0.591351 0.775822
O O1 0.485522 0.158349 0.351888
O O2 0.431686 0.286348 0.161499
O O3 0.540606 0.183153 0.849088
O O4 0.297407 0.022190 0.972369
O O5 0.117133 0.768624 0.831455
O O6 0.903427 0.526523 0.941093
O O7 0.921158 0.729555 0.147648
O O8 0.108413 0.684738 0.235565
O O9 0.731023 0.339389 0.558918
O O10 0.645898 0.104602 0.422069
O O11 0.000000 0.500000 0.500000
O O12 0.177587 0.942875 0.541311
O O13 0.986184 0.889843 0.852682
O O14 0.000000 0.000000 0.500000
O O15 0.192752 0.149096 0.802974
O O16 0.735705 0.659669 0.799362
O O17 0.500000 0.500000 0.500000
O O18 0.500000 0.500000 0.000000
#
# Coordination Sequence:
#
# PCOD9041406 Si02
#       8
#     2   2   2   2   2   2   2   2
#     4  12  28  50  75 107 148 194 250 306 357 450
#     4  10  24  43  72 102 145 187 237 303 368 433
#     4  12  27  46  75 109 145 198 244 300 373 430
#     4  11  24  44  68 105 144 187 239 299 356 441
#     4  10  23  43  74 108 144 186 238 311 375 441
#     4  11  23  49  71 109 146 190 248 301 375 434
#     4  10  24  45  70 108 140 191 245 303 375 438
#     4  12  29  51  75 107 148 201 249 306 370 443
#
# _framework density 24.553242000000001
#
# number of rings (size 3 to 8) (size 9 to 14) (size 15 to 20)
#    0.000    1.000    2.500    2.250    8.750    2.000 
#    2.250    0.000    0.000    0.000    0.000    0.000 
#    0.000    0.000    0.000    0.000    0.000    0.000 
#
# Total GULP energy -89515.271810 kJ/mol
# GULP energy per Si atom -5594.704488 kJ/mol
# Density = 2.449736 g / cm^3
# Si number density = 24.553242 Si / 1000 Ang^3
#
#
#
# Elastic Constant Matrix: (Units=GPa)
#
#
# Indices 1 2 3 4 5 6 
#
# 1 113.1409 53.9771 20.4469 1.8055 16.6711 -22.9854
# 2 53.9771 123.5040 37.1230 20.0857 6.7244 -16.6575
# 3 20.4469 37.1230 81.8647 8.1690 14.2322 -5.9058
# 4 1.8055 20.0857 8.1690 47.4065 4.9577 9.5015
# 5 16.6711 6.7244 14.2322 4.9577 42.7058 3.9639
# 6 -22.9854 -16.6575 -5.9058 9.5015 3.9639 59.4060
#
#
#
# Elastic Compliance Matrix: (Units=1/GPa)
#
#
# Indices 1 2 3 4 5 6 
#
# 1 0.012611 -0.005024 0.000052 0.001411 -0.004643 0.003560
# 2 -0.005024 0.012473 -0.004083 -0.004939 0.001762 0.001820
# 3 0.000052 -0.004083 0.014917 -0.000534 -0.004355 0.000734
# 4 0.001411 -0.004939 -0.000534 0.024366 -0.001992 -0.004656
# 5 -0.004643 0.001762 -0.004355 -0.001992 0.026932 -0.003214
# 6 0.003560 0.001820 0.000734 -0.004656 -0.003214 0.019753
#
#
# Mechanical properties :
#
#
# Convention : Reuss Voigt Hill
#
# Bulk Modulus (GPa) = 45.68355 60.17816 52.93086
# Shear Modulus (GPa) = 36.64084 43.70117 40.17101
#
# Velocity S-wave (km/s) = 3.86722 4.22341 4.04923
# Velocity P-wave (km/s) = 6.21183 6.95308 6.59288
#
# Compressibility (1/GPa) = 0.02188972
#
# Stress axis : x y z
#
# Youngs Moduli (GPa) = 79.29744 80.17619 67.03561
#
# Poissons Ratio (x) = 0.40277 -0.00345
# Poissons Ratio (y) = 0.39835 0.27374
# Poissons Ratio (z) = -0.00409 0.32740
#
# Static dielectric constant tensor:
#      x y z
#    x 1.964540 -0.000590 -0.006300 
#    y -0.000590 1.980040 0.052890 
#    z -0.006300 0.052890 1.997580 
# 
# From -- ./inp_files/71298.got.cif
#   From: 2010.05.17/outbox.cif.g08.bks.cpg/sg2_36_cif.got.tgz:71298.got - 2010.06.03 11:33:40.
