data_PCOD9041535
_publ_section_title
;
Structure prediction by ZEFSAII (Michael W. Deem and Ramdas Pophale) SiO2 
 PCOD9041535
Probable space group: P -1
;
_chemical_formula_sum "Si O2"
_cell_formula_units_Z 14
_cell_length_a 10.233401
_cell_length_b 11.142741
_cell_length_c 10.161315
_cell_angle_alpha 74.397476
_cell_angle_beta 120.692022
_cell_angle_gamma 141.680959
_cell_volume 598.706576
_symmetry_space_group_name_H-M "P -1"
_symmetry_group_IT_number 2
_symmetry_cell_setting 'triclinic'
loop_
_space_group_symop_operation_xyz
x,y,z
-x,-y,-z
loop_
_atom_site_type_symbol
_atom_site_label
_atom_site_fract_x
_atom_site_fract_y
_atom_site_fract_z
Si Si1 0.954511 0.849246 0.865716
Si Si2 0.234798 0.274548 0.900663
Si Si3 0.498822 0.279203 0.406130
Si Si4 0.139226 0.591293 0.261179
Si Si5 0.674403 0.245400 0.266938
Si Si6 0.855131 0.180911 0.594156
Si Si7 0.714630 0.143567 0.963505
O O1 0.702452 0.742117 0.709033
O O2 0.170966 0.090270 0.885187
O O3 0.046656 0.774554 0.886167
O O4 0.905951 0.802141 0.010353
O O5 0.107927 0.273939 0.722758
O O6 0.500000 0.500000 0.000000
O O7 0.693620 0.407964 0.586482
O O8 0.635892 0.333618 0.323527
O O9 0.340883 0.053717 0.420792
O O10 0.173443 0.731011 0.336684
O O11 0.225622 0.692890 0.133407
O O12 0.849948 0.385509 0.192546
O O13 0.810501 0.223172 0.423049
O O14 0.409478 0.028211 0.157196
O O15 0.500000 0.000000 0.000000
#
# Coordination Sequence:
#
# PCOD9041535 Si02
#       7
#     2   2   2   2   2   2   2
#     4  10  22  36  54  87 116 149 188 230 288 339
#     4  10  20  31  57  90 127 141 171 233 303 352
#     4  10  18  36  62  89 121 140 176 241 303 354
#     4  11  21  36  59  89 115 151 188 230 293 349
#     4  11  21  35  61  88 117 148 189 233 293 347
#     4  10  17  33  57  91 120 147 177 227 302 354
#     4  12  25  43  58  77 115 161 204 241 267 328
#
# _framework density 23.38374
#
# number of rings (size 3 to 8) (size 9 to 14) (size 15 to 20)
#    0.000    1.429    4.286    4.286    6.000    0.571 
#    0.000    0.714    0.000    0.857    0.000    0.000 
#    0.000    0.000    0.000    0.000    0.000    0.000 
#
# Total GULP energy -78198.477570 kJ/mol
# GULP energy per Si atom -5585.605541 kJ/mol
# Density = 2.333052 g / cm^3
# Si number density = 23.383740 Si / 1000 Ang^3
#
#
#
# Elastic Constant Matrix: (Units=GPa)
#
#
# Indices 1 2 3 4 5 6 
#
# 1 34.8957 1.4860 25.1062 -8.9625 12.9330 15.9956
# 2 1.4860 126.9974 35.1097 2.1201 0.4421 19.4635
# 3 25.1062 35.1097 106.4394 6.4595 24.0286 4.4400
# 4 -8.9625 2.1201 6.4595 48.9165 7.3994 -5.5749
# 5 12.9330 0.4421 24.0286 7.3994 33.0617 -0.5566
# 6 15.9956 19.4635 4.4400 -5.5749 -0.5566 23.6096
#
#
#
# Elastic Compliance Matrix: (Units=1/GPa)
#
#
# Indices 1 2 3 4 5 6 
#
# 1 0.076656 0.011828 -0.015239 0.012572 -0.022832 -0.056389
# 2 0.011828 0.011882 -0.005840 0.000682 -0.000973 -0.016573
# 3 -0.015239 -0.005840 0.015619 -0.002607 -0.004536 0.011479
# 4 0.012572 0.000682 -0.002607 0.023984 -0.008452 -0.003125
# 5 -0.022832 -0.000973 -0.004536 -0.008452 0.044651 0.016181
# 6 -0.056389 -0.016573 0.011479 -0.003125 0.016181 0.091707
#
#
# Mechanical properties :
#
#
# Convention : Reuss Voigt Hill
#
# Bulk Modulus (GPa) = 11.67470 43.52627 27.60048
# Shear Modulus (GPa) = 16.04865 34.89292 25.47079
#
# Velocity S-wave (km/s) = 2.62261 3.86707 3.30396
# Velocity P-wave (km/s) = 3.76487 6.21235 5.13652
#
# Compressibility (1/GPa) = 0.08565533
#
# Stress axis : x y z
#
# Youngs Moduli (GPa) = 13.04530 84.16010 64.02438
#
# Poissons Ratio (x) = -0.99543 0.97567
# Poissons Ratio (y) = -0.15430 0.37388
# Poissons Ratio (z) = 0.19880 0.49146
#
# Static dielectric constant tensor:
#      x y z
#    x 1.921600 -0.019720 0.000460 
#    y -0.019720 1.915660 0.035780 
#    z 0.000460 0.035780 1.952960 
# 
# From -- ./inp_files/425281.got.cif
#   From: 2010.05.17/outbox.cif.g08.bks.cpg/sg2_213_cif.got.tgz:425281.got - 2010.06.03 11:33:40.
