data_PCOD9041781
_publ_section_title
;
Structure prediction by ZEFSAII (Michael W. Deem and Ramdas Pophale) SiO2 
 PCOD9041781
Probable space group: P -1
;
_chemical_formula_sum "Si O2"
_cell_formula_units_Z 14
_cell_length_a 12.222756
_cell_length_b 7.463351
_cell_length_c 17.739643
_cell_angle_alpha 71.545645
_cell_angle_beta 159.432629
_cell_angle_gamma 106.342345
_cell_volume 538.726799
_symmetry_space_group_name_H-M "P -1"
_symmetry_group_IT_number 2
_symmetry_cell_setting 'triclinic'
loop_
_space_group_symop_operation_xyz
x,y,z
-x,-y,-z
loop_
_atom_site_type_symbol
_atom_site_label
_atom_site_fract_x
_atom_site_fract_y
_atom_site_fract_z
Si Si1 0.852881 0.394738 0.534510
Si Si2 0.209926 0.111430 0.370181
Si Si3 0.124225 0.845038 0.161400
Si Si4 0.661452 0.892798 0.982162
Si Si5 0.752099 0.562357 0.768868
Si Si6 0.332574 0.281124 0.747744
Si Si7 0.211539 0.668260 0.827281
O O1 0.550214 0.357439 0.392357
O O2 0.748695 0.566590 0.388279
O O3 0.029103 0.252959 0.608347
O O4 0.089476 0.480739 0.736180
O O5 0.578420 0.066165 0.618341
O O6 0.154836 0.276951 0.250319
O O7 0.086746 0.202333 0.357170
O O8 0.970053 0.947963 0.220795
O O9 0.270892 0.638403 0.261368
O O10 0.000000 0.000000 0.000000
O O11 0.819659 0.811226 0.019957
O O12 0.475522 0.094003 0.825889
O O13 0.416153 0.773006 0.884095
O O14 0.000000 0.500000 0.000000
O O15 0.581060 0.351277 0.960482
#
# Coordination Sequence:
#
# PCOD9041781 Si02
#       7
#     2   2   2   2   2   2   2
#     4  11  24  44  72 102 140 191 237 303 355 428
#     4  11  24  48  75 103 147 191 242 295 366 431
#     4  12  26  47  74 109 147 187 243 297 366 436
#     4  11  26  46  71 104 143 188 234 301 361 431
#     4  12  26  47  75 107 145 189 247 300 359 433
#     4  10  23  44  67 104 141 183 240 293 359 428
#     4  11  24  46  74 100 146 185 245 296 360 431
#
# _framework density 25.987197999999999
#
# number of rings (size 3 to 8) (size 9 to 14) (size 15 to 20)
#    0.000    0.857    1.429    6.429    2.000    5.143 
#    7.714    0.000    0.000    0.000    0.000    0.000 
#    0.000    0.000    0.000    0.000    0.000    0.000 
#
# Total GULP energy -78448.727105 kJ/mol
# GULP energy per Si atom -5603.480508 kJ/mol
# Density = 2.592805 g / cm^3
# Si number density = 25.987198 Si / 1000 Ang^3
#
#
#
# Elastic Constant Matrix: (Units=GPa)
#
#
# Indices 1 2 3 4 5 6 
#
# 1 139.4802 26.6058 35.8483 4.7532 48.7163 29.5533
# 2 26.6058 87.8491 32.3197 7.3599 9.6251 14.5916
# 3 35.8483 32.3197 112.8958 -11.7278 25.4329 20.0346
# 4 4.7532 7.3599 -11.7278 43.4315 4.3951 5.5650
# 5 48.7163 9.6251 25.4329 4.3951 66.6780 -6.2241
# 6 29.5533 14.5916 20.0346 5.5650 -6.2241 51.5017
#
#
#
# Elastic Compliance Matrix: (Units=1/GPa)
#
#
# Indices 1 2 3 4 5 6 
#
# 1 0.012535 -0.001530 0.000224 0.000988 -0.009849 -0.008144
# 2 -0.001530 0.013564 -0.003658 -0.003039 0.000649 -0.001135
# 3 0.000224 -0.003658 0.012447 0.005138 -0.005200 -0.005118
# 4 0.000988 -0.003039 0.005138 0.025912 -0.004421 -0.005039
# 5 -0.009849 0.000649 -0.005200 -0.004421 0.025404 0.011038
# 6 -0.008144 -0.001135 -0.005118 -0.005039 0.011038 0.028281
#
#
# Mechanical properties :
#
#
# Convention : Reuss Voigt Hill
#
# Bulk Modulus (GPa) = 34.94129 58.86363 46.90246
# Shear Modulus (GPa) = 36.33405 48.68567 42.50986
#
# Velocity S-wave (km/s) = 3.74324 4.33303 4.04889
# Velocity P-wave (km/s) = 5.67074 6.90896 6.32024
#
# Compressibility (1/GPa) = 0.02861943
#
# Stress axis : x y z
#
# Youngs Moduli (GPa) = 79.77412 73.72296 80.33947
#
# Poissons Ratio (x) = 0.11279 -0.01800
# Poissons Ratio (y) = 0.12205 0.29387
# Poissons Ratio (z) = -0.01788 0.26967
#
# Static dielectric constant tensor:
#      x y z
#    x 2.182770 -0.297070 -0.054770 
#    y -0.297070 2.460010 0.060800 
#    z -0.054770 0.060800 2.084610 
# 
# From -- ./inp_files/566706.got.cif
#   From: 2010.05.17/outbox.cif.g08.bks.cpg/sg2_284_cif.got.tgz:566706.got - 2010.06.03 11:33:40.
