data_PCOD9041381
_publ_section_title
;
Structure prediction by ZEFSAII (Michael W. Deem and Ramdas Pophale) SiO2 
 PCOD9041381
Probable space group: P -1
;
_chemical_formula_sum "Si O2"
_cell_formula_units_Z 13
_cell_length_a 8.548914
_cell_length_b 9.906104
_cell_length_c 9.197019
_cell_angle_alpha 49.483753
_cell_angle_beta 67.508141
_cell_angle_gamma 79.314275
_cell_volume 544.856415
_symmetry_space_group_name_H-M "P -1"
_symmetry_group_IT_number 2
_symmetry_cell_setting 'triclinic'
loop_
_space_group_symop_operation_xyz
x,y,z
-x,-y,-z
loop_
_atom_site_type_symbol
_atom_site_label
_atom_site_fract_x
_atom_site_fract_y
_atom_site_fract_z
Si Si1 0.044007 0.689464 0.271977
Si Si2 0.874033 0.373251 0.033241
Si Si3 0.723857 0.806853 0.432695
Si Si4 0.500000 0.500000 0.000000
Si Si5 0.407744 0.612378 0.239226
Si Si6 0.810069 0.036605 0.499981
Si Si7 0.473097 0.886213 0.234478
O O1 0.242357 0.722263 0.209747
O O2 0.000000 0.500000 0.500000
O O3 0.915690 0.816833 0.298232
O O4 0.025910 0.670589 0.118791
O O5 0.819927 0.200115 0.269352
O O6 0.700010 0.450901 0.989081
O O7 0.000000 0.500000 0.000000
O O8 0.645960 0.600464 0.601872
O O9 0.613375 0.917040 0.288733
O O10 0.722047 0.872446 0.552465
O O11 0.481669 0.362630 0.961540
O O12 0.488427 0.686339 0.307606
O O13 0.702283 0.086220 0.642116
O O14 0.000000 0.000000 0.500000
O O15 0.500000 0.000000 0.000000
#
# Coordination Sequence:
#
# PCOD9041381 Si02
#       7
#     2   2   2   1   2   2   2
#     4   9  22  43  73 104 137 187 248 306 372 449
#     4  11  27  45  79 109 153 201 259 312 394 457
#     4  11  25  46  74 100 150 192 250 311 386 453
#     4  10  24  44  76 108 146 190 268 308 384 454
#     4  10  23  43  74 100 142 192 246 305 382 452
#     4  12  30  49  72 111 158 199 255 318 391 462
#     4  12  29  45  73 108 149 197 260 314 384 454
#
# _framework density 23.859499
#
# number of rings (size 3 to 8) (size 9 to 14) (size 15 to 20)
#    0.000    1.231    0.000    2.769   21.538    0.615 
#    0.000    0.000    0.000    0.000    0.000    0.000 
#    0.000    0.000    0.000    0.000    0.000    0.000 
#
# Total GULP energy -72493.366398 kJ/mol
# GULP energy per Si atom -5576.412800 kJ/mol
# Density = 2.380519 g / cm^3
# Si number density = 23.859499 Si / 1000 Ang^3
#
#
#
# Elastic Constant Matrix: (Units=GPa)
#
#
# Indices 1 2 3 4 5 6 
#
# 1 82.8656 33.1231 30.3276 7.4317 19.3749 -5.3526
# 2 33.1231 156.3501 58.4438 37.0546 -3.3300 11.8840
# 3 30.3276 58.4438 145.9110 19.3487 10.8857 -4.9909
# 4 7.4317 37.0546 19.3487 47.7335 2.1744 -2.7432
# 5 19.3749 -3.3300 10.8857 2.1744 27.1627 6.3974
# 6 -5.3526 11.8840 -4.9909 -2.7432 6.3974 52.7164
#
#
#
# Elastic Compliance Matrix: (Units=1/GPa)
#
#
# Indices 1 2 3 4 5 6 
#
# 1 0.017572 -0.004495 -0.000926 0.002023 -0.013937 0.004506
# 2 -0.004495 0.010632 -0.003110 -0.006880 0.007343 -0.004397
# 3 -0.000926 -0.003110 0.008716 -0.000706 -0.003588 0.001831
# 4 0.002023 -0.006880 -0.000706 0.026702 -0.005009 0.003687
# 5 -0.013937 0.007343 -0.003588 -0.005009 0.051842 -0.009962
# 6 0.004506 -0.004397 0.001831 0.003687 -0.009962 0.021992
#
#
# Mechanical properties :
#
#
# Convention : Reuss Voigt Hill
#
# Bulk Modulus (GPa) = 50.36142 69.87954 60.12048
# Shear Modulus (GPa) = 31.02954 43.07135 37.05044
#
# Velocity S-wave (km/s) = 3.61017 4.25338 3.94491
# Velocity P-wave (km/s) = 6.20734 7.31254 6.78249
#
# Compressibility (1/GPa) = 0.01985647
#
# Stress axis : x y z
#
# Youngs Moduli (GPa) = 56.90926 94.05674 114.73673
#
# Poissons Ratio (x) = 0.42281 0.10626
# Poissons Ratio (y) = 0.25582 0.35684
# Poissons Ratio (z) = 0.05270 0.29252
#
# Static dielectric constant tensor:
#      x y z
#    x 1.927910 0.031570 -0.029630 
#    y 0.031570 1.946950 -0.008560 
#    z -0.029630 -0.008560 1.895980 
# 
# From -- ./inp_files/153929.got.cif
#   From: 2010.05.17/outbox.cif.g08.bks.cpg/sg2_77_cif.got.tgz:153929.got - 2010.06.03 11:33:40.
