data_PCOD9041328
_publ_section_title
;
Structure prediction by ZEFSAII (Michael W. Deem and Ramdas Pophale) SiO2 
 PCOD9041328
Probable space group: P -1
;
_chemical_formula_sum "Si O2"
_cell_formula_units_Z 16
_cell_length_a 5.164466
_cell_length_b 21.274993
_cell_length_c 9.180060
_cell_angle_alpha 45.198568
_cell_angle_beta 59.335756
_cell_angle_gamma 75.851513
_cell_volume 604.600786
_symmetry_space_group_name_H-M "P -1"
_symmetry_group_IT_number 2
_symmetry_cell_setting 'triclinic'
loop_
_space_group_symop_operation_xyz
x,y,z
-x,-y,-z
loop_
_atom_site_type_symbol
_atom_site_label
_atom_site_fract_x
_atom_site_fract_y
_atom_site_fract_z
Si Si1 0.685217 0.000246 0.177261
Si Si2 0.210656 0.643552 0.784991
Si Si3 0.920166 0.281100 0.578583
Si Si4 0.391125 0.426685 0.798004
Si Si5 0.918971 0.934057 0.769240
Si Si6 0.417877 0.201246 0.396361
Si Si7 0.601606 0.764567 0.993366
Si Si8 0.144171 0.481569 0.256366
O O1 0.526639 0.895940 0.414627
O O2 0.418052 0.048338 0.111401
O O3 0.816843 0.041004 0.228210
O O4 0.000000 0.000000 0.000000
O O5 0.300007 0.686523 0.533731
O O6 0.323351 0.716334 0.757733
O O7 0.841044 0.622598 0.927833
O O8 0.268813 0.546070 0.976334
O O9 0.118798 0.218769 0.541342
O O10 0.122853 0.375573 0.419582
O O11 0.722390 0.231665 0.845398
O O12 0.682658 0.474946 0.722763
O O13 0.797818 0.502073 0.330043
O O14 0.397237 0.341954 0.831936
O O15 0.859088 0.830925 0.900594
O O16 0.000000 0.000000 0.500000
O O17 0.379769 0.204288 0.229755
#
# Coordination Sequence:
#
# PCOD9041328 Si02
#       8
#     2   2   2   2   2   2   2   2
#     4  12  29  51  81 114 154 198 253 315 386 461
#     4  10  23  43  73 103 146 195 243 299 369 430
#     4  12  27  45  74 113 143 203 252 310 361 459
#     4  10  23  47  73 103 147 203 238 311 373 437
#     4  12  28  50  80 114 150 202 250 315 384 462
#     4  12  26  49  75 106 156 195 243 314 381 436
#     4  12  26  50  75 108 155 190 257 304 382 441
#     4  10  23  45  74 104 152 194 256 298 378 432
#
# _framework density 26.463742
#
# number of rings (size 3 to 8) (size 9 to 14) (size 15 to 20)
#    0.750    0.000    3.750    1.875    7.000    3.000 
#    4.500    0.000    0.000    0.000    0.000    0.000 
#    0.000    0.000    0.000    0.000    0.000    0.000 
#
# Total GULP energy -89676.284187 kJ/mol
# GULP energy per Si atom -5604.767762 kJ/mol
# Density = 2.640351 g / cm^3
# Si number density = 26.463742 Si / 1000 Ang^3
#
#
#
# Elastic Constant Matrix: (Units=GPa)
#
#
# Indices 1 2 3 4 5 6 
#
# 1 117.0701 38.2605 -5.4114 -8.2167 -3.3992 4.9837
# 2 38.2605 149.5433 42.9851 -18.9542 4.7177 12.0878
# 3 -5.4114 42.9851 72.9722 -4.6304 -10.6992 -2.1179
# 4 -8.2167 -18.9542 -4.6304 52.4567 -5.4826 -7.5090
# 5 -3.3992 4.7177 -10.6992 -5.4826 33.2589 -5.8554
# 6 4.9837 12.0878 -2.1179 -7.5090 -5.8554 48.1046
#
#
#
# Elastic Compliance Matrix: (Units=1/GPa)
#
#
# Indices 1 2 3 4 5 6 
#
# 1 0.009967 -0.003503 0.003290 0.000949 0.002815 0.000483
# 2 -0.003503 0.010101 -0.006795 0.001675 -0.004180 -0.002722
# 3 0.003290 -0.006795 0.019338 0.001122 0.008306 0.003404
# 4 0.000949 0.001675 0.001122 0.020831 0.004235 0.003297
# 5 0.002815 -0.004180 0.008306 0.004235 0.035390 0.006093
# 6 0.000483 -0.002722 0.003404 0.003297 0.006093 0.022828
#
#
# Mechanical properties :
#
#
# Convention : Reuss Voigt Hill
#
# Bulk Modulus (GPa) = 39.38821 54.58378 46.98600
# Shear Modulus (GPa) = 35.47724 44.34747 39.91235
#
# Velocity S-wave (km/s) = 3.66539 4.09807 3.88776
# Velocity P-wave (km/s) = 5.72971 6.56223 6.16005
#
# Compressibility (1/GPa) = 0.02538831
#
# Stress axis : x y z
#
# Youngs Moduli (GPa) = 100.33480 99.00313 51.71047
#
# Poissons Ratio (x) = 0.34682 -0.17011
# Poissons Ratio (y) = 0.35149 0.35139
# Poissons Ratio (z) = -0.33007 0.67276
#
# Static dielectric constant tensor:
#      x y z
#    x 2.079760 -0.098010 -0.089730 
#    y -0.098010 2.075710 0.099250 
#    z -0.089730 0.099250 2.127200 
# 
# From -- ./inp_files/141109.got.cif
#   From: 2010.05.17/outbox.cif.g08.bks.cpg/sg2_71_cif.got.tgz:141109.got - 2010.06.03 11:33:40.
