data_PCOD9041320
_publ_section_title
;
Structure prediction by ZEFSAII (Michael W. Deem and Ramdas Pophale) SiO2 
 PCOD9041320
Probable space group: P -1
;
_chemical_formula_sum "Si O2"
_cell_formula_units_Z 16
_cell_length_a 11.116402
_cell_length_b 5.049305
_cell_length_c 19.074676
_cell_angle_alpha 59.964372
_cell_angle_beta 43.668732
_cell_angle_gamma 71.222743
_cell_volume 638.558511
_symmetry_space_group_name_H-M "P -1"
_symmetry_group_IT_number 2
_symmetry_cell_setting 'triclinic'
loop_
_space_group_symop_operation_xyz
x,y,z
-x,-y,-z
loop_
_atom_site_type_symbol
_atom_site_label
_atom_site_fract_x
_atom_site_fract_y
_atom_site_fract_z
Si Si1 0.821750 0.467276 0.622738
Si Si2 0.439573 0.368003 0.403459
Si Si3 0.695374 0.758741 0.767841
Si Si4 0.695632 0.257024 0.073832
Si Si5 0.265700 0.098502 0.637043
Si Si6 0.218620 0.236904 0.796496
Si Si7 0.672413 0.165123 0.939301
Si Si8 0.969123 0.768977 0.834906
O O1 0.685389 0.633851 0.609183
O O2 0.828530 0.632262 0.672723
O O3 0.000000 0.500000 0.500000
O O4 0.748263 0.114073 0.711326
O O5 0.329829 0.364787 0.522400
O O6 0.578442 0.654289 0.301154
O O7 0.563914 0.085168 0.393891
O O8 0.500899 0.707150 0.823067
O O9 0.680515 0.532852 0.871410
O O10 0.802523 0.065487 0.108416
O O11 0.669084 0.085979 0.033309
O O12 0.804031 0.559761 0.963943
O O13 0.181576 0.159787 0.740609
O O14 0.106171 0.886488 0.698664
O O15 0.107579 0.509725 0.834619
O O16 0.854679 0.067974 0.845549
O O17 0.500000 0.000000 0.000000
#
# Coordination Sequence:
#
# PCOD9041320 Si02
#       8
#     2   2   2   2   2   2   2   2
#     4  12  28  51  77 115 147 200 255 321 374 453
#     4  10  23  43  73 101 142 193 244 309 382 443
#     4  12  27  49  76 107 154 200 251 308 380 447
#     4  12  25  44  74 107 147 200 247 308 375 456
#     4  10  23  45  69 106 141 189 246 310 379 448
#     4  11  23  45  71 105 144 189 251 311 383 445
#     4  12  27  46  69 105 152 202 253 303 374 455
#     4  11  26  43  70 106 145 195 243 316 368 455
#
# _framework density 25.056436999999999
#
# number of rings (size 3 to 8) (size 9 to 14) (size 15 to 20)
#    0.000    0.750    2.500    3.750    3.500    3.000 
#    0.000    0.000    0.000    0.000    0.000    0.000 
#    0.000    0.000    0.000    0.000    0.000    0.000 
#
# Total GULP energy -89166.473591 kJ/mol
# GULP energy per Si atom -5572.904599 kJ/mol
# Density = 2.499941 g / cm^3
# Si number density = 25.056437 Si / 1000 Ang^3
#
#
#
# Elastic Constant Matrix: (Units=GPa)
#
#
# Indices 1 2 3 4 5 6 
#
# 1 47.9725 9.4225 33.2292 23.8473 11.4084 -3.8086
# 2 9.4225 95.4969 28.9848 -4.1727 14.6284 -33.0496
# 3 33.2292 28.9848 116.5318 10.9382 -5.7403 -17.9601
# 4 23.8473 -4.1727 10.9382 43.6271 -9.1905 3.6213
# 5 11.4084 14.6284 -5.7403 -9.1905 52.4724 -2.8905
# 6 -3.8086 -33.0496 -17.9601 3.6213 -2.8905 37.1464
#
#
#
# Elastic Compliance Matrix: (Units=1/GPa)
#
#
# Indices 1 2 3 4 5 6 
#
# 1 0.044456 0.000566 -0.011107 -0.024766 -0.015326 0.000914
# 2 0.000566 0.016322 -0.002398 -0.000127 -0.004236 0.013103
# 3 -0.011107 -0.002398 0.012729 0.003513 0.005254 0.002948
# 4 -0.024766 -0.000127 0.003513 0.038476 0.012337 -0.003745
# 5 -0.015326 -0.004236 0.005254 0.012337 0.026198 -0.001964
# 6 0.000914 0.013103 0.002948 -0.003745 -0.001964 0.040309
#
#
# Mechanical properties :
#
#
# Convention : Reuss Voigt Hill
#
# Bulk Modulus (GPa) = 20.99620 44.80825 32.90223
# Shear Modulus (GPa) = 22.70220 39.20682 30.95451
#
# Velocity S-wave (km/s) = 3.01332 3.95997 3.51863
# Velocity P-wave (km/s) = 4.52820 6.23139 5.44678
#
# Compressibility (1/GPa) = 0.04762766
#
# Stress axis : x y z
#
# Youngs Moduli (GPa) = 22.49428 61.26862 78.56379
#
# Poissons Ratio (x) = -0.03471 0.87261
# Poissons Ratio (y) = -0.01274 0.18843
# Poissons Ratio (z) = 0.24984 0.14695
#
# Static dielectric constant tensor:
#      x y z
#    x 2.237010 0.224580 -0.084510 
#    y 0.224580 2.130160 -0.023600 
#    z -0.084510 -0.023600 1.964460 
# 
# From -- ./inp_files/592649.got.cif
#   From: 2010.05.17/outbox.cif.g08.bks.cpg/sg2_297_cif.got.tgz:592649.got - 2010.06.03 11:33:40.
