data_PCOD9041029
_publ_section_title
;
Structure prediction by ZEFSAII (Michael W. Deem and Ramdas Pophale) SiO2 
 PCOD9041029
Probable space group: P -1
;
_chemical_formula_sum "Si O2"
_cell_formula_units_Z 16
_cell_length_a 8.547169
_cell_length_b 11.541288
_cell_length_c 12.498063
_cell_angle_alpha 55.647301
_cell_angle_beta 132.127623
_cell_angle_gamma 98.565162
_cell_volume 699.808839
_symmetry_space_group_name_H-M "P -1"
_symmetry_group_IT_number 2
_symmetry_cell_setting 'triclinic'
loop_
_space_group_symop_operation_xyz
x,y,z
-x,-y,-z
loop_
_atom_site_type_symbol
_atom_site_label
_atom_site_fract_x
_atom_site_fract_y
_atom_site_fract_z
Si Si1 0.807795 0.527688 0.248948
Si Si2 0.215735 0.606922 0.461232
Si Si3 0.101894 0.622193 0.848565
Si Si4 0.029803 0.948248 0.700078
Si Si5 0.068251 0.041607 0.895054
Si Si6 0.530601 0.875435 0.899637
Si Si7 0.321639 0.443164 0.239049
Si Si8 0.530200 0.128723 0.371566
O O1 0.794919 0.439544 0.395786
O O2 0.778304 0.443715 0.172967
O O3 0.059101 0.536488 0.362514
O O4 0.630290 0.701130 0.075778
O O5 0.484752 0.552283 0.594260
O O6 0.097498 0.786656 0.297068
O O7 0.002649 0.802421 0.711713
O O8 0.906050 0.555210 0.810952
O O9 0.259363 0.569672 0.052706
O O10 0.264516 0.953926 0.762456
O O11 0.048874 0.937860 0.843121
O O12 0.798574 0.088428 0.498132
O O13 0.321460 0.041161 0.020330
O O14 0.000000 0.000000 0.000000
O O15 0.571218 0.869707 0.793479
O O16 0.418811 0.285833 0.299814
O O17 0.500000 0.000000 0.500000
#
# Coordination Sequence:
#
# PCOD9041029 Si02
#       8
#     2   2   2   2   2   2   2   2
#     4  10  23  46  66  97 135 181 219 279 338 392
#     4  10  23  43  70  93 133 178 224 272 337 402
#     4  11  25  40  70 100 137 175 228 276 332 400
#     4  12  25  43  68 106 132 175 228 279 337 402
#     4  11  25  45  70  97 137 180 220 277 345 403
#     4  11  25  43  70  99 136 181 225 278 333 404
#     4  11  23  42  65 100 133 179 225 276 328 402
#     4  12  23  43  67  99 141 176 223 279 339 395
#
# _framework density 22.863384
#
# number of rings (size 3 to 8) (size 9 to 14) (size 15 to 20)
#    0.000    1.000    3.750    2.250    1.750    3.500 
#    0.000    6.250    0.000    0.000    0.000    0.000 
#    0.000    0.000    0.000    0.000    0.000    0.000 
#
# Total GULP energy -89578.115758 kJ/mol
# GULP energy per Si atom -5598.632235 kJ/mol
# Density = 2.281135 g / cm^3
# Si number density = 22.863384 Si / 1000 Ang^3
#
#
#
# Elastic Constant Matrix: (Units=GPa)
#
#
# Indices 1 2 3 4 5 6 
#
# 1 77.5962 8.2480 36.5631 8.1451 -3.2084 3.8247
# 2 8.2480 57.5067 3.3367 11.2647 -13.5532 -10.1124
# 3 36.5631 3.3367 96.9860 5.2707 3.1612 4.0642
# 4 8.1451 11.2647 5.2707 36.0871 9.4322 1.4150
# 5 -3.2084 -13.5532 3.1612 9.4322 34.7947 5.9887
# 6 3.8247 -10.1124 4.0642 1.4150 5.9887 31.0707
#
#
#
# Elastic Compliance Matrix: (Units=1/GPa)
#
#
# Indices 1 2 3 4 5 6 
#
# 1 0.016358 -0.001064 -0.005968 -0.003151 0.002831 -0.001981
# 2 -0.001064 0.023070 -0.000455 -0.009895 0.010559 0.006114
# 3 -0.005968 -0.000455 0.012658 0.000137 -0.001789 -0.000731
# 4 -0.003151 -0.009895 0.000137 0.035050 -0.013335 -0.001876
# 5 0.002831 0.010559 -0.001789 -0.013335 0.037458 -0.003290
# 6 -0.001981 0.006114 -0.000731 -0.001876 -0.003290 0.035234
#
#
# Mechanical properties :
#
#
# Convention : Reuss Voigt Hill
#
# Bulk Modulus (GPa) = 26.94599 36.48717 31.71658
# Shear Modulus (GPa) = 26.71326 32.65324 29.68325
#
# Velocity S-wave (km/s) = 3.42187 3.78324 3.60708
# Velocity P-wave (km/s) = 5.23675 5.92261 5.59021
#
# Compressibility (1/GPa) = 0.03711127
#
# Stress axis : x y z
#
# Youngs Moduli (GPa) = 61.13224 43.34581 79.00189
#
# Poissons Ratio (x) = 0.04611 0.47150
# Poissons Ratio (y) = 0.06504 0.03597
# Poissons Ratio (z) = 0.36485 0.01974
#
# Static dielectric constant tensor:
#      x y z
#    x 1.868120 0.031650 0.023460 
#    y 0.031650 1.793730 0.023260 
#    z 0.023460 0.023260 1.841700 
# 
# From -- ./inp_files/187705.got.cif
#   From: 2010.05.17/outbox.cif.g08.bks.cpg/sg2_94_cif.got.tgz:187705.got - 2010.06.03 11:33:40.
