data_PCOD9041297
_publ_section_title
;
Structure prediction by ZEFSAII (Michael W. Deem and Ramdas Pophale) SiO2 
 PCOD9041297
Probable space group: P -1
;
_chemical_formula_sum "Si O2"
_cell_formula_units_Z 16
_cell_length_a 19.456276
_cell_length_b 8.553352
_cell_length_c 24.441582
_cell_angle_alpha 39.634822
_cell_angle_beta 158.775095
_cell_angle_gamma 149.718620
_cell_volume 728.867886
_symmetry_space_group_name_H-M "P -1"
_symmetry_group_IT_number 2
_symmetry_cell_setting 'triclinic'
loop_
_space_group_symop_operation_xyz
x,y,z
-x,-y,-z
loop_
_atom_site_type_symbol
_atom_site_label
_atom_site_fract_x
_atom_site_fract_y
_atom_site_fract_z
Si Si1 0.720604 0.203087 0.860515
Si Si2 0.129274 0.689862 0.864579
Si Si3 0.408369 0.702224 0.379468
Si Si4 0.712403 0.000912 0.327968
Si Si5 0.919972 0.085448 0.343949
Si Si6 0.553644 0.279750 0.077915
Si Si7 0.168581 0.279654 0.931476
Si Si8 0.726845 0.162772 0.583432
O O1 0.639716 0.229547 0.734114
O O2 0.537051 0.188654 0.771014
O O3 0.000000 0.500000 0.000000
O O4 0.725201 0.907324 0.941931
O O5 0.160456 0.429251 0.941176
O O6 0.848993 0.496480 0.725810
O O7 0.178111 0.907635 0.789529
O O8 0.310145 0.923262 0.983718
O O9 0.500000 0.500000 0.500000
O O10 0.613760 0.016306 0.480405
O O11 0.740765 0.309117 0.251036
O O12 0.734289 0.916017 0.303833
O O13 0.924389 0.037377 0.508138
O O14 0.118873 0.460828 0.403488
O O15 0.673291 0.415092 0.071994
O O16 0.500000 0.500000 0.000000
O O17 0.901083 0.088220 0.756357
O O18 0.500000 0.000000 0.500000
#
# Coordination Sequence:
#
# PCOD9041297 Si02
#       8
#     2   2   2   2   2   2   2   2
#     4  12  27  44  67 105 145 181 231 287 346 409
#     4  11  24  45  70 101 133 179 232 281 341 418
#     4  12  26  43  70 100 137 184 225 281 346 408
#     4  11  23  44  65 100 135 180 224 285 340 402
#     4  10  23  43  72  98 135 181 231 284 343 402
#     4  12  24  44  70  98 136 178 223 282 352 406
#     4  11  24  44  70 100 137 181 229 283 344 405
#     4  11  22  45  71  99 135 180 231 279 340 415
#
# _framework density 21.951854000000001
#
# number of rings (size 3 to 8) (size 9 to 14) (size 15 to 20)
#    0.000    0.750    6.250    2.625    3.500    1.500 
#    2.250    1.250    0.000    0.000    0.000    0.000 
#    0.000    0.000    0.000    0.000    0.000    0.000 
#
# Total GULP energy -89293.832222 kJ/mol
# GULP energy per Si atom -5580.864514 kJ/mol
# Density = 2.190189 g / cm^3
# Si number density = 21.951854 Si / 1000 Ang^3
#
#
#
# Elastic Constant Matrix: (Units=GPa)
#
#
# Indices 1 2 3 4 5 6 
#
# 1 110.8418 19.5737 55.5021 2.7123 6.5969 4.5118
# 2 19.5737 64.1390 45.9620 -10.6617 -5.1288 -9.0383
# 3 55.5021 45.9620 138.4361 -18.4021 3.7598 -8.4969
# 4 2.7123 -10.6617 -18.4021 49.3406 -0.6825 -2.8566
# 5 6.5969 -5.1288 3.7598 -0.6825 59.7282 -1.4514
# 6 4.5118 -9.0383 -8.4969 -2.8566 -1.4514 29.3814
#
#
#
# Elastic Compliance Matrix: (Units=1/GPa)
#
#
# Indices 1 2 3 4 5 6 
#
# 1 0.012090 -0.001251 -0.005056 -0.003073 -0.001258 -0.004064
# 2 -0.001251 0.021794 -0.006083 0.002866 0.002560 0.005542
# 3 -0.005056 -0.006083 0.011923 0.003556 -0.000609 0.002669
# 4 -0.003073 0.002866 0.003556 0.022660 0.000733 0.004621
# 5 -0.001258 0.002560 -0.000609 0.000733 0.017190 0.001725
# 6 -0.004064 0.005542 0.002669 0.004621 0.001725 0.037670
#
#
# Mechanical properties :
#
#
# Convention : Reuss Voigt Hill
#
# Bulk Modulus (GPa) = 47.55468 61.72141 54.63805
# Shear Modulus (GPa) = 32.23435 40.51531 36.37483
#
# Velocity S-wave (km/s) = 3.83614 4.30076 4.07508
# Velocity P-wave (km/s) = 6.42896 7.26910 6.86190
#
# Compressibility (1/GPa) = 0.02102842
#
# Stress axis : x y z
#
# Youngs Moduli (GPa) = 82.71460 45.88470 83.87137
#
# Poissons Ratio (x) = 0.05740 0.42401
# Poissons Ratio (y) = 0.10347 0.51016
# Poissons Ratio (z) = 0.41817 0.27910
#
# Static dielectric constant tensor:
#      x y z
#    x 2.285150 -0.188510 0.064720 
#    y -0.188510 1.906980 -0.034980 
#    z 0.064720 -0.034980 1.839920 
# 
# From -- ./inp_files/620658.got.cif
#   From: 2010.05.17/outbox.cif.g08.bks.cpg/sg2_311_cif.got.tgz:620658.got - 2010.06.03 11:33:40.
