data_PCOD9041420
_publ_section_title
;
Structure prediction by ZEFSAII (Michael W. Deem and Ramdas Pophale) SiO2 
 PCOD9041420
Probable space group: P -1
;
_chemical_formula_sum "Si O2"
_cell_formula_units_Z 14
_cell_length_a 9.043411
_cell_length_b 10.772565
_cell_length_c 8.353295
_cell_angle_alpha 110.284658
_cell_angle_beta 130.459877
_cell_angle_gamma 77.992912
_cell_volume 580.612497
_symmetry_space_group_name_H-M "P -1"
_symmetry_group_IT_number 2
_symmetry_cell_setting 'triclinic'
loop_
_space_group_symop_operation_xyz
x,y,z
-x,-y,-z
loop_
_atom_site_type_symbol
_atom_site_label
_atom_site_fract_x
_atom_site_fract_y
_atom_site_fract_z
Si Si1 0.703854 0.544486 0.376792
Si Si2 0.266624 0.602071 0.993645
Si Si3 0.458483 0.686050 0.667170
Si Si4 0.862816 0.664181 0.830499
Si Si5 0.377229 0.858320 0.986444
Si Si6 0.615599 0.055796 0.452136
Si Si7 0.041534 0.043612 0.866186
O O1 0.771803 0.497417 0.228758
O O2 0.708168 0.419710 0.446238
O O3 0.818777 0.659741 0.604590
O O4 0.476329 0.572836 0.202260
O O5 0.073956 0.601074 0.965547
O O6 0.297595 0.750268 0.010588
O O7 0.658955 0.613851 0.739325
O O8 0.421540 0.790794 0.547113
O O9 0.470356 0.775328 0.874177
O O10 0.878704 0.808050 0.986143
O O11 0.532875 0.960728 0.213843
O O12 0.194200 0.945961 0.852408
O O13 0.500000 0.000000 0.500000
O O14 0.841892 0.041708 0.631205
O O15 0.000000 0.000000 0.000000
#
# Coordination Sequence:
#
# PCOD9041420 Si02
#       7
#     2   2   2   2   2   2   2
#     4  10  25  47  65 100 136 181 220 286 330 395
#     4  10  23  43  74  98 131 177 235 266 339 401
#     4  11  26  47  67 101 143 174 224 283 340 396
#     4  12  23  41  69  95 138 177 225 276 328 403
#     4  11  24  46  68 103 142 171 221 288 334 400
#     4  12  24  43  71  98 135 181 220 276 343 397
#     4  12  24  40  68 107 129 176 232 273 332 409
#
# _framework density 24.112466000000001
#
# number of rings (size 3 to 8) (size 9 to 14) (size 15 to 20)
#    0.000    0.857    4.286    1.286    6.000    1.143 
#    2.571    0.000    0.000    0.000    0.000    0.000 
#    0.000    0.000    0.000    0.000    0.000    0.000 
#
# Total GULP energy -78327.753424 kJ/mol
# GULP energy per Si atom -5594.839530 kJ/mol
# Density = 2.405759 g / cm^3
# Si number density = 24.112466 Si / 1000 Ang^3
#
#
#
# Elastic Constant Matrix: (Units=GPa)
#
#
# Indices 1 2 3 4 5 6 
#
# 1 104.6906 36.5045 13.2951 -9.8627 3.2453 -18.4273
# 2 36.5045 82.1642 26.4871 -8.0561 -0.9905 -7.7885
# 3 13.2951 26.4871 89.2897 2.5675 23.2008 -17.5293
# 4 -9.8627 -8.0561 2.5675 33.5302 -11.7020 -2.5942
# 5 3.2453 -0.9905 23.2008 -11.7020 28.9928 1.6483
# 6 -18.4273 -7.7885 -17.5293 -2.5942 1.6483 48.0528
#
#
#
# Elastic Compliance Matrix: (Units=1/GPa)
#
#
# Indices 1 2 3 4 5 6 
#
# 1 0.012243 -0.005159 0.000966 0.002014 -0.001756 0.004380
# 2 -0.005159 0.017501 -0.007594 0.006623 0.010033 -0.001899
# 3 0.000966 -0.007594 0.020403 -0.009940 -0.021092 0.006769
# 4 0.002014 0.006623 -0.009940 0.041347 0.024666 -0.000394
# 5 -0.001756 0.010033 -0.021092 0.024666 0.062293 -0.007546
# 6 0.004380 -0.001899 0.006769 -0.000394 -0.007546 0.024889
#
#
# Mechanical properties :
#
#
# Convention : Reuss Voigt Hill
#
# Bulk Modulus (GPa) = 37.63147 47.63533 42.63340
# Shear Modulus (GPa) = 23.68435 35.43903 29.56169
#
# Velocity S-wave (km/s) = 3.13748 3.83788 3.50522
# Velocity P-wave (km/s) = 5.36335 6.27992 5.83965
#
# Compressibility (1/GPa) = 0.02657350
#
# Stress axis : x y z
#
# Youngs Moduli (GPa) = 81.67613 57.13845 49.01128
#
# Poissons Ratio (x) = 0.29480 -0.04733
# Poissons Ratio (y) = 0.42140 0.37217
# Poissons Ratio (z) = -0.07887 0.43389
#
# Static dielectric constant tensor:
#      x y z
#    x 0.909740 0.954320 -0.154130 
#    y 0.954320 1.137190 0.104190 
#    z -0.154130 0.104190 1.932540 
# 
# From -- ./inp_files/182070.got.cif
#   From: 2010.05.17/outbox.cif.g08.bks.cpg/sg2_92_cif.got.tgz:182070.got - 2010.06.03 11:33:40.
