data_PCOD9041816
_publ_section_title
;
Structure prediction by ZEFSAII (Michael W. Deem and Ramdas Pophale) SiO2 
 PCOD9041816
Probable space group: P -1
;
_chemical_formula_sum "Si O2"
_cell_formula_units_Z 11
_cell_length_a 8.101511
_cell_length_b 8.340525
_cell_length_c 9.039957
_cell_angle_alpha 74.071054
_cell_angle_beta 74.971686
_cell_angle_gamma 56.712716
_cell_volume 486.503045
_symmetry_space_group_name_H-M "P -1"
_symmetry_group_IT_number 2
_symmetry_cell_setting 'triclinic'
loop_
_space_group_symop_operation_xyz
x,y,z
-x,-y,-z
loop_
_atom_site_type_symbol
_atom_site_label
_atom_site_fract_x
_atom_site_fract_y
_atom_site_fract_z
Si Si1 0.727833 0.899648 0.791049
Si Si2 0.772153 0.556645 0.528493
Si Si3 0.483816 0.267550 0.933934
Si Si4 0.561638 0.348723 0.209886
Si Si5 0.869943 0.201316 0.392943
Si Si6 0.500000 0.000000 0.500000
O O1 0.667642 0.794362 0.954948
O O2 0.626445 0.917180 0.650919
O O3 0.963465 0.793418 0.746084
O O4 0.636068 0.116147 0.820510
O O5 0.665071 0.553256 0.707257
O O6 0.769438 0.391457 0.470346
O O7 0.644137 0.779451 0.448430
O O8 0.000000 0.500000 0.500000
O O9 0.594283 0.266183 0.060128
O O10 0.384688 0.484180 0.841874
O O11 0.701950 0.189424 0.338538
O O12 0.000000 0.000000 0.500000
#
# Coordination Sequence:
#
# PCOD9041816 Si02
#       6
#     2   2   2   2   2   1
#     4  11  23  43  69 101 135 192 227 287 348 420
#     4  12  24  43  71 102 139 184 234 289 347 414
#     4  10  23  44  67  94 143 188 229 281 357 418
#     4  11  23  43  66  99 141 186 226 296 345 417
#     4  12  25  42  69 108 141 179 238 294 354 405
#     4  12  22  44  72 102 136 178 240 288 338 404
#
# _framework density 22.610343
#
# number of rings (size 3 to 8) (size 9 to 14) (size 15 to 20)
#    0.000    0.727    3.636    3.818    0.000    1.455 
#    0.000    7.273    0.000    0.000    0.000    0.000 
#    0.000    0.000    0.000    0.000    0.000    0.000 
#
# Total GULP energy -61254.755941 kJ/mol
# GULP energy per Si atom -5568.614176 kJ/mol
# Density = 2.255888 g / cm^3
# Si number density = 22.610343 Si / 1000 Ang^3
#
#
#
# Elastic Constant Matrix: (Units=GPa)
#
#
# Indices 1 2 3 4 5 6 
#
# 1 76.0735 22.2550 23.3836 14.4717 6.1599 -23.8490
# 2 22.2550 131.6044 25.3253 19.4068 3.4610 4.1231
# 3 23.3836 25.3253 75.2867 20.5054 11.7902 -10.0245
# 4 14.4717 19.4068 20.5054 47.0156 12.1896 9.4018
# 5 6.1599 3.4610 11.7902 12.1896 37.9783 4.4906
# 6 -23.8490 4.1231 -10.0245 9.4018 4.4906 36.8319
#
#
#
# Elastic Compliance Matrix: (Units=1/GPa)
#
#
# Indices 1 2 3 4 5 6 
#
# 1 0.020709 -0.002633 -0.001131 -0.007316 -0.002257 0.015539
# 2 -0.002633 0.008776 -0.002326 -0.001490 0.001192 -0.003086
# 3 -0.001131 -0.002326 0.017706 -0.006758 -0.003703 0.006523
# 4 -0.007316 -0.001490 -0.006758 0.031114 -0.004940 -0.013750
# 5 -0.002257 0.001192 -0.003703 -0.004940 0.029913 -0.004989
# 6 0.015539 -0.003086 0.006523 -0.013750 -0.004989 0.043451
#
#
# Mechanical properties :
#
#
# Convention : Reuss Voigt Hill
#
# Bulk Modulus (GPa) = 28.56292 47.21027 37.88659
# Shear Modulus (GPa) = 28.48654 38.49855 33.49255
#
# Velocity S-wave (km/s) = 3.55334 4.13085 3.85293
# Velocity P-wave (km/s) = 5.43094 6.60887 6.04865
#
# Compressibility (1/GPa) = 0.03501042
#
# Stress axis : x y z
#
# Youngs Moduli (GPa) = 48.28762 113.94152 56.47897
#
# Poissons Ratio (x) = 0.30000 0.06389
# Poissons Ratio (y) = 0.12714 0.13139
# Poissons Ratio (z) = 0.05463 0.26506
#
# Static dielectric constant tensor:
#      x y z
#    x 1.944020 0.126330 -0.069830 
#    y 0.126330 1.935810 -0.103360 
#    z -0.069830 -0.103360 1.891830 
# 
# From -- ./inp_files/148614.got.cif
#   From: 2010.05.17/outbox.cif.g08.bks.cpg/sg2_75_cif.got.tgz:148614.got - 2010.06.03 11:33:40.
