data_PCOD9041038
_publ_section_title
;
Structure prediction by ZEFSAII (Michael W. Deem and Ramdas Pophale) SiO2 
 PCOD9041038
Probable space group: P -1
;
_chemical_formula_sum "Si O2"
_cell_formula_units_Z 15
_cell_length_a 14.647664
_cell_length_b 16.815683
_cell_length_c 9.061362
_cell_angle_alpha 120.603858
_cell_angle_beta 63.024693
_cell_angle_gamma 158.413922
_cell_volume 705.359647
_symmetry_space_group_name_H-M "P -1"
_symmetry_group_IT_number 2
_symmetry_cell_setting 'triclinic'
loop_
_space_group_symop_operation_xyz
x,y,z
-x,-y,-z
loop_
_atom_site_type_symbol
_atom_site_label
_atom_site_fract_x
_atom_site_fract_y
_atom_site_fract_z
Si Si1 0.892505 0.341961 0.309305
Si Si2 0.826734 0.129901 0.570262
Si Si3 0.706459 0.952786 0.807663
Si Si4 0.683063 0.782182 0.881426
Si Si5 0.500000 0.000000 0.500000
Si Si6 0.174311 0.585736 0.844375
Si Si7 0.072650 0.204317 0.212710
Si Si8 0.815487 0.579731 0.931361
O O1 0.787370 0.314336 0.226491
O O2 0.000000 0.500000 0.500000
O O3 0.131673 0.482201 0.208736
O O4 0.690111 0.118719 0.338433
O O5 0.028377 0.373464 0.701526
O O6 0.947533 0.160202 0.392065
O O7 0.738561 0.000646 0.656688
O O8 0.608146 0.009501 0.541512
O O9 0.713938 0.853559 0.765457
O O10 0.443810 0.779344 0.887799
O O11 0.931470 0.185912 0.948580
O O12 0.751270 0.730876 0.790820
O O13 0.410141 0.580540 0.950055
O O14 0.866686 0.984693 0.053651
O O15 0.000000 0.500000 0.000000
O O16 0.211752 0.386120 0.168289
#
# Coordination Sequence:
#
# PCOD9041038 Si02
#       8
#     2   2   2   2   1   2   2   2
#     4  12  24  39  64  94 125 168 208 260 313 378
#     4  12  25  42  65  94 130 170 206 266 310 380
#     4  11  25  42  62  92 129 169 212 257 317 372
#     4  10  23  44  68  96 122 165 212 268 316 378
#     4  12  24  40  64  94 128 162 214 258 318 372
#     4  12  26  41  62  93 131 172 212 252 314 379
#     4  10  23  43  70  95 125 161 215 263 321 370
#     4  11  23  42  67  93 128 167 210 264 314 376
#
# _framework density 21.265747999999999
#
# number of rings (size 3 to 8) (size 9 to 14) (size 15 to 20)
#    0.000    0.800    4.000    2.800    3.733    2.667 
#    0.000    2.667    0.000    0.000    0.000    0.000 
#    0.000    0.000    0.000    0.000    0.000    0.000 
#
# Total GULP energy -83618.029807 kJ/mol
# GULP energy per Si atom -5574.535320 kJ/mol
# Density = 2.121735 g / cm^3
# Si number density = 21.265748 Si / 1000 Ang^3
#
#
#
# Elastic Constant Matrix: (Units=GPa)
#
#
# Indices 1 2 3 4 5 6 
#
# 1 185.9356 42.9757 61.5219 -17.9060 18.6115 6.9587
# 2 42.9757 63.2039 15.6547 -23.0688 6.0914 8.8471
# 3 61.5219 15.6547 85.0827 -31.4814 4.8384 -5.0919
# 4 -17.9060 -23.0688 -31.4814 28.9944 -6.8195 5.2294
# 5 18.6115 6.0914 4.8384 -6.8195 45.1201 -12.3729
# 6 6.9587 8.8471 -5.0919 5.2294 -12.3729 27.2099
#
#
#
# Elastic Compliance Matrix: (Units=1/GPa)
#
#
# Indices 1 2 3 4 5 6 
#
# 1 0.009744 -0.007799 -0.009682 -0.011395 -0.004038 -0.001414
# 2 -0.007799 0.034244 0.012889 0.038841 -0.000925 -0.014613
# 3 -0.009682 0.012889 0.030268 0.038438 0.004427 -0.001424
# 4 -0.011395 0.038841 0.038438 0.105058 0.005695 -0.020122
# 5 -0.004038 -0.000925 0.004427 0.005695 0.028141 0.013864
# 6 -0.001414 -0.014613 -0.001424 -0.020122 0.013864 0.051769
#
#
# Mechanical properties :
#
#
# Convention : Reuss Voigt Hill
#
# Bulk Modulus (GPa) = 15.36803 63.83629 39.60216
# Shear Modulus (GPa) = 17.23534 34.53620 25.88577
#
# Velocity S-wave (km/s) = 2.84997 4.03430 3.49270
# Velocity P-wave (km/s) = 4.25113 7.19613 5.91001
#
# Compressibility (1/GPa) = 0.06507015
#
# Stress axis : x y z
#
# Youngs Moduli (GPa) = 102.62397 29.20230 33.03793
#
# Poissons Ratio (x) = 0.22776 0.31988
# Poissons Ratio (y) = 0.80042 -0.42581
# Poissons Ratio (z) = 0.99363 -0.37638
#
# Static dielectric constant tensor:
#      x y z
#    x 1.785220 -0.075780 0.037720 
#    y -0.075780 1.910490 -0.049000 
#    z 0.037720 -0.049000 1.792420 
# 
# From -- ./inp_files/140928.got.cif
#   From: 2010.05.17/outbox.cif.g08.bks.cpg/sg2_71_cif.got.tgz:140928.got - 2010.06.03 11:33:40.
