data_PCOD9041354
_publ_section_title
;
Structure prediction by ZEFSAII (Michael W. Deem and Ramdas Pophale) SiO2 
 PCOD9041354
Probable space group: P -1
;
_chemical_formula_sum "Si O2"
_cell_formula_units_Z 14
_cell_length_a 8.293296
_cell_length_b 9.214461
_cell_length_c 11.346908
_cell_angle_alpha 114.453432
_cell_angle_beta 61.323954
_cell_angle_gamma 130.797267
_cell_volume 569.291925
_symmetry_space_group_name_H-M "P -1"
_symmetry_group_IT_number 2
_symmetry_cell_setting 'triclinic'
loop_
_space_group_symop_operation_xyz
x,y,z
-x,-y,-z
loop_
_atom_site_type_symbol
_atom_site_label
_atom_site_fract_x
_atom_site_fract_y
_atom_site_fract_z
Si Si1 0.171559 0.809845 0.502485
Si Si2 0.406349 0.613408 0.697185
Si Si3 0.282149 0.958921 0.252157
Si Si4 0.341249 0.560877 0.436080
Si Si5 0.039325 0.006646 0.789904
Si Si6 0.749954 0.690171 0.974028
Si Si7 0.071997 0.556240 0.127120
O O1 0.239218 0.924425 0.395013
O O2 0.316079 0.720316 0.438946
O O3 0.174833 0.931918 0.653108
O O4 0.912154 0.627700 0.526210
O O5 0.456431 0.639532 0.549176
O O6 0.521130 0.520877 0.690733
O O7 0.142522 0.471109 0.748078
O O8 0.500785 0.828508 0.780763
O O9 0.279643 0.776870 0.144639
O O10 0.078313 0.948943 0.255981
O O11 0.188925 0.185829 0.885769
O O12 0.837963 0.840406 0.886296
O O13 0.500000 0.500000 0.000000
O O14 0.892744 0.598727 0.883906
O O15 0.000000 0.500000 0.000000
#
# Coordination Sequence:
#
# PCOD9041354 Si02
#       7
#     2   2   2   2   2   2   2
#     4  11  23  46  75 113 154 193 242 314 374 433
#     4  11  25  46  72 109 152 200 241 301 376 439
#     4  12  26  44  76 113 153 195 242 307 376 443
#     4  10  23  43  73 107 153 195 243 298 371 449
#     4  11  25  47  77 112 154 189 253 314 361 457
#     4  11  28  52  78 107 144 204 253 310 372 434
#     4  12  27  49  72 107 151 194 249 305 364 447
#
# _framework density 24.591951999999999
#
# number of rings (size 3 to 8) (size 9 to 14) (size 15 to 20)
#    0.000    0.857    4.286    1.286    4.000    4.571 
#    2.571    1.429    0.000    0.000    0.000    0.000 
#    0.000    0.000    0.000    0.000    0.000    0.000 
#
# Total GULP energy -78402.456738 kJ/mol
# GULP energy per Si atom -5600.175481 kJ/mol
# Density = 2.453598 g / cm^3
# Si number density = 24.591952 Si / 1000 Ang^3
#
#
#
# Elastic Constant Matrix: (Units=GPa)
#
#
# Indices 1 2 3 4 5 6 
#
# 1 116.3486 62.9741 34.5403 -3.3665 -1.2872 -20.8802
# 2 62.9741 162.6708 52.3892 15.7120 3.4735 -8.4896
# 3 34.5403 52.3892 74.2784 11.9592 8.1787 -12.7268
# 4 -3.3665 15.7120 11.9592 45.7360 -1.1420 5.6182
# 5 -1.2872 3.4735 8.1787 -1.1420 21.1865 2.0899
# 6 -20.8802 -8.4896 -12.7268 5.6182 2.0899 45.5508
#
#
#
# Elastic Compliance Matrix: (Units=1/GPa)
#
#
# Indices 1 2 3 4 5 6 
#
# 1 0.012387 -0.003930 -0.003051 0.002670 0.002358 0.003656
# 2 -0.003930 0.009290 -0.004561 -0.002156 -0.000011 -0.001078
# 3 -0.003051 -0.004561 0.020514 -0.004768 -0.008052 0.004440
# 4 0.002670 -0.002156 -0.004768 0.024608 0.004051 -0.003731
# 5 0.002358 -0.000011 -0.008052 0.004051 0.051067 -0.004013
# 6 0.003656 -0.001078 0.004440 -0.003731 -0.004013 0.025313
#
#
# Mechanical properties :
#
#
# Convention : Reuss Voigt Hill
#
# Bulk Modulus (GPa) = 52.34008 72.56724 62.45366
# Shear Modulus (GPa) = 28.96301 36.05427 32.50864
#
# Velocity S-wave (km/s) = 3.43555 3.83312 3.63977
# Velocity P-wave (km/s) = 6.08826 7.01164 6.56620
#
# Compressibility (1/GPa) = 0.01910582
#
# Stress axis : x y z
#
# Youngs Moduli (GPa) = 80.72747 107.64262 48.74756
#
# Poissons Ratio (x) = 0.42305 0.14875
# Poissons Ratio (y) = 0.31727 0.22234
# Poissons Ratio (z) = 0.24633 0.49097
#
# Static dielectric constant tensor:
#      x y z
#    x 1.920950 -0.008750 0.018190 
#    y -0.008750 1.933180 0.009350 
#    z 0.018190 0.009350 1.961280 
# 
# From -- ./inp_files/383155.got.cif
#   From: 2010.05.17/outbox.cif.g08.bks.cpg/sg2_192_cif.got.tgz:383155.got - 2010.06.03 11:33:40.
