data_PCOD9041686
_publ_section_title
;
Structure prediction by ZEFSAII (Michael W. Deem and Ramdas Pophale) SiO2 
 PCOD9041686
Probable space group: P -1
;
_chemical_formula_sum "Si O2"
_cell_formula_units_Z 16
_cell_length_a 11.183006
_cell_length_b 6.737996
_cell_length_c 10.926891
_cell_angle_alpha 99.574974
_cell_angle_beta 102.093643
_cell_angle_gamma 65.756586
_cell_volume 731.094863
_symmetry_space_group_name_H-M "P -1"
_symmetry_group_IT_number 2
_symmetry_cell_setting 'triclinic'
loop_
_space_group_symop_operation_xyz
x,y,z
-x,-y,-z
loop_
_atom_site_type_symbol
_atom_site_label
_atom_site_fract_x
_atom_site_fract_y
_atom_site_fract_z
Si Si1 0.190056 0.948146 0.029452
Si Si2 0.411491 0.484216 0.594995
Si Si3 0.285106 0.178000 0.445820
Si Si4 0.031827 0.052332 0.376118
Si Si5 0.050826 0.715039 0.843807
Si Si6 0.563155 0.093332 0.772809
Si Si7 0.924130 0.766942 0.206741
Si Si8 0.337802 0.969065 0.685246
O O1 0.085683 0.089507 0.123881
O O2 0.337252 0.888029 0.102208
O O3 0.143750 0.105405 0.917567
O O4 0.159596 0.739229 0.960522
O O5 0.500000 0.500000 0.500000
O O6 0.299449 0.401398 0.511219
O O7 0.499109 0.308590 0.696177
O O8 0.354231 0.721178 0.668987
O O9 0.147411 0.144228 0.412799
O O10 0.350463 0.099850 0.320858
O O11 0.364065 0.013178 0.554171
O O12 0.923392 0.232589 0.284887
O O13 0.045077 0.830764 0.283809
O O14 0.000000 0.000000 0.500000
O O15 0.037233 0.487247 0.826341
O O16 0.444766 0.028768 0.789618
O O17 0.808076 0.864278 0.292477
#
# Coordination Sequence:
#
# PCOD9041686 Si02
#       8
#     2   2   2   2   2   2   2   2
#     4  10  23  44  66  94 129 167 233 275 315 393
#     4  11  21  39  67  97 133 175 212 268 335 385
#     4  11  21  40  64  97 135 163 221 269 326 397
#     4  11  23  42  65 101 132 170 215 270 332 394
#     4  10  23  45  69  92 130 175 221 276 324 389
#     4  11  22  40  67  97 128 171 224 272 321 392
#     4  11  25  44  64  95 137 176 215 269 336 383
#     4  11  23  42  62  97 138 169 214 273 327 400
#
# _framework density 21.884983999999999
#
# number of rings (size 3 to 8) (size 9 to 14) (size 15 to 20)
#    0.000    1.250    5.000    1.125    0.000    7.000 
#    2.250    1.250    0.000    0.000    0.000    0.000 
#    0.000    0.000    0.000    0.000    0.000    0.000 
#
# Total GULP energy -89317.851839 kJ/mol
# GULP energy per Si atom -5582.365740 kJ/mol
# Density = 2.183517 g / cm^3
# Si number density = 21.884984 Si / 1000 Ang^3
#
#
#
# Elastic Constant Matrix: (Units=GPa)
#
#
# Indices 1 2 3 4 5 6 
#
# 1 112.8526 28.0465 37.9486 17.8275 32.6705 26.0837
# 2 28.0465 115.0558 38.0206 26.7730 20.2378 38.1366
# 3 37.9486 38.0206 110.0869 4.8966 31.4282 18.7603
# 4 17.8275 26.7730 4.8966 24.4888 13.7966 5.4293
# 5 32.6705 20.2378 31.4282 13.7966 48.6283 9.4114
# 6 26.0837 38.1366 18.7603 5.4293 9.4114 31.4070
#
#
#
# Elastic Compliance Matrix: (Units=1/GPa)
#
#
# Indices 1 2 3 4 5 6 
#
# 1 0.014506 0.004794 -0.002620 -0.009675 -0.004746 -0.013209
# 2 0.004794 0.022104 -0.004536 -0.022155 0.001589 -0.024759
# 3 -0.002620 -0.004536 0.013176 0.008222 -0.007314 0.000583
# 4 -0.009675 -0.022155 0.008222 0.073976 -0.014775 0.021665
# 5 -0.004746 0.001589 -0.007314 -0.014775 0.032145 -0.000697
# 6 -0.013209 -0.024759 0.000583 0.021665 -0.000697 0.068990
#
#
# Mechanical properties :
#
#
# Convention : Reuss Voigt Hill
#
# Bulk Modulus (GPa) = 22.19060 60.66964 41.43012
# Shear Modulus (GPa) = 20.43807 36.50347 28.47077
#
# Velocity S-wave (km/s) = 3.05927 4.08851 3.61075
# Velocity P-wave (km/s) = 4.75820 7.07602 6.02953
#
# Compressibility (1/GPa) = 0.04506412
#
# Stress axis : x y z
#
# Youngs Moduli (GPa) = 68.93633 45.24033 75.89484
#
# Poissons Ratio (x) = -0.21689 0.19884
# Poissons Ratio (y) = -0.33050 0.34423
# Poissons Ratio (z) = 0.18061 0.20519
#
# Static dielectric constant tensor:
#      x y z
#    x 1.903710 0.020240 0.004850 
#    y 0.020240 1.784270 0.018320 
#    z 0.004850 0.018320 1.865030 
# 
# From -- ./inp_files/410867.got.cif
#   From: 2010.05.17/outbox.cif.g08.bks.cpg/sg2_206_cif.got.tgz:410867.got - 2010.06.03 11:33:40.
