data_PCOD9041506
_publ_section_title
;
Structure prediction by ZEFSAII (Michael W. Deem and Ramdas Pophale) SiO2 
 PCOD9041506
Probable space group: P -1
;
_chemical_formula_sum "Si O2"
_cell_formula_units_Z 14
_cell_length_a 11.044832
_cell_length_b 7.748744
_cell_length_c 25.270378
_cell_angle_alpha 32.587444
_cell_angle_beta 148.262460
_cell_angle_gamma 137.844112
_cell_volume 610.385700
_symmetry_space_group_name_H-M "P -1"
_symmetry_group_IT_number 2
_symmetry_cell_setting 'triclinic'
loop_
_space_group_symop_operation_xyz
x,y,z
-x,-y,-z
loop_
_atom_site_type_symbol
_atom_site_label
_atom_site_fract_x
_atom_site_fract_y
_atom_site_fract_z
Si Si1 0.918727 0.525928 0.253118
Si Si2 0.668744 0.414458 0.795122
Si Si3 0.483186 0.753292 0.743649
Si Si4 0.230722 0.469463 0.564499
Si Si5 0.687999 0.604322 0.494414
Si Si6 0.757144 0.780756 0.625797
Si Si7 0.009266 0.161201 0.060251
O O1 0.704460 0.413143 0.241507
O O2 0.147545 0.584153 0.359841
O O3 0.011957 0.285834 0.304848
O O4 0.891052 0.862511 0.126731
O O5 0.570418 0.556841 0.776619
O O6 0.429230 0.281966 0.712944
O O7 0.774804 0.647540 0.727054
O O8 0.864953 0.197122 0.943917
O O9 0.716453 0.876418 0.831036
O O10 0.377616 0.054399 0.598653
O O11 0.166930 0.313177 0.525464
O O12 0.000000 0.500000 0.500000
O O13 0.301846 0.852303 0.488057
O O14 0.455054 0.417080 0.433238
O O15 0.000000 0.500000 0.000000
#
# Coordination Sequence:
#
# PCOD9041506 Si02
#       7
#     2   2   2   2   2   2   2
#     4  12  24  42  69 101 127 172 223 267 321 386
#     4  10  23  44  63  94 133 171 214 263 329 385
#     4  11  23  44  68  99 128 171 225 267 318 384
#     4  11  23  40  64 101 131 165 218 274 326 385
#     4  11  22  39  69  96 130 166 217 274 321 380
#     4  11  24  40  69  94 132 172 211 270 343 371
#     4  10  25  42  67  91 136 175 216 264 321 389
#
# _framework density 22.936316999999999
#
# number of rings (size 3 to 8) (size 9 to 14) (size 15 to 20)
#    0.000    1.143    1.429    5.143    8.000    2.857 
#    2.571    0.714    0.000    0.000    0.000    0.000 
#    0.000    0.000    0.000    0.000    0.000    0.000 
#
# Total GULP energy -78066.161495 kJ/mol
# GULP energy per Si atom -5576.154392 kJ/mol
# Density = 2.288411 g / cm^3
# Si number density = 22.936317 Si / 1000 Ang^3
#
#
#
# Elastic Constant Matrix: (Units=GPa)
#
#
# Indices 1 2 3 4 5 6 
#
# 1 166.1672 26.7647 28.6413 10.7144 -3.5135 20.1531
# 2 26.7647 56.6497 32.6753 -4.6957 -6.3788 21.8860
# 3 28.6413 32.6753 151.4415 15.3196 -35.2074 4.2482
# 4 10.7144 -4.6957 15.3196 28.1121 -5.0081 2.7360
# 5 -3.5135 -6.3788 -35.2074 -5.0081 36.4674 -6.5764
# 6 20.1531 21.8860 4.2482 2.7360 -6.5764 39.3720
#
#
#
# Elastic Compliance Matrix: (Units=1/GPa)
#
#
# Indices 1 2 3 4 5 6 
#
# 1 0.006937 -0.002347 -0.000766 -0.002626 -0.001237 -0.002187
# 2 -0.002347 0.029661 -0.007440 0.010804 -0.003592 -0.015835
# 3 -0.000766 -0.007440 0.010969 -0.005774 0.009380 0.005312
# 4 -0.002626 0.010804 -0.005774 0.042306 0.000632 -0.006873
# 5 -0.001237 -0.003592 0.009380 0.000632 0.037222 0.007791
# 6 -0.002187 -0.015835 0.005312 -0.006873 0.007791 0.036526
#
#
# Mechanical properties :
#
#
# Convention : Reuss Voigt Hill
#
# Bulk Modulus (GPa) = 37.79192 61.15789 49.47490
# Shear Modulus (GPa) = 25.83351 39.86878 32.85114
#
# Velocity S-wave (km/s) = 3.35970 4.17374 3.78865
# Velocity P-wave (km/s) = 5.61808 7.06746 6.38403
#
# Compressibility (1/GPa) = 0.02646068
#
# Stress axis : x y z
#
# Youngs Moduli (GPa) = 144.16319 33.71407 91.16563
#
# Poissons Ratio (x) = 0.07914 0.06983
# Poissons Ratio (y) = 0.33841 0.67825
# Poissons Ratio (z) = 0.11042 0.25082
#
# Static dielectric constant tensor:
#      x y z
#    x 1.977480 0.034770 -0.065190 
#    y 0.034770 1.920630 -0.034060 
#    z -0.065190 -0.034060 1.816990 
# 
# From -- ./inp_files/618147.got.cif
#   From: 2010.05.17/outbox.cif.g08.bks.cpg/sg2_310_cif.got.tgz:618147.got - 2010.06.03 11:33:40.
