data_PCOD9041927
_publ_section_title
;
Structure prediction by ZEFSAII (Michael W. Deem and Ramdas Pophale) SiO2 
 PCOD9041927
Probable space group: P -1
;
_chemical_formula_sum "Si O2"
_cell_formula_units_Z 13
_cell_length_a 14.292109
_cell_length_b 8.085447
_cell_length_c 4.945078
_cell_angle_alpha 104.313418
_cell_angle_beta 107.037588
_cell_angle_gamma 108.821364
_cell_volume 478.857976
_symmetry_space_group_name_H-M "P -1"
_symmetry_group_IT_number 2
_symmetry_cell_setting 'triclinic'
loop_
_space_group_symop_operation_xyz
x,y,z
-x,-y,-z
loop_
_atom_site_type_symbol
_atom_site_label
_atom_site_fract_x
_atom_site_fract_y
_atom_site_fract_z
Si Si1 0.302398 0.595897 0.403559
Si Si2 0.896609 0.445600 0.087005
Si Si3 0.142784 0.162544 0.074873
Si Si4 0.622672 0.061066 0.040383
Si Si5 0.017955 0.797369 0.636703
Si Si6 0.332000 0.127028 0.496967
Si Si7 0.500000 0.500000 0.500000
O O1 0.230956 0.373902 0.214394
O O2 0.318960 0.717326 0.741835
O O3 0.420095 0.609506 0.434033
O O4 0.218054 0.654336 0.193206
O O5 0.909301 0.311945 0.273477
O O6 0.922237 0.649587 0.317483
O O7 0.000000 0.500000 0.000000
O O8 0.209361 0.080174 0.288260
O O9 0.043193 0.183063 0.141071
O O10 0.096682 0.013546 0.730659
O O11 0.660467 0.931777 0.213260
O O12 0.500000 0.000000 0.000000
O O13 0.629163 0.996209 0.717920
O O14 0.410901 0.346421 0.581988
#
# Coordination Sequence:
#
# PCOD9041927 Si02
#       7
#     2   2   2   2   2   2   1
#     4  11  24  44  71 103 142 189 243 302 366 437
#     4  11  23  42  69  99 135 189 236 292 360 444
#     4  10  23  44  68 106 142 185 238 305 369 433
#     4  12  26  48  75 103 146 199 249 302 364 446
#     4  10  23  45  67 101 143 183 242 296 365 442
#     4  11  26  48  74 108 144 196 243 306 372 441
#     4  10  24  48  70 110 144 188 246 310 368 432
#
# _framework density 27.147925999999998
#
# number of rings (size 3 to 8) (size 9 to 14) (size 15 to 20)
#    0.000    1.231    3.077    1.385    2.154    4.923 
#    0.000    0.000    0.000    0.000    0.000    0.000 
#    0.000    0.000    0.000    0.000    0.000    0.000 
#
# Total GULP energy -72401.675448 kJ/mol
# GULP energy per Si atom -5569.359650 kJ/mol
# Density = 2.708614 g / cm^3
# Si number density = 27.147926 Si / 1000 Ang^3
#
#
#
# Elastic Constant Matrix: (Units=GPa)
#
#
# Indices 1 2 3 4 5 6 
#
# 1 127.0932 9.4720 5.7732 -7.8846 14.1362 -17.1514
# 2 9.4720 88.6086 16.1103 36.9179 1.3724 1.3375
# 3 5.7732 16.1103 79.0144 31.8409 -3.9537 8.9405
# 4 -7.8846 36.9179 31.8409 47.8756 -4.8400 7.1328
# 5 14.1362 1.3724 -3.9537 -4.8400 35.4370 -9.4983
# 6 -17.1514 1.3375 8.9405 7.1328 -9.4983 37.0157
#
#
#
# Elastic Compliance Matrix: (Units=1/GPa)
#
#
# Indices 1 2 3 4 5 6 
#
# 1 0.009125 -0.002250 -0.002350 0.004044 -0.002324 0.003501
# 2 -0.002250 0.017786 0.002981 -0.016278 -0.001596 0.000322
# 3 -0.002350 0.002981 0.018378 -0.014476 0.000142 -0.002810
# 4 0.004044 -0.016278 -0.014476 0.044304 0.002966 -0.001818
# 5 -0.002324 -0.001596 0.000142 0.002966 0.031350 0.006419
# 6 0.003501 0.000322 -0.002810 -0.001818 0.006419 0.031302
#
#
# Mechanical properties :
#
#
# Convention : Reuss Voigt Hill
#
# Bulk Modulus (GPa) = 23.78054 39.71413 31.74733
# Shear Modulus (GPa) = 29.49877 41.62303 35.56090
#
# Velocity S-wave (km/s) = 3.29993 3.91985 3.62317
# Velocity P-wave (km/s) = 4.82680 5.92853 5.40581
#
# Compressibility (1/GPa) = 0.04205120
#
# Stress axis : x y z
#
# Youngs Moduli (GPa) = 109.59450 56.22462 54.41217
#
# Poissons Ratio (x) = 0.12650 0.12787
# Poissons Ratio (y) = 0.24657 -0.16221
# Poissons Ratio (z) = 0.25755 -0.16762
#
# Static dielectric constant tensor:
#      x y z
#    x 2.131570 0.013480 0.130210 
#    y 0.013480 2.335340 0.034100 
#    z 0.130210 0.034100 2.329460 
# 
# From -- ./inp_files/19338.got.cif
#   From: 2010.05.17/outbox.cif.g08.bks.cpg/sg2_10_cif.got.tgz:19338.got - 2010.06.03 11:33:40.
