data_PCOD9041587
_publ_section_title
;
Structure prediction by ZEFSAII (Michael W. Deem and Ramdas Pophale) SiO2 
 PCOD9041587
Probable space group: P -1
;
_chemical_formula_sum "Si O2"
_cell_formula_units_Z 16
_cell_length_a 18.751649
_cell_length_b 6.679830
_cell_length_c 16.111486
_cell_angle_alpha 139.265302
_cell_angle_beta 37.222694
_cell_angle_gamma 135.128135
_cell_volume 767.753878
_symmetry_space_group_name_H-M "P -1"
_symmetry_group_IT_number 2
_symmetry_cell_setting 'triclinic'
loop_
_space_group_symop_operation_xyz
x,y,z
-x,-y,-z
loop_
_atom_site_type_symbol
_atom_site_label
_atom_site_fract_x
_atom_site_fract_y
_atom_site_fract_z
Si Si1 0.731183 0.158568 0.290463
Si Si2 0.160439 0.630264 0.134855
Si Si3 0.012434 0.443858 0.873815
Si Si4 0.397957 0.595952 0.838967
Si Si5 0.145833 0.316537 0.378123
Si Si6 0.624077 0.410706 0.632667
Si Si7 0.440277 0.775100 0.670300
Si Si8 0.048694 0.286161 0.285313
O O1 0.875816 0.302699 0.194038
O O2 0.679628 0.309705 0.464410
O O3 0.679753 0.262943 0.285533
O O4 0.673232 0.778399 0.228123
O O5 0.111839 0.349095 0.157086
O O6 0.106038 0.547106 0.067238
O O7 0.115051 0.936746 0.299736
O O8 0.306486 0.719731 0.021089
O O9 0.023326 0.080057 0.745909
O O10 0.000000 0.500000 0.000000
O O11 0.531393 0.619262 0.759809
O O12 0.413198 0.760533 0.787529
O O13 0.267269 0.451074 0.360869
O O14 0.149634 0.369868 0.291521
O O15 0.043166 0.490721 0.554060
O O16 0.535523 0.100106 0.658189
O O17 0.500000 0.500000 0.500000
#
# Coordination Sequence:
#
# PCOD9041587 Si02
#       8
#     2   2   2   2   2   2   2   2
#     4  11  22  37  61  94 126 154 206 249 306 373
#     4  11  24  43  62  87 128 165 203 251 308 360
#     4  11  24  39  63  99 124 157 202 248 312 375
#     4  11  23  40  61  90 130 162 195 258 308 360
#     4  10  24  42  64  90 116 162 218 252 297 361
#     4  11  23  38  62  94 119 160 212 248 300 369
#     4  11  20  38  61  90 127 159 196 250 309 360
#     4  10  23  44  65  88 125 161 203 262 302 353
#
# _framework density 20.840012999999999
#
# number of rings (size 3 to 8) (size 9 to 14) (size 15 to 20)
#    0.000    1.250    2.500    3.375    1.750   10.500 
#    0.000    1.250    0.000    0.000    0.000    0.000 
#    0.000    0.000    0.000    0.000    0.000    0.000 
#
# Total GULP energy -89382.451706 kJ/mol
# GULP energy per Si atom -5586.403232 kJ/mol
# Density = 2.079258 g / cm^3
# Si number density = 20.840013 Si / 1000 Ang^3
#
#
#
# Elastic Constant Matrix: (Units=GPa)
#
#
# Indices 1 2 3 4 5 6 
#
# 1 142.2298 32.5729 31.0373 -1.8330 -1.7842 3.0771
# 2 32.5729 45.5690 16.5238 -11.5736 4.4770 -11.0772
# 3 31.0373 16.5238 62.4792 -9.9204 -1.4264 -8.2847
# 4 -1.8330 -11.5736 -9.9204 30.6926 -3.8006 4.5108
# 5 -1.7842 4.4770 -1.4264 -3.8006 26.5738 -4.0823
# 6 3.0771 -11.0772 -8.2847 4.5108 -4.0823 25.4100
#
#
#
# Elastic Compliance Matrix: (Units=1/GPa)
#
#
# Indices 1 2 3 4 5 6 
#
# 1 0.009687 -0.007488 -0.003931 -0.002693 0.000524 -0.005157
# 2 -0.007488 0.033860 -0.002113 0.009380 -0.003008 0.012830
# 3 -0.003931 -0.002113 0.020123 0.004980 0.002756 0.005675
# 4 -0.002693 0.009380 0.004980 0.038067 0.003937 -0.000086
# 5 0.000524 -0.003008 0.002756 0.003937 0.039683 0.005200
# 6 -0.005157 0.012830 0.005675 -0.000086 0.005200 0.048273
#
#
# Mechanical properties :
#
#
# Convention : Reuss Voigt Hill
#
# Bulk Modulus (GPa) = 27.31838 45.61621 36.46730
# Shear Modulus (GPa) = 21.83787 27.87820 24.85803
#
# Velocity S-wave (km/s) = 3.24061 3.66146 3.45745
# Velocity P-wave (km/s) = 5.20953 6.30962 5.78578
#
# Compressibility (1/GPa) = 0.03660539
#
# Stress axis : x y z
#
# Youngs Moduli (GPa) = 103.23111 29.53338 49.69382
#
# Poissons Ratio (x) = 0.22114 0.19536
# Poissons Ratio (y) = 0.77297 0.10502
# Poissons Ratio (z) = 0.40583 0.06242
#
# Static dielectric constant tensor:
#      x y z
#    x 1.754260 0.011820 -0.015060 
#    y 0.011820 1.765460 0.027960 
#    z -0.015060 0.027960 1.764860 
# 
# From -- ./inp_files/70362.got.cif
#   From: 2010.05.17/outbox.cif.g08.bks.cpg/sg2_36_cif.got.tgz:70362.got - 2010.06.03 11:33:40.
