data_PCOD9041058
_publ_section_title
;
Structure prediction by ZEFSAII (Michael W. Deem and Ramdas Pophale) SiO2 
 PCOD9041058
Probable space group: P -1
;
_chemical_formula_sum "Si O2"
_cell_formula_units_Z 14
_cell_length_a 16.941192
_cell_length_b 11.480649
_cell_length_c 9.892754
_cell_angle_alpha 40.288117
_cell_angle_beta 128.107887
_cell_angle_gamma 148.677599
_cell_volume 643.380555
_symmetry_space_group_name_H-M "P -1"
_symmetry_group_IT_number 2
_symmetry_cell_setting 'triclinic'
loop_
_space_group_symop_operation_xyz
x,y,z
-x,-y,-z
loop_
_atom_site_type_symbol
_atom_site_label
_atom_site_fract_x
_atom_site_fract_y
_atom_site_fract_z
Si Si1 0.483193 0.647956 0.752933
Si Si2 0.618120 0.607384 0.410485
Si Si3 0.863999 0.765677 0.663266
Si Si4 0.142248 0.100414 0.194661
Si Si5 0.188669 0.420916 0.748430
Si Si6 0.800865 0.176563 0.679698
Si Si7 0.913850 0.237037 0.046622
O O1 0.483101 0.571738 0.669215
O O2 0.326538 0.542942 0.695112
O O3 0.619367 0.957765 0.671285
O O4 0.500000 0.500000 0.000000
O O5 0.500000 0.500000 0.500000
O O6 0.710228 0.551564 0.603814
O O7 0.760125 0.935780 0.220871
O O8 0.943786 0.707657 0.873441
O O9 0.824915 0.866501 0.642342
O O10 0.000000 0.000000 0.500000
O O11 0.176043 0.973782 0.249970
O O12 0.960875 0.885694 0.187682
O O13 0.223006 0.383525 0.964253
O O14 0.142581 0.565759 0.560590
O O15 0.860668 0.235725 0.843581
O O16 0.000000 0.500000 0.000000
#
# Coordination Sequence:
#
# PCOD9041058 Si02
#       7
#     2   2   2   2   2   2   2
#     4  12  23  46  70  95 144 186 234 287 355 423
#     4  11  24  45  72 102 137 194 235 286 363 422
#     4  10  23  43  70  96 137 194 227 278 365 421
#     4  11  22  44  69 104 141 172 240 300 338 420
#     4  11  24  40  70 104 136 180 229 292 361 408
#     4  12  25  44  74 105 136 183 238 294 353 418
#     4  11  25  45  70 105 144 182 235 297 351 430
#
# _framework density 21.760059999999999
#
# number of rings (size 3 to 8) (size 9 to 14) (size 15 to 20)
#    0.000    0.857    2.857    5.143    6.000    0.000 
#    5.143    0.714    0.000    0.000    0.000    0.000 
#    0.000    0.000    0.000    0.000    0.000    0.000 
#
# Total GULP energy -77995.414607 kJ/mol
# GULP energy per Si atom -5571.101043 kJ/mol
# Density = 2.171053 g / cm^3
# Si number density = 21.760060 Si / 1000 Ang^3
#
#
#
# Elastic Constant Matrix: (Units=GPa)
#
#
# Indices 1 2 3 4 5 6 
#
# 1 129.7612 34.1043 57.8970 17.2933 -6.0721 -5.0505
# 2 34.1043 102.6372 33.6851 18.6986 -5.3076 -5.1676
# 3 57.8970 33.6851 115.7484 11.2455 -2.1172 -17.8597
# 4 17.2933 18.6986 11.2455 37.3933 -4.9133 -3.3239
# 5 -6.0721 -5.3076 -2.1172 -4.9133 33.6505 8.1326
# 6 -5.0505 -5.1676 -17.8597 -3.3239 8.1326 43.8967
#
#
#
# Elastic Compliance Matrix: (Units=1/GPa)
#
#
# Indices 1 2 3 4 5 6 
#
# 1 0.010597 -0.001458 -0.004801 -0.002675 0.001316 -0.001352
# 2 -0.001458 0.011827 -0.002296 -0.004455 0.000857 -0.000206
# 3 -0.004801 -0.002296 0.012390 -0.000163 -0.001559 0.004495
# 4 -0.002675 -0.004455 -0.000163 0.030738 0.003085 0.000857
# 5 0.001316 0.000857 -0.001559 0.003085 0.031907 -0.006060
# 6 -0.001352 -0.000206 0.004495 0.000857 -0.006060 0.025617
#
#
# Mechanical properties :
#
#
# Convention : Reuss Voigt Hill
#
# Bulk Modulus (GPa) = 56.48459 66.61330 61.54895
# Shear Modulus (GPa) = 34.22618 37.81880 36.02249
#
# Velocity S-wave (km/s) = 3.97027 4.17345 4.07312
# Velocity P-wave (km/s) = 6.85796 7.34184 7.10402
#
# Compressibility (1/GPa) = 0.01770394
#
# Stress axis : x y z
#
# Youngs Moduli (GPa) = 94.36318 84.55540 80.71148
#
# Poissons Ratio (x) = 0.12330 0.38750
# Poissons Ratio (y) = 0.13761 0.18528
# Poissons Ratio (z) = 0.45304 0.19411
#
# Static dielectric constant tensor:
#      x y z
#    x 0.829230 1.409570 -0.734570 
#    y 1.409570 -0.046720 0.938900 
#    z -0.734570 0.938900 1.515300 
# 
# From -- ./inp_files/332752.got.cif
#   From: 2010.05.17/outbox.cif.g08.bks.cpg/sg2_167_cif.got.tgz:332752.got - 2010.06.03 11:33:40.
