data_PCOD9041035
_publ_section_title
;
Structure prediction by ZEFSAII (Michael W. Deem and Ramdas Pophale) SiO2 
 PCOD9041035
Probable space group: P -1
;
_chemical_formula_sum "Si O2"
_cell_formula_units_Z 14
_cell_length_a 12.367982
_cell_length_b 15.143364
_cell_length_c 9.091849
_cell_angle_alpha 120.398753
_cell_angle_beta 48.272758
_cell_angle_gamma 150.896962
_cell_volume 604.594108
_symmetry_space_group_name_H-M "P -1"
_symmetry_group_IT_number 2
_symmetry_cell_setting 'triclinic'
loop_
_space_group_symop_operation_xyz
x,y,z
-x,-y,-z
loop_
_atom_site_type_symbol
_atom_site_label
_atom_site_fract_x
_atom_site_fract_y
_atom_site_fract_z
Si Si1 0.156938 0.695330 0.569163
Si Si2 0.299094 0.090573 0.715842
Si Si3 0.169553 0.013780 0.437100
Si Si4 0.456638 0.398528 0.816119
Si Si5 0.997851 0.307952 0.591663
Si Si6 0.542838 0.135547 0.002585
Si Si7 0.060146 0.823985 0.954536
O O1 0.447398 0.831304 0.457948
O O2 0.055929 0.703945 0.803702
O O3 0.000000 0.500000 0.500000
O O4 0.153153 0.767208 0.491033
O O5 0.390305 0.252355 0.831677
O O6 0.197638 0.056131 0.617576
O O7 0.094209 0.914274 0.855486
O O8 0.048449 0.827161 0.397823
O O9 0.000000 0.000000 0.500000
O O10 0.448897 0.164863 0.228530
O O11 0.703908 0.517384 0.587703
O O12 0.500000 0.500000 0.000000
O O13 0.226949 0.311003 0.848232
O O14 0.845264 0.307624 0.819943
O O15 0.315826 0.002084 0.969540
O O16 0.500000 0.000000 0.000000
#
# Coordination Sequence:
#
# PCOD9041035 Si02
#       7
#     2   2   2   2   2   2   2
#     4  12  21  40  69 103 137 167 221 290 343 389
#     4  12  23  41  73 101 131 177 235 275 339 405
#     4  11  24  46  68  98 134 183 228 281 333 406
#     4  12  24  41  63 107 143 169 218 293 346 393
#     4  11  22  45  65  95 143 175 216 283 341 395
#     4  10  23  43  70  94 134 180 229 274 334 404
#     4  12  23  41  71 103 132 178 229 284 328 410
#
# _framework density 23.156033999999998
#
# number of rings (size 3 to 8) (size 9 to 14) (size 15 to 20)
#    0.000    0.571    5.714    3.429    0.000    1.143 
#    2.571    7.143    0.000    0.000    0.000    0.000 
#    0.000    0.000    0.000    0.000    0.000    0.000 
#
# Total GULP energy -78151.367986 kJ/mol
# GULP energy per Si atom -5582.240570 kJ/mol
# Density = 2.310333 g / cm^3
# Si number density = 23.156034 Si / 1000 Ang^3
#
#
#
# Elastic Constant Matrix: (Units=GPa)
#
#
# Indices 1 2 3 4 5 6 
#
# 1 155.1947 15.1159 33.4708 -11.2916 -17.9203 8.6062
# 2 15.1159 72.8134 26.1623 -2.6277 -13.3008 -6.4944
# 3 33.4708 26.1623 108.9663 -16.6042 -21.0288 2.0993
# 4 -11.2916 -2.6277 -16.6042 32.0380 10.9144 -13.2551
# 5 -17.9203 -13.3008 -21.0288 10.9144 45.6917 -0.8543
# 6 8.6062 -6.4944 2.0993 -13.2551 -0.8543 28.2516
#
#
#
# Elastic Compliance Matrix: (Units=1/GPa)
#
#
# Indices 1 2 3 4 5 6 
#
# 1 0.007202 -0.000773 -0.001620 0.000149 0.001779 -0.002127
# 2 -0.000773 0.015928 -0.003066 0.000228 0.002949 0.004321
# 3 -0.001620 -0.003066 0.011642 0.004813 0.002704 0.001263
# 4 0.000149 0.000228 0.004813 0.045003 -0.008026 0.020521
# 5 0.001779 0.002949 0.002704 -0.008026 0.026547 -0.003028
# 6 -0.002127 0.004321 0.001263 0.020521 -0.003028 0.046480
#
#
# Mechanical properties :
#
#
# Convention : Reuss Voigt Hill
#
# Bulk Modulus (GPa) = 41.92038 54.05250 47.98644
# Shear Modulus (GPa) = 29.12538 38.67795 33.90166
#
# Velocity S-wave (km/s) = 3.55038 4.09139 3.83045
# Velocity P-wave (km/s) = 5.91182 6.76111 6.35068
#
# Compressibility (1/GPa) = 0.02385474
#
# Stress axis : x y z
#
# Youngs Moduli (GPa) = 138.84337 62.78183 85.89767
#
# Poissons Ratio (x) = 0.04851 0.13913
# Poissons Ratio (y) = 0.10727 0.26340
# Poissons Ratio (z) = 0.22489 0.19251
#
# Static dielectric constant tensor:
#      x y z
#    x 2.295840 0.118920 -0.421290 
#    y 0.118920 1.967910 -0.096720 
#    z -0.421290 -0.096720 2.385550 
# 
# From -- ./inp_files/273999.got.cif
#   From: 2010.05.17/outbox.cif.g08.bks.cpg/sg2_137_cif.got.tgz:273999.got - 2010.06.03 11:33:40.
