data_PCOD9041967
_publ_section_title
;
Structure prediction by ZEFSAII (Michael W. Deem and Ramdas Pophale) SiO2 
 PCOD9041967
Probable space group: P -1
;
_chemical_formula_sum "Si O2"
_cell_formula_units_Z 12
_cell_length_a 10.413231
_cell_length_b 7.629301
_cell_length_c 12.408730
_cell_angle_alpha 122.173494
_cell_angle_beta 45.535695
_cell_angle_gamma 128.083220
_cell_volume 544.865755
_symmetry_space_group_name_H-M "P -1"
_symmetry_group_IT_number 2
_symmetry_cell_setting 'triclinic'
loop_
_space_group_symop_operation_xyz
x,y,z
-x,-y,-z
loop_
_atom_site_type_symbol
_atom_site_label
_atom_site_fract_x
_atom_site_fract_y
_atom_site_fract_z
Si Si1 0.276494 0.465281 0.355648
Si Si2 0.213982 0.691983 0.966292
Si Si3 0.434884 0.283634 0.388844
Si Si4 0.292380 0.930680 0.541556
Si Si5 0.641457 0.567468 0.043834
Si Si6 0.909665 0.898233 0.840694
O O1 0.285937 0.317672 0.403084
O O2 0.333719 0.059795 0.445928
O O3 0.502702 0.600177 0.227126
O O4 0.168812 0.295828 0.268009
O O5 0.376183 0.713982 0.786864
O O6 0.291624 0.620639 0.007317
O O7 0.000000 0.500000 0.000000
O O8 0.184016 0.922663 0.067844
O O9 0.500000 0.500000 0.500000
O O10 0.205408 0.660073 0.489798
O O11 0.142671 0.999739 0.721390
O O12 0.500000 0.000000 0.500000
O O13 0.500000 0.500000 0.000000
O O14 0.831722 0.779574 0.962006
#
# Coordination Sequence:
#
# PCOD9041967 Si02
#       6
#     2   2   2   2   2   2
#     4  10  23  44  68  96 129 175 224 269 333 393
#     4  11  25  41  69 102 132 174 225 277 332 392
#     4  11  23  43  66  95 136 174 215 274 330 397
#     4  12  25  40  66  94 134 177 218 269 333 394
#     4   9  22  43  69  96 133 169 220 273 334 392
#     4  11  25  43  68  99 134 173 225 277 331 394
#
# _framework density 22.023774
#
# number of rings (size 3 to 8) (size 9 to 14) (size 15 to 20)
#    0.000    1.333    1.667    2.500    4.667   11.333 
#    0.000    0.000    0.000    0.000    0.000    0.000 
#    0.000    0.000    0.000    0.000    0.000    0.000 
#
# Total GULP energy -67100.420075 kJ/mol
# GULP energy per Si atom -5591.701673 kJ/mol
# Density = 2.197365 g / cm^3
# Si number density = 22.023774 Si / 1000 Ang^3
#
#
#
# Elastic Constant Matrix: (Units=GPa)
#
#
# Indices 1 2 3 4 5 6 
#
# 1 69.0993 48.8706 52.5243 -4.5642 -6.8694 -14.9683
# 2 48.8706 112.3959 69.0730 2.2435 -16.9317 -36.1252
# 3 52.5243 69.0730 127.7654 10.2797 -30.7265 -26.9974
# 4 -4.5642 2.2435 10.2797 52.1160 0.2348 6.9361
# 5 -6.8694 -16.9317 -30.7265 0.2348 27.7349 3.8901
# 6 -14.9683 -36.1252 -26.9974 6.9361 3.8901 49.6903
#
#
#
# Elastic Compliance Matrix: (Units=1/GPa)
#
#
# Indices 1 2 3 4 5 6 
#
# 1 0.026133 -0.007827 -0.009624 0.004971 -0.008579 -0.003069
# 2 -0.007827 0.017884 -0.003528 -0.001934 0.003868 0.008695
# 3 -0.009624 -0.003528 0.018756 -0.005020 0.015695 0.004199
# 4 0.004971 -0.001934 -0.005020 0.021416 -0.004958 -0.005237
# 5 -0.008579 0.003868 0.015695 -0.004958 0.052979 0.005300
# 6 -0.003069 0.008695 0.004199 -0.005237 0.005300 0.028119
#
#
# Mechanical properties :
#
#
# Convention : Reuss Voigt Hill
#
# Bulk Modulus (GPa) = 48.03775 72.24403 60.14089
# Shear Modulus (GPa) = 23.34453 35.16109 29.25281
#
# Velocity S-wave (km/s) = 3.25925 3.99996 3.64845
# Velocity P-wave (km/s) = 6.00189 7.36253 6.71676
#
# Compressibility (1/GPa) = 0.02081696
#
# Stress axis : x y z
#
# Youngs Moduli (GPa) = 38.26549 55.91534 53.31579
#
# Poissons Ratio (x) = 0.43763 0.51309
# Poissons Ratio (y) = 0.29949 0.18811
# Poissons Ratio (z) = 0.36825 0.19728
#
# Static dielectric constant tensor:
#      x y z
#    x 1.855770 0.022420 -0.009270 
#    y 0.022420 1.821250 -0.027640 
#    z -0.009270 -0.027640 1.806450 
# 
# From -- ./inp_files/510553.got.cif
#   From: 2010.05.17/outbox.cif.g08.bks.cpg/sg2_256_cif.got.tgz:510553.got - 2010.06.03 11:33:40.
