data_PCOD9041244
_publ_section_title
;
Structure prediction by ZEFSAII (Michael W. Deem and Ramdas Pophale) SiO2 
 PCOD9041244
Probable space group: P -1
;
_chemical_formula_sum "Si O2"
_cell_formula_units_Z 14
_cell_length_a 11.425417
_cell_length_b 9.700272
_cell_length_c 7.726290
_cell_angle_alpha 125.260655
_cell_angle_beta 64.216862
_cell_angle_gamma 117.639835
_cell_volume 602.643907
_symmetry_space_group_name_H-M "P -1"
_symmetry_group_IT_number 2
_symmetry_cell_setting 'triclinic'
loop_
_space_group_symop_operation_xyz
x,y,z
-x,-y,-z
loop_
_atom_site_type_symbol
_atom_site_label
_atom_site_fract_x
_atom_site_fract_y
_atom_site_fract_z
Si Si1 0.419545 0.993332 0.729219
Si Si2 0.389344 0.342486 0.868856
Si Si3 0.874228 0.195694 0.659172
Si Si4 0.865427 0.562640 0.795989
Si Si5 0.139685 0.830500 0.944560
Si Si6 0.642317 0.860681 0.589360
Si Si7 0.847104 0.794265 0.669651
O O1 0.384660 0.177264 0.875953
O O2 0.500000 0.000000 0.500000
O O3 0.529241 0.959676 0.767512
O O4 0.276534 0.853028 0.763587
O O5 0.420798 0.290623 0.618351
O O6 0.500000 0.500000 0.000000
O O7 0.247296 0.385623 0.979790
O O8 0.853988 0.359866 0.686000
O O9 0.845130 0.213715 0.894618
O O10 0.027983 0.192176 0.530889
O O11 0.769536 0.011574 0.533357
O O12 0.835251 0.624093 0.670221
O O13 0.013713 0.683836 0.840751
O O14 0.114027 0.023681 0.112952
O O15 0.710544 0.791060 0.654000
#
# Coordination Sequence:
#
# PCOD9041244 Si02
#       7
#     2   2   2   2   2   2   2
#     4  10  23  43  72 101 135 185 237 284 351 410
#     4  11  23  45  72 101 137 182 233 292 351 410
#     4  11  24  42  69 106 146 181 227 291 350 414
#     4  12  24  42  71 106 144 180 236 287 344 413
#     4  11  23  44  73 102 141 188 235 285 346 409
#     4  10  23  45  71  93 145 178 232 284 353 415
#     4  11  23  42  69 105 138 185 228 284 351 411
#
# _framework density 23.230965999999999
#
# number of rings (size 3 to 8) (size 9 to 14) (size 15 to 20)
#    0.000    1.143    1.429    5.571    4.000    2.286 
#    7.714    0.714    0.000    0.000    0.000    0.000 
#    0.000    0.000    0.000    0.000    0.000    0.000 
#
# Total GULP energy -78293.118742 kJ/mol
# GULP energy per Si atom -5592.365624 kJ/mol
# Density = 2.317809 g / cm^3
# Si number density = 23.230966 Si / 1000 Ang^3
#
#
#
# Elastic Constant Matrix: (Units=GPa)
#
#
# Indices 1 2 3 4 5 6 
#
# 1 120.5209 42.1320 22.6553 3.3878 3.4684 -13.5801
# 2 42.1320 109.8089 27.3041 -2.1291 14.0117 -19.7427
# 3 22.6553 27.3041 76.0889 -15.5104 5.2865 -5.2558
# 4 3.3878 -2.1291 -15.5104 33.9486 6.4876 -5.2182
# 5 3.4684 14.0117 5.2865 6.4876 40.1456 0.6984
# 6 -13.5801 -19.7427 -5.2558 -5.2182 0.6984 38.6162
#
#
#
# Elastic Compliance Matrix: (Units=1/GPa)
#
#
# Indices 1 2 3 4 5 6 
#
# 1 0.010024 -0.003215 -0.002256 -0.002209 0.000888 0.001260
# 2 -0.003215 0.012454 -0.002568 0.001499 -0.004063 0.005164
# 3 -0.002256 -0.002568 0.016710 0.008380 -0.002487 0.001346
# 4 -0.002209 0.001499 0.008380 0.035945 -0.007351 0.006121
# 5 0.000888 -0.004063 -0.002487 -0.007351 0.027829 -0.003600
# 6 0.001260 0.005164 0.001346 0.006121 -0.003600 0.030054
#
#
# Mechanical properties :
#
#
# Convention : Reuss Voigt Hill
#
# Bulk Modulus (GPa) = 43.26812 54.51130 48.88971
# Shear Modulus (GPa) = 31.88864 36.83057 34.35960
#
# Velocity S-wave (km/s) = 3.70899 3.98604 3.85001
# Velocity P-wave (km/s) = 6.08340 6.68585 6.39172
#
# Compressibility (1/GPa) = 0.02311171
#
# Stress axis : x y z
#
# Youngs Moduli (GPa) = 99.76431 80.29282 59.84574
#
# Poissons Ratio (x) = 0.25811 0.13500
# Poissons Ratio (y) = 0.32070 0.15366
# Poissons Ratio (z) = 0.22505 0.20616
#
# Static dielectric constant tensor:
#      x y z
#    x 1.871390 -0.023280 0.008070 
#    y -0.023280 1.866750 -0.028130 
#    z 0.008070 -0.028130 1.920860 
# 
# From -- ./inp_files/199652.got.cif
#   From: 2010.05.17/outbox.cif.g08.bks.cpg/sg2_100_cif.got.tgz:199652.got - 2010.06.03 11:33:40.
