data_PCOD9041099
_publ_section_title
;
Structure prediction by ZEFSAII (Michael W. Deem and Ramdas Pophale) SiO2 
 PCOD9041099
Probable space group: P -1
;
_chemical_formula_sum "Si O2"
_cell_formula_units_Z 16
_cell_length_a 6.464803
_cell_length_b 5.304674
_cell_length_c 28.914184
_cell_angle_alpha 70.926353
_cell_angle_beta 53.922960
_cell_angle_gamma 101.172145
_cell_volume 653.483096
_symmetry_space_group_name_H-M "P -1"
_symmetry_group_IT_number 2
_symmetry_cell_setting 'triclinic'
loop_
_space_group_symop_operation_xyz
x,y,z
-x,-y,-z
loop_
_atom_site_type_symbol
_atom_site_label
_atom_site_fract_x
_atom_site_fract_y
_atom_site_fract_z
Si Si1 0.485919 0.899084 0.060726
Si Si2 0.172675 0.577804 0.834113
Si Si3 0.960460 0.955314 0.227222
Si Si4 0.767241 0.050728 0.427930
Si Si5 0.574272 0.676370 0.694300
Si Si6 0.376575 0.647157 0.905378
Si Si7 0.393226 0.086959 0.644675
Si Si8 0.826104 0.683289 0.513675
O O1 0.588542 0.645419 0.067684
O O2 0.128843 0.717997 0.127709
O O3 0.673507 0.189025 0.053242
O O4 0.500000 0.000000 0.000000
O O5 0.462336 0.623634 0.765661
O O6 0.187447 0.561445 0.888435
O O7 0.131007 0.863562 0.808063
O O8 0.714203 0.600031 0.275594
O O9 0.908142 0.045501 0.279678
O O10 0.301642 0.074333 0.169808
O O11 0.786430 0.759964 0.462183
O O12 0.465524 0.550719 0.405925
O O13 0.500000 0.000000 0.500000
O O14 0.652412 0.042263 0.392725
O O15 0.586801 0.987483 0.655779
O O16 0.879883 0.691839 0.638263
O O17 0.000000 0.500000 0.500000
O O18 0.000000 0.000000 0.500000
#
# Coordination Sequence:
#
# PCOD9041099 Si02
#       8
#     2   2   2   2   2   2   2   2
#     4  11  25  45  72 112 155 195 242 297 353 425
#     4  10  24  44  72 106 144 194 241 301 360 430
#     4  10  23  43  70  99 139 183 240 302 358 435
#     4  12  27  44  70 101 134 184 243 305 374 455
#     4  11  23  47  70  96 141 183 236 305 371 434
#     4  11  24  44  74 107 149 195 247 294 356 431
#     4  11  25  43  66  98 130 179 235 298 371 438
#     4  12  25  48  71  93 135 179 225 295 369 434
#
# _framework density 24.484183000000002
#
# number of rings (size 3 to 8) (size 9 to 14) (size 15 to 20)
#    0.000    1.000    2.500    3.000    3.500    2.000 
#    4.500    0.000    0.000    0.000    0.000    0.000 
#    0.000    0.000    0.000    0.000    0.000    0.000 
#
# Total GULP energy -89352.449498 kJ/mol
# GULP energy per Si atom -5584.528094 kJ/mol
# Density = 2.442846 g / cm^3
# Si number density = 24.484183 Si / 1000 Ang^3
#
#
#
# Elastic Constant Matrix: (Units=GPa)
#
#
# Indices 1 2 3 4 5 6 
#
# 1 54.0689 26.2407 27.2078 0.6067 8.1786 6.5794
# 2 26.2407 113.2388 19.2352 6.0193 11.5157 11.4253
# 3 27.2078 19.2352 118.6862 13.9604 22.4734 -5.3454
# 4 0.6067 6.0193 13.9604 40.5326 7.1618 2.3323
# 5 8.1786 11.5157 22.4734 7.1618 44.1195 6.4464
# 6 6.5794 11.4253 -5.3454 2.3323 6.4464 29.0060
#
#
#
# Elastic Compliance Matrix: (Units=1/GPa)
#
#
# Indices 1 2 3 4 5 6 
#
# 1 0.023774 -0.004235 -0.005197 0.002400 -0.000343 -0.004799
# 2 -0.004235 0.010353 -0.000524 -0.000937 -0.001075 -0.002900
# 3 -0.005197 -0.000524 0.011191 -0.003127 -0.004789 0.004763
# 4 0.002400 -0.000937 -0.003127 0.026437 -0.002562 -0.002308
# 5 -0.000343 -0.001075 -0.004789 -0.002562 0.026759 -0.006123
# 6 -0.004799 -0.002900 0.004763 -0.002308 -0.006123 0.039130
#
#
# Mechanical properties :
#
#
# Convention : Reuss Voigt Hill
#
# Bulk Modulus (GPa) = 39.36079 47.92903 43.64491
# Shear Modulus (GPa) = 30.11575 36.95230 33.53402
#
# Velocity S-wave (km/s) = 3.51095 3.88910 3.70485
# Velocity P-wave (km/s) = 5.70496 6.30752 6.01379
#
# Compressibility (1/GPa) = 0.02540599
#
# Stress axis : x y z
#
# Youngs Moduli (GPa) = 42.06210 96.59134 89.35775
#
# Poissons Ratio (x) = 0.40905 0.46441
# Poissons Ratio (y) = 0.17813 0.04682
# Poissons Ratio (z) = 0.21861 0.05061
#
# Static dielectric constant tensor:
#      x y z
#    x 1.980430 0.007310 -0.074440 
#    y 0.007310 2.049760 0.018200 
#    z -0.074440 0.018200 2.001260 
# 
# From -- ./inp_files/614872.got.cif
#   From: 2010.05.17/outbox.cif.g08.bks.cpg/sg2_308_cif.got.tgz:614872.got - 2010.06.03 11:33:40.
