data_PCOD9041287
_publ_section_title
;
Structure prediction by ZEFSAII (Michael W. Deem and Ramdas Pophale) SiO2 
 PCOD9041287
Probable space group: P -1
;
_chemical_formula_sum "Si O2"
_cell_formula_units_Z 10
_cell_length_a 9.404777
_cell_length_b 11.410469
_cell_length_c 5.420961
_cell_angle_alpha 101.723812
_cell_angle_beta 61.438810
_cell_angle_gamma 130.175015
_cell_volume 385.571897
_symmetry_space_group_name_H-M "P -1"
_symmetry_group_IT_number 2
_symmetry_cell_setting 'triclinic'
loop_
_space_group_symop_operation_xyz
x,y,z
-x,-y,-z
loop_
_atom_site_type_symbol
_atom_site_label
_atom_site_fract_x
_atom_site_fract_y
_atom_site_fract_z
Si Si1 0.632350 0.041969 0.152437
Si Si2 0.923413 0.789207 0.738643
Si Si3 0.021770 0.389625 0.096100
Si Si4 0.498130 0.379991 0.293956
Si Si5 0.736144 0.877033 0.288364
O O1 0.844873 0.220955 0.040937
O O2 0.500000 0.000000 0.500000
O O3 0.690303 0.930358 0.102997
O O4 0.500000 0.000000 0.000000
O O5 0.008505 0.693368 0.645714
O O6 0.715113 0.707153 0.720058
O O7 0.848486 0.807886 0.077269
O O8 0.113524 0.969083 0.604864
O O9 0.276639 0.513488 0.970264
O O10 0.000000 0.500000 0.000000
O O11 0.500000 0.500000 0.500000
O O12 0.468745 0.254363 0.447231
#
# Coordination Sequence:
#
# PCOD9041287 Si02
#       5
#     2   2   2   2   2
#     4  11  27  49  72 105 146 195 242 297 368 436
#     4  10  23  44  67 100 139 188 242 285 361 436
#     4  11  25  44  69 106 142 184 240 302 368 422
#     4  12  24  41  71 106 141 184 239 304 362 429
#     4  10  23  43  72  96 138 192 241 288 351 439
#
# _framework density 25.935497999999999
#
# number of rings (size 3 to 8) (size 9 to 14) (size 15 to 20)
#    0.000    1.200    2.000    2.400    5.600    3.200 
#    0.000    3.000    0.000    0.000    0.000    0.000 
#    0.000    0.000    0.000    0.000    0.000    0.000 
#
# Total GULP energy -55672.733394 kJ/mol
# GULP energy per Si atom -5567.273339 kJ/mol
# Density = 2.587647 g / cm^3
# Si number density = 25.935498 Si / 1000 Ang^3
#
#
#
# Elastic Constant Matrix: (Units=GPa)
#
#
# Indices 1 2 3 4 5 6 
#
# 1 151.2916 60.8246 23.4711 3.5131 53.5566 6.7878
# 2 60.8246 191.4861 56.2060 -39.0783 38.7762 13.4065
# 3 23.4711 56.2060 78.3952 -17.5898 20.9420 1.4576
# 4 3.5131 -39.0783 -17.5898 44.3640 -4.5193 12.0722
# 5 53.5566 38.7762 20.9420 -4.5193 39.6136 -1.2789
# 6 6.7878 13.4065 1.4576 12.0722 -1.2789 59.4893
#
#
#
# Elastic Compliance Matrix: (Units=1/GPa)
#
#
# Indices 1 2 3 4 5 6 
#
# 1 0.013474 -0.001764 0.001079 -0.003765 -0.017516 -0.000779
# 2 -0.001764 0.009437 -0.003293 0.007653 -0.004351 -0.003491
# 3 0.001079 -0.003293 0.017464 0.003391 -0.007102 -0.000650
# 4 -0.003765 0.007653 0.003391 0.033060 -0.000684 -0.008102
# 5 -0.017516 -0.004351 -0.007102 -0.000684 0.057006 0.004517
# 6 -0.000779 -0.003491 -0.000650 -0.008102 0.004517 0.019443
#
#
# Mechanical properties :
#
#
# Convention : Reuss Voigt Hill
#
# Bulk Modulus (GPa) = 30.84585 78.01959 54.43272
# Shear Modulus (GPa) = 29.64808 47.40478 38.52643
#
# Velocity S-wave (km/s) = 3.38471 4.27991 3.85836
# Velocity P-wave (km/s) = 5.21480 7.38722 6.39395
#
# Compressibility (1/GPa) = 0.03241927
#
# Stress axis : x y z
#
# Youngs Moduli (GPa) = 74.21581 105.97109 57.26056
#
# Poissons Ratio (x) = 0.18690 -0.06179
# Poissons Ratio (y) = 0.13089 0.18857
# Poissons Ratio (z) = -0.08008 0.34898
#
# Static dielectric constant tensor:
#      x y z
#    x 2.375620 0.086820 -0.039000 
#    y 0.086820 2.118940 0.051080 
#    z -0.039000 0.051080 2.078430 
# 
# From -- ./inp_files/15194.got.cif
#   From: 2010.05.17/outbox.cif.g08.bks.cpg/sg2_8_cif.got.tgz:15194.got - 2010.06.03 11:33:40.
