data_PCOD9041304
_publ_section_title
;
Structure prediction by ZEFSAII (Michael W. Deem and Ramdas Pophale) SiO2 
 PCOD9041304
Probable space group: P -1
;
_chemical_formula_sum "Si O2"
_cell_formula_units_Z 14
_cell_length_a 16.640350
_cell_length_b 9.054354
_cell_length_c 6.109263
_cell_angle_alpha 53.823941
_cell_angle_beta 52.244428
_cell_angle_gamma 54.976265
_cell_volume 553.925004
_symmetry_space_group_name_H-M "P -1"
_symmetry_group_IT_number 2
_symmetry_cell_setting 'triclinic'
loop_
_space_group_symop_operation_xyz
x,y,z
-x,-y,-z
loop_
_atom_site_type_symbol
_atom_site_label
_atom_site_fract_x
_atom_site_fract_y
_atom_site_fract_z
Si Si1 0.387605 0.535346 0.785707
Si Si2 0.770935 0.101069 0.481033
Si Si3 0.619606 0.865587 0.964590
Si Si4 0.905810 0.921299 0.063692
Si Si5 0.770510 0.693755 0.223934
Si Si6 0.957076 0.472701 0.844504
Si Si7 0.761056 0.290373 0.775755
O O1 0.500000 0.500000 0.500000
O O2 0.285331 0.680804 0.701968
O O3 0.370030 0.331027 0.006098
O O4 0.358245 0.643455 0.973079
O O5 0.765374 0.142360 0.705784
O O6 0.882284 0.959137 0.326529
O O7 0.689849 0.989234 0.650198
O O8 0.654513 0.811313 0.208669
O O9 0.500000 0.000000 0.000000
O O10 0.826011 0.814092 0.180481
O O11 0.020709 0.758672 0.977802
O O12 0.863715 0.145407 0.861833
O O13 0.776452 0.491583 0.505867
O O14 0.838913 0.623511 0.945281
O O15 0.000000 0.500000 0.500000
O O16 0.000000 0.500000 0.000000
#
# Coordination Sequence:
#
# PCOD9041304 Si02
#       7
#     2   2   2   2   2   2   2
#     4  11  24  44  63  96 134 178 233 293 344 418
#     4  11  22  43  65  96 139 176 226 293 344 425
#     4  12  23  41  68  95 131 182 230 283 356 421
#     4  10  23  43  72  99 139 184 233 288 357 425
#     4  11  23  45  70 101 143 185 235 297 353 425
#     4  10  23  44  75 108 144 191 238 295 361 427
#     4  11  24  42  70 100 138 182 231 291 360 416
#
# _framework density 25.274182
#
# number of rings (size 3 to 8) (size 9 to 14) (size 15 to 20)
#    0.000    1.143    4.286    1.714    2.000    2.286 
#    0.000    4.286    0.000    0.000    0.000    0.000 
#    0.000    0.000    0.000    0.000    0.000    0.000 
#
# Total GULP energy -77945.737494 kJ/mol
# GULP energy per Si atom -5567.552678 kJ/mol
# Density = 2.521666 g / cm^3
# Si number density = 25.274182 Si / 1000 Ang^3
#
#
#
# Elastic Constant Matrix: (Units=GPa)
#
#
# Indices 1 2 3 4 5 6 
#
# 1 82.3412 51.3964 7.5826 14.9360 5.8154 8.5261
# 2 51.3964 170.9321 64.4908 -4.8415 15.3864 9.2955
# 3 7.5826 64.4908 82.1444 13.8972 10.4873 13.4971
# 4 14.9360 -4.8415 13.8972 60.5278 5.6994 11.5529
# 5 5.8154 15.3864 10.4873 5.6994 16.6793 -8.0818
# 6 8.5261 9.2955 13.4971 11.5529 -8.0818 42.2127
#
#
#
# Elastic Compliance Matrix: (Units=1/GPa)
#
#
# Indices 1 2 3 4 5 6 
#
# 1 0.017596 -0.007240 0.005775 -0.005470 -0.002576 -0.002802
# 2 -0.007240 0.012067 -0.008915 0.005458 -0.005277 -0.000848
# 3 0.005775 -0.008915 0.021678 -0.005057 -0.008811 -0.006437
# 4 -0.005470 0.005458 -0.005057 0.021679 -0.010465 -0.006417
# 5 -0.002576 -0.005277 -0.008811 -0.010465 0.086421 0.023909
# 6 -0.002802 -0.000848 -0.006437 -0.006417 0.023909 0.032834
#
#
# Mechanical properties :
#
#
# Convention : Reuss Voigt Hill
#
# Bulk Modulus (GPa) = 32.70189 64.70636 48.70412
# Shear Modulus (GPa) = 22.39839 38.01384 30.20611
#
# Velocity S-wave (km/s) = 2.98017 3.88243 3.46083
# Velocity P-wave (km/s) = 4.98084 6.76424 5.93986
#
# Compressibility (1/GPa) = 0.03057927
#
# Stress axis : x y z
#
# Youngs Moduli (GPa) = 56.82976 82.87260 46.12945
#
# Poissons Ratio (x) = 0.60003 -0.26638
# Poissons Ratio (y) = 0.41147 0.41126
# Poissons Ratio (z) = -0.32818 0.73884
#
# Static dielectric constant tensor:
#      x y z
#    x 2.169260 -0.023860 0.130300 
#    y -0.023860 1.960960 0.047870 
#    z 0.130300 0.047870 2.348840 
# 
# From -- ./inp_files/52032.got.cif
#   From: 2010.05.17/outbox.cif.g08.bks.cpg/sg2_27_cif.got.tgz:52032.got - 2010.06.03 11:33:40.
