data_PCOD9041248
_publ_section_title
;
Structure prediction by ZEFSAII (Michael W. Deem and Ramdas Pophale) SiO2 
 PCOD9041248
Probable space group: P -1
;
_chemical_formula_sum "Si O2"
_cell_formula_units_Z 13
_cell_length_a 5.918651
_cell_length_b 11.212941
_cell_length_c 9.936337
_cell_angle_alpha 102.261234
_cell_angle_beta 111.647335
_cell_angle_gamma 59.052582
_cell_volume 525.453288
_symmetry_space_group_name_H-M "P -1"
_symmetry_group_IT_number 2
_symmetry_cell_setting 'triclinic'
loop_
_space_group_symop_operation_xyz
x,y,z
-x,-y,-z
loop_
_atom_site_type_symbol
_atom_site_label
_atom_site_fract_x
_atom_site_fract_y
_atom_site_fract_z
Si Si1 0.549417 0.095693 0.427288
Si Si2 0.970664 0.181711 0.234041
Si Si3 0.757900 0.397530 0.441572
Si Si4 0.162038 0.413005 0.720517
Si Si5 0.028929 0.904287 0.289304
Si Si6 0.000000 0.500000 0.000000
Si Si7 0.752833 0.306151 0.926556
O O1 0.712903 0.158269 0.564473
O O2 0.250924 0.192763 0.321278
O O3 0.500000 0.000000 0.500000
O O4 0.756176 0.991347 0.337214
O O5 0.762332 0.270641 0.329655
O O6 0.842010 0.239919 0.076330
O O7 0.048806 0.021761 0.230750
O O8 0.500000 0.500000 0.500000
O O9 0.797914 0.487600 0.353644
O O10 0.020028 0.340548 0.586174
O O11 0.464475 0.314886 0.823393
O O12 0.977531 0.491278 0.827340
O O13 0.029129 0.791632 0.161747
O O14 0.765123 0.448638 0.957446
#
# Coordination Sequence:
#
# PCOD9041248 Si02
#       7
#     2   2   2   2   2   1   2
#     4   9  21  42  68 101 138 181 232 285 356 422
#     4  11  24  43  70 103 144 178 237 294 355 430
#     4  11  25  46  73 104 139 190 241 294 353 429
#     4  11  26  45  70 100 141 188 241 292 355 421
#     4  10  23  43  72 101 137 185 231 292 356 426
#     4  12  26  44  70  98 144 192 234 298 348 420
#     4  12  26  45  69 104 144 188 238 294 362 421
#
# _framework density 24.740545000000001
#
# number of rings (size 3 to 8) (size 9 to 14) (size 15 to 20)
#    0.000    1.231    1.538    2.769    2.154   14.154 
#    0.000    0.000    0.000    0.000    0.000    0.000 
#    0.000    0.000    0.000    0.000    0.000    0.000 
#
# Total GULP energy -72574.436046 kJ/mol
# GULP energy per Si atom -5582.648927 kJ/mol
# Density = 2.468423 g / cm^3
# Si number density = 24.740545 Si / 1000 Ang^3
#
#
#
# Elastic Constant Matrix: (Units=GPa)
#
#
# Indices 1 2 3 4 5 6 
#
# 1 96.3011 18.1937 52.9870 -19.1269 -5.8631 -8.5317
# 2 18.1937 55.6477 35.7069 -3.6149 8.0786 -11.7835
# 3 52.9870 35.7069 206.9746 -17.2738 -12.0854 -21.4216
# 4 -19.1269 -3.6149 -17.2738 48.4588 -3.7451 0.5986
# 5 -5.8631 8.0786 -12.0854 -3.7451 44.5497 -7.0610
# 6 -8.5317 -11.7835 -21.4216 0.5986 -7.0610 30.8139
#
#
#
# Elastic Compliance Matrix: (Units=1/GPa)
#
#
# Indices 1 2 3 4 5 6 
#
# 1 0.013276 -0.002577 -0.002305 0.004377 0.002196 0.001506
# 2 -0.002577 0.022369 -0.003050 -0.000845 -0.004550 0.004694
# 3 -0.002305 -0.003050 0.006564 0.001368 0.002676 0.003346
# 4 0.004377 -0.000845 0.001368 0.023023 0.003379 0.002167
# 5 0.002196 -0.004550 0.002676 0.003379 0.025606 0.006530
# 6 0.001506 0.004694 0.003346 0.002167 0.006530 0.038445
#
#
# Mechanical properties :
#
#
# Convention : Reuss Voigt Hill
#
# Bulk Modulus (GPa) = 37.95590 63.63320 50.79455
# Shear Modulus (GPa) = 32.48262 41.56686 37.02474
#
# Velocity S-wave (km/s) = 3.62737 4.10336 3.87269
# Velocity P-wave (km/s) = 5.73748 6.94451 6.36965
#
# Compressibility (1/GPa) = 0.02634636
#
# Stress axis : x y z
#
# Youngs Moduli (GPa) = 75.32635 44.70417 152.33796
#
# Poissons Ratio (x) = 0.11521 0.35108
# Poissons Ratio (y) = 0.19412 0.46459
# Poissons Ratio (z) = 0.17360 0.13633
#
# Static dielectric constant tensor:
#      x y z
#    x 2.054140 0.061060 0.023630 
#    y 0.061060 2.086550 0.031490 
#    z 0.023630 0.031490 1.907750 
# 
# From -- ./inp_files/35904.got.cif
#   From: 2010.05.17/outbox.cif.g08.bks.cpg/sg2_18_cif.got.tgz:35904.got - 2010.06.03 11:33:40.
