data_PCOD9041608
_publ_section_title
;
Structure prediction by ZEFSAII (Michael W. Deem and Ramdas Pophale) SiO2 
 PCOD9041608
Probable space group: P -1
;
_chemical_formula_sum "Si O2"
_cell_formula_units_Z 14
_cell_length_a 21.235898
_cell_length_b 4.940017
_cell_length_c 7.811883
_cell_angle_alpha 106.563062
_cell_angle_beta 136.283124
_cell_angle_gamma 78.470156
_cell_volume 542.836531
_symmetry_space_group_name_H-M "P -1"
_symmetry_group_IT_number 2
_symmetry_cell_setting 'triclinic'
loop_
_space_group_symop_operation_xyz
x,y,z
-x,-y,-z
loop_
_atom_site_type_symbol
_atom_site_label
_atom_site_fract_x
_atom_site_fract_y
_atom_site_fract_z
Si Si1 0.173071 0.674898 0.453125
Si Si2 0.598606 0.943540 0.492221
Si Si3 0.508957 0.589945 0.833549
Si Si4 0.686745 0.406816 0.988654
Si Si5 0.853724 0.429222 0.129051
Si Si6 0.012535 0.727551 0.358211
Si Si7 0.788452 0.926140 0.703532
O O1 0.072139 0.787991 0.319142
O O2 0.166221 0.343828 0.339381
O O3 0.217034 0.838600 0.411428
O O4 0.242838 0.711878 0.754643
O O5 0.542924 0.676632 0.404671
O O6 0.688909 0.836848 0.555652
O O7 0.633227 0.155769 0.744226
O O8 0.540716 0.128883 0.276480
O O9 0.612864 0.595502 0.973409
O O10 0.500000 0.500000 0.000000
O O11 0.754579 0.545781 0.004452
O O12 0.917277 0.461325 0.426292
O O13 0.916487 0.567621 0.131902
O O14 0.836582 0.105167 0.982063
O O15 0.000000 0.000000 0.500000
#
# Coordination Sequence:
#
# PCOD9041608 Si02
#       7
#     2   2   2   2   2   2   2
#     4  11  26  42  69  95 134 170 219 274 323 389
#     4  11  24  43  66  94 135 172 218 267 319 392
#     4  12  24  42  66  99 132 170 216 274 324 378
#     4  10  23  44  65  96 127 179 218 264 326 388
#     4   9  23  43  66  92 133 173 216 272 321 400
#     4  10  23  44  66  96 129 174 219 266 329 390
#     4  11  24  44  64 101 130 174 218 267 333 379
#
# _framework density 25.790452999999999
#
# number of rings (size 3 to 8) (size 9 to 14) (size 15 to 20)
#    0.000    1.429    0.000    3.857    8.000    3.429 
#    7.714    0.000    0.000    0.000    0.000    0.000 
#    0.000    0.000    0.000    0.000    0.000    0.000 
#
# Total GULP energy -78406.792902 kJ/mol
# GULP energy per Si atom -5600.485207 kJ/mol
# Density = 2.573175 g / cm^3
# Si number density = 25.790453 Si / 1000 Ang^3
#
#
#
# Elastic Constant Matrix: (Units=GPa)
#
#
# Indices 1 2 3 4 5 6 
#
# 1 153.3033 18.5455 33.6970 3.4703 32.9370 -29.3075
# 2 18.5455 91.0730 18.2596 10.8384 5.7240 -2.9162
# 3 33.6970 18.2596 104.9387 3.4678 5.7234 -0.6267
# 4 3.4703 10.8384 3.4678 27.4202 7.9527 -9.1555
# 5 32.9370 5.7240 5.7234 7.9527 50.2237 1.2392
# 6 -29.3075 -2.9162 -0.6267 -9.1555 1.2392 37.4120
#
#
#
# Elastic Compliance Matrix: (Units=1/GPa)
#
#
# Indices 1 2 3 4 5 6 
#
# 1 0.010688 -0.001408 -0.002882 0.004992 -0.007550 0.009686
# 2 -0.001408 0.012093 -0.001524 -0.005050 0.000554 -0.001440
# 3 -0.002882 -0.001524 0.010694 -0.001600 0.001163 -0.002628
# 4 0.004992 -0.005050 -0.001600 0.046027 -0.010176 0.015091
# 5 -0.007550 0.000554 0.001163 -0.010176 0.026505 -0.009220
# 6 0.009686 -0.001440 -0.002628 0.015091 -0.009220 0.038159
#
#
# Mechanical properties :
#
#
# Convention : Reuss Voigt Hill
#
# Bulk Modulus (GPa) = 45.77581 54.47990 50.12786
# Shear Modulus (GPa) = 30.66073 41.59872 36.12973
#
# Velocity S-wave (km/s) = 3.45170 4.02051 3.74691
# Velocity P-wave (km/s) = 5.80287 6.53625 6.18045
#
# Compressibility (1/GPa) = 0.02184560
#
# Stress axis : x y z
#
# Youngs Moduli (GPa) = 93.56648 82.69552 93.51198
#
# Poissons Ratio (x) = 0.11643 0.26953
# Poissons Ratio (y) = 0.13173 0.14251
# Poissons Ratio (z) = 0.26969 0.12603
#
# Static dielectric constant tensor:
#      x y z
#    x 2.085090 -0.010920 -0.031220 
#    y -0.010920 1.982600 -0.051370 
#    z -0.031220 -0.051370 2.057390 
# 
# From -- ./inp_files/335369.got.cif
#   From: 2010.05.17/outbox.cif.g08.bks.cpg/sg2_168_cif.got.tgz:335369.got - 2010.06.03 11:33:40.
