data_PCOD9041999
_publ_section_title
;
Structure prediction by ZEFSAII (Michael W. Deem and Ramdas Pophale) SiO2 
 PCOD9041999
Probable space group: P -1
;
_chemical_formula_sum "Si O2"
_cell_formula_units_Z 8
_cell_length_a 6.766394
_cell_length_b 9.132626
_cell_length_c 8.312671
_cell_angle_alpha 46.917665
_cell_angle_beta 106.979139
_cell_angle_gamma 87.916933
_cell_volume 337.760470
_symmetry_space_group_name_H-M "P -1"
_symmetry_group_IT_number 2
_symmetry_cell_setting 'triclinic'
loop_
_space_group_symop_operation_xyz
x,y,z
-x,-y,-z
loop_
_atom_site_type_symbol
_atom_site_label
_atom_site_fract_x
_atom_site_fract_y
_atom_site_fract_z
Si Si1 0.900760 0.360356 0.693638
Si Si2 0.376473 0.854439 0.714175
Si Si3 0.766490 0.490190 0.897860
Si Si4 0.265734 0.979100 0.251956
O O1 0.757079 0.502683 0.694466
O O2 0.769968 0.233205 0.661108
O O3 0.000000 0.500000 0.500000
O O4 0.096123 0.177719 0.969624
O O5 0.575397 0.671146 0.808956
O O6 0.232520 0.978918 0.437612
O O7 0.495763 0.995664 0.729180
O O8 0.261268 0.732453 0.890962
O O9 0.000000 0.500000 0.000000
#
# Coordination Sequence:
#
# PCOD9041999 Si02
#       4
#     2   2   2   2
#     4  11  24  44  67  95 138 172 211 268 332 381
#     4  10  23  44  68  98 128 168 228 263 320 386
#     4  11  22  42  71  95 132 174 212 272 325 381
#     4  10  23  45  63 100 132 167 222 268 316 393
#
# _framework density 23.685424000000001
#
# number of rings (size 3 to 8) (size 9 to 14) (size 15 to 20)
#    0.000    1.500    2.500    1.500    3.500    3.000 
#   18.000    0.000    0.000    0.000    0.000    0.000 
#    0.000    0.000    0.000    0.000    0.000    0.000 
#
# Total GULP energy -44793.307343 kJ/mol
# GULP energy per Si atom -5599.163418 kJ/mol
# Density = 2.363151 g / cm^3
# Si number density = 23.685424 Si / 1000 Ang^3
#
#
#
# Elastic Constant Matrix: (Units=GPa)
#
#
# Indices 1 2 3 4 5 6 
#
# 1 164.5623 86.0417 79.3608 -1.3172 -36.5376 24.7532
# 2 86.0417 144.4388 44.8022 5.1041 -6.5671 46.2074
# 3 79.3608 44.8022 127.8467 -1.7349 -19.3259 18.5904
# 4 -1.3172 5.1041 -1.7349 38.4319 5.2819 0.4299
# 5 -36.5376 -6.5671 -19.3259 5.2819 57.2143 -6.9132
# 6 24.7532 46.2074 18.5904 0.4299 -6.9132 48.5109
#
#
#
# Elastic Compliance Matrix: (Units=1/GPa)
#
#
# Indices 1 2 3 4 5 6 
#
# 1 0.013081 -0.006743 -0.005210 0.000239 0.006114 0.002614
# 2 -0.006743 0.014173 0.000178 -0.001468 -0.003771 -0.010652
# 3 -0.005210 0.000178 0.011300 0.000292 0.000265 -0.001806
# 4 0.000239 -0.001468 0.000292 0.026545 -0.002295 0.000602
# 5 0.006114 -0.003771 0.000265 -0.002295 0.021671 0.003479
# 6 0.002614 -0.010652 -0.001806 0.000602 0.003479 0.030609
#
#
# Mechanical properties :
#
#
# Convention : Reuss Voigt Hill
#
# Bulk Modulus (GPa) = 66.64574 95.25078 80.94826
# Shear Modulus (GPa) = 34.26301 43.94095 39.10198
#
# Velocity S-wave (km/s) = 3.80753 4.31186 4.06752
# Velocity P-wave (km/s) = 6.89410 8.06795 7.50401
#
# Compressibility (1/GPa) = 0.01500471
#
# Stress axis : x y z
#
# Youngs Moduli (GPa) = 76.44831 70.55707 88.49477
#
# Poissons Ratio (x) = 0.47576 0.46102
# Poissons Ratio (y) = 0.51548 -0.01574
# Poissons Ratio (z) = 0.39826 -0.01255
#
# Static dielectric constant tensor:
#      x y z
#    x 1.874820 -0.008640 0.037430 
#    y -0.008640 1.919040 -0.037610 
#    z 0.037430 -0.037610 1.935090 
# 
# From -- ./inp_files/16485.got.cif
#   From: 2010.05.17/outbox.cif.g08.bks.cpg/sg2_9_cif.got.tgz:16485.got - 2010.06.03 11:33:40.
