data_PCOD9041481
_publ_section_title
;
Structure prediction by ZEFSAII (Michael W. Deem and Ramdas Pophale) SiO2 
 PCOD9041481
Probable space group: P -1
;
_chemical_formula_sum "Si O2"
_cell_formula_units_Z 16
_cell_length_a 5.699939
_cell_length_b 9.291368
_cell_length_c 22.176416
_cell_angle_alpha 126.105855
_cell_angle_beta 138.958294
_cell_angle_gamma 56.425293
_cell_volume 609.859413
_symmetry_space_group_name_H-M "P -1"
_symmetry_group_IT_number 2
_symmetry_cell_setting 'triclinic'
loop_
_space_group_symop_operation_xyz
x,y,z
-x,-y,-z
loop_
_atom_site_type_symbol
_atom_site_label
_atom_site_fract_x
_atom_site_fract_y
_atom_site_fract_z
Si Si1 0.564789 0.090575 0.110078
Si Si2 0.605547 0.556104 0.408174
Si Si3 0.616324 0.143910 0.807959
Si Si4 0.560648 0.279751 0.036029
Si Si5 0.449409 0.254564 0.678768
Si Si6 0.501849 0.105167 0.462703
Si Si7 0.185410 0.382488 0.871552
Si Si8 0.665791 0.189621 0.289564
O O1 0.493597 0.252302 0.087059
O O2 0.552273 0.164748 0.193142
O O3 0.974462 0.967017 0.150692
O O4 0.333882 0.934043 0.014708
O O5 0.697525 0.620661 0.375123
O O6 0.374638 0.711927 0.444970
O O7 0.454134 0.374786 0.324663
O O8 0.000000 0.500000 0.500000
O O9 0.421072 0.277420 0.750430
O O10 0.556317 0.259503 0.885759
O O11 0.403487 0.981158 0.729771
O O12 0.830797 0.415373 0.106602
O O13 0.227043 0.368083 0.948310
O O14 0.875074 0.279328 0.763150
O O15 0.352853 0.058454 0.595874
O O16 0.097886 0.178038 0.375384
O O17 0.500000 0.000000 0.500000
#
# Coordination Sequence:
#
# PCOD9041481 Si02
#       8
#     2   2   2   2   2   2   2   2
#     4  11  23  43  62  91 130 169 200 270 303 367
#     4   9  22  39  69  92 122 167 205 257 318 368
#     4  12  22  38  65  92 118 178 205 242 321 373
#     4  10  23  44  61  90 133 159 217 259 309 354
#     4  11  21  42  66  92 130 167 204 257 316 366
#     4   9  17  39  66  85 124 164 193 262 311 360
#     4  11  23  43  62  94 127 167 210 264 297 379
#     4  11  21  42  61  93 131 161 209 256 312 374
#
# _framework density 26.235558000000001
#
# number of rings (size 3 to 8) (size 9 to 14) (size 15 to 20)
#    0.000    1.500    5.000    0.000    3.500    1.000 
#    0.000    6.250    0.000    0.000    0.000    0.000 
#    0.000    0.000    0.000    0.000    0.000    0.000 
#
# Total GULP energy -89315.688493 kJ/mol
# GULP energy per Si atom -5582.230531 kJ/mol
# Density = 2.617584 g / cm^3
# Si number density = 26.235558 Si / 1000 Ang^3
#
#
#
# Elastic Constant Matrix: (Units=GPa)
#
#
# Indices 1 2 3 4 5 6 
#
# 1 43.2761 29.7758 17.1861 -6.3195 -11.2003 14.9536
# 2 29.7758 129.9584 49.3504 -1.4581 -6.2813 29.3302
# 3 17.1861 49.3504 105.5680 2.8388 -16.6658 5.7536
# 4 -6.3195 -1.4581 2.8388 60.8513 12.4575 -0.9580
# 5 -11.2003 -6.2813 -16.6658 12.4575 32.9647 -8.0000
# 6 14.9536 29.3302 5.7536 -0.9580 -8.0000 43.9335
#
#
#
# Elastic Compliance Matrix: (Units=1/GPa)
#
#
# Indices 1 2 3 4 5 6 
#
# 1 0.031088 -0.004926 -0.001402 0.001678 0.006868 -0.005822
# 2 -0.004926 0.012009 -0.005076 0.000681 -0.003748 -0.006344
# 3 -0.001402 -0.005076 0.013023 -0.002212 0.006789 0.003349
# 4 0.001678 0.000681 -0.002212 0.018287 -0.007754 -0.001749
# 5 0.006868 -0.003748 0.006789 -0.007754 0.039862 0.006365
# 6 -0.005822 -0.006344 0.003349 -0.001749 0.006365 0.029661
#
#
# Mechanical properties :
#
#
# Convention : Reuss Voigt Hill
#
# Bulk Modulus (GPa) = 30.01971 52.38079 41.20025
# Shear Modulus (GPa) = 28.11503 39.71591 33.91547
#
# Velocity S-wave (km/s) = 3.27714 3.89500 3.59935
# Velocity P-wave (km/s) = 5.07807 6.34326 5.74560
#
# Compressibility (1/GPa) = 0.03331145
#
# Stress axis : x y z
#
# Youngs Moduli (GPa) = 32.16722 83.26926 76.78949
#
# Poissons Ratio (x) = 0.41015 0.10765
# Poissons Ratio (y) = 0.15844 0.38982
# Poissons Ratio (z) = 0.04510 0.42271
#
# Static dielectric constant tensor:
#      x y z
#    x 2.099130 0.018530 0.060810 
#    y 0.018530 2.170380 0.086840 
#    z 0.060810 0.086840 2.099450 
# 
# From -- ./inp_files/116339.got.cif
#   From: 2010.05.17/outbox.cif.g08.bks.cpg/sg2_59_cif.got.tgz:116339.got - 2010.06.03 11:33:40.
