data_PCOD9041132
_publ_section_title
;
Structure prediction by ZEFSAII (Michael W. Deem and Ramdas Pophale) SiO2 
 PCOD9041132
Probable space group: P -1
;
_chemical_formula_sum "Si O2"
_cell_formula_units_Z 12
_cell_length_a 11.753284
_cell_length_b 11.914534
_cell_length_c 9.649873
_cell_angle_alpha 91.017502
_cell_angle_beta 132.949541
_cell_angle_gamma 127.040756
_cell_volume 537.137387
_symmetry_space_group_name_H-M "P -1"
_symmetry_group_IT_number 2
_symmetry_cell_setting 'triclinic'
loop_
_space_group_symop_operation_xyz
x,y,z
-x,-y,-z
loop_
_atom_site_type_symbol
_atom_site_label
_atom_site_fract_x
_atom_site_fract_y
_atom_site_fract_z
Si Si1 0.299022 0.284317 0.399607
Si Si2 0.366446 0.027583 0.809528
Si Si3 0.218269 0.825569 0.421685
Si Si4 0.720966 0.970788 0.763304
Si Si5 0.300400 0.376845 0.694976
Si Si6 0.780424 0.458373 0.265036
O O1 0.500000 0.500000 0.500000
O O2 0.369170 0.341256 0.621692
O O3 0.300532 0.511276 0.672031
O O4 0.961070 0.104576 0.085014
O O5 0.401917 0.018197 0.678520
O O6 0.031321 0.843828 0.551505
O O7 0.666861 0.818867 0.639805
O O8 0.500000 0.000000 0.000000
O O9 0.148982 0.858431 0.232238
O O10 0.948437 0.623210 0.284045
O O11 0.421513 0.843674 0.558224
O O12 0.500000 0.500000 0.000000
O O13 0.515170 0.230839 0.982408
O O14 0.000000 0.500000 0.500000
#
# Coordination Sequence:
#
# PCOD9041132 Si02
#       6
#     2   2   2   2   2   2
#     4  11  27  44  71  97 145 185 231 281 360 417
#     4  11  22  42  71 100 138 178 230 290 347 404
#     4  10  23  43  71 102 134 176 243 286 346 408
#     4  10  25  46  68 100 140 185 229 290 346 421
#     4  11  27  45  68 107 141 182 232 291 354 417
#     4  11  24  42  73 102 137 180 239 288 349 417
#
# _framework density 22.340654000000001
#
# number of rings (size 3 to 8) (size 9 to 14) (size 15 to 20)
#    0.000    1.333    3.333    1.000    9.333    2.000 
#    0.000    3.333    0.000    0.000    0.000    0.000 
#    0.000    0.000    0.000    0.000    0.000    0.000 
#
# Total GULP energy -66991.819351 kJ/mol
# GULP energy per Si atom -5582.651613 kJ/mol
# Density = 2.228981 g / cm^3
# Si number density = 22.340654 Si / 1000 Ang^3
#
#
#
# Elastic Constant Matrix: (Units=GPa)
#
#
# Indices 1 2 3 4 5 6 
#
# 1 132.1202 32.8650 43.9956 19.3311 -18.9223 -15.2653
# 2 32.8650 85.7928 30.4209 26.1012 -7.4351 -8.9645
# 3 43.9956 30.4209 118.0588 15.2156 -18.5674 -0.1024
# 4 19.3311 26.1012 15.2156 33.9286 -6.2039 -12.8898
# 5 -18.9223 -7.4351 -18.5674 -6.2039 39.0489 3.3994
# 6 -15.2653 -8.9645 -0.1024 -12.8898 3.3994 32.7213
#
#
#
# Elastic Compliance Matrix: (Units=1/GPa)
#
#
# Indices 1 2 3 4 5 6 
#
# 1 0.009855 -0.001898 -0.002596 -0.001245 0.002695 0.003299
# 2 -0.001898 0.016349 -0.002189 -0.010849 -0.000516 -0.000633
# 3 -0.002596 -0.002189 0.010815 -0.002208 0.003378 -0.002998
# 4 -0.001245 -0.010849 -0.002208 0.045264 0.002250 0.014037
# 5 0.002695 -0.000516 0.003378 0.002250 0.028866 -0.000986
# 6 0.003299 -0.000633 -0.002998 0.014037 -0.000986 0.037549
#
#
# Mechanical properties :
#
#
# Convention : Reuss Voigt Hill
#
# Bulk Modulus (GPa) = 42.27817 61.17051 51.72434
# Shear Modulus (GPa) = 29.42077 36.38579 32.90328
#
# Velocity S-wave (km/s) = 3.63287 4.04007 3.84187
# Velocity P-wave (km/s) = 6.04669 7.01449 6.54849
#
# Compressibility (1/GPa) = 0.02365287
#
# Stress axis : x y z
#
# Youngs Moduli (GPa) = 101.47455 61.16596 92.46229
#
# Poissons Ratio (x) = 0.11606 0.24007
# Poissons Ratio (y) = 0.19255 0.20240
# Poissons Ratio (z) = 0.26347 0.13389
#
# Static dielectric constant tensor:
#      x y z
#    x 1.892780 -0.047630 0.024990 
#    y -0.047630 1.874390 -0.029590 
#    z 0.024990 -0.029590 1.914630 
# 
# From -- ./inp_files/275508.got.cif
#   From: 2010.05.17/outbox.cif.g08.bks.cpg/sg2_138_cif.got.tgz:275508.got - 2010.06.03 11:33:40.
