data_PCOD9041809
_publ_section_title
;
Structure prediction by ZEFSAII (Michael W. Deem and Ramdas Pophale) SiO2 
 PCOD9041809
Probable space group: P -1
;
_chemical_formula_sum "Si O2"
_cell_formula_units_Z 10
_cell_length_a 9.476248
_cell_length_b 10.880281
_cell_length_c 6.792617
_cell_angle_alpha 110.975970
_cell_angle_beta 67.234238
_cell_angle_gamma 61.443021
_cell_volume 420.883920
_symmetry_space_group_name_H-M "P -1"
_symmetry_group_IT_number 2
_symmetry_cell_setting 'triclinic'
loop_
_space_group_symop_operation_xyz
x,y,z
-x,-y,-z
loop_
_atom_site_type_symbol
_atom_site_label
_atom_site_fract_x
_atom_site_fract_y
_atom_site_fract_z
Si Si1 0.600610 0.023472 0.133869
Si Si2 0.723514 0.412047 0.924599
Si Si3 0.791733 0.189520 0.110589
Si Si4 0.095467 0.641173 0.614637
Si Si5 0.765354 0.626305 0.296904
O O1 0.408220 0.149670 0.472310
O O2 0.638423 0.156965 0.147655
O O3 0.500000 0.000000 0.000000
O O4 0.845295 0.818711 0.922728
O O5 0.826845 0.235458 0.906037
O O6 0.881643 0.358351 0.630508
O O7 0.500000 0.500000 0.000000
O O8 0.668857 0.567773 0.184345
O O9 0.748634 0.341232 0.363073
O O10 0.000000 0.000000 0.000000
O O11 0.178050 0.455797 0.558860
O O12 0.000000 0.500000 0.000000
#
# Coordination Sequence:
#
# PCOD9041809 Si02
#       5
#     2   2   2   2   2
#     4  11  23  40  65  94 128 170 214 263 321 384
#     4  11  22  40  71  98 125 172 220 267 324 383
#     4   9  21  41  64  95 132 165 212 268 320 383
#     4  10  23  44  67  94 129 170 217 268 324 385
#     4  11  25  44  64  94 134 170 213 271 327 384
#
# _framework density 23.759516999999999
#
# number of rings (size 3 to 8) (size 9 to 14) (size 15 to 20)
#    0.000    1.600    0.000    3.600    0.000   12.000 
#    0.000   14.000    0.000    0.000    0.000    0.000 
#    0.000    0.000    0.000    0.000    0.000    0.000 
#
# Total GULP energy -55842.586691 kJ/mol
# GULP energy per Si atom -5584.258669 kJ/mol
# Density = 2.370544 g / cm^3
# Si number density = 23.759517 Si / 1000 Ang^3
#
#
#
# Elastic Constant Matrix: (Units=GPa)
#
#
# Indices 1 2 3 4 5 6 
#
# 1 143.5015 18.7555 24.7032 12.7783 5.4926 -16.5958
# 2 18.7555 141.9195 68.9672 -11.1816 -5.5612 -22.7991
# 3 24.7032 68.9672 138.5321 11.5488 -11.0883 -17.9276
# 4 12.7783 -11.1816 11.5488 45.0608 -8.6485 -0.2054
# 5 5.4926 -5.5612 -11.0883 -8.6485 38.5628 9.4717
# 6 -16.5958 -22.7991 -17.9276 -0.2054 9.4717 25.9581
#
#
#
# Elastic Compliance Matrix: (Units=1/GPa)
#
#
# Indices 1 2 3 4 5 6 
#
# 1 0.008164 -0.000183 -0.000648 -0.002829 -0.003446 0.005846
# 2 -0.000183 0.010709 -0.004868 0.003896 -0.000460 0.006126
# 3 -0.000648 -0.004868 0.010402 -0.003470 0.001095 0.002067
# 4 -0.002829 0.003896 -0.003470 0.026094 0.006548 -0.002966
# 5 -0.003446 -0.000460 0.001095 0.006548 0.031395 -0.013254
# 6 0.005846 0.006126 0.002067 -0.002966 -0.013254 0.053882
#
#
# Mechanical properties :
#
#
# Convention : Reuss Voigt Hill
#
# Bulk Modulus (GPa) = 55.93559 72.08944 64.01252
# Shear Modulus (GPa) = 31.64506 42.68482 37.16494
#
# Velocity S-wave (km/s) = 3.65347 4.24315 3.95930
# Velocity P-wave (km/s) = 6.43355 7.37651 6.92111
#
# Compressibility (1/GPa) = 0.01787771
#
# Stress axis : x y z
#
# Youngs Moduli (GPa) = 122.48937 93.37979 96.13548
#
# Poissons Ratio (x) = 0.01705 0.06232
# Poissons Ratio (y) = 0.02237 0.46796
# Poissons Ratio (z) = 0.07941 0.45455
#
# Static dielectric constant tensor:
#      x y z
#    x 1.989740 0.025510 -0.070260 
#    y 0.025510 1.851220 -0.017770 
#    z -0.070260 -0.017770 1.964390 
# 
# From -- ./inp_files/16341.got.cif
#   From: 2010.05.17/outbox.cif.g08.bks.cpg/sg2_9_cif.got.tgz:16341.got - 2010.06.03 11:33:40.
