data_PCOD9041984
_publ_section_title
;
Structure prediction by ZEFSAII (Michael W. Deem and Ramdas Pophale) SiO2 
 PCOD9041984
Probable space group: P -1
;
_chemical_formula_sum "Si O2"
_cell_formula_units_Z 16
_cell_length_a 7.478922
_cell_length_b 8.180376
_cell_length_c 15.793353
_cell_angle_alpha 91.956763
_cell_angle_beta 43.294735
_cell_angle_gamma 98.848228
_cell_volume 650.386522
_symmetry_space_group_name_H-M "P -1"
_symmetry_group_IT_number 2
_symmetry_cell_setting 'triclinic'
loop_
_space_group_symop_operation_xyz
x,y,z
-x,-y,-z
loop_
_atom_site_type_symbol
_atom_site_label
_atom_site_fract_x
_atom_site_fract_y
_atom_site_fract_z
Si Si1 0.783207 0.583797 0.528055
Si Si2 0.905895 0.351228 0.890903
Si Si3 0.893078 0.872796 0.609468
Si Si4 0.383863 0.170384 0.041475
Si Si5 0.407648 0.749468 0.500318
Si Si6 0.944379 0.806261 0.997258
Si Si7 0.013279 0.156204 0.685994
Si Si8 0.860131 0.275096 0.232682
O O1 0.583712 0.425412 0.554024
O O2 0.922994 0.696813 0.404177
O O3 0.000000 0.500000 0.500000
O O4 0.710285 0.711973 0.626655
O O5 0.003661 0.534090 0.826223
O O6 0.924410 0.229477 0.803857
O O7 0.593723 0.309957 0.018591
O O8 0.058155 0.302812 0.919981
O O9 0.154761 0.810598 0.550966
O O10 0.820329 0.999192 0.707565
O O11 0.000000 0.000000 0.500000
O O12 0.088663 0.170594 0.178995
O O13 0.325203 0.225859 0.966271
O O14 0.500000 0.000000 0.000000
O O15 0.687976 0.872126 0.396570
O O16 0.347697 0.730149 0.620831
O O17 0.182127 0.784780 0.850705
O O18 0.000000 0.000000 0.000000
#
# Coordination Sequence:
#
# PCOD9041984 Si02
#       8
#     2   2   2   2   2   2   2   2
#     4   9  19  40  61  85 134 175 218 260 319 401
#     4  12  22  45  68 101 138 172 230 277 337 405
#     4   9  21  40  58  90 132 177 221 268 317 397
#     4  10  23  44  70  91 129 177 224 281 334 390
#     4  11  21  42  66  96 134 177 219 265 341 401
#     4  10  23  44  68  97 131 175 228 279 337 397
#     4  11  23  38  68  98 135 176 213 274 335 398
#     4  10  24  41  69  97 130 180 222 278 338 399
#
# _framework density 24.600753999999998
#
# number of rings (size 3 to 8) (size 9 to 14) (size 15 to 20)
#    0.750    1.000    2.500    1.500    3.500    0.000 
#    6.750    5.000    0.000    0.000    0.000    0.000 
#    0.000    0.000    0.000    0.000    0.000    0.000 
#
# Total GULP energy -89282.664957 kJ/mol
# GULP energy per Si atom -5580.166560 kJ/mol
# Density = 2.454476 g / cm^3
# Si number density = 24.600754 Si / 1000 Ang^3
#
#
#
# Elastic Constant Matrix: (Units=GPa)
#
#
# Indices 1 2 3 4 5 6 
#
# 1 125.1102 20.5031 18.3349 2.6771 24.6042 -10.5072
# 2 20.5031 132.0029 45.0757 31.0309 8.3333 16.8102
# 3 18.3349 45.0757 111.5260 25.7513 10.1438 4.8780
# 4 2.6771 31.0309 25.7513 46.0621 0.7399 9.9080
# 5 24.6042 8.3333 10.1438 0.7399 38.8836 0.1999
# 6 -10.5072 16.8102 4.8780 9.9080 0.1999 41.9166
#
#
#
# Elastic Compliance Matrix: (Units=1/GPa)
#
#
# Indices 1 2 3 4 5 6 
#
# 1 0.009682 -0.001329 -0.000710 0.000169 -0.005675 0.003029
# 2 -0.001329 0.010199 -0.002646 -0.004657 -0.000551 -0.003012
# 3 -0.000710 -0.002646 0.011365 -0.004643 -0.001864 0.000667
# 4 0.000169 -0.004657 -0.004643 0.028322 0.001586 -0.004252
# 5 -0.005675 -0.000551 -0.001864 0.001586 0.029890 -0.001502
# 6 0.003029 -0.003012 0.000667 -0.004252 -0.001502 0.026759
#
#
# Mechanical properties :
#
#
# Convention : Reuss Voigt Hill
#
# Bulk Modulus (GPa) = 45.71292 59.60738 52.66015
# Shear Modulus (GPa) = 37.62819 44.35417 40.99118
#
# Velocity S-wave (km/s) = 3.91519 4.25073 4.08641
# Velocity P-wave (km/s) = 6.24985 6.95515 6.61191
#
# Compressibility (1/GPa) = 0.02187565
#
# Stress axis : x y z
#
# Youngs Moduli (GPa) = 103.28882 98.05130 87.98690
#
# Poissons Ratio (x) = 0.13026 0.06247
# Poissons Ratio (y) = 0.13722 0.23285
# Poissons Ratio (z) = 0.07334 0.25949
#
# Static dielectric constant tensor:
#      x y z
#    x 1.953520 0.017160 -0.104810 
#    y 0.017160 2.029200 0.089260 
#    z -0.104810 0.089260 1.923010 
# 
# From -- ./inp_files/493320.got.cif
#   From: 2010.05.17/outbox.cif.g08.bks.cpg/sg2_247_cif.got.tgz:493320.got - 2010.06.03 11:33:40.
