data_PCOD9041271
_publ_section_title
;
Structure prediction by ZEFSAII (Michael W. Deem and Ramdas Pophale) SiO2 
 PCOD9041271
Probable space group: P -1
;
_chemical_formula_sum "Si O2"
_cell_formula_units_Z 15
_cell_length_a 7.794562
_cell_length_b 11.897890
_cell_length_c 16.509834
_cell_angle_alpha 37.704523
_cell_angle_beta 48.954495
_cell_angle_gamma 72.942094
_cell_volume 615.479234
_symmetry_space_group_name_H-M "P -1"
_symmetry_group_IT_number 2
_symmetry_cell_setting 'triclinic'
loop_
_space_group_symop_operation_xyz
x,y,z
-x,-y,-z
loop_
_atom_site_type_symbol
_atom_site_label
_atom_site_fract_x
_atom_site_fract_y
_atom_site_fract_z
Si Si1 0.039119 0.410764 0.122957
Si Si2 0.208686 0.933904 0.156450
Si Si3 0.423356 0.315876 0.967129
Si Si4 0.500000 0.000000 0.500000
Si Si5 0.536918 0.279356 0.548774
Si Si6 0.881213 0.716956 0.223899
Si Si7 0.257411 0.281625 0.471594
Si Si8 0.283626 0.821888 0.924297
O O1 0.259077 0.348933 0.069356
O O2 0.166335 0.612034 0.027243
O O3 0.753904 0.214923 0.339933
O O4 0.000000 0.500000 0.000000
O O5 0.042212 0.809593 0.202087
O O6 0.040381 0.790674 0.367278
O O7 0.500000 0.000000 0.000000
O O8 0.230726 0.155149 0.050970
O O9 0.619029 0.527829 0.738792
O O10 0.568511 0.207167 0.028752
O O11 0.696215 0.902893 0.474606
O O12 0.818717 0.477318 0.362429
O O13 0.385949 0.282197 0.676101
O O14 0.416844 0.337088 0.475513
O O15 0.473465 0.039006 0.695830
O O16 0.043894 0.841126 0.025131
#
# Coordination Sequence:
#
# PCOD9041271 Si02
#       8
#     2   2   2   1   2   2   2   2
#     4  12  26  47  77 106 148 196 249 303 370 448
#     4  11  24  48  72 106 153 199 239 297 376 448
#     4  12  27  48  72 113 150 192 246 313 371 434
#     4  12  22  44  74 106 138 190 250 294 352 438
#     4  10  24  45  70 107 142 190 252 301 360 440
#     4  10  23  43  72 106 141 192 248 303 358 434
#     4  11  25  44  77 105 145 194 250 302 366 441
#     4  12  26  47  74 106 149 193 242 308 373 432
#
# _framework density 24.371254
#
# number of rings (size 3 to 8) (size 9 to 14) (size 15 to 20)
#    0.000    0.800    4.000    2.400    1.867    4.800 
#    0.000    0.667    0.000    0.000    0.000    0.000 
#    0.000    0.000    0.000    0.000    0.000    0.000 
#
# Total GULP energy -83545.495149 kJ/mol
# GULP energy per Si atom -5569.699677 kJ/mol
# Density = 2.431578 g / cm^3
# Si number density = 24.371254 Si / 1000 Ang^3
#
#
#
# Elastic Constant Matrix: (Units=GPa)
#
#
# Indices 1 2 3 4 5 6 
#
# 1 69.0552 2.1197 36.5938 0.0271 2.3349 9.7838
# 2 2.1197 97.4024 53.8375 -10.0721 -12.9603 11.5433
# 3 36.5938 53.8375 186.3256 -6.7403 -13.6481 5.5089
# 4 0.0271 -10.0721 -6.7403 57.0235 7.0883 -18.8565
# 5 2.3349 -12.9603 -13.6481 7.0883 31.3362 -4.2150
# 6 9.7838 11.5433 5.5089 -18.8565 -4.2150 31.3926
#
#
#
# Elastic Compliance Matrix: (Units=1/GPa)
#
#
# Indices 1 2 3 4 5 6 
#
# 1 0.017758 0.002204 -0.004187 -0.002186 -0.002721 -0.007288
# 2 0.002204 0.013326 -0.003928 0.000034 0.003028 -0.004471
# 3 -0.004187 -0.003928 0.007436 0.000623 0.002067 0.002096
# 4 -0.002186 0.000034 0.000623 0.022494 -0.002798 0.013695
# 5 -0.002721 0.003028 0.002067 -0.002798 0.035226 0.002421
# 6 -0.007288 -0.004471 0.002096 0.013695 0.002421 0.043954
#
#
# Mechanical properties :
#
#
# Convention : Reuss Voigt Hill
#
# Bulk Modulus (GPa) = 37.45771 59.76502 48.61136
# Shear Modulus (GPa) = 31.07218 41.29929 36.18573
#
# Velocity S-wave (km/s) = 3.57452 4.12101 3.85745
# Velocity P-wave (km/s) = 5.69555 6.87165 6.31105
#
# Compressibility (1/GPa) = 0.02669677
#
# Stress axis : x y z
#
# Youngs Moduli (GPa) = 56.31293 75.04080 134.47581
#
# Poissons Ratio (x) = -0.16536 0.56308
# Poissons Ratio (y) = -0.12409 0.52823
# Poissons Ratio (z) = 0.23579 0.29477
#
# Static dielectric constant tensor:
#      x y z
#    x 1.999810 -0.095200 -0.055720 
#    y -0.095200 2.164260 0.019370 
#    z -0.055720 0.019370 2.028590 
# 
# From -- ./inp_files/559662.got.cif
#   From: 2010.05.17/outbox.cif.g08.bks.cpg/sg2_280_cif.got.tgz:559662.got - 2010.06.03 11:33:40.
