data_PCOD9041839
_publ_section_title
;
Structure prediction by ZEFSAII (Michael W. Deem and Ramdas Pophale) SiO2 
 PCOD9041839
Probable space group: P -1
;
_chemical_formula_sum "Si O2"
_cell_formula_units_Z 12
_cell_length_a 10.567992
_cell_length_b 7.173931
_cell_length_c 6.895843
_cell_angle_alpha 113.489054
_cell_angle_beta 89.272224
_cell_angle_gamma 96.401763
_cell_volume 476.201620
_symmetry_space_group_name_H-M "P -1"
_symmetry_group_IT_number 2
_symmetry_cell_setting 'triclinic'
loop_
_space_group_symop_operation_xyz
x,y,z
-x,-y,-z
loop_
_atom_site_type_symbol
_atom_site_label
_atom_site_fract_x
_atom_site_fract_y
_atom_site_fract_z
Si Si1 0.802001 0.856030 0.298697
Si Si2 0.302780 0.498601 0.609355
Si Si3 0.951019 0.178612 0.877432
Si Si4 0.089815 0.488211 0.305150
Si Si5 0.597225 0.900584 0.590356
Si Si6 0.312320 0.947968 0.957163
O O1 0.790651 0.619863 0.272171
O O2 0.739149 0.960669 0.523576
O O3 0.943769 0.946693 0.277608
O O4 0.705699 0.886926 0.139209
O O5 0.227376 0.483801 0.401006
O O6 0.410949 0.345005 0.532782
O O7 0.334305 0.731552 0.769852
O O8 0.914430 0.329854 0.772280
O O9 0.825813 0.085941 0.950618
O O10 0.037732 0.296614 0.094176
O O11 0.000000 0.500000 0.500000
O O12 0.500000 0.000000 0.500000
O O13 0.594230 0.976230 0.839895
#
# Coordination Sequence:
#
# PCOD9041839 Si02
#       6
#     2   2   2   2   2   2
#     4  10  24  44  63 104 137 171 217 276 327 397
#     4  10  23  44  67  97 135 174 218 273 331 391
#     4  11  22  35  67 104 138 177 211 262 335 410
#     4  11  18  37  62  99 140 175 212 261 327 400
#     4  10  26  49  67  94 132 174 233 285 323 382
#     4  12  24  42  70 101 134 176 220 265 343 403
#
# _framework density 25.199414000000001
#
# number of rings (size 3 to 8) (size 9 to 14) (size 15 to 20)
#    1.000    0.333    3.333    2.500    2.333    2.000 
#    0.000    0.833    0.000    0.000    0.000    0.000 
#    0.000    0.000    0.000    0.000    0.000    0.000 
#
# Total GULP energy -67117.193141 kJ/mol
# GULP energy per Si atom -5593.099428 kJ/mol
# Density = 2.514206 g / cm^3
# Si number density = 25.199414 Si / 1000 Ang^3
#
#
#
# Elastic Constant Matrix: (Units=GPa)
#
#
# Indices 1 2 3 4 5 6 
#
# 1 75.4644 46.3038 31.9978 10.3631 -7.4316 -10.7336
# 2 46.3038 116.5324 69.0691 -26.4580 22.1146 -19.5253
# 3 31.9978 69.0691 186.2308 -13.7039 14.1522 -11.8264
# 4 10.3631 -26.4580 -13.7039 43.9696 -8.2668 5.0195
# 5 -7.4316 22.1146 14.1522 -8.2668 47.4356 -6.6394
# 6 -10.7336 -19.5253 -11.8264 5.0195 -6.6394 44.4668
#
#
#
# Elastic Compliance Matrix: (Units=1/GPa)
#
#
# Indices 1 2 3 4 5 6 
#
# 1 0.024882 -0.013627 -0.000660 -0.012957 0.008552 0.002587
# 2 -0.013627 0.021117 -0.003765 0.012927 -0.008284 0.002286
# 3 -0.000660 -0.003765 0.006907 -0.000032 -0.000419 -0.000035
# 4 -0.012957 0.012927 -0.000032 0.033282 -0.002469 -0.001586
# 5 0.008552 -0.008284 -0.000419 -0.002469 0.026331 0.002526
# 6 0.002587 0.002286 -0.000035 -0.001586 0.002526 0.024664
#
#
# Mechanical properties :
#
#
# Convention : Reuss Voigt Hill
#
# Bulk Modulus (GPa) = 59.51619 74.77435 67.14527
# Shear Modulus (GPa) = 27.95055 42.56485 35.25770
#
# Velocity S-wave (km/s) = 3.33404 4.11435 3.74458
# Velocity P-wave (km/s) = 6.20407 7.23242 6.73789
#
# Compressibility (1/GPa) = 0.01680215
#
# Stress axis : x y z
#
# Youngs Moduli (GPa) = 40.18996 47.35480 144.78661
#
# Poissons Ratio (x) = 0.64529 0.09561
# Poissons Ratio (y) = 0.54766 0.54508
# Poissons Ratio (z) = 0.02654 0.17828
#
# Static dielectric constant tensor:
#      x y z
#    x 2.115320 0.040860 -0.037930 
#    y 0.040860 1.977900 0.018680 
#    z -0.037930 0.018680 1.955520 
# 
# From -- ./inp_files/57902.got.cif
#   From: 2010.05.17/outbox.cif.g08.bks.cpg/sg2_29_cif.got.tgz:57902.got - 2010.06.03 11:33:40.
