data_PCOD9041024
_publ_section_title
;
Structure prediction by ZEFSAII (Michael W. Deem and Ramdas Pophale) SiO2 
 PCOD9041024
Probable space group: P -1
;
_chemical_formula_sum "Si O2"
_cell_formula_units_Z 14
_cell_length_a 15.326667
_cell_length_b 5.440737
_cell_length_c 11.462549
_cell_angle_alpha 126.041162
_cell_angle_beta 129.292736
_cell_angle_gamma 73.821056
_cell_volume 591.373651
_symmetry_space_group_name_H-M "P -1"
_symmetry_group_IT_number 2
_symmetry_cell_setting 'triclinic'
loop_
_space_group_symop_operation_xyz
x,y,z
-x,-y,-z
loop_
_atom_site_type_symbol
_atom_site_label
_atom_site_fract_x
_atom_site_fract_y
_atom_site_fract_z
Si Si1 0.426656 0.539222 0.560328
Si Si2 0.445764 0.464686 0.116399
Si Si3 0.718656 0.059408 0.801723
Si Si4 0.945368 0.159165 0.889241
Si Si5 0.125641 0.922293 0.849302
Si Si6 0.342973 0.126055 0.712065
Si Si7 0.124368 0.193843 0.672654
O O1 0.500000 0.500000 0.500000
O O2 0.519890 0.669585 0.771417
O O3 0.345270 0.793587 0.566670
O O4 0.355792 0.201681 0.411459
O O5 0.360498 0.707245 0.145138
O O6 0.568604 0.638646 0.223196
O O7 0.395026 0.213748 0.909769
O O8 0.818596 0.184136 0.830904
O O9 0.784755 0.935989 0.934439
O O10 0.994827 0.975443 0.774637
O O11 0.000000 0.500000 0.000000
O O12 0.000000 0.000000 0.000000
O O13 0.122470 0.558591 0.766537
O O14 0.163200 0.069767 0.796894
O O15 0.212093 0.150460 0.631449
O O16 0.000000 0.000000 0.500000
#
# Coordination Sequence:
#
# PCOD9041024 Si02
#       7
#     2   2   2   2   2   2   2
#     4  12  27  43  72 114 149 197 252 326 382 457
#     4  11  25  50  70 110 148 202 258 307 382 465
#     4  11  24  45  74 108 151 196 250 317 391 452
#     4  10  23  43  70 108 144 195 245 305 380 447
#     4  11  25  49  73 111 149 199 253 314 380 458
#     4  11  27  47  76 102 151 204 255 309 388 453
#     4  12  28  48  79 108 149 200 260 312 377 456
#
# _framework density 23.673696
#
# number of rings (size 3 to 8) (size 9 to 14) (size 15 to 20)
#    0.000    0.857    2.857    3.000    6.000    2.286 
#    0.000    0.000    0.000    0.000    0.000    0.000 
#    0.000    0.000    0.000    0.000    0.000    0.000 
#
# Total GULP energy -78130.283315 kJ/mol
# GULP energy per Si atom -5580.734522 kJ/mol
# Density = 2.361981 g / cm^3
# Si number density = 23.673696 Si / 1000 Ang^3
#
#
#
# Elastic Constant Matrix: (Units=GPa)
#
#
# Indices 1 2 3 4 5 6 
#
# 1 194.2073 39.6170 18.2895 17.3816 15.8273 -19.7367
# 2 39.6170 99.1431 17.5377 20.6812 -3.3627 -2.2136
# 3 18.2895 17.5377 74.2757 8.5705 0.7587 -10.4252
# 4 17.3816 20.6812 8.5705 35.4725 -3.1538 -4.1846
# 5 15.8273 -3.3627 0.7587 -3.1538 39.8723 8.5831
# 6 -19.7367 -2.2136 -10.4252 -4.1846 8.5831 36.1377
#
#
#
# Elastic Compliance Matrix: (Units=1/GPa)
#
#
# Indices 1 2 3 4 5 6 
#
# 1 0.006497 -0.002237 -0.000274 -0.001672 -0.003763 0.004032
# 2 -0.002237 0.012580 -0.002077 -0.005818 0.002002 -0.002199
# 3 -0.000274 -0.002077 0.014829 -0.001875 -0.001382 0.004112
# 4 -0.001672 -0.005818 -0.001875 0.033250 0.002529 0.001439
# 5 -0.003763 0.002002 -0.001382 0.002529 0.028884 -0.008899
# 6 0.004032 -0.002199 0.004112 0.001439 -0.008899 0.033206
#
#
# Mechanical properties :
#
#
# Convention : Reuss Voigt Hill
#
# Bulk Modulus (GPa) = 40.43723 57.61273 49.02498
# Shear Modulus (GPa) = 34.09088 41.77530 37.93309
#
# Velocity S-wave (km/s) = 3.79889 4.20531 4.00725
# Velocity P-wave (km/s) = 6.02995 6.92593 6.49341
#
# Compressibility (1/GPa) = 0.02472969
#
# Stress axis : x y z
#
# Youngs Moduli (GPa) = 153.90879 79.49090 67.43521
#
# Poissons Ratio (x) = 0.17778 0.01851
# Poissons Ratio (y) = 0.34422 0.14009
# Poissons Ratio (z) = 0.04224 0.16514
#
# Static dielectric constant tensor:
#      x y z
#    x 1.945990 -0.039570 0.003220 
#    y -0.039570 1.996190 -0.058620 
#    z 0.003220 -0.058620 1.922860 
# 
# From -- ./inp_files/60332.got.cif
#   From: 2010.05.17/outbox.cif.g08.bks.cpg/sg2_31_cif.got.tgz:60332.got - 2010.06.03 11:33:40.
