data_PCOD9041469
_publ_section_title
;
Structure prediction by ZEFSAII (Michael W. Deem and Ramdas Pophale) SiO2 
 PCOD9041469
Probable space group: P -1
;
_chemical_formula_sum "Si O2"
_cell_formula_units_Z 12
_cell_length_a 16.114279
_cell_length_b 7.732824
_cell_length_c 10.527439
_cell_angle_alpha 114.542036
_cell_angle_beta 155.114163
_cell_angle_gamma 60.079147
_cell_volume 475.963815
_symmetry_space_group_name_H-M "P -1"
_symmetry_group_IT_number 2
_symmetry_cell_setting 'triclinic'
loop_
_space_group_symop_operation_xyz
x,y,z
-x,-y,-z
loop_
_atom_site_type_symbol
_atom_site_label
_atom_site_fract_x
_atom_site_fract_y
_atom_site_fract_z
Si Si1 0.024069 0.519529 0.351949
Si Si2 0.008159 0.171827 0.384429
Si Si3 0.402283 0.828083 0.285125
Si Si4 0.418982 0.907873 0.979253
Si Si5 0.373575 0.556620 0.676011
Si Si6 0.474424 0.264802 0.298812
O O1 0.080153 0.646454 0.583170
O O2 0.150543 0.552988 0.415903
O O3 0.086401 0.288212 0.415161
O O4 0.771933 0.606472 0.016014
O O5 0.836718 0.090241 0.061348
O O6 0.172292 0.001252 0.639851
O O7 0.505915 0.667391 0.271427
O O8 0.434872 0.715682 0.431896
O O9 0.500000 0.000000 0.500000
O O10 0.470345 0.673781 0.950443
O O11 0.500000 0.000000 0.000000
O O12 0.477169 0.034089 0.210537
O O13 0.390291 0.679958 0.608231
#
# Coordination Sequence:
#
# PCOD9041469 Si02
#       6
#     2   2   2   2   2   2
#     4  10  23  43  78 101 136 189 240 285 345 417
#     4  10  23  47  68 107 146 177 233 301 343 407
#     4  12  28  46  69 103 151 185 225 296 363 409
#     4   9  22  44  73 101 135 184 239 284 338 419
#     4  11  24  44  74 100 134 192 238 276 348 425
#     4  10  23  49  67 102 150 181 227 296 355 407
#
# _framework density 25.212001000000001
#
# number of rings (size 3 to 8) (size 9 to 14) (size 15 to 20)
#    0.000    1.667    1.667    0.500    7.000    5.333 
#    0.000    4.167    0.000    0.000    0.000    0.000 
#    0.000    0.000    0.000    0.000    0.000    0.000 
#
# Total GULP energy -67117.967900 kJ/mol
# GULP energy per Si atom -5593.163992 kJ/mol
# Density = 2.515462 g / cm^3
# Si number density = 25.212001 Si / 1000 Ang^3
#
#
#
# Elastic Constant Matrix: (Units=GPa)
#
#
# Indices 1 2 3 4 5 6 
#
# 1 163.9880 15.6366 45.9351 12.7548 15.6041 -2.4088
# 2 15.6366 143.3103 7.7092 33.6447 9.5654 3.2188
# 3 45.9351 7.7092 114.1951 30.0110 1.4485 -7.9621
# 4 12.7548 33.6447 30.0110 39.2857 0.1536 -0.1763
# 5 15.6041 9.5654 1.4485 0.1536 46.0187 17.0490
# 6 -2.4088 3.2188 -7.9621 -0.1763 17.0490 37.0984
#
#
#
# Elastic Compliance Matrix: (Units=1/GPa)
#
#
# Indices 1 2 3 4 5 6 
#
# 1 0.007186 -0.000554 -0.002823 0.000314 -0.002652 0.001129
# 2 -0.000554 0.009234 0.002108 -0.009329 -0.001938 0.000461
# 3 -0.002823 0.002108 0.012736 -0.010603 -0.000849 0.002707
# 4 0.000314 -0.009329 -0.010603 0.041418 0.003002 -0.002629
# 5 -0.002652 -0.001938 -0.000849 0.003002 0.027855 -0.012973
# 6 0.001129 0.000461 0.002707 -0.002629 -0.012973 0.033519
#
#
# Mechanical properties :
#
#
# Convention : Reuss Voigt Hill
#
# Bulk Modulus (GPa) = 37.56952 62.22834 49.89893
# Shear Modulus (GPa) = 34.87704 47.96138 41.41921
#
# Velocity S-wave (km/s) = 3.72338 4.36630 4.05759
# Velocity P-wave (km/s) = 5.78087 7.08202 6.46427
#
# Compressibility (1/GPa) = 0.02661732
#
# Stress axis : x y z
#
# Youngs Moduli (GPa) = 139.15484 108.29518 78.51583
#
# Poissons Ratio (x) = 0.06002 0.22168
# Poissons Ratio (y) = 0.07712 -0.16551
# Poissons Ratio (z) = 0.39288 -0.22828
#
# Static dielectric constant tensor:
#      x y z
#    x 2.076340 0.006570 0.111970 
#    y 0.006570 2.097550 -0.104360 
#    z 0.111970 -0.104360 2.051240 
# 
# From -- ./inp_files/461597.got.cif
#   From: 2010.05.17/outbox.cif.g08.bks.cpg/sg2_231_cif.got.tgz:461597.got - 2010.06.03 11:33:40.
