data_PCOD9041377
_publ_section_title
;
Structure prediction by ZEFSAII (Michael W. Deem and Ramdas Pophale) SiO2 
 PCOD9041377
Probable space group: P -1
;
_chemical_formula_sum "Si O2"
_cell_formula_units_Z 12
_cell_length_a 15.413603
_cell_length_b 7.090083
_cell_length_c 13.841809
_cell_angle_alpha 142.835084
_cell_angle_beta 27.698493
_cell_angle_gamma 132.010106
_cell_volume 421.197435
_symmetry_space_group_name_H-M "P -1"
_symmetry_group_IT_number 2
_symmetry_cell_setting 'triclinic'
loop_
_space_group_symop_operation_xyz
x,y,z
-x,-y,-z
loop_
_atom_site_type_symbol
_atom_site_label
_atom_site_fract_x
_atom_site_fract_y
_atom_site_fract_z
Si Si1 0.984762 0.378176 0.593623
Si Si2 0.985125 0.969010 0.198285
Si Si3 0.542208 0.348476 0.000350
Si Si4 0.600394 0.166268 0.187457
Si Si5 0.913803 0.335650 0.850860
Si Si6 0.380363 0.983001 0.513798
O O1 0.998706 0.477507 0.732854
O O2 0.062273 0.662139 0.576584
O O3 0.763867 0.341308 0.793875
O O4 0.091092 0.036180 0.326786
O O5 0.849291 0.932276 0.227755
O O6 0.947362 0.720905 0.217731
O O7 0.211894 0.946032 0.974690
O O8 0.429099 0.603430 0.286146
O O9 0.500000 0.500000 0.000000
O O10 0.481088 0.011309 0.896731
O O11 0.451317 0.152428 0.414970
O O12 0.700487 0.426759 0.135361
O O13 0.500000 0.000000 0.500000
#
# Coordination Sequence:
#
# PCOD9041377 Si02
#       6
#     2   2   2   2   2   2
#     4  11  18  33  58  88 119 150 189 232 292 342
#     4  10  20  37  60  76 124 148 184 242 284 336
#     4  10  17  33  57  85 114 146 187 232 284 334
#     4   9  20  37  56  88 113 150 187 233 293 325
#     4   9  20  32  56  90 115 152 187 234 289 340
#     4  11  22  36  60  88 111 154 200 230 284 349
#
# _framework density 28.490200999999999
#
# number of rings (size 3 to 8) (size 9 to 14) (size 15 to 20)
#    1.000    1.000    3.333    3.500    0.000    1.333 
#    0.000    1.667    0.000    6.000    0.000    0.000 
#    0.000    0.000    0.000    0.000    0.000    0.000 
#
# Total GULP energy -66802.336944 kJ/mol
# GULP energy per Si atom -5566.861412 kJ/mol
# Density = 2.842536 g / cm^3
# Si number density = 28.490201 Si / 1000 Ang^3
#
#
#
# Elastic Constant Matrix: (Units=GPa)
#
#
# Indices 1 2 3 4 5 6 
#
# 1 181.1887 29.6619 53.8650 -1.7141 -16.9587 33.6556
# 2 29.6619 90.8164 -13.4309 -18.8188 -8.5843 12.2715
# 3 53.8650 -13.4309 97.7863 -30.8172 -9.4042 9.0825
# 4 -1.7141 -18.8188 -30.8172 21.6148 12.3703 1.0304
# 5 -16.9587 -8.5843 -9.4042 12.3703 58.1797 6.3603
# 6 33.6556 12.2715 9.0825 1.0304 6.3603 48.8994
#
#
#
# Elastic Compliance Matrix: (Units=1/GPa)
#
#
# Indices 1 2 3 4 5 6 
#
# 1 0.362148 -0.632174 -0.875281 -1.929289 0.272579 0.077164
# 2 -0.632174 1.132947 1.553015 3.432024 -0.479667 -0.147595
# 3 -0.875281 1.553015 2.156672 4.747672 -0.664823 -0.201453
# 4 -1.929289 3.432024 4.747672 10.516211 -1.475909 -0.444861
# 5 0.272579 -0.479667 -0.664823 -1.475909 0.225880 0.057970
# 6 0.077164 -0.147595 -0.201453 -0.444861 0.057970 0.043631
#
#
# Mechanical properties :
#
#
# Convention : Reuss Voigt Hill
#
# Bulk Modulus (GPa) = 0.26717 56.66482 28.46600
# Shear Modulus (GPa) = 0.32064 45.71848 23.01956
#
# Velocity S-wave (km/s) = 0.33584 4.01023 2.84559
# Velocity P-wave (km/s) = 0.49433 6.43234 4.56176
#
# Compressibility (1/GPa) = 3.74288735
#
# Stress axis : x y z
#
# Youngs Moduli (GPa) = 2.76130 0.88265 0.46368
#
# Poissons Ratio (x) = 0.55799 0.40585
# Poissons Ratio (y) = 1.74562 -0.72010
# Poissons Ratio (z) = 2.41692 -1.37078
#
# Static dielectric constant tensor:
#      x y z
#    x 2.086250 -0.356380 0.000110 
#    y -0.356380 1.489960 -0.028290 
#    z 0.000110 -0.028290 2.256950 
# 
# From -- ./inp_files/527872.got.cif
#   From: 2010.05.17/outbox.cif.g08.bks.cpg/sg2_264_cif.got.tgz:527872.got - 2010.06.03 11:33:40.
