data_PCOD9041703
_publ_section_title
;
Structure prediction by ZEFSAII (Michael W. Deem and Ramdas Pophale) SiO2 
 PCOD9041703
Probable space group: P -1
;
_chemical_formula_sum "Si O2"
_cell_formula_units_Z 16
_cell_length_a 8.131813
_cell_length_b 15.626874
_cell_length_c 6.349603
_cell_angle_alpha 111.341757
_cell_angle_beta 120.993971
_cell_angle_gamma 64.650469
_cell_volume 614.259641
_symmetry_space_group_name_H-M "P -1"
_symmetry_group_IT_number 2
_symmetry_cell_setting 'triclinic'
loop_
_space_group_symop_operation_xyz
x,y,z
-x,-y,-z
loop_
_atom_site_type_symbol
_atom_site_label
_atom_site_fract_x
_atom_site_fract_y
_atom_site_fract_z
Si Si1 0.009144 0.864716 0.956342
Si Si2 0.209158 0.995553 0.745892
Si Si3 0.714841 0.650683 0.025394
Si Si4 0.582768 0.159389 0.549220
Si Si5 0.760567 0.849304 0.409386
Si Si6 0.542637 0.357612 0.515078
Si Si7 0.225059 0.499581 0.698703
Si Si8 0.066774 0.664880 0.020584
O O1 0.229651 0.860823 0.183124
O O2 0.974377 0.774339 0.981459
O O3 0.853703 0.964309 0.027805
O O4 0.962932 0.848910 0.669096
O O5 0.282225 0.074802 0.738594
O O6 0.351950 0.892430 0.678514
O O7 0.000000 0.000000 0.500000
O O8 0.753461 0.745520 0.233572
O O9 0.719810 0.570946 0.128184
O O10 0.893924 0.621091 0.943494
O O11 0.513011 0.666269 0.774798
O O12 0.413317 0.121999 0.506135
O O13 0.505417 0.273038 0.559666
O O14 0.390882 0.457534 0.591536
O O15 0.774727 0.346931 0.696558
O O16 0.000000 0.500000 0.500000
O O17 0.197251 0.606179 0.861522
#
# Coordination Sequence:
#
# PCOD9041703 Si02
#       8
#     2   2   2   2   2   2   2   2
#     4  10  23  45  66  95 135 171 217 271 324 386
#     4  10  23  44  66  99 131 171 223 266 328 391
#     4  12  25  44  67  99 131 174 219 267 329 390
#     4  10  23  44  66  97 131 169 220 273 322 386
#     4  12  23  42  69  95 133 176 218 267 331 385
#     4  11  25  46  65  97 135 168 222 273 319 393
#     4  12  24  45  70  96 135 172 218 273 324 387
#     4  11  23  44  69  96 134 177 214 271 329 377
#
# _framework density 26.047618
#
# number of rings (size 3 to 8) (size 9 to 14) (size 15 to 20)
#    0.000    1.000    3.750    2.625    0.000    4.000 
#    4.500    0.000    0.000    0.000    0.000    0.000 
#    0.000    0.000    0.000    0.000    0.000    0.000 
#
# Total GULP energy -89661.417751 kJ/mol
# GULP energy per Si atom -5603.838609 kJ/mol
# Density = 2.598833 g / cm^3
# Si number density = 26.047618 Si / 1000 Ang^3
#
#
#
# Elastic Constant Matrix: (Units=GPa)
#
#
# Indices 1 2 3 4 5 6 
#
# 1 62.2325 3.3769 0.0982 0.5466 -0.2178 0.3134
# 2 3.3769 82.6544 21.6764 25.8843 -12.8368 -14.5666
# 3 0.0982 21.6764 142.1959 5.9266 20.1227 -10.5090
# 4 0.5466 25.8843 5.9266 46.1601 -3.9270 -10.7242
# 5 -0.2178 -12.8368 20.1227 -3.9270 30.9705 8.6328
# 6 0.3134 -14.5666 -10.5090 -10.7242 8.6328 29.7034
#
#
#
# Elastic Compliance Matrix: (Units=1/GPa)
#
#
# Indices 1 2 3 4 5 6 
#
# 1 0.016114 -0.000832 0.000098 0.000147 -0.000153 -0.000446
# 2 -0.000832 0.017003 -0.003155 -0.007978 0.007473 0.002179
# 3 0.000098 -0.003155 0.008960 0.000928 -0.008222 0.004346
# 4 0.000147 -0.007978 0.000928 0.027443 -0.002384 0.007016
# 5 -0.000153 0.007473 -0.008222 -0.002384 0.044020 -0.012897
# 6 -0.000446 0.002179 0.004346 0.007016 -0.012897 0.042558
#
#
# Mechanical properties :
#
#
# Convention : Reuss Voigt Hill
#
# Bulk Modulus (GPa) = 29.15651 37.48732 33.32191
# Shear Modulus (GPa) = 28.52090 38.82890 33.67490
#
# Velocity S-wave (km/s) = 3.31260 3.86513 3.59948
# Velocity P-wave (km/s) = 5.08418 5.86021 5.48594
#
# Compressibility (1/GPa) = 0.03429766
#
# Stress axis : x y z
#
# Youngs Moduli (GPa) = 62.05702 58.81362 111.61228
#
# Poissons Ratio (x) = 0.04896 -0.01097
# Poissons Ratio (y) = 0.05166 0.35218
# Poissons Ratio (z) = -0.00610 0.18558
#
# Static dielectric constant tensor:
#      x y z
#    x 2.048750 -0.037770 -0.038810 
#    y -0.037770 2.005560 0.045560 
#    z -0.038810 0.045560 2.051230 
# 
# From -- ./inp_files/48751.got.cif
#   From: 2010.05.17/outbox.cif.g08.bks.cpg/sg2_25_cif.got.tgz:48751.got - 2010.06.03 11:33:40.
