data_PCOD9041710
_publ_section_title
;
Structure prediction by ZEFSAII (Michael W. Deem and Ramdas Pophale) SiO2 
 PCOD9041710
Probable space group: P -1
;
_chemical_formula_sum "Si O2"
_cell_formula_units_Z 16
_cell_length_a 14.417474
_cell_length_b 9.248585
_cell_length_c 5.280986
_cell_angle_alpha 100.205167
_cell_angle_beta 85.023200
_cell_angle_gamma 89.809769
_cell_volume 690.294657
_symmetry_space_group_name_H-M "P -1"
_symmetry_group_IT_number 2
_symmetry_cell_setting 'triclinic'
loop_
_space_group_symop_operation_xyz
x,y,z
-x,-y,-z
loop_
_atom_site_type_symbol
_atom_site_label
_atom_site_fract_x
_atom_site_fract_y
_atom_site_fract_z
Si Si1 0.918924 0.699892 0.889795
Si Si2 0.713302 0.378529 0.352040
Si Si3 0.376886 0.928131 0.753623
Si Si4 0.571357 0.583565 0.185781
Si Si5 0.011984 0.824431 0.410063
Si Si6 0.560760 0.844611 0.583618
Si Si7 0.833503 0.393492 0.820775
Si Si8 0.706104 0.780228 0.893484
O O1 0.984061 0.750507 0.660405
O O2 0.908161 0.523974 0.843797
O O3 0.950012 0.766550 0.171844
O O4 0.815279 0.760262 0.870479
O O5 0.687349 0.208349 0.313805
O O6 0.620230 0.471636 0.335181
O O7 0.761776 0.421827 0.615975
O O8 0.783178 0.396325 0.104082
O O9 0.478307 0.871721 0.812516
O O10 0.406833 0.007470 0.511363
O O11 0.326588 0.056944 0.960321
O O12 0.520341 0.723516 0.367779
O O13 0.654808 0.660478 0.037887
O O14 0.500000 0.500000 0.000000
O O15 0.114478 0.761756 0.294299
O O16 0.000000 0.000000 0.500000
O O17 0.656055 0.769419 0.633590
#
# Coordination Sequence:
#
# PCOD9041710 Si02
#       8
#     2   2   2   2   2   2   2   2
#     4  12  26  48  78 105 150 189 239 300 369 442
#     4  12  27  44  75 109 145 191 248 302 360 425
#     4  10  25  40  67 100 143 190 242 298 363 418
#     4  11  25  43  68 103 145 191 246 300 348 425
#     4  12  29  49  79 111 143 188 240 304 375 440
#     4  10  23  44  66  97 143 196 245 292 367 424
#     4  12  27  50  75 108 148 187 245 297 372 448
#     4  11  24  42  71 101 142 188 247 289 366 430
#
# _framework density 23.178505000000001
#
# number of rings (size 3 to 8) (size 9 to 14) (size 15 to 20)
#    0.000    0.750    1.250    4.500   10.500    2.000 
#    0.000    0.000    0.000    0.000    0.000    0.000 
#    0.000    0.000    0.000    0.000    0.000    0.000 
#
# Total GULP energy -89545.657102 kJ/mol
# GULP energy per Si atom -5596.603569 kJ/mol
# Density = 2.312575 g / cm^3
# Si number density = 23.178505 Si / 1000 Ang^3
#
#
#
# Elastic Constant Matrix: (Units=GPa)
#
#
# Indices 1 2 3 4 5 6 
#
# 1 61.0081 7.4310 13.8458 8.6125 9.7413 -19.3602
# 2 7.4310 140.0414 43.0935 23.7729 7.1885 13.3543
# 3 13.8458 43.0935 111.2092 15.6359 14.4607 10.1743
# 4 8.6125 23.7729 15.6359 45.7705 1.5623 -6.0952
# 5 9.7413 7.1885 14.4607 1.5623 50.8626 0.6000
# 6 -19.3602 13.3543 10.1743 -6.0952 0.6000 48.3687
#
#
#
# Elastic Compliance Matrix: (Units=1/GPa)
#
#
# Indices 1 2 3 4 5 6 
#
# 1 0.020544 -0.000785 -0.002459 -0.001333 -0.003188 0.008829
# 2 -0.000785 0.008904 -0.002511 -0.003976 -0.000240 -0.002742
# 3 -0.002459 -0.002511 0.011160 -0.002356 -0.002240 -0.002908
# 4 -0.001333 -0.003976 -0.002356 0.025515 0.000653 0.004267
# 5 -0.003188 -0.000240 -0.002240 0.000653 0.020933 -0.000916
# 6 0.008829 -0.002742 -0.002908 0.004267 -0.000916 0.026126
#
#
# Mechanical properties :
#
#
# Convention : Reuss Voigt Hill
#
# Bulk Modulus (GPa) = 34.36914 48.99991 41.68452
# Shear Modulus (GPa) = 37.20452 45.52627 41.36539
#
# Velocity S-wave (km/s) = 4.01075 4.43669 4.22909
# Velocity P-wave (km/s) = 6.02565 6.88707 6.47071
#
# Compressibility (1/GPa) = 0.02909587
#
# Stress axis : x y z
#
# Youngs Moduli (GPa) = 48.67628 112.30896 89.60590
#
# Poissons Ratio (x) = 0.08820 0.22036
# Poissons Ratio (y) = 0.03823 0.22504
# Poissons Ratio (z) = 0.11971 0.28206
#
# Static dielectric constant tensor:
#      x y z
#    x 1.895240 -0.075430 0.007020 
#    y -0.075430 1.905890 -0.020500 
#    z 0.007020 -0.020500 1.903940 
# 
# From -- ./inp_files/90976.got.cif
#   From: 2010.05.17/outbox.cif.g08.bks.cpg/sg2_46_cif.got.tgz:90976.got - 2010.06.03 11:33:40.
