data_PCOD9041940
_publ_section_title
;
Structure prediction by ZEFSAII (Michael W. Deem and Ramdas Pophale) SiO2 
 PCOD9041940
Probable space group: P -1
;
_chemical_formula_sum "Si O2"
_cell_formula_units_Z 16
_cell_length_a 12.750303
_cell_length_b 15.810515
_cell_length_c 9.198452
_cell_angle_alpha 70.216645
_cell_angle_beta 36.491538
_cell_angle_gamma 50.564922
_cell_volume 789.589203
_symmetry_space_group_name_H-M "P -1"
_symmetry_group_IT_number 2
_symmetry_cell_setting 'triclinic'
loop_
_space_group_symop_operation_xyz
x,y,z
-x,-y,-z
loop_
_atom_site_type_symbol
_atom_site_label
_atom_site_fract_x
_atom_site_fract_y
_atom_site_fract_z
Si Si1 0.216382 0.230759 0.715251
Si Si2 0.995393 0.602636 0.881071
Si Si3 0.393303 0.616355 0.957361
Si Si4 0.693530 0.121460 0.414035
Si Si5 0.459188 0.277017 0.865875
Si Si6 0.540851 0.461948 0.640744
Si Si7 0.765583 0.631067 0.633907
Si Si8 0.987502 0.147306 0.861721
O O1 0.048452 0.316606 0.982519
O O2 0.466815 0.164013 0.551176
O O3 0.178701 0.308994 0.575207
O O4 0.161984 0.150911 0.759000
O O5 0.783021 0.666238 0.972711
O O6 0.000000 0.500000 0.000000
O O7 0.215901 0.571290 0.572793
O O8 0.354792 0.578477 0.871176
O O9 0.595721 0.621936 0.739522
O O10 0.500000 0.500000 0.000000
O O11 0.152691 0.749209 0.164347
O O12 0.633457 0.171203 0.617994
O O13 0.803019 0.166495 0.171162
O O14 0.876262 0.979955 0.288502
O O15 0.521658 0.362498 0.744264
O O16 0.394810 0.280827 0.104281
O O17 0.500000 0.500000 0.500000
O O18 0.000000 0.500000 0.500000
#
# Coordination Sequence:
#
# PCOD9041940 Si02
#       8
#     2   2   2   2   2   2   2   2
#     4  11  22  40  65  90 124 168 208 257 318 373
#     4  11  21  34  56  90 121 155 207 258 311 372
#     4  12  23  40  61  94 130 164 205 252 318 384
#     4  10  23  44  68  92 123 164 220 265 304 371
#     4  11  23  40  59  89 125 164 206 258 313 367
#     4  12  22  35  62  90 123 160 204 260 315 369
#     4  12  24  40  60  93 135 169 203 256 318 386
#     4  11  23  42  69  94 123 165 217 264 313 367
#
# _framework density 20.263701999999999
#
# number of rings (size 3 to 8) (size 9 to 14) (size 15 to 20)
#    0.000    0.750    3.750    5.625    0.000    0.000 
#    0.000    1.250    0.000    0.000    0.000    0.000 
#    0.000    0.000    0.000    0.000    0.000    0.000 
#
# Total GULP energy -89225.203164 kJ/mol
# GULP energy per Si atom -5576.575198 kJ/mol
# Density = 2.021758 g / cm^3
# Si number density = 20.263702 Si / 1000 Ang^3
#
#
#
# Elastic Constant Matrix: (Units=GPa)
#
#
# Indices 1 2 3 4 5 6 
#
# 1 98.9875 27.3201 33.8347 4.2640 4.8446 18.6438
# 2 27.3201 84.9396 23.0164 11.7690 2.3585 4.5087
# 3 33.8347 23.0164 86.0537 5.2916 -0.9014 7.3884
# 4 4.2640 11.7690 5.2916 28.0391 7.8424 -2.0202
# 5 4.8446 2.3585 -0.9014 7.8424 46.0731 -5.3931
# 6 18.6438 4.5087 7.3884 -2.0202 -5.3931 35.7400
#
#
#
# Elastic Compliance Matrix: (Units=1/GPa)
#
#
# Indices 1 2 3 4 5 6 
#
# 1 0.013545 -0.002881 -0.004050 0.000053 -0.002088 -0.006177
# 2 -0.002881 0.014022 -0.002296 -0.005131 0.000411 -0.000019
# 3 -0.004050 -0.002296 0.013957 -0.001363 0.001001 -0.000409
# 4 0.000053 -0.005131 -0.001363 0.039994 -0.006319 0.002209
# 5 -0.002088 0.000411 0.001001 -0.006319 0.023468 0.004015
# 6 -0.006177 -0.000019 -0.000409 0.002209 0.004015 0.032020
#
#
# Mechanical properties :
#
#
# Convention : Reuss Voigt Hill
#
# Bulk Modulus (GPa) = 43.34612 48.70259 46.02435
# Shear Modulus (GPa) = 30.64668 34.35775 32.50221
#
# Velocity S-wave (km/s) = 3.89317 4.12215 4.00929
# Velocity P-wave (km/s) = 6.45341 6.83687 6.64790
#
# Compressibility (1/GPa) = 0.02307012
#
# Stress axis : x y z
#
# Youngs Moduli (GPa) = 73.82797 71.31459 71.65043
#
# Poissons Ratio (x) = 0.20543 0.29018
# Poissons Ratio (y) = 0.21267 0.16454
# Poissons Ratio (z) = 0.29900 0.16377
#
# Static dielectric constant tensor:
#      x y z
#    x 1.703030 -0.009240 0.039940 
#    y -0.009240 1.725550 0.007480 
#    z 0.039940 0.007480 1.740980 
# 
# From -- ./inp_files/272328.got.cif
#   From: 2010.05.17/outbox.cif.g08.bks.cpg/sg2_137_cif.got.tgz:272328.got - 2010.06.03 11:33:40.
