data_PCOD9041622
_publ_section_title
;
Structure prediction by ZEFSAII (Michael W. Deem and Ramdas Pophale) SiO2 
 PCOD9041622
Probable space group: P -1
;
_chemical_formula_sum "Si O2"
_cell_formula_units_Z 13
_cell_length_a 12.054791
_cell_length_b 17.071956
_cell_length_c 9.425398
_cell_angle_alpha 140.345585
_cell_angle_beta 144.189466
_cell_angle_gamma 24.379628
_cell_volume 464.544887
_symmetry_space_group_name_H-M "P -1"
_symmetry_group_IT_number 2
_symmetry_cell_setting 'triclinic'
loop_
_space_group_symop_operation_xyz
x,y,z
-x,-y,-z
loop_
_atom_site_type_symbol
_atom_site_label
_atom_site_fract_x
_atom_site_fract_y
_atom_site_fract_z
Si Si1 0.931725 0.371727 0.607017
Si Si2 0.120514 0.534411 0.994598
Si Si3 0.505873 0.886491 0.689708
Si Si4 0.693163 0.018901 0.671114
Si Si5 0.000000 0.000000 0.500000
Si Si6 0.757649 0.022827 0.057671
Si Si7 0.598098 0.410807 0.822454
O O1 0.165978 0.365697 0.812072
O O2 0.662093 0.529819 0.441755
O O3 0.041088 0.183719 0.413517
O O4 0.868085 0.417919 0.770023
O O5 0.801708 0.713129 0.841724
O O6 0.342819 0.495647 0.072671
O O7 0.556446 0.005437 0.863744
O O8 0.480671 0.832535 0.432839
O O9 0.222482 0.991517 0.633369
O O10 0.794378 0.028026 0.936479
O O11 0.500000 0.000000 0.500000
O O12 0.271751 0.846961 0.690859
O O13 0.095067 0.820966 0.190305
O O14 0.500000 0.500000 0.000000
#
# Coordination Sequence:
#
# PCOD9041622 Si02
#       7
#     2   2   2   2   1   2   2
#     4  11  23  45  69  98 132 178 227 271 329 398
#     4  10  25  44  71  99 132 178 225 277 327 393
#     4  10  24  45  69  97 135 174 217 276 337 389
#     4  10  23  44  68  96 138 177 215 275 341 390
#     4  12  24  40  70  98 128 176 224 266 328 410
#     4  10  23  44  65  98 135 173 219 276 333 390
#     4  11  22  44  68  98 134 174 222 279 332 392
#
# _framework density 27.984378
#
# number of rings (size 3 to 8) (size 9 to 14) (size 15 to 20)
#    0.000    1.538    1.538    1.846    8.615    1.231 
#   11.077    0.000    0.000    0.000    0.000    0.000 
#    0.000    0.000    0.000    0.000    0.000    0.000 
#
# Total GULP energy -72682.881055 kJ/mol
# GULP energy per Si atom -5590.990850 kJ/mol
# Density = 2.792068 g / cm^3
# Si number density = 27.984378 Si / 1000 Ang^3
#
#
#
# Elastic Constant Matrix: (Units=GPa)
#
#
# Indices 1 2 3 4 5 6 
#
# 1 183.6549 7.7337 78.6163 8.8732 -12.0650 -0.7163
# 2 7.7337 98.2862 18.0943 0.1678 -10.5877 9.7236
# 3 78.6163 18.0943 210.4139 -4.1068 -41.4868 -0.6303
# 4 8.8732 0.1678 -4.1068 34.0187 9.5554 -0.5457
# 5 -12.0650 -10.5877 -41.4868 9.5554 79.1980 -6.2579
# 6 -0.7163 9.7236 -0.6303 -0.5457 -6.2579 29.8252
#
#
#
# Elastic Compliance Matrix: (Units=1/GPa)
#
#
# Indices 1 2 3 4 5 6 
#
# 1 0.006619 -0.000069 -0.002521 -0.002009 -0.000073 0.000076
# 2 -0.000069 0.010739 -0.000755 -0.000409 0.000814 -0.003356
# 3 -0.002521 -0.000755 0.006332 0.000646 0.002827 0.000925
# 4 -0.002009 -0.000409 0.000646 0.031059 -0.003779 -0.000126
# 5 -0.000073 0.000814 0.002827 -0.003779 0.014886 0.002847
# 6 0.000076 -0.003356 0.000925 -0.000126 0.002847 0.035239
#
#
# Mechanical properties :
#
#
# Convention : Reuss Voigt Hill
#
# Bulk Modulus (GPa) = 58.81980 77.91597 68.36789
# Shear Modulus (GPa) = 42.65058 54.46908 48.55983
#
# Velocity S-wave (km/s) = 3.90819 4.41660 4.17015
# Velocity P-wave (km/s) = 6.43659 7.34245 6.90439
#
# Compressibility (1/GPa) = 0.01700108
#
# Stress axis : x y z
#
# Youngs Moduli (GPa) = 151.06982 93.11714 157.92651
#
# Poissons Ratio (x) = 0.00640 0.39807
# Poissons Ratio (y) = 0.01039 0.11930
# Poissons Ratio (z) = 0.38079 0.07034
#
# Static dielectric constant tensor:
#      x y z
#    x 2.109860 0.145720 0.083420 
#    y 0.145720 2.110680 -0.313510 
#    z 0.083420 -0.313510 1.809280 
# 
# From -- ./inp_files/275844.got.cif
#   From: 2010.05.17/outbox.cif.g08.bks.cpg/sg2_138_cif.got.tgz:275844.got - 2010.06.03 11:33:40.
