data_PCOD9041541
_publ_section_title
;
Structure prediction by ZEFSAII (Michael W. Deem and Ramdas Pophale) SiO2 
 PCOD9041541
Probable space group: P -1
;
_chemical_formula_sum "Si O2"
_cell_formula_units_Z 15
_cell_length_a 14.352628
_cell_length_b 14.946890
_cell_length_c 11.168397
_cell_angle_alpha 126.942988
_cell_angle_beta 151.370005
_cell_angle_gamma 34.570162
_cell_volume 582.454217
_symmetry_space_group_name_H-M "P -1"
_symmetry_group_IT_number 2
_symmetry_cell_setting 'triclinic'
loop_
_space_group_symop_operation_xyz
x,y,z
-x,-y,-z
loop_
_atom_site_type_symbol
_atom_site_label
_atom_site_fract_x
_atom_site_fract_y
_atom_site_fract_z
Si Si1 0.500000 0.500000 0.000000
Si Si2 0.162214 0.820290 0.096595
Si Si3 0.740757 0.936306 0.914400
Si Si4 0.215713 0.533472 0.530002
Si Si5 0.373077 0.897061 0.569937
Si Si6 0.211987 0.407330 0.048129
Si Si7 0.269418 0.690941 0.513001
Si Si8 0.328071 0.788531 0.893147
O O1 0.145968 0.633085 0.649031
O O2 0.529271 0.600454 0.022147
O O3 0.413701 0.644627 0.156654
O O4 0.391626 0.773761 0.414984
O O5 0.915812 0.857701 0.920442
O O6 0.000000 0.000000 0.000000
O O7 0.004903 0.819883 0.221202
O O8 0.574577 0.129664 0.895826
O O9 0.528098 0.925905 0.693034
O O10 0.218077 0.608202 0.474364
O O11 0.994214 0.530571 0.248831
O O12 0.548074 0.797449 0.811260
O O13 0.016270 0.065883 0.326054
O O14 0.393557 0.443060 0.271579
O O15 0.000000 0.500000 0.000000
O O16 0.285878 0.786291 0.702840
#
# Coordination Sequence:
#
# PCOD9041541 Si02
#       8
#     1   2   2   2   2   2   2   2
#     4  10  24  48  64  90 130 184 218 258 322 386
#     4  11  24  43  64  91 135 179 214 266 325 390
#     4  11  22  39  66  98 131 165 216 274 327 391
#     4  11  23  41  68  93 134 172 218 270 323 393
#     4  11  23  40  67 100 129 167 217 272 328 392
#     4  12  23  40  65 104 136 165 216 274 335 384
#     4  11  23  39  65  99 131 171 212 272 337 380
#     4  10  23  44  64  93 135 173 219 264 321 393
#
# _framework density 25.753095999999999
#
# number of rings (size 3 to 8) (size 9 to 14) (size 15 to 20)
#    0.000    1.067    5.333    2.000    1.867    4.267 
#    0.000   10.000    0.000    0.000    0.000    0.000 
#    0.000    0.000    0.000    0.000    0.000    0.000 
#
# Total GULP energy -83695.488010 kJ/mol
# GULP energy per Si atom -5579.699201 kJ/mol
# Density = 2.569448 g / cm^3
# Si number density = 25.753096 Si / 1000 Ang^3
#
#
#
# Elastic Constant Matrix: (Units=GPa)
#
#
# Indices 1 2 3 4 5 6 
#
# 1 118.2010 10.4261 32.4755 2.2719 10.3619 22.1826
# 2 10.4261 94.5073 8.5610 -4.8035 7.9317 21.3850
# 3 32.4755 8.5610 91.3147 17.7639 4.9380 13.2493
# 4 2.2719 -4.8035 17.7639 39.3757 13.7470 -4.3875
# 5 10.3619 7.9317 4.9380 13.7470 52.3393 7.9864
# 6 22.1826 21.3850 13.2493 -4.3875 7.9864 38.9700
#
#
#
# Elastic Compliance Matrix: (Units=1/GPa)
#
#
# Indices 1 2 3 4 5 6 
#
# 1 0.010242 0.000342 -0.003087 0.000779 -0.001288 -0.004617
# 2 0.000342 0.012196 -0.000575 0.001483 -0.001296 -0.006259
# 3 -0.003087 -0.000575 0.013984 -0.007293 0.001888 -0.003890
# 4 0.000779 0.001483 -0.007293 0.032854 -0.009364 0.006841
# 5 -0.001288 -0.001296 0.001888 -0.009364 0.022583 -0.004880
# 6 -0.004617 -0.006259 -0.003890 0.006841 -0.004880 0.034816
#
#
# Mechanical properties :
#
#
# Convention : Reuss Voigt Hill
#
# Bulk Modulus (GPa) = 33.57645 45.21647 39.39646
# Shear Modulus (GPa) = 34.90567 42.97435 38.94001
#
# Velocity S-wave (km/s) = 3.68557 4.08941 3.89273
# Velocity P-wave (km/s) = 5.58367 6.31613 5.96116
#
# Compressibility (1/GPa) = 0.02978278
#
# Stress axis : x y z
#
# Youngs Moduli (GPa) = 97.63283 81.99393 71.51072
#
# Poissons Ratio (x) = -0.02805 0.22073
# Poissons Ratio (y) = -0.03339 0.04113
# Poissons Ratio (z) = 0.30136 0.04716
#
# Static dielectric constant tensor:
#      x y z
#    x 7.670070 -7.246010 -2.503270 
#    y -7.246010 11.376820 3.216850 
#    z -2.503270 3.216850 3.160250 
# 
# From -- ./inp_files/455848.got.cif
#   From: 2010.05.17/outbox.cif.g08.bks.cpg/sg2_228_cif.got.tgz:455848.got - 2010.06.03 11:33:40.
