data_PCOD9041074
_publ_section_title
;
Structure prediction by ZEFSAII (Michael W. Deem and Ramdas Pophale) SiO2 
 PCOD9041074
Probable space group: P -1
;
_chemical_formula_sum "Si O2"
_cell_formula_units_Z 16
_cell_length_a 14.452014
_cell_length_b 15.092166
_cell_length_c 14.556081
_cell_angle_alpha 150.042866
_cell_angle_beta 141.971100
_cell_angle_gamma 28.112556
_cell_volume 743.295418
_symmetry_space_group_name_H-M "P -1"
_symmetry_group_IT_number 2
_symmetry_cell_setting 'triclinic'
loop_
_space_group_symop_operation_xyz
x,y,z
-x,-y,-z
loop_
_atom_site_type_symbol
_atom_site_label
_atom_site_fract_x
_atom_site_fract_y
_atom_site_fract_z
Si Si1 0.730291 0.509219 0.655744
Si Si2 0.728642 0.802751 0.476608
Si Si3 0.706955 0.178568 0.455475
Si Si4 0.419715 0.410213 0.922019
Si Si5 0.854339 0.744603 0.052304
Si Si6 0.085365 0.122598 0.472125
Si Si7 0.960839 0.209188 0.936537
Si Si8 0.141383 0.061262 0.136902
O O1 0.775780 0.312843 0.585805
O O2 0.528739 0.621722 0.546963
O O3 0.915937 0.370724 0.608630
O O4 0.699019 0.721245 0.870785
O O5 0.722697 0.602664 0.264041
O O6 0.781500 0.866611 0.482386
O O7 0.500000 0.000000 0.500000
O O8 0.855793 0.792530 0.648649
O O9 0.770729 0.968098 0.249203
O O10 0.794652 0.063258 0.518962
O O11 0.625046 0.165571 0.894915
O O12 0.500000 0.500000 0.000000
O O13 0.273656 0.590248 0.048664
O O14 0.967702 0.741203 0.051636
O O15 0.000000 0.500000 0.000000
O O16 0.992550 0.033184 0.261615
O O17 0.072599 0.178046 0.088472
O O18 0.000000 0.000000 0.000000
#
# Coordination Sequence:
#
# PCOD9041074 Si02
#       8
#     2   2   2   2   2   2   2   2
#     4  11  24  44  69 103 137 180 235 286 347 422
#     4  10  23  43  70  97 136 182 230 287 348 418
#     4  11  25  45  70 100 140 180 230 290 350 415
#     4  11  23  43  68 101 139 179 234 286 354 416
#     4  12  24  46  73  99 141 184 231 291 353 417
#     4  12  22  44  69  98 140 179 231 283 353 412
#     4  12  25  42  70 103 135 185 230 288 350 420
#     4  11  22  46  67  95 140 180 228 294 341 417
#
# _framework density 21.525763000000001
#
# number of rings (size 3 to 8) (size 9 to 14) (size 15 to 20)
#    0.000    0.750    5.000    3.000    0.000    3.500 
#    2.250    0.000    0.000    0.000    0.000    0.000 
#    0.000    0.000    0.000    0.000    0.000    0.000 
#
# Total GULP energy -89372.775484 kJ/mol
# GULP energy per Si atom -5585.798468 kJ/mol
# Density = 2.147677 g / cm^3
# Si number density = 21.525763 Si / 1000 Ang^3
#
#
#
# Elastic Constant Matrix: (Units=GPa)
#
#
# Indices 1 2 3 4 5 6 
#
# 1 144.5035 51.5318 43.5708 -7.8973 2.3141 17.9830
# 2 51.5318 98.5472 14.8555 -8.2474 -11.5494 -4.2585
# 3 43.5708 14.8555 133.4209 -4.4642 7.9135 3.1313
# 4 -7.8973 -8.2474 -4.4642 35.4642 -2.7030 1.1254
# 5 2.3141 -11.5494 7.9135 -2.7030 37.1840 -1.0459
# 6 17.9830 -4.2585 3.1313 1.1254 -1.0459 19.4924
#
#
#
# Elastic Compliance Matrix: (Units=1/GPa)
#
#
# Indices 1 2 3 4 5 6 
#
# 1 0.011526 -0.006344 -0.002607 0.000954 -0.002395 -0.011784
# 2 -0.006344 0.014674 -0.000027 0.002113 0.005371 0.009229
# 3 -0.002607 -0.000027 0.008432 0.000324 -0.001591 0.000941
# 4 0.000954 0.002113 0.000324 0.029204 0.002594 -0.002018
# 5 -0.002395 0.005371 -0.001591 0.002594 0.029380 0.005065
# 6 -0.011784 0.009229 0.000941 -0.002018 0.005065 0.064427
#
#
# Mechanical properties :
#
#
# Convention : Reuss Voigt Hill
#
# Bulk Modulus (GPa) = 59.96291 66.26531 63.11411
# Shear Modulus (GPa) = 27.60037 36.19569 31.89803
#
# Velocity S-wave (km/s) = 3.58467 4.10507 3.85366
# Velocity P-wave (km/s) = 6.71193 7.30204 7.01319
#
# Compressibility (1/GPa) = 0.01667697
#
# Stress axis : x y z
#
# Youngs Moduli (GPa) = 86.76324 68.14807 118.58890
#
# Poissons Ratio (x) = 0.43233 0.30916
# Poissons Ratio (y) = 0.55042 0.00316
# Poissons Ratio (z) = 0.22619 0.00181
#
# Static dielectric constant tensor:
#      x y z
#    x 1.718850 -0.032780 0.021500 
#    y -0.032780 1.948450 0.092770 
#    z 0.021500 0.092770 1.906090 
# 
# From -- ./inp_files/533930.got.cif
#   From: 2010.05.17/outbox.cif.g08.bks.cpg/sg2_267_cif.got.tgz:533930.got - 2010.06.03 11:33:40.
