data_PCOD9041882
_publ_section_title
;
Structure prediction by ZEFSAII (Michael W. Deem and Ramdas Pophale) SiO2 
 PCOD9041882
Probable space group: P -1
;
_chemical_formula_sum "Si O2"
_cell_formula_units_Z 16
_cell_length_a 19.016028
_cell_length_b 21.452447
_cell_length_c 12.716207
_cell_angle_alpha 138.628334
_cell_angle_beta 28.506960
_cell_angle_gamma 159.997412
_cell_volume 751.379127
_symmetry_space_group_name_H-M "P -1"
_symmetry_group_IT_number 2
_symmetry_cell_setting 'triclinic'
loop_
_space_group_symop_operation_xyz
x,y,z
-x,-y,-z
loop_
_atom_site_type_symbol
_atom_site_label
_atom_site_fract_x
_atom_site_fract_y
_atom_site_fract_z
Si Si1 0.757370 0.944986 0.266074
Si Si2 0.806796 0.739184 0.383868
Si Si3 0.873339 0.188985 0.530086
Si Si4 0.288516 0.913907 0.826918
Si Si5 0.738129 0.273109 0.525709
Si Si6 0.808782 0.447928 0.343983
Si Si7 0.739297 0.047137 0.744923
Si Si8 0.364335 0.648139 0.776641
O O1 0.537700 0.832233 0.310625
O O2 0.512235 0.777497 0.469756
O O3 0.941547 0.148587 0.302004
O O4 0.000000 0.000000 0.000000
O O5 0.500000 0.500000 0.500000
O O6 0.644459 0.748833 0.592086
O O7 0.028393 0.842433 0.323328
O O8 0.012669 0.824339 0.119872
O O9 0.925953 0.165948 0.541574
O O10 0.053716 0.391057 0.557887
O O11 0.495782 0.993942 0.755074
O O12 0.158108 0.753640 0.723360
O O13 0.559148 0.122398 0.667920
O O14 0.000000 0.500000 0.500000
O O15 0.759861 0.466382 0.315173
O O16 0.072567 0.514660 0.065984
O O17 0.507969 0.826572 0.771104
O O18 0.500000 0.000000 0.000000
#
# Coordination Sequence:
#
# PCOD9041882 Si02
#       8
#     2   2   2   2   2   2   2   2
#     4  11  26  44  68 100 134 173 234 294 341 407
#     4  12  27  42  67 110 146 179 234 291 346 418
#     4  11  22  43  72  95 137 185 222 282 346 416
#     4  10  23  44  68 100 139 176 232 290 341 413
#     4  10  23  46  73  93 130 187 233 281 351 408
#     4  11  23  42  70  99 137 187 230 275 353 420
#     4  12  22  44  69 102 142 188 225 277 354 416
#     4  11  25  41  69 103 142 185 235 279 344 420
#
# _framework density 21.294176
#
# number of rings (size 3 to 8) (size 9 to 14) (size 15 to 20)
#    0.000    1.000    3.750    1.875    7.000    0.500 
#    6.750    0.000    0.000    0.000    0.000    0.000 
#    0.000    0.000    0.000    0.000    0.000    0.000 
#
# Total GULP energy -89327.159965 kJ/mol
# GULP energy per Si atom -5582.947498 kJ/mol
# Density = 2.124571 g / cm^3
# Si number density = 21.294176 Si / 1000 Ang^3
#
#
#
# Elastic Constant Matrix: (Units=GPa)
#
#
# Indices 1 2 3 4 5 6 
#
# 1 117.5574 32.9745 55.3330 8.1419 -15.0214 12.3225
# 2 32.9745 139.4314 34.7419 22.7838 4.0457 11.4018
# 3 55.3330 34.7419 126.3747 4.1502 -22.0339 4.7987
# 4 8.1419 22.7838 4.1502 18.6462 -8.8205 1.1602
# 5 -15.0214 4.0457 -22.0339 -8.8205 34.1936 -0.3990
# 6 12.3225 11.4018 4.7987 1.1602 -0.3990 37.7556
#
#
#
# Elastic Compliance Matrix: (Units=1/GPa)
#
#
# Indices 1 2 3 4 5 6 
#
# 1 0.011478 -0.001307 -0.004142 -0.001299 0.002161 -0.002762
# 2 -0.001307 0.011453 -0.003419 -0.016508 -0.008416 -0.002179
# 3 -0.004142 -0.003419 0.011805 0.007113 0.008036 0.000750
# 4 -0.001299 -0.016508 0.007113 0.085977 0.028170 0.002161
# 5 0.002161 -0.008416 0.008036 0.028170 0.043640 0.000411
# 6 -0.002762 -0.002179 0.000750 0.002161 0.000411 0.027888
#
#
# Mechanical properties :
#
#
# Convention : Reuss Voigt Hill
#
# Bulk Modulus (GPa) = 58.82073 69.94026 64.38049
# Shear Modulus (GPa) = 23.18624 35.47335 29.32980
#
# Velocity S-wave (km/s) = 3.30336 4.08594 3.71531
# Velocity P-wave (km/s) = 6.49865 7.42805 6.97884
#
# Compressibility (1/GPa) = 0.01700081
#
# Stress axis : x y z
#
# Youngs Moduli (GPa) = 87.12016 87.31424 84.70629
#
# Poissons Ratio (x) = 0.11412 0.35087
# Poissons Ratio (y) = 0.11386 0.28959
# Poissons Ratio (z) = 0.36087 0.29851
#
# Static dielectric constant tensor:
#      x y z
#    x 1.912590 0.076960 -0.052540 
#    y 0.076960 1.807580 0.029010 
#    z -0.052540 0.029010 1.864280 
# 
# From -- ./inp_files/467129.got.cif
#   From: 2010.05.17/outbox.cif.g08.bks.cpg/sg2_234_cif.got.tgz:467129.got - 2010.06.03 11:33:40.
