data_PCOD9041042
_publ_section_title
;
Structure prediction by ZEFSAII (Michael W. Deem and Ramdas Pophale) SiO2 
 PCOD9041042
Probable space group: P -1
;
_chemical_formula_sum "Si O2"
_cell_formula_units_Z 16
_cell_length_a 10.102987
_cell_length_b 8.641161
_cell_length_c 15.375551
_cell_angle_alpha 83.867169
_cell_angle_beta 119.897988
_cell_angle_gamma 51.478329
_cell_volume 717.729971
_symmetry_space_group_name_H-M "P -1"
_symmetry_group_IT_number 2
_symmetry_cell_setting 'triclinic'
loop_
_space_group_symop_operation_xyz
x,y,z
-x,-y,-z
loop_
_atom_site_type_symbol
_atom_site_label
_atom_site_fract_x
_atom_site_fract_y
_atom_site_fract_z
Si Si1 0.917025 0.997649 0.565110
Si Si2 0.312335 0.422633 0.747590
Si Si3 0.446358 0.222735 0.452498
Si Si4 0.970305 0.947286 0.216572
Si Si5 0.623734 0.170133 0.700582
Si Si6 0.121639 0.324115 0.811890
Si Si7 0.775233 0.243517 0.975450
Si Si8 0.055006 0.582445 0.939951
O O1 0.068193 0.720669 0.654917
O O2 0.000000 0.000000 0.500000
O O3 0.636201 0.164049 0.457606
O O4 0.977341 0.061054 0.664271
O O5 0.401429 0.338127 0.683756
O O6 0.267605 0.293572 0.785415
O O7 0.535254 0.341161 0.866683
O O8 0.505288 0.247205 0.563575
O O9 0.168911 0.450010 0.317278
O O10 0.500000 0.000000 0.500000
O O11 0.229086 0.783132 0.261999
O O12 0.835640 0.893448 0.155119
O O13 0.808399 0.197434 0.093488
O O14 0.820046 0.876496 0.811175
O O15 0.157974 0.402735 0.903286
O O16 0.768797 0.433622 0.954255
O O17 0.000000 0.000000 0.000000
O O18 0.000000 0.500000 0.000000
#
# Coordination Sequence:
#
# PCOD9041042 Si02
#       8
#     2   2   2   2   2   2   2   2
#     4  11  27  44  66 101 134 176 230 277 331 398
#     4  12  25  44  69 100 133 175 226 275 332 396
#     4  11  22  46  67  91 138 177 216 275 337 391
#     4  10  24  46  67  98 135 179 221 273 341 398
#     4  10  23  43  70  95 134 177 222 267 336 406
#     4  12  26  42  70 101 132 176 224 279 332 394
#     4  11  22  45  71  95 136 177 217 276 336 396
#     4  11  23  42  69 101 130 177 225 267 338 399
#
# _framework density 22.292508000000002
#
# number of rings (size 3 to 8) (size 9 to 14) (size 15 to 20)
#    0.000    1.000    5.000    2.250    3.500    5.000 
#    2.250    0.000    0.000    0.000    0.000    0.000 
#    0.000    0.000    0.000    0.000    0.000    0.000 
#
# Total GULP energy -89275.478700 kJ/mol
# GULP energy per Si atom -5579.717419 kJ/mol
# Density = 2.224177 g / cm^3
# Si number density = 22.292508 Si / 1000 Ang^3
#
#
#
# Elastic Constant Matrix: (Units=GPa)
#
#
# Indices 1 2 3 4 5 6 
#
# 1 186.6548 41.8378 33.5232 15.7431 8.1765 5.3295
# 2 41.8378 53.4383 -0.8213 13.5079 3.1202 6.2951
# 3 33.5232 -0.8213 48.8489 11.0849 1.2752 -10.4874
# 4 15.7431 13.5079 11.0849 28.5410 2.5828 -3.6130
# 5 8.1765 3.1202 1.2752 2.5828 34.0213 1.7970
# 6 5.3295 6.2951 -10.4874 -3.6130 1.7970 41.1577
#
#
#
# Elastic Compliance Matrix: (Units=1/GPa)
#
#
# Indices 1 2 3 4 5 6 
#
# 1 0.007836 -0.006204 -0.005959 0.000840 -0.001078 -0.001463
# 2 -0.006204 0.027150 0.006975 -0.012457 -0.000174 -0.002658
# 3 -0.005959 0.006975 0.028290 -0.010259 0.000194 0.006004
# 4 0.000840 -0.012457 -0.010259 0.045069 -0.002267 0.003238
# 5 -0.001078 -0.000174 0.000194 -0.002267 0.029901 -0.001289
# 6 -0.001463 -0.002658 0.006004 0.003238 -0.001289 0.026763
#
#
# Mechanical properties :
#
#
# Convention : Reuss Voigt Hill
#
# Bulk Modulus (GPa) = 18.90375 48.66906 33.78640
# Shear Modulus (GPa) = 25.90422 35.03748 30.47085
#
# Velocity S-wave (km/s) = 3.41253 3.96879 3.70112
# Velocity P-wave (km/s) = 4.90157 6.54837 5.78388
#
# Compressibility (1/GPa) = 0.05289956
#
# Stress axis : x y z
#
# Youngs Moduli (GPa) = 127.60981 36.83301 35.34829
#
# Poissons Ratio (x) = 0.22851 0.21064
# Poissons Ratio (y) = 0.79168 -0.24654
# Poissons Ratio (z) = 0.76041 -0.25690
#
# Static dielectric constant tensor:
#      x y z
#    x 2.168870 -0.314510 0.110050 
#    y -0.314510 2.231650 -0.086680 
#    z 0.110050 -0.086680 1.909240 
# 
# From -- ./inp_files/494921.got.cif
#   From: 2010.05.17/outbox.cif.g08.bks.cpg/sg2_248_cif.got.tgz:494921.got - 2010.06.03 11:33:40.
