data_PCOD9041126
_publ_section_title
;
Structure prediction by ZEFSAII (Michael W. Deem and Ramdas Pophale) SiO2 
 PCOD9041126
Probable space group: P -1
;
_chemical_formula_sum "Si O2"
_cell_formula_units_Z 15
_cell_length_a 12.994844
_cell_length_b 7.058278
_cell_length_c 11.304729
_cell_angle_alpha 116.818966
_cell_angle_beta 40.288277
_cell_angle_gamma 111.229155
_cell_volume 598.074955
_symmetry_space_group_name_H-M "P -1"
_symmetry_group_IT_number 2
_symmetry_cell_setting 'triclinic'
loop_
_space_group_symop_operation_xyz
x,y,z
-x,-y,-z
loop_
_atom_site_type_symbol
_atom_site_label
_atom_site_fract_x
_atom_site_fract_y
_atom_site_fract_z
Si Si1 0.847587 0.639031 0.883019
Si Si2 0.635461 0.160384 0.379784
Si Si3 0.006349 0.371783 0.836949
Si Si4 0.512286 0.522882 0.236592
Si Si5 0.292563 0.692697 0.272130
Si Si6 0.897425 0.055419 0.300580
Si Si7 0.500000 0.000000 0.000000
Si Si8 0.675276 0.127696 0.058331
O O1 0.002324 0.535200 0.779582
O O2 0.793005 0.490347 0.781819
O O3 0.917333 0.874302 0.862088
O O4 0.691151 0.629649 0.102066
O O5 0.583730 0.387177 0.542350
O O6 0.796945 0.087759 0.279068
O O7 0.638215 0.145951 0.232882
O O8 0.500000 0.000000 0.500000
O O9 0.838539 0.250121 0.927597
O O10 0.125866 0.185299 0.700750
O O11 0.000000 0.500000 0.000000
O O12 0.423672 0.594405 0.216891
O O13 0.533824 0.266645 0.153630
O O14 0.168586 0.796015 0.498605
O O15 0.364895 0.875571 0.175053
O O16 0.356083 0.073701 0.051105
#
# Coordination Sequence:
#
# PCOD9041126 Si02
#       8
#     2   2   2   2   2   2   1   2
#     4  11  24  46  73 107 147 193 242 297 369 437
#     4  11  25  45  69 104 137 185 242 293 363 423
#     4  11  26  46  68 106 144 192 246 288 371 432
#     4  10  23  43  71 101 142 181 242 293 349 431
#     4  11  24  48  70 112 142 195 244 296 368 431
#     4  11  27  46  75 105 150 190 241 310 360 437
#     4  12  24  46  72 104 146 188 242 296 362 430
#     4  11  24  43  70 102 139 189 236 298 354 426
#
# _framework density 25.080466999999999
#
# number of rings (size 3 to 8) (size 9 to 14) (size 15 to 20)
#    0.000    1.067    2.667    3.600    7.467    1.600 
#   12.000    0.000    0.000    0.000    0.000    0.000 
#    0.000    0.000    0.000    0.000    0.000    0.000 
#
# Total GULP energy -83745.816727 kJ/mol
# GULP energy per Si atom -5583.054448 kJ/mol
# Density = 2.502338 g / cm^3
# Si number density = 25.080467 Si / 1000 Ang^3
#
#
#
# Elastic Constant Matrix: (Units=GPa)
#
#
# Indices 1 2 3 4 5 6 
#
# 1 148.1990 13.9455 33.0672 -2.4120 18.6721 5.5991
# 2 13.9455 93.5470 8.5845 0.6196 -8.0574 -5.0534
# 3 33.0672 8.5845 70.5555 5.2188 14.3001 -12.1828
# 4 -2.4120 0.6196 5.2188 39.3899 -3.1602 -13.0089
# 5 18.6721 -8.0574 14.3001 -3.1602 43.4817 -4.9797
# 6 5.5991 -5.0534 -12.1828 -13.0089 -4.9797 48.8700
#
#
#
# Elastic Compliance Matrix: (Units=1/GPa)
#
#
# Indices 1 2 3 4 5 6 
#
# 1 0.008071 -0.001249 -0.003440 0.000019 -0.002815 -0.002193
# 2 -0.001249 0.011350 -0.001247 0.000674 0.003272 0.001519
# 3 -0.003440 -0.001247 0.017564 -0.001605 -0.004213 0.003787
# 4 0.000019 0.000674 -0.001605 0.028383 0.003576 0.007587
# 5 -0.002815 0.003272 -0.004213 0.003576 0.026837 0.003297
# 6 -0.002193 0.001519 0.003787 0.007587 0.003297 0.024170
#
#
# Mechanical properties :
#
#
# Convention : Reuss Voigt Hill
#
# Bulk Modulus (GPa) = 39.81888 47.05510 43.43699
# Shear Modulus (GPa) = 36.59893 43.46194 40.03044
#
# Velocity S-wave (km/s) = 3.82417 4.16733 3.99943
# Velocity P-wave (km/s) = 5.95063 6.47749 6.21964
#
# Compressibility (1/GPa) = 0.02511371
#
# Stress axis : x y z
#
# Youngs Moduli (GPa) = 123.90592 88.10753 56.93570
#
# Poissons Ratio (x) = 0.11001 0.19586
# Poissons Ratio (y) = 0.15470 0.07098
# Poissons Ratio (z) = 0.42624 0.10984
#
# Static dielectric constant tensor:
#      x y z
#    x 0.943420 -1.072210 -0.567430 
#    y -1.072210 1.051990 -0.439450 
#    z -0.567430 -0.439450 1.747690 
# 
# From -- ./inp_files/417985.got.cif
#   From: 2010.05.17/outbox.cif.g08.bks.cpg/sg2_209_cif.got.tgz:417985.got - 2010.06.03 11:33:40.
