data_PCOD9041802
_publ_section_title
;
Structure prediction by ZEFSAII (Michael W. Deem and Ramdas Pophale) SiO2 
 PCOD9041802
Probable space group: P -1
;
_chemical_formula_sum "Si O2"
_cell_formula_units_Z 16
_cell_length_a 8.382432
_cell_length_b 24.393433
_cell_length_c 9.512871
_cell_angle_alpha 143.550204
_cell_angle_beta 97.538910
_cell_angle_gamma 55.669460
_cell_volume 719.288049
_symmetry_space_group_name_H-M "P -1"
_symmetry_group_IT_number 2
_symmetry_cell_setting 'triclinic'
loop_
_space_group_symop_operation_xyz
x,y,z
-x,-y,-z
loop_
_atom_site_type_symbol
_atom_site_label
_atom_site_fract_x
_atom_site_fract_y
_atom_site_fract_z
Si Si1 0.595467 0.974692 0.616287
Si Si2 0.596122 0.048014 0.195856
Si Si3 0.159399 0.463063 0.198877
Si Si4 0.178177 0.790201 0.788935
Si Si5 0.563917 0.772072 0.705449
Si Si6 0.012809 0.657874 0.070823
Si Si7 0.438601 0.430891 0.420954
Si Si8 0.729920 0.441835 0.816693
O O1 0.500000 0.000000 0.500000
O O2 0.459632 0.960229 0.670752
O O3 0.889546 0.809765 0.323537
O O4 0.537958 0.100483 0.938583
O O5 0.457167 0.186776 0.373274
O O6 0.894456 0.942946 0.022628
O O7 0.500000 0.000000 0.000000
O O8 0.170815 0.348263 0.979611
O O9 0.268291 0.452798 0.335363
O O10 0.300103 0.453917 0.067569
O O11 0.857513 0.620704 0.466991
O O12 0.381431 0.764913 0.682489
O O13 0.298080 0.737669 0.851533
O O14 0.184710 0.678512 0.523359
O O15 0.265163 0.526713 0.736641
O O16 0.067688 0.633456 0.192060
O O17 0.500000 0.500000 0.500000
O O18 0.500000 0.500000 0.000000
#
# Coordination Sequence:
#
# PCOD9041802 Si02
#       8
#     2   2   2   2   2   2   2   2
#     4  11  25  42  66  98 137 178 220 278 342 402
#     4  10  23  44  67  93 131 184 225 271 334 412
#     4  12  24  44  72 100 138 183 230 274 345 418
#     4  12  24  43  72 102 133 179 239 274 341 413
#     4  11  23  46  72  98 131 183 234 278 332 420
#     4  12  25  43  69 103 137 175 229 286 344 396
#     4  12  25  43  69 103 140 183 223 283 342 420
#     4  12  22  41  63 105 137 170 222 292 340 384
#
# _framework density 22.244221
#
# number of rings (size 3 to 8) (size 9 to 14) (size 15 to 20)
#    0.000    0.500    3.750    5.625    3.500    1.000 
#    0.000    1.875    0.000    0.000    0.000    0.000 
#    0.000    0.000    0.000    0.000    0.000    0.000 
#
# Total GULP energy -89309.771530 kJ/mol
# GULP energy per Si atom -5581.860721 kJ/mol
# Density = 2.219359 g / cm^3
# Si number density = 22.244221 Si / 1000 Ang^3
#
#
#
# Elastic Constant Matrix: (Units=GPa)
#
#
# Indices 1 2 3 4 5 6 
#
# 1 121.4890 27.0108 19.5759 -8.8766 -2.2967 -1.5169
# 2 27.0108 141.8161 13.1641 -11.8234 -20.9530 -3.3234
# 3 19.5759 13.1641 52.3582 2.8861 -6.5375 1.7533
# 4 -8.8766 -11.8234 2.8861 26.9179 -0.8581 -6.7106
# 5 -2.2967 -20.9530 -6.5375 -0.8581 23.0082 11.9181
# 6 -1.5169 -3.3234 1.7533 -6.7106 11.9181 43.7006
#
#
#
# Elastic Compliance Matrix: (Units=1/GPa)
#
#
# Indices 1 2 3 4 5 6 
#
# 1 0.009340 -0.001451 -0.003596 0.003109 -0.002012 0.001384
# 2 -0.001451 0.008918 -0.000801 0.003519 0.008453 -0.001105
# 3 -0.003596 -0.000801 0.021872 -0.004570 0.006835 -0.003629
# 4 0.003109 0.003519 -0.004570 0.041950 0.000180 0.006951
# 5 -0.002012 0.008453 0.006835 0.000180 0.061416 -0.016423
# 6 0.001384 -0.001105 -0.003629 0.006951 -0.016423 0.028539
#
#
# Mechanical properties :
#
#
# Convention : Reuss Voigt Hill
#
# Bulk Modulus (GPa) = 35.16947 48.35168 41.76057
# Shear Modulus (GPa) = 25.87874 35.78617 30.83246
#
# Velocity S-wave (km/s) = 3.41455 4.01532 3.72706
# Velocity P-wave (km/s) = 5.60272 6.57883 6.11030
#
# Compressibility (1/GPa) = 0.02843376
#
# Stress axis : x y z
#
# Youngs Moduli (GPa) = 107.07107 112.12720 45.72027
#
# Poissons Ratio (x) = 0.16265 0.16442
# Poissons Ratio (y) = 0.15532 0.03664
# Poissons Ratio (z) = 0.38504 0.08987
#
# Static dielectric constant tensor:
#      x y z
#    x 1.861740 -0.039960 -0.054450 
#    y -0.039960 1.872320 -0.018870 
#    z -0.054450 -0.018870 2.016210 
# 
# From -- ./inp_files/226674.got.cif
#   From: 2010.05.17/outbox.cif.g08.bks.cpg/sg2_114_cif.got.tgz:226674.got - 2010.06.03 11:33:40.
