data_PCOD9041375
_publ_section_title
;
Structure prediction by ZEFSAII (Michael W. Deem and Ramdas Pophale) SiO2 
 PCOD9041375
Probable space group: P -1
;
_chemical_formula_sum "Si O2"
_cell_formula_units_Z 16
_cell_length_a 7.471737
_cell_length_b 27.370692
_cell_length_c 5.108282
_cell_angle_alpha 67.756024
_cell_angle_beta 85.419733
_cell_angle_gamma 44.588184
_cell_volume 649.207784
_symmetry_space_group_name_H-M "P -1"
_symmetry_group_IT_number 2
_symmetry_cell_setting 'triclinic'
loop_
_space_group_symop_operation_xyz
x,y,z
-x,-y,-z
loop_
_atom_site_type_symbol
_atom_site_label
_atom_site_fract_x
_atom_site_fract_y
_atom_site_fract_z
Si Si1 0.368503 0.484636 0.357895
Si Si2 0.553067 0.119542 0.309599
Si Si3 0.145552 0.626879 0.872360
Si Si4 0.623728 0.782018 0.352611
Si Si5 0.281712 0.750148 0.459730
Si Si6 0.194088 0.084222 0.862750
Si Si7 0.604119 0.342918 0.874403
Si Si8 0.112672 0.047459 0.436300
O O1 0.500000 0.500000 0.500000
O O2 0.581494 0.428207 0.215685
O O3 0.354178 0.433869 0.627180
O O4 0.125436 0.570787 0.089734
O O5 0.475337 0.160821 0.510643
O O6 0.851994 0.075204 0.303157
O O7 0.614495 0.044182 0.457301
O O8 0.373307 0.181782 0.975658
O O9 0.903615 0.696676 0.579356
O O10 0.183989 0.659695 0.038462
O O11 0.426101 0.775062 0.348708
O O12 0.311443 0.708070 0.285785
O O13 0.966511 0.829319 0.389563
O O14 0.417442 0.692289 0.809102
O O15 0.081639 0.065415 0.708424
O O16 0.119264 0.096813 0.151006
O O17 0.500000 0.000000 0.000000
#
# Coordination Sequence:
#
# PCOD9041375 Si02
#       8
#     2   2   2   2   2   2   2   2
#     4   9  20  44  71  96 132 168 215 263 322 386
#     4  11  23  41  69  88 130 166 220 275 327 372
#     4  10  23  43  73  99 128 169 221 267 319 385
#     4  12  25  42  67 102 131 170 216 280 328 378
#     4  12  24  43  64  94 139 172 210 268 336 387
#     4  12  25  42  61  90 131 178 215 264 326 394
#     4  11  23  43  68  95 131 177 210 261 324 396
#     4  11  22  44  64  91 121 175 221 270 320 376
#
# _framework density 24.645423000000001
#
# number of rings (size 3 to 8) (size 9 to 14) (size 15 to 20)
#    0.000    1.000    3.750    2.625    3.500    5.000 
#    0.000    1.250    0.000    0.000    0.000    0.000 
#    0.000    0.000    0.000    0.000    0.000    0.000 
#
# Total GULP energy -89404.137054 kJ/mol
# GULP energy per Si atom -5587.758566 kJ/mol
# Density = 2.458933 g / cm^3
# Si number density = 24.645423 Si / 1000 Ang^3
#
#
#
# Elastic Constant Matrix: (Units=GPa)
#
#
# Indices 1 2 3 4 5 6 
#
# 1 29.3261 18.5667 39.8677 -8.2783 0.8837 9.2647
# 2 18.5667 139.7769 52.9216 13.3251 9.5771 30.3488
# 3 39.8677 52.9216 161.9200 -4.8778 4.1271 19.1593
# 4 -8.2783 13.3251 -4.8778 49.6119 -1.2179 -2.0908
# 5 0.8837 9.5771 4.1271 -1.2179 37.0192 -6.5308
# 6 9.2647 30.3488 19.1593 -2.0908 -6.5308 22.1138
#
#
#
# Elastic Compliance Matrix: (Units=1/GPa)
#
#
# Indices 1 2 3 4 5 6 
#
# 1 0.057245 -0.001214 -0.012048 0.008171 -0.001477 -0.011542
# 2 -0.001214 0.012708 -0.001734 -0.004690 -0.006351 -0.017748
# 3 -0.012048 -0.001734 0.009867 -0.000648 -0.000627 -0.001368
# 4 0.008171 -0.004690 -0.000648 0.023070 0.003022 0.006648
# 5 -0.001477 -0.006351 -0.000627 0.003022 0.032338 0.019713
# 6 -0.011542 -0.017748 -0.001368 0.006648 0.019713 0.082049
#
#
# Mechanical properties :
#
#
# Convention : Reuss Voigt Hill
#
# Bulk Modulus (GPa) = 20.06927 61.52610 40.79769
# Shear Modulus (GPa) = 18.94808 36.39345 27.67076
#
# Velocity S-wave (km/s) = 2.77578 3.84693 3.35439
# Velocity P-wave (km/s) = 4.29350 6.68958 5.62071
#
# Compressibility (1/GPa) = 0.04982741
#
# Stress axis : x y z
#
# Youngs Moduli (GPa) = 17.46891 78.69235 101.34305
#
# Poissons Ratio (x) = 0.09552 1.22103
# Poissons Ratio (y) = 0.02121 0.17571
# Poissons Ratio (z) = 0.21047 0.13644
#
# Static dielectric constant tensor:
#      x y z
#    x 2.054270 -0.020980 -0.055940 
#    y -0.020980 1.953540 -0.049470 
#    z -0.055940 -0.049470 1.985770 
# 
# From -- ./inp_files/56368.got.cif
#   From: 2010.05.17/outbox.cif.g08.bks.cpg/sg2_29_cif.got.tgz:56368.got - 2010.06.03 11:33:40.
