data_PCOD9041712
_publ_section_title
;
Structure prediction by ZEFSAII (Michael W. Deem and Ramdas Pophale) SiO2 
 PCOD9041712
Probable space group: P -1
;
_chemical_formula_sum "Si O2"
_cell_formula_units_Z 14
_cell_length_a 14.018752
_cell_length_b 14.052034
_cell_length_c 23.507254
_cell_angle_alpha 160.312364
_cell_angle_beta 155.356420
_cell_angle_gamma 32.486288
_cell_volume 648.016741
_symmetry_space_group_name_H-M "P -1"
_symmetry_group_IT_number 2
_symmetry_cell_setting 'triclinic'
loop_
_space_group_symop_operation_xyz
x,y,z
-x,-y,-z
loop_
_atom_site_type_symbol
_atom_site_label
_atom_site_fract_x
_atom_site_fract_y
_atom_site_fract_z
Si Si1 0.747130 0.394247 0.436647
Si Si2 0.058983 0.367829 0.212713
Si Si3 0.796949 0.787679 0.244558
Si Si4 0.084854 0.182502 0.802186
Si Si5 0.976409 0.252930 0.300683
Si Si6 0.225268 0.328431 0.083797
Si Si7 0.701551 0.100052 0.961893
O O1 0.781572 0.445518 0.551324
O O2 0.483216 0.296509 0.226002
O O3 0.816962 0.665391 0.586429
O O4 0.922522 0.156680 0.382773
O O5 0.876737 0.495584 0.145209
O O6 0.231823 0.220774 0.182324
O O7 0.887139 0.213632 0.079469
O O8 0.789227 0.787859 0.172859
O O9 0.550920 0.860054 0.173174
O O10 0.000000 0.000000 0.500000
O O11 0.865560 0.365597 0.779068
O O12 0.217746 0.310456 0.001104
O O13 0.000000 0.500000 0.500000
O O14 0.760072 0.247739 0.137058
O O15 0.943042 0.939690 0.134812
#
# Coordination Sequence:
#
# PCOD9041712 Si02
#       7
#     2   2   2   2   2   2   2
#     4  11  23  43  73  96 132 181 222 276 344 398
#     4  10  23  44  66  98 131 175 222 269 341 397
#     4  12  24  38  67  97 130 173 215 268 336 400
#     4  11  24  43  64 101 134 173 224 275 338 394
#     4  11  23  42  72  99 130 181 227 272 341 400
#     4  11  25  45  68  96 141 172 225 291 322 407
#     4  10  24  43  66  97 135 170 220 284 325 400
#
# _framework density 21.604379999999999
#
# number of rings (size 3 to 8) (size 9 to 14) (size 15 to 20)
#    0.000    1.143    2.857    2.571    4.000    0.571 
#    0.000    7.143    0.000    0.000    0.000    0.000 
#    0.000    0.000    0.000    0.000    0.000    0.000 
#
# Total GULP energy -77996.247499 kJ/mol
# GULP energy per Si atom -5571.160536 kJ/mol
# Density = 2.155521 g / cm^3
# Si number density = 21.604380 Si / 1000 Ang^3
#
#
#
# Elastic Constant Matrix: (Units=GPa)
#
#
# Indices 1 2 3 4 5 6 
#
# 1 108.1097 42.1189 38.7127 -11.1498 -5.9208 -3.0618
# 2 42.1189 131.3605 45.2943 -15.9027 -1.6649 -16.6432
# 3 38.7127 45.2943 83.7591 -12.3805 -8.9628 -16.0399
# 4 -11.1498 -15.9027 -12.3805 27.6282 1.7265 4.5756
# 5 -5.9208 -1.6649 -8.9628 1.7265 16.3458 2.7539
# 6 -3.0618 -16.6432 -16.0399 4.5756 2.7539 42.1794
#
#
#
# Elastic Compliance Matrix: (Units=1/GPa)
#
#
# Indices 1 2 3 4 5 6 
#
# 1 0.011890 -0.002409 -0.004097 0.001779 0.001958 -0.001966
# 2 -0.002409 0.010345 -0.003881 0.003032 -0.002650 0.002275
# 3 -0.004097 -0.003881 0.017923 0.003015 0.006921 0.004208
# 4 0.001779 0.003032 0.003015 0.040396 -0.001353 -0.001822
# 5 0.001958 -0.002650 0.006921 -0.001353 0.065965 -0.002432
# 6 -0.001966 0.002275 0.004208 -0.001822 -0.002432 0.026420
#
#
# Mechanical properties :
#
#
# Convention : Reuss Voigt Hill
#
# Bulk Modulus (GPa) = 51.58374 63.94235 57.76305
# Shear Modulus (GPa) = 24.97833 30.37091 27.67462
#
# Velocity S-wave (km/s) = 3.40394 3.75343 3.58295
# Velocity P-wave (km/s) = 6.27514 6.96028 6.62657
#
# Compressibility (1/GPa) = 0.01938595
#
# Stress axis : x y z
#
# Youngs Moduli (GPa) = 84.10093 96.66722 55.79352
#
# Poissons Ratio (x) = 0.23284 0.22859
# Poissons Ratio (y) = 0.20257 0.21651
# Poissons Ratio (z) = 0.34457 0.37512
#
# Static dielectric constant tensor:
#      x y z
#    x 1.795390 0.040810 0.002480 
#    y 0.040810 1.881490 0.060050 
#    z 0.002480 0.060050 1.757160 
# 
# From -- ./inp_files/308683.got.cif
#   From: 2010.05.17/outbox.cif.g08.bks.cpg/sg2_155_cif.got.tgz:308683.got - 2010.06.03 11:33:40.
