data_PCOD9041724
_publ_section_title
;
Structure prediction by ZEFSAII (Michael W. Deem and Ramdas Pophale) SiO2 
 PCOD9041724
Probable space group: P -1
;
_chemical_formula_sum "Si O2"
_cell_formula_units_Z 16
_cell_length_a 6.697132
_cell_length_b 8.832942
_cell_length_c 15.375289
_cell_angle_alpha 94.075597
_cell_angle_beta 61.570790
_cell_angle_gamma 74.671064
_cell_volume 750.309439
_symmetry_space_group_name_H-M "P -1"
_symmetry_group_IT_number 2
_symmetry_cell_setting 'triclinic'
loop_
_space_group_symop_operation_xyz
x,y,z
-x,-y,-z
loop_
_atom_site_type_symbol
_atom_site_label
_atom_site_fract_x
_atom_site_fract_y
_atom_site_fract_z
Si Si1 0.652718 0.864553 0.031926
Si Si2 0.007206 0.526757 0.274257
Si Si3 0.850025 0.776697 0.657134
Si Si4 0.209636 0.953904 0.632899
Si Si5 0.312595 0.955337 0.798006
Si Si6 0.541220 0.411622 0.895040
Si Si7 0.166987 0.640716 0.846235
Si Si8 0.222597 0.224159 0.521821
O O1 0.491317 0.761478 0.095252
O O2 0.745286 0.945718 0.096845
O O3 0.889848 0.735059 0.935259
O O4 0.500000 0.000000 0.000000
O O5 0.165293 0.365104 0.284603
O O6 0.197364 0.598704 0.195123
O O7 0.848488 0.473687 0.234558
O O8 0.843736 0.638603 0.386653
O O9 0.595692 0.919408 0.722198
O O10 0.894960 0.724067 0.545501
O O11 0.055472 0.838386 0.652829
O O12 0.183719 0.030760 0.737889
O O13 0.490892 0.850226 0.556499
O O14 0.140076 0.084688 0.576285
O O15 0.268148 0.784892 0.808810
O O16 0.332884 0.526152 0.880263
O O17 0.500000 0.500000 0.000000
#
# Coordination Sequence:
#
# PCOD9041724 Si02
#       8
#     2   2   2   2   2   2   2   2
#     4  12  27  46  73 102 139 190 235 288 349 413
#     4  12  25  43  72 100 138 183 231 280 354 408
#     4  11  22  46  66  98 137 180 225 290 339 410
#     4  10  23  44  66  98 141 173 227 290 339 413
#     4  11  24  42  70 100 133 183 234 276 348 409
#     4  12  27  47  70 103 144 180 237 289 347 412
#     4  12  25  48  69 101 146 185 229 293 342 415
#     4  10  25  41  68 102 132 177 234 281 346 412
#
# _framework density 21.324536999999999
#
# number of rings (size 3 to 8) (size 9 to 14) (size 15 to 20)
#    0.000    0.750    3.750    3.000    3.500    1.500 
#    0.000    0.000    0.000    0.000    0.000    0.000 
#    0.000    0.000    0.000    0.000    0.000    0.000 
#
# Total GULP energy -89494.676652 kJ/mol
# GULP energy per Si atom -5593.417291 kJ/mol
# Density = 2.127600 g / cm^3
# Si number density = 21.324537 Si / 1000 Ang^3
#
#
#
# Elastic Constant Matrix: (Units=GPa)
#
#
# Indices 1 2 3 4 5 6 
#
# 1 63.7739 44.1592 39.3134 -10.5090 27.2245 9.7265
# 2 44.1592 72.6533 14.0803 -20.3145 2.2229 11.7530
# 3 39.3134 14.0803 93.9254 3.0043 33.3949 3.6708
# 4 -10.5090 -20.3145 3.0043 44.6509 6.9590 0.4863
# 5 27.2245 2.2229 33.3949 6.9590 37.0694 -7.8160
# 6 9.7265 11.7530 3.6708 0.4863 -7.8160 35.9949
#
#
#
# Elastic Compliance Matrix: (Units=1/GPa)
#
#
# Indices 1 2 3 4 5 6 
#
# 1 0.064157 -0.031525 -0.005724 0.008347 -0.045087 -0.016362
# 2 -0.031525 0.033071 0.000958 0.004445 0.019868 0.001877
# 3 -0.005724 0.000958 0.017331 -0.000157 -0.012103 -0.003159
# 4 0.008347 0.004445 -0.000157 0.028505 -0.013065 -0.006913
# 5 -0.045087 0.019868 -0.012103 -0.013065 0.077291 0.023890
# 6 -0.016362 0.001877 -0.003159 -0.006913 0.023890 0.037193
#
#
# Mechanical properties :
#
#
# Convention : Reuss Voigt Hill
#
# Bulk Modulus (GPa) = 23.82331 47.27316 35.54824
# Shear Modulus (GPa) = 14.52972 32.39634 23.46303
#
# Velocity S-wave (km/s) = 2.61312 3.90193 3.32065
# Velocity P-wave (km/s) = 4.50562 6.52048 5.60434
#
# Compressibility (1/GPa) = 0.04197569
#
# Stress axis : x y z
#
# Youngs Moduli (GPa) = 15.58687 30.23801 57.70090
#
# Poissons Ratio (x) = 0.95326 0.33029
# Poissons Ratio (y) = 0.49138 -0.05528
# Poissons Ratio (z) = 0.08922 -0.02897
#
# Static dielectric constant tensor:
#      x y z
#    x 1.739410 -0.011650 0.006200 
#    y -0.011650 1.773750 -0.011490 
#    z 0.006200 -0.011490 1.773510 
# 
# From -- ./inp_files/38130.got.cif
#   From: 2010.05.17/outbox.cif.g08.bks.cpg/sg2_20_cif.got.tgz:38130.got - 2010.06.03 11:33:40.
