data_PCOD9041436
_publ_section_title
;
Structure prediction by ZEFSAII (Michael W. Deem and Ramdas Pophale) SiO2 
 PCOD9041436
Probable space group: P -1
;
_chemical_formula_sum "Si O2"
_cell_formula_units_Z 14
_cell_length_a 5.253976
_cell_length_b 15.332479
_cell_length_c 25.663086
_cell_angle_alpha 18.845771
_cell_angle_beta 66.757061
_cell_angle_gamma 74.687051
_cell_volume 570.404677
_symmetry_space_group_name_H-M "P -1"
_symmetry_group_IT_number 2
_symmetry_cell_setting 'triclinic'
loop_
_space_group_symop_operation_xyz
x,y,z
-x,-y,-z
loop_
_atom_site_type_symbol
_atom_site_label
_atom_site_fract_x
_atom_site_fract_y
_atom_site_fract_z
Si Si1 0.742317 0.063212 0.860639
Si Si2 0.945971 0.205544 0.934193
Si Si3 0.122807 0.311650 0.473216
Si Si4 0.600660 0.133967 0.472596
Si Si5 0.648277 0.835912 0.731706
Si Si6 0.217843 0.673743 0.950138
Si Si7 0.174691 0.982414 0.233352
O O1 0.762952 0.344914 0.732478
O O2 0.825587 0.175397 0.731473
O O3 0.401761 0.847040 0.009315
O O4 0.956211 0.921419 0.949881
O O5 0.132942 0.550752 0.724573
O O6 0.000000 0.000000 0.000000
O O7 0.341527 0.198747 0.487854
O O8 0.803966 0.162533 0.555950
O O9 0.056930 0.193770 0.604204
O O10 0.500000 0.000000 0.500000
O O11 0.651920 0.880826 0.645112
O O12 0.346691 0.699100 0.866598
O O13 0.833042 0.641647 0.845039
O O14 0.498641 0.886474 0.841155
O O15 0.937935 0.766540 0.919261
#
# Coordination Sequence:
#
# PCOD9041436 Si02
#       7
#     2   2   2   2   2   2   2
#     4  12  27  47  78 108 147 200 259 304 372 454
#     4  12  27  51  77 104 155 208 250 301 372 448
#     4  11  25  46  75 108 150 196 247 320 381 440
#     4  12  28  47  77 111 152 199 256 311 370 451
#     4  10  24  44  73 106 150 198 245 307 382 451
#     4  10  23  43  75 107 152 193 241 306 391 447
#     4  11  24  45  74 115 146 189 249 321 378 441
#
# _framework density 24.543980000000001
#
# number of rings (size 3 to 8) (size 9 to 14) (size 15 to 20)
#    0.000    0.857    2.857    2.571    6.000    3.429 
#    0.000    3.571    0.000    0.000    0.000    0.000 
#    0.000    0.000    0.000    0.000    0.000    0.000 
#
# Total GULP energy -78384.393247 kJ/mol
# GULP energy per Si atom -5598.885232 kJ/mol
# Density = 2.448812 g / cm^3
# Si number density = 24.543980 Si / 1000 Ang^3
#
#
#
# Elastic Constant Matrix: (Units=GPa)
#
#
# Indices 1 2 3 4 5 6 
#
# 1 81.8353 28.2030 33.0115 -2.2930 -4.5046 17.5530
# 2 28.2030 120.7864 47.5606 12.0358 3.2479 25.4147
# 3 33.0115 47.5606 140.0156 -2.4914 -5.3238 23.2926
# 4 -2.2930 12.0358 -2.4914 37.5268 8.2021 9.9898
# 5 -4.5046 3.2479 -5.3238 8.2021 34.9636 7.9538
# 6 17.5530 25.4147 23.2926 9.9898 7.9538 38.4572
#
#
#
# Elastic Compliance Matrix: (Units=1/GPa)
#
#
# Indices 1 2 3 4 5 6 
#
# 1 0.015027 -0.001910 -0.001817 0.002350 0.002568 -0.005638
# 2 -0.001910 0.010873 -0.002630 -0.002689 -0.000116 -0.003998
# 3 -0.001817 -0.002630 0.009220 0.001984 0.001839 -0.003913
# 4 0.002350 -0.002689 0.001984 0.030810 -0.004658 -0.007537
# 5 0.002568 -0.000116 0.001839 -0.004658 0.032051 -0.007628
# 6 -0.005638 -0.003998 -0.003913 -0.007537 -0.007628 0.037124
#
#
# Mechanical properties :
#
#
# Convention : Reuss Voigt Hill
#
# Bulk Modulus (GPa) = 44.63146 62.24307 53.43727
# Shear Modulus (GPa) = 32.19824 37.78032 34.98928
#
# Velocity S-wave (km/s) = 3.62589 3.92764 3.77977
# Velocity P-wave (km/s) = 5.97940 6.78110 6.39283
#
# Compressibility (1/GPa) = 0.02240572
#
# Stress axis : x y z
#
# Youngs Moduli (GPa) = 66.54530 91.97024 108.46077
#
# Poissons Ratio (x) = 0.17570 0.19705
# Poissons Ratio (y) = 0.12713 0.28527
# Poissons Ratio (z) = 0.12090 0.24189
#
# Static dielectric constant tensor:
#      x y z
#    x 1.983790 0.018620 -0.016440 
#    y 0.018620 2.006570 -0.013490 
#    z -0.016440 -0.013490 1.969090 
# 
# From -- ./inp_files/604684.got.cif
#   From: 2010.05.17/outbox.cif.g08.bks.cpg/sg2_303_cif.got.tgz:604684.got - 2010.06.03 11:33:40.
