data_PCOD9041120
_publ_section_title
;
Structure prediction by ZEFSAII (Michael W. Deem and Ramdas Pophale) SiO2 
 PCOD9041120
Probable space group: P -1
;
_chemical_formula_sum "Si O2"
_cell_formula_units_Z 14
_cell_length_a 11.806184
_cell_length_b 10.124992
_cell_length_c 10.627304
_cell_angle_alpha 29.212993
_cell_angle_beta 105.526846
_cell_angle_gamma 113.636770
_cell_volume 558.300315
_symmetry_space_group_name_H-M "P -1"
_symmetry_group_IT_number 2
_symmetry_cell_setting 'triclinic'
loop_
_space_group_symop_operation_xyz
x,y,z
-x,-y,-z
loop_
_atom_site_type_symbol
_atom_site_label
_atom_site_fract_x
_atom_site_fract_y
_atom_site_fract_z
Si Si1 0.634817 0.894542 0.970484
Si Si2 0.856095 0.164868 0.638039
Si Si3 0.099950 0.172729 0.642337
Si Si4 0.365912 0.266522 0.632214
Si Si5 0.901823 0.453805 0.896645
Si Si6 0.266595 0.482485 0.844211
Si Si7 0.365901 0.817181 0.836176
O O1 0.757441 0.129125 0.750018
O O2 0.500635 0.855246 0.903729
O O3 0.638200 0.948119 0.074688
O O4 0.658655 0.600331 0.179137
O O5 0.831391 0.383104 0.351607
O O6 0.804516 0.829247 0.852248
O O7 0.000389 0.222686 0.666151
O O8 0.246568 0.354731 0.547595
O O9 0.062442 0.277201 0.411433
O O10 0.096583 0.844439 0.917703
O O11 0.500000 0.500000 0.500000
O O12 0.355307 0.127022 0.607806
O O13 0.761526 0.392270 0.960061
O O14 0.000000 0.500000 0.000000
O O15 0.355487 0.708486 0.780995
#
# Coordination Sequence:
#
# PCOD9041120 Si02
#       7
#     2   2   2   2   2   2   2
#     4  10  25  44  68 100 141 180 227 278 337 407
#     4  10  23  43  71 101 139 175 227 279 341 404
#     4  11  23  43  66 101 132 182 223 278 338 401
#     4  11  26  45  71 100 140 182 231 281 337 406
#     4  11  23  40  68 102 139 172 224 282 341 398
#     4  10  24  44  69 105 137 174 228 279 341 404
#     4  11  23  44  71 102 135 181 228 284 343 398
#
# _framework density 25.076108999999999
#
# number of rings (size 3 to 8) (size 9 to 14) (size 15 to 20)
#    0.857    0.571    0.000    4.714    2.000    6.857 
#    0.000    0.714    0.000    0.000    0.000    0.000 
#    0.000    0.000    0.000    0.000    0.000    0.000 
#
# Total GULP energy -78218.140795 kJ/mol
# GULP energy per Si atom -5587.010057 kJ/mol
# Density = 2.501903 g / cm^3
# Si number density = 25.076109 Si / 1000 Ang^3
#
#
#
# Elastic Constant Matrix: (Units=GPa)
#
#
# Indices 1 2 3 4 5 6 
#
# 1 184.7649 36.8086 25.4801 -8.1973 13.2182 33.6622
# 2 36.8086 94.4459 13.1054 -12.5219 12.0544 -9.3862
# 3 25.4801 13.1054 86.7794 -4.5386 15.4053 -0.3506
# 4 -8.1973 -12.5219 -4.5386 29.7363 2.6765 9.5356
# 5 13.2182 12.0544 15.4053 2.6765 38.2554 -7.2008
# 6 33.6622 -9.3862 -0.3506 9.5356 -7.2008 45.0536
#
#
#
# Elastic Compliance Matrix: (Units=1/GPa)
#
#
# Indices 1 2 3 4 5 6 
#
# 1 0.007940 -0.002832 -0.001200 0.003586 -0.003084 -0.007784
# 2 -0.002832 0.012918 -0.000475 0.003642 -0.002470 0.003638
# 3 -0.001200 -0.000475 0.012906 0.001966 -0.004825 -0.000289
# 4 0.003586 0.003642 0.001966 0.041017 -0.008290 -0.011912
# 5 -0.003084 -0.002470 -0.004825 -0.008290 0.032134 0.008642
# 6 -0.007784 0.003638 -0.000289 -0.011912 0.008642 0.032670
#
#
# Mechanical properties :
#
#
# Convention : Reuss Voigt Hill
#
# Bulk Modulus (GPa) = 40.40798 57.41981 48.91389
# Shear Modulus (GPa) = 31.87785 41.98213 36.92999
#
# Velocity S-wave (km/s) = 3.56932 4.09612 3.84176
# Velocity P-wave (km/s) = 5.75637 6.73193 6.26318
#
# Compressibility (1/GPa) = 0.02474759
#
# Stress axis : x y z
#
# Youngs Moduli (GPa) = 125.94664 77.41367 77.48487
#
# Poissons Ratio (x) = 0.21926 0.09298
# Poissons Ratio (y) = 0.35673 0.03684
# Poissons Ratio (z) = 0.15113 0.03681
#
# Static dielectric constant tensor:
#      x y z
#    x 2.014790 -0.022580 -0.031340 
#    y -0.022580 1.957560 -0.050280 
#    z -0.031340 -0.050280 2.058160 
# 
# From -- ./inp_files/424824.got.cif
#   From: 2010.05.17/outbox.cif.g08.bks.cpg/sg2_213_cif.got.tgz:424824.got - 2010.06.03 11:33:40.
