data_PCOD9041776
_publ_section_title
;
Structure prediction by ZEFSAII (Michael W. Deem and Ramdas Pophale) SiO2 
 PCOD9041776
Probable space group: P -1
;
_chemical_formula_sum "Si O2"
_cell_formula_units_Z 16
_cell_length_a 23.704765
_cell_length_b 6.799217
_cell_length_c 7.468344
_cell_angle_alpha 119.426342
_cell_angle_beta 56.292140
_cell_angle_gamma 134.217420
_cell_volume 706.590203
_symmetry_space_group_name_H-M "P -1"
_symmetry_group_IT_number 2
_symmetry_cell_setting 'triclinic'
loop_
_space_group_symop_operation_xyz
x,y,z
-x,-y,-z
loop_
_atom_site_type_symbol
_atom_site_label
_atom_site_fract_x
_atom_site_fract_y
_atom_site_fract_z
Si Si1 0.629050 0.801313 0.634154
Si Si2 0.244532 0.302895 0.483180
Si Si3 0.488701 0.182548 0.738584
Si Si4 0.018591 0.399280 0.240785
Si Si5 0.830801 0.030529 0.892279
Si Si6 0.346758 0.175678 0.817740
Si Si7 0.386864 0.729315 0.168026
Si Si8 0.874733 0.841030 0.062986
O O1 0.711666 0.830683 0.564863
O O2 0.552033 0.510681 0.722560
O O3 0.624257 0.793551 0.423515
O O4 0.627580 0.059737 0.802764
O O5 0.320041 0.588694 0.387926
O O6 0.186602 0.110601 0.334901
O O7 0.192645 0.327684 0.737307
O O8 0.398134 0.112956 0.831184
O O9 0.523320 0.142407 0.842718
O O10 0.500000 0.000000 0.500000
O O11 0.080558 0.672584 0.135923
O O12 0.000000 0.500000 0.500000
O O13 0.935633 0.155203 0.175744
O O14 0.070446 0.270896 0.127580
O O15 0.831715 0.845149 0.961445
O O16 0.752474 0.039455 0.077623
O O17 0.366353 0.472466 0.970413
#
# Coordination Sequence:
#
# PCOD9041776 Si02
#       8
#     2   2   2   2   2   2   2   2
#     4  11  23  44  66  96 140 180 227 283 336 392
#     4  10  23  44  67 103 138 171 236 277 331 411
#     4  11  23  42  65  96 138 181 229 283 333 400
#     4  11  25  46  70 103 135 174 225 275 334 414
#     4  11  24  45  70  99 135 178 224 275 342 401
#     4  11  23  42  65  97 130 181 227 275 344 393
#     4  10  24  42  64  98 135 181 227 285 333 397
#     4  11  24  45  70 100 136 179 217 278 342 397
#
# _framework density 22.643961000000001
#
# number of rings (size 3 to 8) (size 9 to 14) (size 15 to 20)
#    0.000    1.250    3.750    1.125    1.750    3.000 
#    9.000    0.000    0.000    0.000    0.000    0.000 
#    0.000    0.000    0.000    0.000    0.000    0.000 
#
# Total GULP energy -89576.789797 kJ/mol
# GULP energy per Si atom -5598.549362 kJ/mol
# Density = 2.259242 g / cm^3
# Si number density = 22.643961 Si / 1000 Ang^3
#
#
#
# Elastic Constant Matrix: (Units=GPa)
#
#
# Indices 1 2 3 4 5 6 
#
# 1 121.5211 22.1371 45.3194 4.0058 4.3259 -16.5748
# 2 22.1371 54.5349 31.4943 14.6576 -4.6174 -17.0416
# 3 45.3194 31.4943 106.0022 0.8593 -7.3382 -3.2874
# 4 4.0058 14.6576 0.8593 34.3931 -3.5219 -5.9837
# 5 4.3259 -4.6174 -7.3382 -3.5219 36.5153 -4.2116
# 6 -16.5748 -17.0416 -3.2874 -5.9837 -4.2116 25.0182
#
#
#
# Elastic Compliance Matrix: (Units=1/GPa)
#
#
# Indices 1 2 3 4 5 6 
#
# 1 0.010841 0.000203 -0.004596 -0.000271 -0.001470 0.006405
# 2 0.000203 0.032254 -0.008748 -0.009846 0.003561 0.019200
# 3 -0.004596 -0.008748 0.013909 0.003033 0.001817 -0.006145
# 4 -0.000271 -0.009846 0.003033 0.033892 0.002909 0.002108
# 5 -0.001470 0.003561 0.001817 0.002909 0.029504 0.007353
# 6 0.006405 0.019200 -0.006145 0.002108 0.007353 0.058227
#
#
# Mechanical properties :
#
#
# Convention : Reuss Voigt Hill
#
# Bulk Modulus (GPa) = 32.55019 53.32890 42.93954
# Shear Modulus (GPa) = 23.23962 31.39247 27.31605
#
# Velocity S-wave (km/s) = 3.20708 3.72741 3.47699
# Velocity P-wave (km/s) = 5.30281 6.49053 5.92650
#
# Compressibility (1/GPa) = 0.03072179
#
# Stress axis : x y z
#
# Youngs Moduli (GPa) = 92.24389 31.00361 71.89788
#
# Poissons Ratio (x) = -0.00631 0.33046
# Poissons Ratio (y) = -0.01877 0.62898
# Poissons Ratio (z) = 0.42397 0.27123
#
# Static dielectric constant tensor:
#      x y z
#    x 1.803080 0.013060 0.007970 
#    y 0.013060 1.856300 -0.024650 
#    z 0.007970 -0.024650 1.866580 
# 
# From -- ./inp_files/351077.got.cif
#   From: 2010.05.17/outbox.cif.g08.bks.cpg/sg2_176_cif.got.tgz:351077.got - 2010.06.03 11:33:40.
