data_PCOD9041403
_publ_section_title
;
Structure prediction by ZEFSAII (Michael W. Deem and Ramdas Pophale) SiO2 
 PCOD9041403
Probable space group: P -1
;
_chemical_formula_sum "Si O2"
_cell_formula_units_Z 14
_cell_length_a 14.418061
_cell_length_b 5.329987
_cell_length_c 8.772966
_cell_angle_alpha 55.171112
_cell_angle_beta 91.219363
_cell_angle_gamma 105.408353
_cell_volume 526.220831
_symmetry_space_group_name_H-M "P -1"
_symmetry_group_IT_number 2
_symmetry_cell_setting 'triclinic'
loop_
_space_group_symop_operation_xyz
x,y,z
-x,-y,-z
loop_
_atom_site_type_symbol
_atom_site_label
_atom_site_fract_x
_atom_site_fract_y
_atom_site_fract_z
Si Si1 0.359027 0.392754 0.888284
Si Si2 0.627099 0.660585 0.623364
Si Si3 0.772212 0.688100 0.379072
Si Si4 0.470032 0.041032 0.220056
Si Si5 0.091370 0.771721 0.977392
Si Si6 0.222063 0.370782 0.136920
Si Si7 0.099078 0.722944 0.354972
O O1 0.313098 0.413302 0.715967
O O2 0.418294 0.752143 0.821188
O O3 0.431158 0.192995 0.017727
O O4 0.263978 0.236564 0.040843
O O5 0.714722 0.835843 0.450628
O O6 0.581356 0.870189 0.659151
O O7 0.687580 0.508922 0.793029
O O8 0.551253 0.339425 0.662004
O O9 0.811009 0.419239 0.557881
O O10 0.872065 0.896237 0.226885
O O11 0.183584 0.651938 0.989012
O O12 0.079332 0.770633 0.158965
O O13 0.000000 0.500000 0.000000
O O14 0.134372 0.081564 0.301983
O O15 0.000000 0.500000 0.500000
#
# Coordination Sequence:
#
# PCOD9041403 Si02
#       7
#     2   2   2   2   2   2   2
#     4  10  23  43  74 106 147 201 248 306 373 450
#     4  11  24  44  74 106 153 197 247 307 374 442
#     4  12  25  46  77 109 146 198 252 306 379 446
#     4  10  24  47  71 111 155 198 248 316 372 440
#     4  12  28  46  72 111 142 191 254 308 381 453
#     4  11  24  47  74 103 154 197 245 309 379 448
#     4  12  28  49  72 105 152 192 248 317 375 449
#
# _framework density 26.604800000000001
#
# number of rings (size 3 to 8) (size 9 to 14) (size 15 to 20)
#    0.000    0.857    2.857    3.429    4.000   10.857 
#    0.000    0.000    0.000    0.000    0.000    0.000 
#    0.000    0.000    0.000    0.000    0.000    0.000 
#
# Total GULP energy -78293.135364 kJ/mol
# GULP energy per Si atom -5592.366812 kJ/mol
# Density = 2.654425 g / cm^3
# Si number density = 26.604800 Si / 1000 Ang^3
#
#
#
# Elastic Constant Matrix: (Units=GPa)
#
#
# Indices 1 2 3 4 5 6 
#
# 1 81.4924 18.9090 26.5016 9.0907 -7.3863 -2.6981
# 2 18.9090 116.9881 40.2526 2.4259 -2.3284 27.7019
# 3 26.5016 40.2526 137.2655 8.0020 -24.3473 2.2477
# 4 9.0907 2.4259 8.0020 33.0357 2.8691 2.4726
# 5 -7.3863 -2.3284 -24.3473 2.8691 46.4766 -14.6678
# 6 -2.6981 27.7019 2.2477 2.4726 -14.6678 39.1873
#
#
#
# Elastic Compliance Matrix: (Units=1/GPa)
#
#
# Indices 1 2 3 4 5 6 
#
# 1 0.014188 -0.002784 -0.001206 -0.004012 0.003132 0.004440
# 2 -0.002784 0.013003 -0.004237 0.002193 -0.005754 -0.011433
# 3 -0.001206 -0.004237 0.010004 -0.002723 0.006573 0.004970
# 4 -0.004012 0.002193 -0.002723 0.032825 -0.005853 -0.005932
# 5 0.003132 -0.005754 0.006573 -0.005853 0.030480 0.015684
# 6 0.004440 -0.011433 0.004970 -0.005932 0.015684 0.039866
#
#
# Mechanical properties :
#
#
# Convention : Reuss Voigt Hill
#
# Bulk Modulus (GPa) = 48.21442 56.34138 52.27790
# Shear Modulus (GPa) = 30.53760 40.41208 35.47484
#
# Velocity S-wave (km/s) = 3.39163 3.90163 3.65554
# Velocity P-wave (km/s) = 5.78786 6.44361 6.12452
#
# Compressibility (1/GPa) = 0.02074068
#
# Stress axis : x y z
#
# Youngs Moduli (GPa) = 70.48369 76.90682 99.96289
#
# Poissons Ratio (x) = 0.21410 0.12056
# Poissons Ratio (y) = 0.19622 0.42352
# Poissons Ratio (z) = 0.08501 0.32583
#
# Static dielectric constant tensor:
#      x y z
#    x 2.060690 -0.047930 -0.021140 
#    y -0.047930 2.153080 0.028160 
#    z -0.021140 0.028160 2.157680 
# 
# From -- ./inp_files/288370.got.cif
#   From: 2010.05.17/outbox.cif.g08.bks.cpg/sg2_145_cif.got.tgz:288370.got - 2010.06.03 11:33:40.
