data_PCOD9041806
_publ_section_title
;
Structure prediction by ZEFSAII (Michael W. Deem and Ramdas Pophale) SiO2 
 PCOD9041806
Probable space group: P -1
;
_chemical_formula_sum "Si O2"
_cell_formula_units_Z 16
_cell_length_a 7.472024
_cell_length_b 24.031775
_cell_length_c 5.116116
_cell_angle_alpha 98.256249
_cell_angle_beta 103.725801
_cell_angle_gamma 48.634467
_cell_volume 669.678018
_symmetry_space_group_name_H-M "P -1"
_symmetry_group_IT_number 2
_symmetry_cell_setting 'triclinic'
loop_
_space_group_symop_operation_xyz
x,y,z
-x,-y,-z
loop_
_atom_site_type_symbol
_atom_site_label
_atom_site_fract_x
_atom_site_fract_y
_atom_site_fract_z
Si Si1 0.490178 0.078725 0.721742
Si Si2 0.980895 0.814716 0.622099
Si Si3 0.237269 0.903409 0.563220
Si Si4 0.683514 0.789553 0.867065
Si Si5 0.636186 0.351619 0.444719
Si Si6 0.954354 0.930769 0.973348
Si Si7 0.068383 0.449714 0.239616
Si Si8 0.851142 0.370650 0.019538
O O1 0.216564 0.115558 0.585700
O O2 0.621099 0.071473 0.492830
O O3 0.669746 0.000304 0.875714
O O4 0.434683 0.146006 0.914902
O O5 0.836780 0.796378 0.723037
O O6 0.039007 0.851475 0.871674
O O7 0.195490 0.737208 0.511823
O O8 0.449075 0.816038 0.641638
O O9 0.089704 0.940840 0.803317
O O10 0.060285 0.920472 0.285630
O O11 0.878034 0.708444 0.994981
O O12 0.361141 0.385812 0.323913
O O13 0.732195 0.364669 0.227482
O O14 0.684675 0.384953 0.725613
O O15 0.000000 0.500000 0.500000
O O16 0.912732 0.423189 0.140240
O O17 0.000000 0.500000 0.000000
#
# Coordination Sequence:
#
# PCOD9041806 Si02
#       8
#     2   2   2   2   2   2   2   2
#     4  11  22  43  65  89 137 177 236 288 346 411
#     4  10  25  43  63  99 133 181 236 284 347 414
#     4  11  25  40  60  92 128 174 234 288 353 414
#     4  10  23  44  67  93 135 181 233 285 346 423
#     4  11  25  48  76 106 150 192 239 289 348 433
#     4  12  26  38  63  97 131 179 230 299 351 395
#     4  12  28  49  77 119 148 183 237 286 350 440
#     4  11  25  48  76 108 148 194 230 292 361 409
#
# _framework density 23.892075999999999
#
# number of rings (size 3 to 8) (size 9 to 14) (size 15 to 20)
#    0.000    1.000    2.500    2.625    7.000    3.500 
#    2.250    0.000    0.000    0.000    0.000    0.000 
#    0.000    0.000    0.000    0.000    0.000    0.000 
#
# Total GULP energy -89429.580185 kJ/mol
# GULP energy per Si atom -5589.348762 kJ/mol
# Density = 2.383770 g / cm^3
# Si number density = 23.892076 Si / 1000 Ang^3
#
#
#
# Elastic Constant Matrix: (Units=GPa)
#
#
# Indices 1 2 3 4 5 6 
#
# 1 91.9697 26.2958 30.3668 -0.8893 -1.8053 -8.6741
# 2 26.2958 61.7091 20.9076 6.0828 15.4183 -15.6498
# 3 30.3668 20.9076 151.6818 -0.6524 4.3033 -9.3158
# 4 -0.8893 6.0828 -0.6524 38.5255 -3.6875 8.4880
# 5 -1.8053 15.4183 4.3033 -3.6875 33.6011 7.5624
# 6 -8.6741 -15.6498 -9.3158 8.4880 7.5624 27.5211
#
#
#
# Elastic Compliance Matrix: (Units=1/GPa)
#
#
# Indices 1 2 3 4 5 6 
#
# 1 0.013503 -0.007384 -0.002001 0.002584 0.005300 -0.002874
# 2 -0.007384 0.033781 -0.000898 -0.013768 -0.023429 0.027263
# 3 -0.002001 -0.000898 0.007248 -0.000248 -0.001027 0.001670
# 4 0.002584 -0.013768 -0.000248 0.034468 0.015201 -0.021906
# 5 0.005300 -0.023429 -0.001027 0.015201 0.049408 -0.030265
# 6 -0.002874 0.027263 0.001670 -0.021906 -0.030265 0.066571
#
#
# Mechanical properties :
#
#
# Convention : Reuss Voigt Hill
#
# Bulk Modulus (GPa) = 29.44186 51.16677 40.30432
# Shear Modulus (GPa) = 21.10895 35.11556 28.11226
#
# Velocity S-wave (km/s) = 2.97562 3.83790 3.43393
# Velocity P-wave (km/s) = 4.91481 6.41105 5.71213
#
# Compressibility (1/GPa) = 0.03396524
#
# Stress axis : x y z
#
# Youngs Moduli (GPa) = 74.05719 29.60261 137.97139
#
# Poissons Ratio (x) = 0.21858 0.27612
# Poissons Ratio (y) = 0.54682 0.12393
# Poissons Ratio (z) = 0.14821 0.02659
#
# Static dielectric constant tensor:
#      x y z
#    x 1.946030 -0.010850 0.044160 
#    y -0.010850 1.962680 -0.013240 
#    z 0.044160 -0.013240 1.959050 
# 
# From -- ./inp_files/56516.got.cif
#   From: 2010.05.17/outbox.cif.g08.bks.cpg/sg2_29_cif.got.tgz:56516.got - 2010.06.03 11:33:40.
