data_PCOD9041488
_publ_section_title
;
Structure prediction by ZEFSAII (Michael W. Deem and Ramdas Pophale) SiO2 
 PCOD9041488
Probable space group: P -1
;
_chemical_formula_sum "Si O2"
_cell_formula_units_Z 16
_cell_length_a 13.498569
_cell_length_b 9.660213
_cell_length_c 4.969991
_cell_angle_alpha 74.526181
_cell_angle_beta 103.539503
_cell_angle_gamma 95.572602
_cell_volume 606.817316
_symmetry_space_group_name_H-M "P -1"
_symmetry_group_IT_number 2
_symmetry_cell_setting 'triclinic'
loop_
_space_group_symop_operation_xyz
x,y,z
-x,-y,-z
loop_
_atom_site_type_symbol
_atom_site_label
_atom_site_fract_x
_atom_site_fract_y
_atom_site_fract_z
Si Si1 0.956704 0.130897 0.727063
Si Si2 0.901873 0.435517 0.625830
Si Si3 0.548443 0.922833 0.316384
Si Si4 0.763977 0.778254 0.081795
Si Si5 0.312587 0.525049 0.841569
Si Si6 0.108072 0.272581 0.307360
Si Si7 0.728015 0.054637 0.628114
Si Si8 0.604096 0.318476 0.655039
O O1 0.928809 0.274518 0.805125
O O2 0.020585 0.186519 0.473714
O O3 0.843005 0.081431 0.588749
O O4 0.000000 0.000000 0.000000
O O5 0.894428 0.553724 0.792174
O O6 0.000000 0.500000 0.500000
O O7 0.800168 0.440329 0.372383
O O8 0.507350 0.758945 0.355094
O O9 0.500000 0.000000 0.500000
O O10 0.663422 0.976613 0.395354
O O11 0.500000 0.000000 0.000000
O O12 0.862802 0.771444 0.951017
O O13 0.725001 0.932959 0.917302
O O14 0.692136 0.644426 0.013418
O O15 0.797201 0.750355 0.419555
O O16 0.390717 0.560240 0.631714
O O17 0.346429 0.620479 0.070153
O O18 0.676343 0.195293 0.640212
#
# Coordination Sequence:
#
# PCOD9041488 Si02
#       8
#     2   2   2   2   2   2   2   2
#     4  11  21  43  65 102 139 175 230 275 330 405
#     4   9  20  40  65  96 132 182 225 272 329 398
#     4  10  23  44  69 103 137 172 226 289 348 404
#     4  11  24  43  66  96 143 175 222 275 347 396
#     4  11  22  43  70 101 131 180 228 281 330 410
#     4  10  23  44  61  96 135 185 222 274 321 406
#     4  11  24  44  69 103 137 185 219 288 353 397
#     4  11  23  44  73 101 130 172 242 284 330 408
#
# _framework density 26.367077999999999
#
# number of rings (size 3 to 8) (size 9 to 14) (size 15 to 20)
#    0.000    1.500    2.500    3.000    0.000    3.500 
#    4.500    7.500    0.000    0.000    0.000    0.000 
#    0.000    0.000    0.000    0.000    0.000    0.000 
#
# Total GULP energy -89570.016718 kJ/mol
# GULP energy per Si atom -5598.126045 kJ/mol
# Density = 2.630707 g / cm^3
# Si number density = 26.367078 Si / 1000 Ang^3
#
#
#
# Elastic Constant Matrix: (Units=GPa)
#
#
# Indices 1 2 3 4 5 6 
#
# 1 65.5559 63.2923 28.7318 13.8072 12.6532 20.0981
# 2 63.2923 145.2203 24.7984 -22.6222 -22.3756 34.2879
# 3 28.7318 24.7984 117.1319 0.1207 -24.9737 8.3877
# 4 13.8072 -22.6222 0.1207 49.4176 -1.5034 2.7974
# 5 12.6532 -22.3756 -24.9737 -1.5034 17.2396 9.5726
# 6 20.0981 34.2879 8.3877 2.7974 9.5726 59.4105
#
#
#
# Elastic Compliance Matrix: (Units=1/GPa)
#
#
# Indices 1 2 3 4 5 6 
#
# 1 -0.006382 0.012298 0.008767 0.009409 0.041559 -0.013315
# 2 0.012298 -0.003103 -0.008591 -0.005894 -0.028032 0.003638
# 3 0.008767 -0.008591 0.005282 -0.006980 -0.012537 0.003595
# 4 0.009409 -0.005894 -0.006980 0.013862 -0.026100 0.004757
# 5 0.041559 -0.028032 -0.012537 -0.026100 -0.035319 0.010809
# 6 -0.013315 0.003638 0.003595 0.004757 0.010809 0.016764
#
#
# Mechanical properties :
#
#
# Convention : Reuss Voigt Hill
#
# Bulk Modulus (GPa) = 48.20579 62.39477 55.30028
# Shear Modulus (GPa) = -185.68368 39.28591 -73.19888
#
# Velocity S-wave (km/s) = -8.40092 3.86419 -5.27463
# Velocity P-wave (km/s) = 8.70507 6.60489 4.00960
#
# Compressibility (1/GPa) = 0.02074439
#
# Stress axis : x y z
#
# Youngs Moduli (GPa) = -156.68975 -322.27577 189.30449
#
# Poissons Ratio (x) = 3.96323 -1.65954
# Poissons Ratio (y) = 1.92691 1.62626
# Poissons Ratio (z) = 1.37363 -2.76858
#
# Static dielectric constant tensor:
#      x y z
#    x 2.199930 0.012990 -0.046920 
#    y 0.012990 2.143420 0.037710 
#    z -0.046920 0.037710 1.842090 
# 
# From -- ./inp_files/106526.got.cif
#   From: 2010.05.17/outbox.cif.g08.bks.cpg/sg2_54_cif.got.tgz:106526.got - 2010.06.03 11:33:40.
