data_PCOD9041798
_publ_section_title
;
Structure prediction by ZEFSAII (Michael W. Deem and Ramdas Pophale) SiO2 
 PCOD9041798
Probable space group: P -1
;
_chemical_formula_sum "Si O2"
_cell_formula_units_Z 16
_cell_length_a 18.183892
_cell_length_b 12.364392
_cell_length_c 8.051618
_cell_angle_alpha 94.631316
_cell_angle_beta 126.363290
_cell_angle_gamma 40.656628
_cell_volume 675.077457
_symmetry_space_group_name_H-M "P -1"
_symmetry_group_IT_number 2
_symmetry_cell_setting 'triclinic'
loop_
_space_group_symop_operation_xyz
x,y,z
-x,-y,-z
loop_
_atom_site_type_symbol
_atom_site_label
_atom_site_fract_x
_atom_site_fract_y
_atom_site_fract_z
Si Si1 0.575416 0.071374 0.359011
Si Si2 0.408331 0.188032 0.605899
Si Si3 0.132911 0.076570 0.129711
Si Si4 0.294001 0.673032 0.311833
Si Si5 0.584050 0.523939 0.184143
Si Si6 0.775973 0.487153 0.906354
Si Si7 0.114655 0.617727 0.496667
Si Si8 0.268922 0.045184 0.809257
O O1 0.340550 0.338146 0.075288
O O2 0.669195 0.977891 0.291553
O O3 0.621323 0.907003 0.479143
O O4 0.662695 0.077872 0.585948
O O5 0.339963 0.336168 0.382849
O O6 0.271854 0.366953 0.601583
O O7 0.633317 0.974636 0.931160
O O8 0.155713 0.923623 0.158041
O O9 0.031275 0.206210 0.834548
O O10 0.998371 0.268576 0.119246
O O11 0.500000 0.500000 0.500000
O O12 0.326670 0.594122 0.530662
O O13 0.238177 0.628137 0.122356
O O14 0.757216 0.407253 0.305722
O O15 0.500000 0.500000 0.000000
O O16 0.397526 0.800486 0.977907
O O17 0.959264 0.739574 0.439367
#
# Coordination Sequence:
#
# PCOD9041798 Si02
#       8
#     2   2   2   2   2   2   2   2
#     4  12  25  40  66 101 128 169 220 271 315 386
#     4  10  23  45  68  91 130 174 218 263 329 377
#     4  11  23  40  66  99 127 165 221 261 324 382
#     4  12  21  42  69  94 129 172 209 268 326 381
#     4  11  24  43  64  96 131 171 215 261 321 390
#     4  11  23  42  65  95 131 168 214 269 323 383
#     4  10  23  44  67  92 132 172 212 265 326 385
#     4  11  23  44  63  94 133 170 215 264 328 378
#
# _framework density 23.700983999999998
#
# number of rings (size 3 to 8) (size 9 to 14) (size 15 to 20)
#    0.000    1.000    5.000    3.375    0.000    6.000 
#    0.000    0.000    0.000    0.000    0.000    0.000 
#    0.000    0.000    0.000    0.000    0.000    0.000 
#
# Total GULP energy -89479.265856 kJ/mol
# GULP energy per Si atom -5592.454116 kJ/mol
# Density = 2.364704 g / cm^3
# Si number density = 23.700984 Si / 1000 Ang^3
#
#
#
# Elastic Constant Matrix: (Units=GPa)
#
#
# Indices 1 2 3 4 5 6 
#
# 1 110.8195 55.1595 21.3520 -11.0613 9.2713 -13.1625
# 2 55.1595 78.3160 13.2316 -13.5552 14.3123 6.5139
# 3 21.3520 13.2316 75.4307 -17.2368 18.7347 -1.8680
# 4 -11.0613 -13.5552 -17.2368 36.1956 -11.1542 14.3756
# 5 9.2713 14.3123 18.7347 -11.1542 29.0547 -8.0091
# 6 -13.1625 6.5139 -1.8680 14.3756 -8.0091 58.9120
#
#
#
# Elastic Compliance Matrix: (Units=1/GPa)
#
#
# Indices 1 2 3 4 5 6 
#
# 1 0.016016 -0.012345 -0.003849 -0.002702 0.004079 0.006035
# 2 -0.012345 0.024698 0.003035 0.007300 -0.009723 -0.008496
# 3 -0.003849 0.003035 0.017789 0.006757 -0.010152 -0.003660
# 4 -0.002702 0.007300 0.006757 0.038158 0.004843 -0.009849
# 5 0.004079 -0.009723 -0.010152 0.004843 0.048253 0.007043
# 6 0.006035 -0.008496 -0.003660 -0.009849 0.007043 0.022507
#
#
# Mechanical properties :
#
#
# Convention : Reuss Voigt Hill
#
# Bulk Modulus (GPa) = 31.07080 49.33917 40.20498
# Shear Modulus (GPa) = 24.45380 36.48734 30.47057
#
# Velocity S-wave (km/s) = 3.21559 3.92789 3.58945
# Velocity P-wave (km/s) = 5.18890 6.43689 5.84629
#
# Compressibility (1/GPa) = 0.03218456
#
# Stress axis : x y z
#
# Youngs Moduli (GPa) = 62.43854 40.48939 56.21352
#
# Poissons Ratio (x) = 0.49984 0.21637
# Poissons Ratio (y) = 0.77080 -0.17059
# Poissons Ratio (z) = 0.24033 -0.12287
#
# Static dielectric constant tensor:
#      x y z
#    x 1.924350 -0.044520 -0.001180 
#    y -0.044520 1.928080 0.019520 
#    z -0.001180 0.019520 1.910570 
# 
# From -- ./inp_files/333418.got.cif
#   From: 2010.05.17/outbox.cif.g08.bks.cpg/sg2_167_cif.got.tgz:333418.got - 2010.06.03 11:33:40.
