data_PCOD9041270
_publ_section_title
;
Structure prediction by ZEFSAII (Michael W. Deem and Ramdas Pophale) SiO2 
 PCOD9041270
Probable space group: P -1
;
_chemical_formula_sum "Si O2"
_cell_formula_units_Z 16
_cell_length_a 5.448709
_cell_length_b 12.836380
_cell_length_c 11.600269
_cell_angle_alpha 117.620068
_cell_angle_beta 113.460852
_cell_angle_gamma 70.043054
_cell_volume 647.076322
_symmetry_space_group_name_H-M "P -1"
_symmetry_group_IT_number 2
_symmetry_cell_setting 'triclinic'
loop_
_space_group_symop_operation_xyz
x,y,z
-x,-y,-z
loop_
_atom_site_type_symbol
_atom_site_label
_atom_site_fract_x
_atom_site_fract_y
_atom_site_fract_z
Si Si1 0.598351 0.307501 0.538212
Si Si2 0.768882 0.371814 0.134167
Si Si3 0.870247 0.006529 0.817668
Si Si4 0.831478 0.627887 0.320711
Si Si5 0.765678 0.061329 0.572170
Si Si6 0.722476 0.221246 0.257761
Si Si7 0.787677 0.814642 0.961275
Si Si8 0.405513 0.215576 0.852520
O O1 0.306102 0.361866 0.571321
O O2 0.685313 0.194973 0.580895
O O3 0.629890 0.254905 0.387317
O O4 0.840766 0.384124 0.624821
O O5 0.745287 0.511720 0.188421
O O6 0.690614 0.337399 0.230347
O O7 0.077539 0.302536 0.143392
O O8 0.610710 0.302514 0.977427
O O9 0.900985 0.050233 0.715755
O O10 0.560782 0.076295 0.816881
O O11 0.981139 0.864679 0.751322
O O12 0.051431 0.078224 0.965833
O O13 0.715556 0.739472 0.270529
O O14 0.500000 0.000000 0.500000
O O15 0.000000 0.000000 0.500000
O O16 0.515048 0.146554 0.122567
O O17 0.799349 0.770984 0.072649
#
# Coordination Sequence:
#
# PCOD9041270 Si02
#       8
#     2   2   2   2   2   2   2   2
#     4  12  28  46  74 111 141 196 234 297 358 432
#     4  10  26  46  69 102 139 196 241 302 346 421
#     4  11  23  41  72 104 141 183 229 300 358 434
#     4  12  27  48  76 104 148 185 250 294 359 418
#     4  12  25  44  73 108 149 185 230 293 366 430
#     4  11  26  45  69 102 149 187 245 287 362 427
#     4  10  24  44  69 102 141 187 245 291 364 420
#     4  10  23  43  72 106 138 181 238 303 366 423
#
# _framework density 24.726603999999998
#
# number of rings (size 3 to 8) (size 9 to 14) (size 15 to 20)
#    0.000    1.000    2.500    2.250    8.750    7.000 
#    0.000    0.000    0.000    0.000    0.000    0.000 
#    0.000    0.000    0.000    0.000    0.000    0.000 
#
# Total GULP energy -89392.689218 kJ/mol
# GULP energy per Si atom -5587.043076 kJ/mol
# Density = 2.467033 g / cm^3
# Si number density = 24.726604 Si / 1000 Ang^3
#
#
#
# Elastic Constant Matrix: (Units=GPa)
#
#
# Indices 1 2 3 4 5 6 
#
# 1 129.2402 27.6428 24.4405 5.8525 -18.2814 20.1127
# 2 27.6428 64.0302 15.1880 -0.4821 1.7779 8.9121
# 3 24.4405 15.1880 79.0036 -3.7105 -16.4013 14.8249
# 4 5.8525 -0.4821 -3.7105 31.4615 7.2586 -3.8743
# 5 -18.2814 1.7779 -16.4013 7.2586 47.3466 1.2660
# 6 20.1127 8.9121 14.8249 -3.8743 1.2660 24.4469
#
#
#
# Elastic Compliance Matrix: (Units=1/GPa)
#
#
# Indices 1 2 3 4 5 6 
#
# 1 0.010765 -0.003608 -0.000211 -0.004289 0.005100 -0.008357
# 2 -0.003608 0.018134 -0.002646 0.001149 -0.003122 -0.001694
# 3 -0.000211 -0.002646 0.016134 -0.000582 0.005938 -0.009046
# 4 -0.004289 0.001149 -0.000582 0.035449 -0.007589 0.009474
# 5 0.005100 -0.003122 0.005938 -0.007589 0.026675 -0.009243
# 6 -0.008357 -0.001694 -0.009046 0.009474 -0.009243 0.055863
#
#
# Mechanical properties :
#
#
# Convention : Reuss Voigt Hill
#
# Bulk Modulus (GPa) = 31.14989 45.20184 38.17587
# Shear Modulus (GPa) = 26.78766 34.31786 30.55276
#
# Velocity S-wave (km/s) = 3.29500 3.72948 3.51896
# Velocity P-wave (km/s) = 5.20588 6.07172 5.65539
#
# Compressibility (1/GPa) = 0.03210284
#
# Stress axis : x y z
#
# Youngs Moduli (GPa) = 92.89041 55.14468 61.97899
#
# Poissons Ratio (x) = 0.19897 0.01309
# Poissons Ratio (y) = 0.33517 0.16401
# Poissons Ratio (z) = 0.01961 0.14592
#
# Static dielectric constant tensor:
#      x y z
#    x 2.034210 -0.031340 -0.005400 
#    y -0.031340 1.860960 -0.073360 
#    z -0.005400 -0.073360 1.885660 
# 
# From -- ./inp_files/365079.got.cif
#   From: 2010.05.17/outbox.cif.g08.bks.cpg/sg2_183_cif.got.tgz:365079.got - 2010.06.03 11:33:40.
