data_PCOD9041853
_publ_section_title
;
Structure prediction by ZEFSAII (Michael W. Deem and Ramdas Pophale) SiO2 
 PCOD9041853
Probable space group: P -1
;
_chemical_formula_sum "Si O2"
_cell_formula_units_Z 16
_cell_length_a 14.533845
_cell_length_b 14.808033
_cell_length_c 8.265252
_cell_angle_alpha 67.161743
_cell_angle_beta 106.234620
_cell_angle_gamma 152.334935
_cell_volume 752.553139
_symmetry_space_group_name_H-M "P -1"
_symmetry_group_IT_number 2
_symmetry_cell_setting 'triclinic'
loop_
_space_group_symop_operation_xyz
x,y,z
-x,-y,-z
loop_
_atom_site_type_symbol
_atom_site_label
_atom_site_fract_x
_atom_site_fract_y
_atom_site_fract_z
Si Si1 0.473622 0.309891 0.239763
Si Si2 0.785482 0.284588 0.469980
Si Si3 0.837786 0.646585 0.929424
Si Si4 0.061959 0.474221 0.921427
Si Si5 0.270986 0.086973 0.980872
Si Si6 0.541282 0.503703 0.698665
Si Si7 0.593568 0.947684 0.431725
Si Si8 0.642967 0.034104 0.028258
O O1 0.464840 0.406341 0.254113
O O2 0.465460 0.213818 0.429747
O O3 0.672639 0.490591 0.099953
O O4 0.290738 0.126360 0.153314
O O5 0.605788 0.164534 0.572773
O O6 0.000000 0.500000 0.500000
O O7 0.785252 0.345351 0.258399
O O8 0.745644 0.137285 0.499300
O O9 0.749614 0.636786 0.753953
O O10 0.048662 0.870739 0.952604
O O11 0.864204 0.559577 0.940406
O O12 0.000000 0.500000 0.000000
O O13 0.847973 0.253899 0.892347
O O14 0.373507 0.272764 0.820479
O O15 0.401684 0.106229 0.991616
O O16 0.500000 0.500000 0.500000
O O17 0.674691 0.027284 0.234258
O O18 0.500000 0.000000 0.000000
#
# Coordination Sequence:
#
# PCOD9041853 Si02
#       8
#     2   2   2   2   2   2   2   2
#     4  11  24  43  69  97 132 174 229 283 340 399
#     4  11  24  41  61  93 135 179 222 271 333 400
#     4  10  23  44  67  98 135 173 228 277 335 408
#     4  11  22  41  63  95 136 177 219 271 330 397
#     4  10  24  43  69  97 131 177 223 278 342 401
#     4  11  25  46  71  98 133 174 227 286 343 400
#     4  11  24  40  63  93 134 173 226 283 329 396
#     4  11  24  39  65  96 134 182 224 271 336 399
#
# _framework density 21.260957000000001
#
# number of rings (size 3 to 8) (size 9 to 14) (size 15 to 20)
#    0.000    1.250    2.500    3.000   10.500    2.500 
#    2.250    2.500    0.000    0.000    0.000    0.000 
#    0.000    0.000    0.000    0.000    0.000    0.000 
#
# Total GULP energy -89375.795683 kJ/mol
# GULP energy per Si atom -5585.987230 kJ/mol
# Density = 2.121257 g / cm^3
# Si number density = 21.260957 Si / 1000 Ang^3
#
#
#
# Elastic Constant Matrix: (Units=GPa)
#
#
# Indices 1 2 3 4 5 6 
#
# 1 141.1405 45.0314 40.5871 7.1003 19.8437 -28.8431
# 2 45.0314 134.0422 21.2976 0.7387 10.8204 -7.4092
# 3 40.5871 21.2976 97.8856 -0.6074 12.5148 -7.4166
# 4 7.1003 0.7387 -0.6074 31.3541 -2.5845 2.9477
# 5 19.8437 10.8204 12.5148 -2.5845 37.2326 -4.9804
# 6 -28.8431 -7.4092 -7.4166 2.9477 -4.9804 43.2215
#
#
#
# Elastic Compliance Matrix: (Units=1/GPa)
#
#
# Indices 1 2 3 4 5 6 
#
# 1 0.010583 -0.002462 -0.002993 -0.003233 -0.003346 0.005961
# 2 -0.002462 0.008453 -0.000730 0.000309 -0.000937 -0.000449
# 3 -0.002993 -0.000730 0.011870 0.000782 -0.002180 -0.000390
# 4 -0.003233 0.000309 0.000782 0.033258 0.003161 -0.003874
# 5 -0.003346 -0.000937 -0.002180 0.003161 0.029928 0.000466
# 6 0.005961 -0.000449 -0.000390 -0.003874 0.000466 0.027289
#
#
# Mechanical properties :
#
#
# Convention : Reuss Voigt Hill
#
# Bulk Modulus (GPa) = 53.95436 65.21117 59.58276
# Shear Modulus (GPa) = 35.73216 40.10514 37.91865
#
# Velocity S-wave (km/s) = 4.10402 4.34790 4.22772
# Velocity P-wave (km/s) = 6.92023 7.47957 7.20533
#
# Compressibility (1/GPa) = 0.01853418
#
# Stress axis : x y z
#
# Youngs Moduli (GPa) = 94.49435 118.30467 84.24649
#
# Poissons Ratio (x) = 0.29130 0.25214
# Poissons Ratio (y) = 0.23267 0.06153
# Poissons Ratio (z) = 0.28281 0.08641
#
# Static dielectric constant tensor:
#      x y z
#    x 1.774820 -0.013160 0.047050 
#    y -0.013160 1.876200 -0.025290 
#    z 0.047050 -0.025290 1.801220 
# 
# From -- ./inp_files/314819.got.cif
#   From: 2010.05.17/outbox.cif.g08.bks.cpg/sg2_158_cif.got.tgz:314819.got - 2010.06.03 11:33:40.
