data_PCOD9041155
_publ_section_title
;
Structure prediction by ZEFSAII (Michael W. Deem and Ramdas Pophale) SiO2 
 PCOD9041155
Probable space group: P -1
;
_chemical_formula_sum "Si O2"
_cell_formula_units_Z 16
_cell_length_a 15.381011
_cell_length_b 8.550687
_cell_length_c 15.331462
_cell_angle_alpha 73.043389
_cell_angle_beta 144.727128
_cell_angle_gamma 132.885788
_cell_volume 666.803647
_symmetry_space_group_name_H-M "P -1"
_symmetry_group_IT_number 2
_symmetry_cell_setting 'triclinic'
loop_
_space_group_symop_operation_xyz
x,y,z
-x,-y,-z
loop_
_atom_site_type_symbol
_atom_site_label
_atom_site_fract_x
_atom_site_fract_y
_atom_site_fract_z
Si Si1 0.299941 0.267959 0.177946
Si Si2 0.457377 0.823804 0.100896
Si Si3 0.059221 0.739743 0.485349
Si Si4 0.582464 0.256404 0.519659
Si Si5 0.828599 0.919914 0.078083
Si Si6 0.546837 0.291220 0.068324
Si Si7 0.337815 0.184327 0.503364
Si Si8 0.090226 0.643206 0.956230
O O1 0.447903 0.232544 0.334746
O O2 0.467737 0.547750 0.320422
O O3 0.298426 0.292416 0.069158
O O4 0.000000 0.000000 0.000000
O O5 0.745629 0.022629 0.322877
O O6 0.479341 0.040314 0.069147
O O7 0.369109 0.649903 0.972397
O O8 0.272768 0.668536 0.057778
O O9 0.000000 0.500000 0.500000
O O10 0.778863 0.557107 0.272506
O O11 0.211227 0.919291 0.492423
O O12 0.485901 0.259448 0.527400
O O13 0.880525 0.499547 0.733824
O O14 0.500000 0.000000 0.500000
O O15 0.808262 0.085066 0.993589
O O16 0.686416 0.809194 0.071525
O O17 0.108054 0.099783 0.297446
O O18 0.000000 0.500000 0.000000
#
# Coordination Sequence:
#
# PCOD9041155 Si02
#       8
#     2   2   2   2   2   2   2   2
#     4  12  25  48  77 107 158 202 247 311 390 455
#     4   9  20  41  67  99 145 185 235 312 375 428
#     4  10  23  43  71 103 142 186 250 309 371 437
#     4  12  26  43  72 114 148 197 252 306 377 465
#     4  11  24  46  73 104 147 200 253 308 378 457
#     4   9  21  42  69  99 136 191 245 306 362 444
#     4  12  26  47  74 107 152 198 248 314 383 457
#     4  11  22  42  70 111 154 189 249 315 377 452
#
# _framework density 23.995069999999998
#
# number of rings (size 3 to 8) (size 9 to 14) (size 15 to 20)
#    0.000    1.250    2.500    2.625    1.750    5.500 
#    2.250    1.250    0.000    0.000    0.000    0.000 
#    0.000    0.000    0.000    0.000    0.000    0.000 
#
# Total GULP energy -89323.287090 kJ/mol
# GULP energy per Si atom -5582.705443 kJ/mol
# Density = 2.394046 g / cm^3
# Si number density = 23.995070 Si / 1000 Ang^3
#
#
#
# Elastic Constant Matrix: (Units=GPa)
#
#
# Indices 1 2 3 4 5 6 
#
# 1 121.2951 28.3864 59.6848 2.9225 -5.5268 -6.9109
# 2 28.3864 119.3235 31.5335 -25.6801 0.1447 14.9833
# 3 59.6848 31.5335 161.8893 -0.5798 2.6964 -25.2149
# 4 2.9225 -25.6801 -0.5798 36.2284 -0.6874 1.2379
# 5 -5.5268 0.1447 2.6964 -0.6874 34.4243 -1.1052
# 6 -6.9109 14.9833 -25.2149 1.2379 -1.1052 23.6270
#
#
#
# Elastic Compliance Matrix: (Units=1/GPa)
#
#
# Indices 1 2 3 4 5 6 
#
# 1 0.010657 -0.002403 -0.003291 -0.002625 0.001970 0.001358
# 2 -0.002403 0.014178 -0.004115 0.010672 -0.000381 -0.014662
# 3 -0.003291 -0.004115 0.010160 -0.002937 -0.000961 0.012598
# 4 -0.002625 0.010672 -0.002937 0.035762 0.000075 -0.012540
# 5 0.001970 -0.000381 -0.000961 0.000075 0.029481 0.001167
# 6 0.001358 -0.014662 0.012598 -0.012540 0.001167 0.066177
#
#
# Mechanical properties :
#
#
# Convention : Reuss Voigt Hill
#
# Bulk Modulus (GPa) = 65.03822 71.30194 68.17008
# Shear Modulus (GPa) = 26.15628 37.71616 31.93622
#
# Velocity S-wave (km/s) = 3.30520 3.96893 3.65218
# Velocity P-wave (km/s) = 6.45984 7.12622 6.80119
#
# Compressibility (1/GPa) = 0.01537557
#
# Stress axis : x y z
#
# Youngs Moduli (GPa) = 93.83701 70.53174 98.42736
#
# Poissons Ratio (x) = 0.16950 0.32397
# Poissons Ratio (y) = 0.22551 0.40501
# Poissons Ratio (z) = 0.30886 0.29023
#
# Static dielectric constant tensor:
#      x y z
#    x 1.982500 -0.271650 -0.259220 
#    y -0.271650 2.817630 0.609200 
#    z -0.259220 0.609200 2.457340 
# 
# From -- ./inp_files/529691.got.cif
#   From: 2010.05.17/outbox.cif.g08.bks.cpg/sg2_265_cif.got.tgz:529691.got - 2010.06.03 11:33:40.
