data_PCOD9041779
_publ_section_title
;
Structure prediction by ZEFSAII (Michael W. Deem and Ramdas Pophale) SiO2 
 PCOD9041779
Probable space group: P -1
;
_chemical_formula_sum "Si O2"
_cell_formula_units_Z 16
_cell_length_a 11.954017
_cell_length_b 5.513939
_cell_length_c 11.705384
_cell_angle_alpha 120.754792
_cell_angle_beta 89.839750
_cell_angle_gamma 101.772922
_cell_volume 644.345305
_symmetry_space_group_name_H-M "P -1"
_symmetry_group_IT_number 2
_symmetry_cell_setting 'triclinic'
loop_
_space_group_symop_operation_xyz
x,y,z
-x,-y,-z
loop_
_atom_site_type_symbol
_atom_site_label
_atom_site_fract_x
_atom_site_fract_y
_atom_site_fract_z
Si Si1 0.467468 0.148255 0.417889
Si Si2 0.191248 0.212825 0.760129
Si Si3 0.997599 0.010984 0.865892
Si Si4 0.816546 0.346094 0.510323
Si Si5 0.030224 0.399402 0.625343
Si Si6 0.588150 0.767606 0.185178
Si Si7 0.404250 0.184962 0.048898
Si Si8 0.256489 0.130694 0.264778
O O1 0.500000 0.500000 0.500000
O O2 0.334943 0.045016 0.346807
O O3 0.500000 0.000000 0.500000
O O4 0.548402 0.038697 0.301446
O O5 0.107103 0.281381 0.683319
O O6 0.321162 0.396691 0.797737
O O7 0.220434 0.908401 0.643433
O O8 0.113998 0.232881 0.876019
O O9 0.876181 0.028097 0.809238
O O10 0.020164 0.711534 0.745567
O O11 0.000000 0.000000 0.000000
O O12 0.905235 0.584017 0.491577
O O13 0.742384 0.533994 0.620429
O O14 0.898125 0.232691 0.572328
O O15 0.470089 0.523108 0.125921
O O16 0.652190 0.859167 0.086619
O O17 0.326568 0.122253 0.145321
O O18 0.500000 0.000000 0.000000
#
# Coordination Sequence:
#
# PCOD9041779 Si02
#       8
#     2   2   2   2   2   2   2   2
#     4  12  27  48  74 115 153 198 259 321 383 454
#     4  11  22  40  67 100 138 180 231 302 368 441
#     4  10  23  44  67 104 140 185 239 299 370 444
#     4   9  20  39  63  96 137 180 226 289 362 436
#     4   9  20  39  61  95 136 180 231 276 359 441
#     4  11  26  44  70 104 139 194 249 307 373 451
#     4  11  24  49  71  96 142 194 253 302 375 442
#     4  11  23  46  73 101 143 193 242 313 373 452
#
# _framework density 24.831405
#
# number of rings (size 3 to 8) (size 9 to 14) (size 15 to 20)
#    0.000    1.500    1.250    3.375    1.750    3.500 
#    9.000    0.000    0.000    0.000    0.000    0.000 
#    0.000    0.000    0.000    0.000    0.000    0.000 
#
# Total GULP energy -89184.176336 kJ/mol
# GULP energy per Si atom -5574.011021 kJ/mol
# Density = 2.477489 g / cm^3
# Si number density = 24.831405 Si / 1000 Ang^3
#
#
#
# Elastic Constant Matrix: (Units=GPa)
#
#
# Indices 1 2 3 4 5 6 
#
# 1 157.5750 24.7703 36.7826 -1.1226 3.3006 -31.9399
# 2 24.7703 66.1399 26.5494 1.0229 -6.8916 -21.2910
# 3 36.7826 26.5494 120.6205 -9.3476 -20.3091 -6.5924
# 4 -1.1226 1.0229 -9.3476 15.6373 -14.6381 6.6859
# 5 3.3006 -6.8916 -20.3091 -14.6381 33.5663 -1.0554
# 6 -31.9399 -21.2910 -6.5924 6.6859 -1.0554 31.0209
#
#
#
# Elastic Compliance Matrix: (Units=1/GPa)
#
#
# Indices 1 2 3 4 5 6 
#
# 1 0.011591 0.003496 -0.008439 -0.028408 -0.017348 0.018073
# 2 0.003496 0.024755 -0.009914 -0.030918 -0.013967 0.024671
# 3 -0.008439 -0.009914 0.022405 0.056874 0.036469 -0.021749
# 4 -0.028408 -0.030918 0.056874 0.276867 0.148673 -0.092998
# 5 -0.017348 -0.013967 0.036469 0.148673 0.114026 -0.047862
# 6 0.018073 0.024671 -0.021749 -0.092998 -0.047862 0.081571
#
#
# Mechanical properties :
#
#
# Convention : Reuss Voigt Hill
#
# Bulk Modulus (GPa) = 34.43900 57.83778 46.13839
# Shear Modulus (GPa) = 8.76260 33.12710 20.94485
#
# Velocity S-wave (km/s) = 1.88056 3.65647 2.90743
# Velocity P-wave (km/s) = 4.31446 6.41632 5.46734
#
# Compressibility (1/GPa) = 0.02903685
#
# Stress axis : x y z
#
# Youngs Moduli (GPa) = 86.27575 40.39659 44.63259
#
# Poissons Ratio (x) = -0.14123 0.37664
# Poissons Ratio (y) = -0.30162 0.44249
# Poissons Ratio (z) = 0.72806 0.40050
#
# Static dielectric constant tensor:
#      x y z
#    x 2.182350 0.012900 0.201700 
#    y 0.012900 2.075690 -0.034110 
#    z 0.201700 -0.034110 2.082200 
# 
# From -- ./inp_files/411270.got.cif
#   From: 2010.05.17/outbox.cif.g08.bks.cpg/sg2_206_cif.got.tgz:411270.got - 2010.06.03 11:33:40.
