data_PCOD9041917
_publ_section_title
;
Structure prediction by ZEFSAII (Michael W. Deem and Ramdas Pophale) SiO2 
 PCOD9041917
Probable space group: P -1
;
_chemical_formula_sum "Si O2"
_cell_formula_units_Z 12
_cell_length_a 12.551573
_cell_length_b 7.495079
_cell_length_c 5.259584
_cell_angle_alpha 96.360896
_cell_angle_beta 112.845118
_cell_angle_gamma 92.281700
_cell_volume 451.318632
_symmetry_space_group_name_H-M "P -1"
_symmetry_group_IT_number 2
_symmetry_cell_setting 'triclinic'
loop_
_space_group_symop_operation_xyz
x,y,z
-x,-y,-z
loop_
_atom_site_type_symbol
_atom_site_label
_atom_site_fract_x
_atom_site_fract_y
_atom_site_fract_z
Si Si1 0.939586 0.255064 0.270425
Si Si2 0.863101 0.631168 0.177137
Si Si3 0.278213 0.916584 0.715071
Si Si4 0.193863 0.066660 0.154946
Si Si5 0.529652 0.198724 0.444867
Si Si6 0.604848 0.517477 0.899473
O O1 0.926908 0.450919 0.177229
O O2 0.834835 0.223398 0.375835
O O3 0.905063 0.097407 0.014058
O O4 0.058572 0.247143 0.531937
O O5 0.851850 0.743913 0.927449
O O6 0.731571 0.575862 0.135384
O O7 0.394801 0.830086 0.740995
O O8 0.280237 0.025874 0.995057
O O9 0.253160 0.041169 0.472554
O O10 0.609935 0.327254 0.729797
O O11 0.430079 0.329800 0.308200
O O12 0.500000 0.000000 0.500000
O O13 0.500000 0.500000 0.000000
#
# Coordination Sequence:
#
# PCOD9041917 Si02
#       6
#     2   2   2   2   2   2
#     4   9  23  42  69 100 137 182 227 289 345 416
#     4  11  21  45  67 102 136 182 231 288 347 412
#     4  10  23  45  71 100 141 179 234 283 345 414
#     4  10  23  44  68 104 138 183 227 286 346 416
#     4  11  25  45  67 100 136 185 230 287 349 414
#     4  11  26  42  69 100 137 179 236 288 343 416
#
# _framework density 26.588754999999999
#
# number of rings (size 3 to 8) (size 9 to 14) (size 15 to 20)
#    1.000    0.667    0.000    3.500    4.667    1.333 
#    6.000    4.167    0.000    0.000    0.000    0.000 
#    0.000    0.000    0.000    0.000    0.000    0.000 
#
# Total GULP energy -67243.300625 kJ/mol
# GULP energy per Si atom -5603.608385 kJ/mol
# Density = 2.652824 g / cm^3
# Si number density = 26.588755 Si / 1000 Ang^3
#
#
#
# Elastic Constant Matrix: (Units=GPa)
#
#
# Indices 1 2 3 4 5 6 
#
# 1 111.9347 18.2200 16.3437 5.1578 10.3794 4.5505
# 2 18.2200 164.4832 45.7504 -18.0770 5.1973 -6.0537
# 3 16.3437 45.7504 90.0742 -18.0394 -9.5422 -1.6037
# 4 5.1578 -18.0770 -18.0394 49.3646 -5.0461 10.9313
# 5 10.3794 5.1973 -9.5422 -5.0461 50.1366 4.8499
# 6 4.5505 -6.0537 -1.6037 10.9313 4.8499 45.1237
#
#
#
# Elastic Compliance Matrix: (Units=1/GPa)
#
#
# Indices 1 2 3 4 5 6 
#
# 1 0.009706 -0.000653 -0.002150 -0.002226 -0.002543 -0.000330
# 2 -0.000653 0.007317 -0.003480 0.001178 -0.001242 0.000772
# 3 -0.002150 -0.003480 0.014700 0.005070 0.004250 -0.001412
# 4 -0.002226 0.001178 0.005070 0.024511 0.004335 -0.005841
# 5 -0.002543 -0.001242 0.004250 0.004335 0.022155 -0.003190
# 6 -0.000330 0.000772 -0.001412 -0.005841 -0.003190 0.024006
#
#
# Mechanical properties :
#
#
# Convention : Reuss Voigt Hill
#
# Bulk Modulus (GPa) = 52.20298 58.56892 55.38595
# Shear Modulus (GPa) = 41.20444 48.00353 44.60398
#
# Velocity S-wave (km/s) = 3.94089 4.25362 4.10023
# Velocity P-wave (km/s) = 6.35481 6.79705 6.57964
#
# Compressibility (1/GPa) = 0.01915600
#
# Stress axis : x y z
#
# Youngs Moduli (GPa) = 103.03001 136.66736 68.02754
#
# Poissons Ratio (x) = 0.08931 0.14628
# Poissons Ratio (y) = 0.06733 0.23671
# Poissons Ratio (z) = 0.22154 0.47556
#
# Static dielectric constant tensor:
#      x y z
#    x 2.147070 0.013420 -0.035090 
#    y 0.013420 2.065650 -0.001930 
#    z -0.035090 -0.001930 2.053830 
# 
# From -- ./inp_files/60890.got.cif
#   From: 2010.05.17/outbox.cif.g08.bks.cpg/sg2_31_cif.got.tgz:60890.got - 2010.06.03 11:33:40.
