data_PCOD9041341
_publ_section_title
;
Structure prediction by ZEFSAII (Michael W. Deem and Ramdas Pophale) SiO2 
 PCOD9041341
Probable space group: P -1
;
_chemical_formula_sum "Si O2"
_cell_formula_units_Z 14
_cell_length_a 25.773781
_cell_length_b 5.507142
_cell_length_c 15.889970
_cell_angle_alpha 60.642770
_cell_angle_beta 17.020900
_cell_angle_gamma 58.012401
_cell_volume 558.758684
_symmetry_space_group_name_H-M "P -1"
_symmetry_group_IT_number 2
_symmetry_cell_setting 'triclinic'
loop_
_space_group_symop_operation_xyz
x,y,z
-x,-y,-z
loop_
_atom_site_type_symbol
_atom_site_label
_atom_site_fract_x
_atom_site_fract_y
_atom_site_fract_z
Si Si1 0.666536 0.014592 0.865738
Si Si2 0.296243 0.155159 0.343982
Si Si3 0.830776 0.581402 0.815013
Si Si4 0.783343 0.319626 0.360852
Si Si5 0.312016 0.910880 0.792607
Si Si6 0.006652 0.665906 0.705014
Si Si7 0.218941 0.046089 0.736334
O O1 0.695909 0.799940 0.775693
O O2 0.688153 0.838988 0.947913
O O3 0.829663 0.174323 0.583369
O O4 0.466044 0.204189 0.124799
O O5 0.105944 0.350792 0.635631
O O6 0.295015 0.824857 0.414853
O O7 0.912029 0.665970 0.761601
O O8 0.000000 0.500000 0.500000
O O9 0.734866 0.326901 0.032179
O O10 0.709424 0.661333 0.418840
O O11 0.733894 0.154501 0.383924
O O12 0.002220 0.197019 0.047860
O O13 0.500000 0.000000 0.500000
O O14 0.291084 0.844708 0.738504
O O15 0.144974 0.184221 0.020608
#
# Coordination Sequence:
#
# PCOD9041341 Si02
#       7
#     2   2   2   2   2   2   2
#     4  11  25  45  72 113 149 194 252 320 385 468
#     4  11  25  43  73 111 150 191 257 318 389 458
#     4  12  25  49  76 109 149 199 256 309 391 465
#     4  10  23  43  73 105 147 204 248 320 384 472
#     4  12  30  48  75 109 150 203 257 325 383 469
#     4  12  24  47  78 103 154 197 253 313 396 459
#     4  10  24  45  70 105 148 199 261 305 395 458
#
# _framework density 25.055536
#
# number of rings (size 3 to 8) (size 9 to 14) (size 15 to 20)
#    0.000    0.857    2.857    2.571   12.000    1.714 
#    0.000    0.000    0.000    0.000    0.000    0.000 
#    0.000    0.000    0.000    0.000    0.000    0.000 
#
# Total GULP energy -78420.409759 kJ/mol
# GULP energy per Si atom -5601.457840 kJ/mol
# Density = 2.499851 g / cm^3
# Si number density = 25.055536 Si / 1000 Ang^3
#
#
#
# Elastic Constant Matrix: (Units=GPa)
#
#
# Indices 1 2 3 4 5 6 
#
# 1 147.4703 39.5796 51.0164 -1.7998 -20.0652 -4.1777
# 2 39.5796 108.5638 36.8644 -28.5006 -6.0959 -7.2922
# 3 51.0164 36.8644 89.9820 -30.3730 -18.4151 -1.1899
# 4 -1.7998 -28.5006 -30.3730 25.3212 -0.1280 4.0183
# 5 -20.0652 -6.0959 -18.4151 -0.1280 28.1675 -4.1857
# 6 -4.1777 -7.2922 -1.1899 4.0183 -4.1857 34.1153
#
#
#
# Elastic Compliance Matrix: (Units=1/GPa)
#
#
# Indices 1 2 3 4 5 6 
#
# 1 0.011694 -0.005247 -0.010313 -0.017780 0.000688 0.002129
# 2 -0.005247 0.015752 0.005061 0.023358 0.003166 0.000538
# 3 -0.010313 0.005061 0.033331 0.045417 0.015378 -0.002481
# 4 -0.017780 0.023358 0.045417 0.120236 0.021571 -0.007116
# 5 0.000688 0.003166 0.015378 0.021571 0.047510 0.004586
# 6 0.002129 0.000538 -0.002481 -0.007116 0.004586 0.031002
#
#
# Mechanical properties :
#
#
# Convention : Reuss Voigt Hill
#
# Bulk Modulus (GPa) = 25.13881 66.77076 45.95479
# Shear Modulus (GPa) = 17.01936 32.09117 24.55526
#
# Velocity S-wave (km/s) = 2.60910 3.58271 3.13394
# Velocity P-wave (km/s) = 4.37396 6.61977 5.61039
#
# Compressibility (1/GPa) = 0.03977913
#
# Stress axis : x y z
#
# Youngs Moduli (GPa) = 85.51394 63.48547 30.00194
#
# Poissons Ratio (x) = 0.33314 0.30941
# Poissons Ratio (y) = 0.44873 -0.15185
# Poissons Ratio (z) = 0.88189 -0.32133
#
# Static dielectric constant tensor:
#      x y z
#    x 1.952250 0.012720 0.008600 
#    y 0.012720 2.056980 -0.032600 
#    z 0.008600 -0.032600 1.996870 
# 
# From -- ./inp_files/542093.got.cif
#   From: 2010.05.17/outbox.cif.g08.bks.cpg/sg2_272_cif.got.tgz:542093.got - 2010.06.03 11:33:40.
