data_PCOD9041937
_publ_section_title
;
Structure prediction by ZEFSAII (Michael W. Deem and Ramdas Pophale) SiO2 
 PCOD9041937
Probable space group: P -1
;
_chemical_formula_sum "Si O2"
_cell_formula_units_Z 16
_cell_length_a 15.708044
_cell_length_b 9.343076
_cell_length_c 13.985114
_cell_angle_alpha 91.613399
_cell_angle_beta 136.499044
_cell_angle_gamma 54.167685
_cell_volume 806.121211
_symmetry_space_group_name_H-M "P -1"
_symmetry_group_IT_number 2
_symmetry_cell_setting 'triclinic'
loop_
_space_group_symop_operation_xyz
x,y,z
-x,-y,-z
loop_
_atom_site_type_symbol
_atom_site_label
_atom_site_fract_x
_atom_site_fract_y
_atom_site_fract_z
Si Si1 0.093296 0.767354 0.027000
Si Si2 0.650644 0.599771 0.069750
Si Si3 0.216429 0.147655 0.324814
Si Si4 0.701273 0.697438 0.766949
Si Si5 0.998661 0.037183 0.386370
Si Si6 0.825184 0.671578 0.082019
Si Si7 0.320125 0.881730 0.976340
Si Si8 0.495267 0.547673 0.770695
O O1 0.149837 0.581903 0.140438
O O2 0.320976 0.582090 0.156982
O O3 0.920398 0.862945 0.814172
O O4 0.000000 0.000000 0.000000
O O5 0.698349 0.704040 0.059997
O O6 0.496095 0.756104 0.037529
O O7 0.534183 0.608809 0.897088
O O8 0.872087 0.306496 0.272182
O O9 0.246651 0.217780 0.256410
O O10 0.072195 0.381961 0.281739
O O11 0.452075 0.893918 0.552361
O O12 0.744878 0.697040 0.912366
O O13 0.244725 0.803179 0.544800
O O14 0.000000 0.000000 0.500000
O O15 0.856948 0.053544 0.215602
O O16 0.790770 0.871443 0.069320
O O17 0.446257 0.669228 0.154407
#
# Coordination Sequence:
#
# PCOD9041937 Si02
#       8
#     2   2   2   2   2   2   2   2
#     4  11  24  40  67  95 124 157 208 266 310 366
#     4  11  21  41  63  90 124 168 208 253 308 368
#     4  10  23  45  65  91 121 165 205 252 314 383
#     4  10  23  44  68  86 125 164 201 255 323 369
#     4  11  21  41  64  86 128 171 210 250 309 367
#     4  11  23  40  64  91 128 160 206 259 307 365
#     4  11  24  38  62  95 127 165 210 253 305 372
#     4  11  22  40  64  88 124 173 200 255 316 365
#
# _framework density 19.848132
#
# number of rings (size 3 to 8) (size 9 to 14) (size 15 to 20)
#    0.000    1.250    5.000    2.625    5.250    1.500 
#    2.250    0.625    0.000    0.000    0.000    0.000 
#    0.000    0.000    0.000    0.000    0.000    0.000 
#
# Total GULP energy -89412.540665 kJ/mol
# GULP energy per Si atom -5588.283792 kJ/mol
# Density = 1.980296 g / cm^3
# Si number density = 19.848132 Si / 1000 Ang^3
#
#
#
# Elastic Constant Matrix: (Units=GPa)
#
#
# Indices 1 2 3 4 5 6 
#
# 1 66.0384 3.1347 17.6346 1.5792 12.7161 -4.5320
# 2 3.1347 118.2362 31.4110 -12.8293 5.0722 1.3489
# 3 17.6346 31.4110 115.5449 -21.9034 19.8515 -5.9813
# 4 1.5792 -12.8293 -21.9034 15.2754 -2.9286 3.5422
# 5 12.7161 5.0722 19.8515 -2.9286 34.1937 -9.1833
# 6 -4.5320 1.3489 -5.9813 3.5422 -9.1833 15.6612
#
#
#
# Elastic Compliance Matrix: (Units=1/GPa)
#
#
# Indices 1 2 3 4 5 6 
#
# 1 0.017262 -0.000349 -0.003178 -0.008193 -0.004395 0.003087
# 2 -0.000349 0.009639 -0.001277 0.006943 -0.000910 -0.003523
# 3 -0.003178 -0.001277 0.013909 0.018811 -0.005966 -0.003250
# 4 -0.008193 0.006943 0.018811 0.103207 -0.006174 -0.022748
# 5 -0.004395 -0.000910 -0.005966 -0.006174 0.039634 0.021164
# 6 0.003087 -0.003523 -0.003250 -0.022748 0.021164 0.081363
#
#
# Mechanical properties :
#
#
# Convention : Reuss Voigt Hill
#
# Bulk Modulus (GPa) = 32.04867 44.90889 38.47878
# Shear Modulus (GPa) = 17.54252 29.53533 23.53893
#
# Velocity S-wave (km/s) = 2.97617 3.86173 3.44750
# Velocity P-wave (km/s) = 5.29075 6.52375 5.93934
#
# Compressibility (1/GPa) = 0.03120254
#
# Stress axis : x y z
#
# Youngs Moduli (GPa) = 57.93066 103.74859 71.89401
#
# Poissons Ratio (x) = 0.03622 0.22846
# Poissons Ratio (y) = 0.02022 0.09180
# Poissons Ratio (z) = 0.18409 0.13248
#
# Static dielectric constant tensor:
#      x y z
#    x 1.735600 0.013380 0.004450 
#    y 0.013380 1.668580 -0.013500 
#    z 0.004450 -0.013500 1.693330 
# 
# From -- ./inp_files/500285.got.cif
#   From: 2010.05.17/outbox.cif.g08.bks.cpg/sg2_251_cif.got.tgz:500285.got - 2010.06.03 11:33:40.
