data_PCOD9041055
_publ_section_title
;
Structure prediction by ZEFSAII (Michael W. Deem and Ramdas Pophale) SiO2 
 PCOD9041055
Probable space group: P -1
;
_chemical_formula_sum "Si O2"
_cell_formula_units_Z 16
_cell_length_a 18.233053
_cell_length_b 6.677105
_cell_length_c 12.411987
_cell_angle_alpha 43.589518
_cell_angle_beta 135.625976
_cell_angle_gamma 123.779929
_cell_volume 726.323035
_symmetry_space_group_name_H-M "P -1"
_symmetry_group_IT_number 2
_symmetry_cell_setting 'triclinic'
loop_
_space_group_symop_operation_xyz
x,y,z
-x,-y,-z
loop_
_atom_site_type_symbol
_atom_site_label
_atom_site_fract_x
_atom_site_fract_y
_atom_site_fract_z
Si Si1 0.537957 0.336678 0.925578
Si Si2 0.077899 0.237102 0.053577
Si Si3 0.712346 0.766285 0.866251
Si Si4 0.216027 0.206936 0.599861
Si Si5 0.354309 0.759779 0.526111
Si Si6 0.977191 0.857661 0.724277
Si Si7 0.317131 0.815848 0.695630
Si Si8 0.187049 0.237964 0.796503
O O1 0.638650 0.467108 0.911750
O O2 0.446246 0.545763 0.722867
O O3 0.586562 0.351400 0.091221
O O4 0.500000 0.000000 0.000000
O O5 0.189528 0.250842 0.104531
O O6 0.081682 0.158079 0.215539
O O7 0.032575 0.555962 0.882311
O O8 0.000000 0.000000 0.000000
O O9 0.641372 0.017670 0.653222
O O10 0.757639 0.844013 0.002660
O O11 0.246768 0.550301 0.485274
O O12 0.101713 0.119995 0.466307
O O13 0.227750 0.124610 0.768932
O O14 0.294512 0.057826 0.662362
O O15 0.344402 0.927908 0.562600
O O16 0.066162 0.122552 0.720255
O O17 0.215518 0.583806 0.681229
#
# Coordination Sequence:
#
# PCOD9041055 Si02
#       8
#     2   2   2   2   2   2   2   2
#     4  11  23  45  73  99 138 179 224 287 348 404
#     4  11  23  42  65  96 142 179 223 282 346 395
#     4  11  24  45  71 100 139 181 226 283 344 409
#     4  11  23  41  66  98 138 178 233 273 336 407
#     4  11  23  44  69 100 137 175 231 281 337 412
#     4  11  24  39  66  98 135 185 230 278 334 405
#     4  10  23  43  70  96 136 184 219 283 346 401
#     4  10  24  41  63 100 136 183 223 284 338 401
#
# _framework density 22.028766999999998
#
# number of rings (size 3 to 8) (size 9 to 14) (size 15 to 20)
#    0.000    1.250    2.500    2.625    5.250    1.500 
#    0.000    0.625    0.000    0.000    0.000    0.000 
#    0.000    0.000    0.000    0.000    0.000    0.000 
#
# Total GULP energy -89373.395232 kJ/mol
# GULP energy per Si atom -5585.837202 kJ/mol
# Density = 2.197863 g / cm^3
# Si number density = 22.028767 Si / 1000 Ang^3
#
#
#
# Elastic Constant Matrix: (Units=GPa)
#
#
# Indices 1 2 3 4 5 6 
#
# 1 97.7506 59.4396 33.6251 8.2762 -9.9027 -10.2928
# 2 59.4396 106.0068 39.2349 15.0277 -6.8465 11.4924
# 3 33.6251 39.2349 96.9828 5.3563 -7.2844 -6.9201
# 4 8.2762 15.0277 5.3563 22.5295 1.0356 1.6640
# 5 -9.9027 -6.8465 -7.2844 1.0356 30.0213 4.9322
# 6 -10.2928 11.4924 -6.9201 1.6640 4.9322 46.9651
#
#
#
# Elastic Compliance Matrix: (Units=1/GPa)
#
#
# Indices 1 2 3 4 5 6 
#
# 1 0.017509 -0.009702 -0.001560 -0.000117 0.002244 0.005750
# 2 -0.009702 0.018235 -0.004017 -0.007186 0.001394 -0.007072
# 3 -0.001560 -0.004017 0.012743 -0.000012 0.001270 0.002386
# 4 -0.000117 -0.007186 -0.000012 0.049358 -0.003439 0.000343
# 5 0.002244 0.001394 0.001270 -0.003439 0.035328 -0.003250
# 6 0.005750 -0.007072 0.002386 0.000343 -0.003250 0.024964
#
#
# Mechanical properties :
#
#
# Convention : Reuss Voigt Hill
#
# Bulk Modulus (GPa) = 55.77192 62.81548 59.29370
# Shear Modulus (GPa) = 25.68420 31.13255 28.40838
#
# Velocity S-wave (km/s) = 3.41829 3.76342 3.59500
# Velocity P-wave (km/s) = 6.39940 6.88924 6.64883
#
# Compressibility (1/GPa) = 0.01793017
#
# Stress axis : x y z
#
# Youngs Moduli (GPa) = 57.11352 54.83860 78.47291
#
# Poissons Ratio (x) = 0.53204 0.12245
# Poissons Ratio (y) = 0.55411 0.31519
# Poissons Ratio (z) = 0.08912 0.22026
#
# Static dielectric constant tensor:
#      x y z
#    x 1.823850 0.004130 0.033040 
#    y 0.004130 1.797770 0.001000 
#    z 0.033040 0.001000 1.839440 
# 
# From -- ./inp_files/459407.got.cif
#   From: 2010.05.17/outbox.cif.g08.bks.cpg/sg2_230_cif.got.tgz:459407.got - 2010.06.03 11:33:40.
