data_PCOD9041787
_publ_section_title
;
Structure prediction by ZEFSAII (Michael W. Deem and Ramdas Pophale) SiO2 
 PCOD9041787
Probable space group: P -1
;
_chemical_formula_sum "Si O2"
_cell_formula_units_Z 15
_cell_length_a 6.772820
_cell_length_b 13.141148
_cell_length_c 7.230204
_cell_angle_alpha 87.749751
_cell_angle_beta 80.460768
_cell_angle_gamma 97.239805
_cell_volume 628.358487
_symmetry_space_group_name_H-M "P -1"
_symmetry_group_IT_number 2
_symmetry_cell_setting 'triclinic'
loop_
_space_group_symop_operation_xyz
x,y,z
-x,-y,-z
loop_
_atom_site_type_symbol
_atom_site_label
_atom_site_fract_x
_atom_site_fract_y
_atom_site_fract_z
Si Si1 0.188787 0.792686 0.850140
Si Si2 0.589729 0.580349 0.136145
Si Si3 0.422048 0.081055 0.760864
Si Si4 0.793463 0.707503 0.767993
Si Si5 0.723710 0.286535 0.764344
Si Si6 0.121989 0.412273 0.567810
Si Si7 0.000000 0.000000 0.000000
Si Si8 0.601408 0.895615 0.652449
O O1 0.381369 0.830291 0.693823
O O2 0.030666 0.718035 0.764137
O O3 0.254359 0.730796 0.019003
O O4 0.097199 0.893732 0.929444
O O5 0.400787 0.619893 0.262585
O O6 0.747883 0.555339 0.269750
O O7 0.500000 0.500000 0.000000
O O8 0.696220 0.671727 0.981179
O O9 0.574234 0.185810 0.735967
O O10 0.339791 0.066963 0.564062
O O11 0.567849 0.993413 0.773890
O O12 0.220850 0.069025 0.912961
O O13 0.746300 0.819435 0.710034
O O14 0.741877 0.629166 0.611966
O O15 0.950644 0.315790 0.653575
O O16 0.000000 0.500000 0.500000
#
# Coordination Sequence:
#
# PCOD9041787 Si02
#       8
#     2   2   2   2   2   2   1   2
#     4  11  24  41  70 106 145 196 244 303 356 439
#     4  12  28  49  77 108 147 194 250 317 387 453
#     4  10  23  44  70 107 150 193 249 301 365 446
#     4  12  25  46  76 103 148 194 251 301 380 438
#     4  12  25  46  75 105 150 193 249 306 374 439
#     4  12  30  50  77 113 148 193 253 318 382 453
#     4  10  24  40  70 108 152 196 250 298 364 434
#     4  10  23  44  67 105 147 195 241 298 363 442
#
# _framework density 23.871722999999999
#
# number of rings (size 3 to 8) (size 9 to 14) (size 15 to 20)
#    0.000    0.800    2.667    3.200    5.600    5.333 
#    0.000    2.667    0.000    0.000    0.000    0.000 
#    0.000    0.000    0.000    0.000    0.000    0.000 
#
# Total GULP energy -83641.308462 kJ/mol
# GULP energy per Si atom -5576.087231 kJ/mol
# Density = 2.381739 g / cm^3
# Si number density = 23.871723 Si / 1000 Ang^3
#
#
#
# Elastic Constant Matrix: (Units=GPa)
#
#
# Indices 1 2 3 4 5 6 
#
# 1 100.1544 29.2499 51.8606 9.5302 15.3381 -5.1901
# 2 29.2499 65.9902 3.5074 1.1493 14.5122 2.0801
# 3 51.8606 3.5074 105.1827 0.2272 15.6579 -5.1618
# 4 9.5302 1.1493 0.2272 31.6243 3.1355 1.2301
# 5 15.3381 14.5122 15.6579 3.1355 38.2549 -7.9889
# 6 -5.1901 2.0801 -5.1618 1.2301 -7.9889 45.4196
#
#
#
# Elastic Compliance Matrix: (Units=1/GPa)
#
#
# Indices 1 2 3 4 5 6 
#
# 1 0.016608 -0.006873 -0.007857 -0.004739 -0.000150 0.001422
# 2 -0.006873 0.019557 0.003627 0.002112 -0.006850 -0.002531
# 3 -0.007857 0.003627 0.013861 0.002561 -0.004170 -0.000292
# 4 -0.004739 0.002112 0.002561 0.033327 -0.003054 -0.001787
# 5 -0.000150 -0.006850 -0.004170 -0.003054 0.031909 0.005518
# 6 0.001422 -0.002531 -0.000292 -0.001787 0.005518 0.023281
#
#
# Mechanical properties :
#
#
# Convention : Reuss Voigt Hill
#
# Bulk Modulus (GPa) = 35.94435 48.95146 42.44790
# Shear Modulus (GPa) = 29.40823 35.50704 32.45764
#
# Velocity S-wave (km/s) = 3.51369 3.86088 3.69137
# Velocity P-wave (km/s) = 5.61706 6.35812 5.99905
#
# Compressibility (1/GPa) = 0.02782079
#
# Stress axis : x y z
#
# Youngs Moduli (GPa) = 60.21246 51.13337 72.14405
#
# Poissons Ratio (x) = 0.35144 0.56683
# Poissons Ratio (y) = 0.41384 -0.26170
# Poissons Ratio (z) = 0.47309 -0.18549
#
# Static dielectric constant tensor:
#      x y z
#    x 1.896870 0.023420 0.011740 
#    y 0.023420 1.950390 -0.008520 
#    z 0.011740 -0.008520 1.938620 
# 
# From -- ./inp_files/134188.got.cif
#   From: 2010.05.17/outbox.cif.g08.bks.cpg/sg2_68_cif.got.tgz:134188.got - 2010.06.03 11:33:40.
