data_PCOD9041378
_publ_section_title
;
Structure prediction by ZEFSAII (Michael W. Deem and Ramdas Pophale) SiO2 
 PCOD9041378
Probable space group: P -1
;
_chemical_formula_sum "Si O2"
_cell_formula_units_Z 14
_cell_length_a 8.374223
_cell_length_b 9.823935
_cell_length_c 9.064791
_cell_angle_alpha 76.003039
_cell_angle_beta 107.673410
_cell_angle_gamma 108.291443
_cell_volume 665.725833
_symmetry_space_group_name_H-M "P -1"
_symmetry_group_IT_number 2
_symmetry_cell_setting 'triclinic'
loop_
_space_group_symop_operation_xyz
x,y,z
-x,-y,-z
loop_
_atom_site_type_symbol
_atom_site_label
_atom_site_fract_x
_atom_site_fract_y
_atom_site_fract_z
Si Si1 0.582074 0.408687 0.659449
Si Si2 0.449624 0.924989 0.848315
Si Si3 0.435976 0.341259 0.955019
Si Si4 0.963242 0.603767 0.777006
Si Si5 0.119551 0.890410 0.579901
Si Si6 0.275163 0.855999 0.317184
Si Si7 0.049801 0.313762 0.915273
O O1 0.500000 0.500000 0.500000
O O2 0.466159 0.352197 0.785140
O O3 0.762457 0.514462 0.739260
O O4 0.626623 0.271939 0.628891
O O5 0.266097 0.938713 0.733732
O O6 0.597287 0.002644 0.754498
O O7 0.452363 0.759324 0.916751
O O8 0.500000 0.000000 0.000000
O O9 0.233576 0.279673 0.952787
O O10 0.500000 0.500000 0.000000
O O11 0.009169 0.729286 0.636212
O O12 0.063550 0.478199 0.818343
O O13 0.997498 0.676724 0.928634
O O14 0.217774 0.882710 0.457065
O O15 0.000000 0.000000 0.500000
O O16 0.104035 0.797135 0.184279
#
# Coordination Sequence:
#
# PCOD9041378 Si02
#       7
#     2   2   2   2   2   2   2
#     4  11  26  42  72 103 146 182 236 291 365 419
#     4  12  27  50  74 100 146 186 243 293 353 431
#     4  12  25  44  77 106 136 191 239 295 349 426
#     4  10  23  45  66 101 139 181 230 294 347 425
#     4  12  30  45  71 100 146 187 237 292 364 417
#     4  11  27  46  68 103 141 189 234 299 355 424
#     4  10  23  43  73  99 139 176 243 289 352 416
#
# _framework density 21.029678000000001
#
# number of rings (size 3 to 8) (size 9 to 14) (size 15 to 20)
#    0.000    0.857    2.857    2.143   14.000    1.714 
#    0.000    0.000    0.000    0.000    0.000    0.000 
#    0.000    0.000    0.000    0.000    0.000    0.000 
#
# Total GULP energy -78387.914903 kJ/mol
# GULP energy per Si atom -5599.136779 kJ/mol
# Density = 2.098181 g / cm^3
# Si number density = 21.029678 Si / 1000 Ang^3
#
#
#
# Elastic Constant Matrix: (Units=GPa)
#
#
# Indices 1 2 3 4 5 6 
#
# 1 83.0714 22.7658 34.9345 -6.8898 6.7967 -14.1442
# 2 22.7658 80.9249 41.7921 -11.3519 -0.8952 -8.1364
# 3 34.9345 41.7921 105.8671 -15.6908 8.9356 -17.4753
# 4 -6.8898 -11.3519 -15.6908 41.1051 6.6412 -3.4649
# 5 6.7967 -0.8952 8.9356 6.6412 48.5173 -2.3415
# 6 -14.1442 -8.1364 -17.4753 -3.4649 -2.3415 34.2037
#
#
#
# Elastic Compliance Matrix: (Units=1/GPa)
#
#
# Indices 1 2 3 4 5 6 
#
# 1 0.014821 -0.001983 -0.003102 0.001345 -0.001528 0.004104
# 2 -0.001983 0.016048 -0.005438 0.001848 0.001347 0.000498
# 3 -0.003102 -0.005438 0.014296 0.004283 -0.002645 0.004981
# 4 0.001345 0.001848 0.004283 0.027904 -0.004487 0.005703
# 5 -0.001528 0.001347 -0.002645 -0.004487 0.021922 -0.000616
# 6 0.004104 0.000498 0.004981 0.005703 -0.000616 0.034133
#
#
# Mechanical properties :
#
#
# Convention : Reuss Voigt Hill
#
# Bulk Modulus (GPa) = 41.46193 52.09423 46.77808
# Shear Modulus (GPa) = 31.60366 36.12330 33.86348
#
# Velocity S-wave (km/s) = 3.88082 4.14905 4.01717
# Velocity P-wave (km/s) = 6.31187 6.91219 6.61884
#
# Compressibility (1/GPa) = 0.02411851
#
# Stress axis : x y z
#
# Youngs Moduli (GPa) = 67.47102 62.31453 69.94816
#
# Poissons Ratio (x) = 0.12357 0.21699
# Poissons Ratio (y) = 0.13379 0.38038
# Poissons Ratio (z) = 0.20931 0.33887
#
# Static dielectric constant tensor:
#      x y z
#    x 1.755060 0.000780 0.033090 
#    y 0.000780 1.745480 -0.012360 
#    z 0.033090 -0.012360 1.754470 
# 
# From -- ./inp_files/157135.got.cif
#   From: 2010.05.17/outbox.cif.g08.bks.cpg/sg2_79_cif.got.tgz:157135.got - 2010.06.03 11:33:40.
