data_PCOD9041465
_publ_section_title
;
Structure prediction by ZEFSAII (Michael W. Deem and Ramdas Pophale) SiO2 
 PCOD9041465
Probable space group: P -1
;
_chemical_formula_sum "Si O2"
_cell_formula_units_Z 16
_cell_length_a 8.565568
_cell_length_b 16.525415
_cell_length_c 8.443235
_cell_angle_alpha 122.869754
_cell_angle_beta 113.104790
_cell_angle_gamma 111.502210
_cell_volume 610.547352
_symmetry_space_group_name_H-M "P -1"
_symmetry_group_IT_number 2
_symmetry_cell_setting 'triclinic'
loop_
_space_group_symop_operation_xyz
x,y,z
-x,-y,-z
loop_
_atom_site_type_symbol
_atom_site_label
_atom_site_fract_x
_atom_site_fract_y
_atom_site_fract_z
Si Si1 0.571455 0.814537 0.569012
Si Si2 0.861300 0.420097 0.032908
Si Si3 0.742704 0.302928 0.389796
Si Si4 0.739751 0.684467 0.596239
Si Si5 0.644422 0.928012 0.214210
Si Si6 0.011609 0.922552 0.201685
Si Si7 0.960079 0.207426 0.477910
Si Si8 0.486997 0.413951 0.040687
O O1 0.502890 0.814751 0.719198
O O2 0.562949 0.694645 0.464344
O O3 0.838517 0.959788 0.756189
O O4 0.338833 0.744935 0.285474
O O5 0.656859 0.397276 0.032370
O O6 0.113771 0.534070 0.366392
O O7 0.000000 0.500000 0.000000
O O8 0.937057 0.312049 0.563127
O O9 0.646389 0.228676 0.101834
O O10 0.599674 0.521747 0.348592
O O11 0.968458 0.786500 0.667115
O O12 0.851057 0.766935 0.895171
O O13 0.818114 0.912588 0.203339
O O14 0.755564 0.000687 0.506130
O O15 0.704572 0.048402 0.264517
O O16 0.182209 0.264406 0.747743
O O17 0.500000 0.500000 0.000000
#
# Coordination Sequence:
#
# PCOD9041465 Si02
#       8
#     2   2   2   2   2   2   2   2
#     4  11  19  36  61  85 111 144 193 233 278 335
#     4  10  19  32  58  90 114 138 184 242 282 326
#     4  11  21  35  57  91 114 141 187 237 288 331
#     4  11  18  34  60  85 108 144 192 229 277 333
#     4  11  23  38  56  82 117 150 194 235 279 331
#     4  11  23  38  56  83 113 156 193 231 278 337
#     4  11  20  37  61  86 113 146 187 237 282 335
#     4  10  17  33  57  88 112 142 182 237 285 329
#
# _framework density 26.205994
#
# number of rings (size 3 to 8) (size 9 to 14) (size 15 to 20)
#    0.000    1.250    7.500    1.500    0.000    0.000 
#    0.000    3.750    0.000    0.000    0.000    0.000 
#    0.000    0.000    0.000    0.000    0.000    0.000 
#
# Total GULP energy -89146.999771 kJ/mol
# GULP energy per Si atom -5571.687486 kJ/mol
# Density = 2.614635 g / cm^3
# Si number density = 26.205994 Si / 1000 Ang^3
#
#
#
# Elastic Constant Matrix: (Units=GPa)
#
#
# Indices 1 2 3 4 5 6 
#
# 1 64.9576 12.5316 7.7761 -11.3433 -7.3077 5.2666
# 2 12.5316 52.5267 23.5741 -0.0460 7.9568 -0.7471
# 3 7.7761 23.5741 223.0462 -19.3762 -24.0529 -0.8678
# 4 -11.3433 -0.0460 -19.3762 26.3693 5.8817 3.9445
# 5 -7.3077 7.9568 -24.0529 5.8817 42.8262 1.2283
# 6 5.2666 -0.7471 -0.8678 3.9445 1.2283 15.1623
#
#
#
# Elastic Compliance Matrix: (Units=1/GPa)
#
#
# Indices 1 2 3 4 5 6 
#
# 1 0.019335 -0.005883 0.001188 0.009754 0.004001 -0.009800
# 2 -0.005883 0.022991 -0.003284 -0.004100 -0.006689 0.004597
# 3 0.001188 -0.003284 0.005499 0.004026 0.003394 -0.001582
# 4 0.009754 -0.004100 0.004026 0.047729 -0.001419 -0.015661
# 5 0.004001 -0.006689 0.003394 -0.001419 0.027474 -0.003382
# 6 -0.009800 0.004597 -0.001582 -0.015661 -0.003382 0.073841
#
#
# Mechanical properties :
#
#
# Convention : Reuss Voigt Hill
#
# Bulk Modulus (GPa) = 31.38135 47.58825 39.48480
# Shear Modulus (GPa) = 22.37653 36.64813 29.51233
#
# Velocity S-wave (km/s) = 2.92528 3.74366 3.35948
# Velocity P-wave (km/s) = 4.83844 6.07333 5.49072
#
# Compressibility (1/GPa) = 0.03186606
#
# Stress axis : x y z
#
# Youngs Moduli (GPa) = 51.71878 43.49604 181.86446
#
# Poissons Ratio (x) = 0.25590 -0.21613
# Poissons Ratio (y) = 0.30428 0.59731
# Poissons Ratio (z) = -0.06146 0.14286
#
# Static dielectric constant tensor:
#      x y z
#    x 2.196230 -0.017250 0.015560 
#    y -0.017250 2.151470 0.009620 
#    z 0.015560 0.009620 2.163390 
# 
# From -- ./inp_files/185738.got.cif
#   From: 2010.05.17/outbox.cif.g08.bks.cpg/sg2_93_cif.got.tgz:185738.got - 2010.06.03 11:33:40.
