data_PCOD9041441
_publ_section_title
;
Structure prediction by ZEFSAII (Michael W. Deem and Ramdas Pophale) SiO2 
 PCOD9041441
Probable space group: P -1
;
_chemical_formula_sum "Si O2"
_cell_formula_units_Z 16
_cell_length_a 8.991391
_cell_length_b 11.726125
_cell_length_c 18.697729
_cell_angle_alpha 44.627660
_cell_angle_beta 29.062952
_cell_angle_gamma 56.837065
_cell_volume 656.264593
_symmetry_space_group_name_H-M "P -1"
_symmetry_group_IT_number 2
_symmetry_cell_setting 'triclinic'
loop_
_space_group_symop_operation_xyz
x,y,z
-x,-y,-z
loop_
_atom_site_type_symbol
_atom_site_label
_atom_site_fract_x
_atom_site_fract_y
_atom_site_fract_z
Si Si1 0.758605 0.964242 0.181429
Si Si2 0.251328 0.540208 0.292332
Si Si3 0.229686 0.002865 0.684562
Si Si4 0.769689 0.275783 0.555562
Si Si5 0.688192 0.603485 0.943596
Si Si6 0.307113 0.885786 0.193789
Si Si7 0.664478 0.306929 0.298794
Si Si8 0.245711 0.165915 0.308077
O O1 0.916187 0.972244 0.188685
O O2 0.505786 0.787840 0.357175
O O3 0.576494 0.115457 0.197469
O O4 0.000000 0.000000 0.000000
O O5 0.247591 0.702439 0.267262
O O6 0.430970 0.417352 0.316256
O O7 0.890933 0.455025 0.460217
O O8 0.456042 0.599693 0.108696
O O9 0.518696 0.160885 0.482232
O O10 0.000703 0.040120 0.703562
O O11 0.271389 0.816236 0.737357
O O12 0.629354 0.146821 0.735482
O O13 0.107342 0.271931 0.378203
O O14 0.783911 0.776230 0.785295
O O15 0.016771 0.579376 0.851442
O O16 0.500000 0.500000 0.000000
O O17 0.500000 0.000000 0.000000
O O18 0.000000 0.000000 0.500000
#
# Coordination Sequence:
#
# PCOD9041441 Si02
#       8
#     2   2   2   2   2   2   2   2
#     4  11  25  43  71 109 152 193 250 314 372 439
#     4  12  26  47  73 108 150 196 245 314 378 443
#     4  11  25  43  75 107 143 194 253 302 367 442
#     4  11  23  47  73 102 146 203 245 304 378 450
#     4  12  26  44  72 108 145 190 245 310 373 443
#     4  12  27  46  73 105 147 195 249 307 384 446
#     4  11  25  48  74 109 144 192 256 310 363 447
#     4  10  23  43  75  99 145 195 251 296 367 438
#
# _framework density 24.380410000000001
#
# number of rings (size 3 to 8) (size 9 to 14) (size 15 to 20)
#    0.000    0.750    2.500    4.500   10.500    0.000 
#    2.250    0.625    0.000    0.000    0.000    0.000 
#    0.000    0.000    0.000    0.000    0.000    0.000 
#
# Total GULP energy -89139.045548 kJ/mol
# GULP energy per Si atom -5571.190347 kJ/mol
# Density = 2.432492 g / cm^3
# Si number density = 24.380410 Si / 1000 Ang^3
#
#
#
# Elastic Constant Matrix: (Units=GPa)
#
#
# Indices 1 2 3 4 5 6 
#
# 1 120.6577 27.4882 35.1407 -0.9140 -0.0513 14.6999
# 2 27.4882 105.2826 17.2469 -8.1345 -0.0690 12.5900
# 3 35.1407 17.2469 121.9425 9.2460 19.8394 10.8198
# 4 -0.9140 -8.1345 9.2460 32.2231 2.4673 7.0225
# 5 -0.0513 -0.0690 19.8394 2.4673 43.9092 5.2275
# 6 14.6999 12.5900 10.8198 7.0225 5.2275 31.5912
#
#
#
# Elastic Compliance Matrix: (Units=1/GPa)
#
#
# Indices 1 2 3 4 5 6 
#
# 1 0.009876 -0.001613 -0.002651 0.001297 0.001562 -0.003591
# 2 -0.001613 0.010909 -0.001131 0.003888 0.000809 -0.004207
# 3 -0.002651 -0.001131 0.010085 -0.002830 -0.004352 -0.000420
# 4 0.001297 0.003888 -0.002830 0.034791 0.000401 -0.008984
# 5 0.001562 0.000809 -0.004352 0.000401 0.025175 -0.003813
# 6 -0.003591 -0.004207 -0.000420 -0.008984 -0.003813 0.037774
#
#
# Mechanical properties :
#
#
# Convention : Reuss Voigt Hill
#
# Bulk Modulus (GPa) = 49.80772 56.40383 53.10577
# Shear Modulus (GPa) = 34.22466 39.41184 36.81825
#
# Velocity S-wave (km/s) = 3.75077 4.02498 3.89029
# Velocity P-wave (km/s) = 6.26350 6.69221 6.48140
#
# Compressibility (1/GPa) = 0.02007721
#
# Stress axis : x y z
#
# Youngs Moduli (GPa) = 101.25888 91.66910 99.16147
#
# Poissons Ratio (x) = 0.14791 0.26293
# Poissons Ratio (y) = 0.16338 0.11215
# Poissons Ratio (z) = 0.26849 0.10367
#
# Static dielectric constant tensor:
#      x y z
#    x 2.048200 0.133350 -0.026270 
#    y 0.133350 2.190790 -0.047190 
#    z -0.026270 -0.047190 2.036980 
# 
# From -- ./inp_files/559739.got.cif
#   From: 2010.05.17/outbox.cif.g08.bks.cpg/sg2_280_cif.got.tgz:559739.got - 2010.06.03 11:33:40.
