data_PCOD9041283
_publ_section_title
;
Structure prediction by ZEFSAII (Michael W. Deem and Ramdas Pophale) SiO2 
 PCOD9041283
Probable space group: P -1
;
_chemical_formula_sum "Si O2"
_cell_formula_units_Z 14
_cell_length_a 25.657922
_cell_length_b 5.103119
_cell_length_c 16.782522
_cell_angle_alpha 131.936938
_cell_angle_beta 22.893193
_cell_angle_gamma 132.058342
_cell_volume 624.632228
_symmetry_space_group_name_H-M "P -1"
_symmetry_group_IT_number 2
_symmetry_cell_setting 'triclinic'
loop_
_space_group_symop_operation_xyz
x,y,z
-x,-y,-z
loop_
_atom_site_type_symbol
_atom_site_label
_atom_site_fract_x
_atom_site_fract_y
_atom_site_fract_z
Si Si1 0.843361 0.019566 0.634559
Si Si2 0.018271 0.579146 0.624007
Si Si3 0.877928 0.641351 0.002796
Si Si4 0.469650 0.077075 0.968708
Si Si5 0.594837 0.340929 0.395537
Si Si6 0.702269 0.873914 0.495199
Si Si7 0.869093 0.388364 0.251516
O O1 0.920109 0.303716 0.648325
O O2 0.915643 0.101741 0.463203
O O3 0.687926 0.059429 0.857110
O O4 0.863421 0.630043 0.556284
O O5 0.937527 0.649070 0.831326
O O6 0.983706 0.550199 0.901905
O O7 0.738022 0.348426 0.148856
O O8 0.858330 0.044336 0.137161
O O9 0.500000 0.500000 0.000000
O O10 0.500000 0.000000 0.000000
O O11 0.574975 0.905437 0.734268
O O12 0.500000 0.500000 0.500000
O O13 0.646611 0.603033 0.448438
O O14 0.500000 0.000000 0.500000
O O15 0.819756 0.714170 0.343124
O O16 0.765308 0.247197 0.440529
#
# Coordination Sequence:
#
# PCOD9041283 Si02
#       7
#     2   2   2   2   2   2   2
#     4  10  24  45  63 104 130 175 235 277 329 404
#     4  10  23  43  72  94 137 174 225 288 328 389
#     4  10  24  43  73 102 134 183 220 278 344 398
#     4  12  27  44  71  98 134 185 226 274 347 396
#     4  11  25  44  68 102 139 174 222 268 343 419
#     4  11  25  46  67 100 139 175 220 290 325 398
#     4  10  24  43  70 103 135 170 232 273 334 406
#
# _framework density 22.413188999999999
#
# number of rings (size 3 to 8) (size 9 to 14) (size 15 to 20)
#    0.000    1.429    0.000    3.429    8.000    9.714 
#    5.143    0.000    0.000    0.000    0.000    0.000 
#    0.000    0.000    0.000    0.000    0.000    0.000 
#
# Total GULP energy -78398.703890 kJ/mol
# GULP energy per Si atom -5599.907421 kJ/mol
# Density = 2.236218 g / cm^3
# Si number density = 22.413189 Si / 1000 Ang^3
#
#
#
# Elastic Constant Matrix: (Units=GPa)
#
#
# Indices 1 2 3 4 5 6 
#
# 1 143.9025 36.4995 60.0651 -6.9085 3.8691 -21.0767
# 2 36.4995 70.0799 15.8981 -17.0613 -0.3229 -20.1278
# 3 60.0651 15.8981 146.4306 -16.2038 10.1805 1.2516
# 4 -6.9085 -17.0613 -16.2038 37.5815 4.5146 -1.8681
# 5 3.8691 -0.3229 10.1805 4.5146 47.7495 -2.3171
# 6 -21.0767 -20.1278 1.2516 -1.8681 -2.3171 35.1660
#
#
#
# Elastic Compliance Matrix: (Units=1/GPa)
#
#
# Indices 1 2 3 4 5 6 
#
# 1 0.009991 -0.003434 -0.003921 -0.001247 0.000321 0.004117
# 2 -0.003434 0.021492 0.000053 0.009681 0.000019 0.010757
# 3 -0.003921 0.000053 0.008958 0.003280 -0.002028 -0.002598
# 4 -0.001247 0.009681 0.003280 0.032899 -0.003342 0.006205
# 5 0.000321 0.000019 -0.002028 -0.003342 0.021739 0.001530
# 6 0.004117 0.010757 -0.002598 0.006205 0.001530 0.037584
#
#
# Mechanical properties :
#
#
# Convention : Reuss Voigt Hill
#
# Bulk Modulus (GPa) = 38.70217 65.03761 51.86989
# Shear Modulus (GPa) = 32.07593 40.62943 36.35268
#
# Velocity S-wave (km/s) = 3.78712 4.26226 4.03169
# Velocity P-wave (km/s) = 6.03557 7.30089 6.69817
#
# Compressibility (1/GPa) = 0.02583835
#
# Stress axis : x y z
#
# Youngs Moduli (GPa) = 100.08713 46.52820 111.63239
#
# Poissons Ratio (x) = 0.15976 0.43771
# Poissons Ratio (y) = 0.34367 -0.00593
# Poissons Ratio (z) = 0.39244 -0.00247
#
# Static dielectric constant tensor:
#      x y z
#    x 1.785710 0.003140 0.025590 
#    y 0.003140 1.849020 -0.024190 
#    z 0.025590 -0.024190 1.883750 
# 
# From -- ./inp_files/579549.got.cif
#   From: 2010.05.17/outbox.cif.g08.bks.cpg/sg2_290_cif.got.tgz:579549.got - 2010.06.03 11:33:40.
