data_PCOD9041447
_publ_section_title
;
Structure prediction by ZEFSAII (Michael W. Deem and Ramdas Pophale) SiO2 
 PCOD9041447
Probable space group: P -1
;
_chemical_formula_sum "Si O2"
_cell_formula_units_Z 15
_cell_length_a 9.321115
_cell_length_b 11.243432
_cell_length_c 9.653729
_cell_angle_alpha 80.536768
_cell_angle_beta 133.888114
_cell_angle_gamma 117.119273
_cell_volume 630.596846
_symmetry_space_group_name_H-M "P -1"
_symmetry_group_IT_number 2
_symmetry_cell_setting 'triclinic'
loop_
_space_group_symop_operation_xyz
x,y,z
-x,-y,-z
loop_
_atom_site_type_symbol
_atom_site_label
_atom_site_fract_x
_atom_site_fract_y
_atom_site_fract_z
Si Si1 0.498715 0.451474 0.164999
Si Si2 0.101912 0.029791 0.269742
Si Si3 0.391801 0.736709 0.394859
Si Si4 0.256805 0.933598 0.134690
Si Si5 0.098304 0.302251 0.440462
Si Si6 0.330732 0.763878 0.649208
Si Si7 0.000000 0.000000 0.500000
Si Si8 0.183906 0.456467 0.182875
O O1 0.703630 0.575589 0.362141
O O2 0.535368 0.319204 0.209012
O O3 0.280333 0.416088 0.121516
O O4 0.500000 0.500000 0.000000
O O5 0.352182 0.159320 0.410053
O O6 0.119901 0.936274 0.178198
O O7 0.048440 0.951561 0.392946
O O8 0.897153 0.061230 0.092174
O O9 0.312041 0.809626 0.212542
O O10 0.251331 0.717194 0.446282
O O11 0.374685 0.598152 0.352579
O O12 0.496361 0.073335 0.263245
O O13 0.102368 0.351356 0.275938
O O14 0.865329 0.274332 0.363956
O O15 0.108163 0.159841 0.481448
O O16 0.000000 0.500000 0.000000
#
# Coordination Sequence:
#
# PCOD9041447 Si02
#       8
#     2   2   2   2   2   2   1   2
#     4  12  28  48  76 108 151 199 254 305 384 459
#     4  10  23  44  68 107 142 197 244 312 368 449
#     4  11  23  46  73 104 147 193 253 310 380 438
#     4  10  23  43  76 104 142 191 258 298 376 446
#     4  12  27  50  74 111 153 199 249 315 381 444
#     4  11  24  46  75 108 149 197 246 307 375 454
#     4  12  26  42  74 102 154 188 248 304 382 426
#     4  12  29  48  76 109 150 198 254 316 381 449
#
# _framework density 23.786988999999998
#
# number of rings (size 3 to 8) (size 9 to 14) (size 15 to 20)
#    0.000    0.800    1.333    5.600    9.333    1.067 
#    2.400    1.333    0.000    0.000    0.000    0.000 
#    0.000    0.000    0.000    0.000    0.000    0.000 
#
# Total GULP energy -83789.609964 kJ/mol
# GULP energy per Si atom -5585.973998 kJ/mol
# Density = 2.373285 g / cm^3
# Si number density = 23.786989 Si / 1000 Ang^3
#
#
#
# Elastic Constant Matrix: (Units=GPa)
#
#
# Indices 1 2 3 4 5 6 
#
# 1 158.6762 33.1432 35.3464 -19.7505 -16.2117 16.1255
# 2 33.1432 132.4147 22.9624 -33.2402 -10.6864 -4.3362
# 3 35.3464 22.9624 82.3565 -15.4612 -10.0196 16.0072
# 4 -19.7505 -33.2402 -15.4612 39.9337 -0.7453 -7.6966
# 5 -16.2117 -10.6864 -10.0196 -0.7453 40.7431 -17.0410
# 6 16.1255 -4.3362 16.0072 -7.6966 -17.0410 32.8491
#
#
#
# Elastic Compliance Matrix: (Units=1/GPa)
#
#
# Indices 1 2 3 4 5 6 
#
# 1 0.007526 -0.000978 -0.002122 0.001822 0.001611 -0.001527
# 2 -0.000978 0.011325 -0.001755 0.009938 0.005733 0.008133
# 3 -0.002122 -0.001755 0.015124 0.002166 -0.000099 -0.006103
# 4 0.001822 0.009938 0.002166 0.037852 0.010216 0.013530
# 5 0.001611 0.005733 -0.000099 0.010216 0.035578 0.020864
# 6 -0.001527 0.008133 -0.006103 0.013530 0.020864 0.049233
#
#
# Mechanical properties :
#
#
# Convention : Reuss Voigt Hill
#
# Bulk Modulus (GPa) = 41.21645 61.81681 51.51663
# Shear Modulus (GPa) = 28.66367 41.50486 35.08426
#
# Velocity S-wave (km/s) = 3.47510 4.18168 3.84465
# Velocity P-wave (km/s) = 5.78504 7.02562 6.43529
#
# Compressibility (1/GPa) = 0.02426216
#
# Stress axis : x y z
#
# Youngs Moduli (GPa) = 132.87680 88.30004 66.12173
#
# Poissons Ratio (x) = 0.08638 0.14034
# Poissons Ratio (y) = 0.12999 0.11607
# Poissons Ratio (z) = 0.28203 0.15500
#
# Static dielectric constant tensor:
#      x y z
#    x 1.878770 0.023280 -0.019790 
#    y 0.023280 1.876590 0.046140 
#    z -0.019790 0.046140 1.979500 
# 
# From -- ./inp_files/178498.got.cif
#   From: 2010.05.17/outbox.cif.g08.bks.cpg/sg2_90_cif.got.tgz:178498.got - 2010.06.03 11:33:40.
