data_PCOD9041144
_publ_section_title
;
Structure prediction by ZEFSAII (Michael W. Deem and Ramdas Pophale) SiO2 
 PCOD9041144
Probable space group: P -1
;
_chemical_formula_sum "Si O2"
_cell_formula_units_Z 14
_cell_length_a 12.753466
_cell_length_b 9.384115
_cell_length_c 7.787786
_cell_angle_alpha 107.365543
_cell_angle_beta 72.385676
_cell_angle_gamma 140.140730
_cell_volume 565.991894
_symmetry_space_group_name_H-M "P -1"
_symmetry_group_IT_number 2
_symmetry_cell_setting 'triclinic'
loop_
_space_group_symop_operation_xyz
x,y,z
-x,-y,-z
loop_
_atom_site_type_symbol
_atom_site_label
_atom_site_fract_x
_atom_site_fract_y
_atom_site_fract_z
Si Si1 0.157852 0.301546 0.174072
Si Si2 0.181598 0.745079 0.469834
Si Si3 0.643679 0.811438 0.354666
Si Si4 0.295868 0.601288 0.543470
Si Si5 0.651909 0.049599 0.882709
Si Si6 0.838611 0.035455 0.012716
Si Si7 0.367831 0.541052 0.817484
O O1 0.191270 0.415313 0.378709
O O2 0.996935 0.199157 0.117464
O O3 0.299464 0.468011 0.018604
O O4 0.143192 0.107424 0.139918
O O5 0.284662 0.765807 0.574339
O O6 0.265510 0.789648 0.264291
O O7 0.000000 0.500000 0.500000
O O8 0.209666 0.950168 0.540424
O O9 0.477547 0.723451 0.460594
O O10 0.637938 0.630215 0.319354
O O11 0.680436 0.864713 0.154150
O O12 0.257837 0.525986 0.732851
O O13 0.550766 0.793233 0.809994
O O14 0.802872 0.145287 0.958848
O O15 0.500000 0.000000 0.000000
#
# Coordination Sequence:
#
# PCOD9041144 Si02
#       7
#     2   2   2   2   2   2   2
#     4  10  23  45  68 109 144 186 236 300 368 427
#     4  12  28  45  66 108 146 190 237 297 374 429
#     4  11  23  45  72 105 140 182 243 302 358 427
#     4  12  24  44  72 101 145 187 239 296 358 431
#     4  12  26  46  75 107 143 195 247 296 364 435
#     4  10  23  43  71 102 148 185 233 302 363 434
#     4  11  25  44  76 109 137 189 248 297 359 433
#
# _framework density 24.735334999999999
#
# number of rings (size 3 to 8) (size 9 to 14) (size 15 to 20)
#    0.000    0.857    1.429    5.143    6.000    2.286 
#    0.000    5.000    0.000    0.000    0.000    0.000 
#    0.000    0.000    0.000    0.000    0.000    0.000 
#
# Total GULP energy -78296.616187 kJ/mol
# GULP energy per Si atom -5592.615442 kJ/mol
# Density = 2.467904 g / cm^3
# Si number density = 24.735335 Si / 1000 Ang^3
#
#
#
# Elastic Constant Matrix: (Units=GPa)
#
#
# Indices 1 2 3 4 5 6 
#
# 1 110.5033 30.1410 2.4652 -1.5933 7.1735 6.5822
# 2 30.1410 111.9348 14.0427 6.4684 -11.8064 3.0732
# 3 2.4652 14.0427 45.6104 7.0231 0.7278 8.6868
# 4 -1.5933 6.4684 7.0231 41.1390 -1.5868 -0.6978
# 5 7.1735 -11.8064 0.7278 -1.5868 37.6708 -2.7752
# 6 6.5822 3.0732 8.6868 -0.6978 -2.7752 34.4123
#
#
#
# Elastic Compliance Matrix: (Units=1/GPa)
#
#
# Indices 1 2 3 4 5 6 
#
# 1 0.010226 -0.003153 0.000775 0.000605 -0.003080 -0.002106
# 2 -0.003153 0.010642 -0.003144 -0.001091 0.004006 0.000747
# 3 0.000775 -0.003144 0.024697 -0.003886 -0.002243 -0.006361
# 4 0.000605 -0.001091 -0.003886 0.025223 0.000794 0.001538
# 5 -0.003080 0.004006 -0.002243 0.000794 0.028695 0.003128
# 6 -0.002106 0.000747 -0.006361 0.001538 0.003128 0.031285
#
#
# Mechanical properties :
#
#
# Convention : Reuss Voigt Hill
#
# Bulk Modulus (GPa) = 28.96777 40.14961 34.55869
# Shear Modulus (GPa) = 32.61167 37.40440 35.00803
#
# Velocity S-wave (km/s) = 3.63495 3.89290 3.76613
# Velocity P-wave (km/s) = 5.41790 6.03930 5.73702
#
# Compressibility (1/GPa) = 0.03452113
#
# Stress axis : x y z
#
# Youngs Moduli (GPa) = 97.78654 93.96466 40.49115
#
# Poissons Ratio (x) = 0.29627 -0.03139
# Poissons Ratio (y) = 0.30832 0.12732
# Poissons Ratio (z) = -0.07580 0.29546
#
# Static dielectric constant tensor:
#      x y z
#    x 2.002360 -0.003450 -0.005940 
#    y -0.003450 2.002150 0.041550 
#    z -0.005940 0.041550 2.049760 
# 
# From -- ./inp_files/244545.got.cif
#   From: 2010.05.17/outbox.cif.g08.bks.cpg/sg2_123_cif.got.tgz:244545.got - 2010.06.03 11:33:40.
