data_PCOD9041929
_publ_section_title
;
Structure prediction by ZEFSAII (Michael W. Deem and Ramdas Pophale) SiO2 
 PCOD9041929
Probable space group: P -1
;
_chemical_formula_sum "Si O2"
_cell_formula_units_Z 16
_cell_length_a 5.737687
_cell_length_b 11.768240
_cell_length_c 9.710023
_cell_angle_alpha 69.889472
_cell_angle_beta 74.511798
_cell_angle_gamma 91.739402
_cell_volume 587.881190
_symmetry_space_group_name_H-M "P -1"
_symmetry_group_IT_number 2
_symmetry_cell_setting 'triclinic'
loop_
_space_group_symop_operation_xyz
x,y,z
-x,-y,-z
loop_
_atom_site_type_symbol
_atom_site_label
_atom_site_fract_x
_atom_site_fract_y
_atom_site_fract_z
Si Si1 0.564986 0.384898 0.116765
Si Si2 0.341922 0.683627 0.405681
Si Si3 0.784067 0.034351 0.913115
Si Si4 0.105525 0.246927 0.412266
Si Si5 0.981001 0.135760 0.197124
Si Si6 0.391720 0.069969 0.612874
Si Si7 0.080757 0.714567 0.102028
Si Si8 0.342513 0.479054 0.702166
O O1 0.337157 0.316649 0.264841
O O2 0.692080 0.310293 0.016334
O O3 0.737869 0.449971 0.180291
O O4 0.500000 0.500000 0.000000
O O5 0.461018 0.823043 0.361927
O O6 0.437638 0.593155 0.542742
O O7 0.449079 0.613957 0.287441
O O8 0.060184 0.677114 0.499814
O O9 0.840860 0.180052 0.844495
O O10 0.828218 0.961000 0.797889
O O11 0.500000 0.000000 0.000000
O O12 0.000000 0.000000 0.000000
O O13 0.197902 0.144329 0.535410
O O14 0.949163 0.189517 0.329653
O O15 0.068681 0.233062 0.023834
O O16 0.733443 0.047734 0.234312
O O17 0.500000 0.000000 0.500000
O O18 0.907360 0.609050 0.249854
#
# Coordination Sequence:
#
# PCOD9041929 Si02
#       8
#     2   2   2   2   2   2   2   2
#     4  12  24  42  69 105 139 185 241 301 367 434
#     4  11  25  47  71 100 144 187 241 292 361 443
#     4  10  23  44  68 106 146 188 237 298 371 442
#     4  12  24  44  68 107 137 187 240 294 369 437
#     4  11  23  42  71 104 138 187 239 301 371 436
#     4  12  24  45  68 103 140 183 240 296 364 440
#     4  11  23  46  72 102 144 187 242 303 369 436
#     4  11  24  47  71 101 145 192 236 302 358 433
#
# _framework density 27.216386
#
# number of rings (size 3 to 8) (size 9 to 14) (size 15 to 20)
#    0.000    0.750    2.500    5.250    0.000    2.500 
#    9.000    0.000    0.000    0.000    0.000    0.000 
#    0.000    0.000    0.000    0.000    0.000    0.000 
#
# Total GULP energy -89368.293167 kJ/mol
# GULP energy per Si atom -5585.518323 kJ/mol
# Density = 2.715444 g / cm^3
# Si number density = 27.216386 Si / 1000 Ang^3
#
#
#
# Elastic Constant Matrix: (Units=GPa)
#
#
# Indices 1 2 3 4 5 6 
#
# 1 90.1027 45.6169 25.9574 3.0127 -26.2804 -1.3912
# 2 45.6169 141.2123 52.4962 6.3960 -13.2304 -13.0946
# 3 25.9574 52.4962 104.2846 14.9342 -24.9445 10.7630
# 4 3.0127 6.3960 14.9342 59.7895 5.2741 -15.9278
# 5 -26.2804 -13.2304 -24.9445 5.2741 51.9380 9.5847
# 6 -1.3912 -13.0946 10.7630 -15.9278 9.5847 59.8192
#
#
#
# Elastic Compliance Matrix: (Units=1/GPa)
#
#
# Indices 1 2 3 4 5 6 
#
# 1 0.015546 -0.004802 0.000945 -0.001885 0.007769 -0.002606
# 2 -0.004802 0.010781 -0.005807 0.002016 -0.003487 0.004389
# 3 0.000945 -0.005807 0.015928 -0.006053 0.008573 -0.007100
# 4 -0.001885 0.002016 -0.006053 0.020909 -0.006979 0.008172
# 5 0.007769 -0.003487 0.008573 -0.006979 0.028707 -0.008583
# 6 -0.002606 0.004389 -0.007100 0.008172 -0.008583 0.022446
#
#
# Mechanical properties :
#
#
# Convention : Reuss Voigt Hill
#
# Bulk Modulus (GPa) = 43.61855 64.86007 54.23931
# Shear Modulus (GPa) = 35.38917 48.41129 41.90023
#
# Velocity S-wave (km/s) = 3.60986 4.22210 3.92793
# Velocity P-wave (km/s) = 5.78240 6.90299 6.36739
#
# Compressibility (1/GPa) = 0.02292602
#
# Stress axis : x y z
#
# Youngs Moduli (GPa) = 64.32493 92.76004 62.78391
#
# Poissons Ratio (x) = 0.44540 -0.05933
# Poissons Ratio (y) = 0.30886 0.36461
# Poissons Ratio (z) = -0.06079 0.53870
#
# Static dielectric constant tensor:
#      x y z
#    x 2.223130 -0.107420 -0.026880 
#    y -0.107420 2.191690 0.144950 
#    z -0.026880 0.144950 2.404050 
# 
# From -- ./inp_files/364036.got.cif
#   From: 2010.05.17/outbox.cif.g08.bks.cpg/sg2_183_cif.got.tgz:364036.got - 2010.06.03 11:33:40.
