data_PCOD9041987
_publ_section_title
;
Structure prediction by ZEFSAII (Michael W. Deem and Ramdas Pophale) SiO2 
 PCOD9041987
Probable space group: P -1
;
_chemical_formula_sum "Si O2"
_cell_formula_units_Z 16
_cell_length_a 8.651425
_cell_length_b 9.104015
_cell_length_c 24.936697
_cell_angle_alpha 138.576835
_cell_angle_beta 139.943593
_cell_angle_gamma 68.927042
_cell_volume 722.520619
_symmetry_space_group_name_H-M "P -1"
_symmetry_group_IT_number 2
_symmetry_cell_setting 'triclinic'
loop_
_space_group_symop_operation_xyz
x,y,z
-x,-y,-z
loop_
_atom_site_type_symbol
_atom_site_label
_atom_site_fract_x
_atom_site_fract_y
_atom_site_fract_z
Si Si1 0.880398 0.848607 0.735550
Si Si2 0.468003 0.311095 0.989132
Si Si3 0.715751 0.310158 0.513724
Si Si4 0.330067 0.304995 0.755480
Si Si5 0.724226 0.529912 0.335082
Si Si6 0.701399 0.956856 0.503112
Si Si7 0.257078 0.950733 0.057237
Si Si8 0.785237 0.208573 0.879242
O O1 0.853757 0.571053 0.658331
O O2 0.594586 0.770600 0.607215
O O3 0.868477 0.001719 0.825863
O O4 0.161197 0.056731 0.837250
O O5 0.512163 0.456041 0.096840
O O6 0.500000 0.500000 0.000000
O O7 0.694323 0.218179 0.019853
O O8 0.950808 0.383497 0.551129
O O9 0.688653 0.074308 0.475108
O O10 0.314389 0.389445 0.713700
O O11 0.500231 0.155405 0.761802
O O12 0.024952 0.127720 0.650667
O O13 0.639609 0.672472 0.395930
O O14 0.529792 0.228879 0.206236
O O15 0.500000 0.000000 0.500000
O O16 0.238028 0.808079 0.068228
O O17 0.000000 0.000000 0.000000
O O18 0.000000 0.500000 0.000000
#
# Coordination Sequence:
#
# PCOD9041987 Si02
#       8
#     2   2   2   2   2   2   2   2
#     4  11  23  42  71  97 138 175 237 283 346 421
#     4  12  25  46  71 106 141 183 239 289 348 416
#     4  10  23  44  68  97 134 185 223 289 348 417
#     4  11  24  45  73  96 139 191 228 283 352 421
#     4  11  24  48  68 100 141 183 231 287 351 422
#     4  11  26  43  69 100 136 180 234 283 349 413
#     4  12  28  42  69 104 144 181 231 297 346 411
#     4  12  23  44  67 101 135 184 228 282 359 413
#
# _framework density 22.144694999999999
#
# number of rings (size 3 to 8) (size 9 to 14) (size 15 to 20)
#    0.000    0.750    3.750    3.750    5.250    1.500 
#    0.000    1.250    0.000    0.000    0.000    0.000 
#    0.000    0.000    0.000    0.000    0.000    0.000 
#
# Total GULP energy -89399.252378 kJ/mol
# GULP energy per Si atom -5587.453274 kJ/mol
# Density = 2.209429 g / cm^3
# Si number density = 22.144695 Si / 1000 Ang^3
#
#
#
# Elastic Constant Matrix: (Units=GPa)
#
#
# Indices 1 2 3 4 5 6 
#
# 1 120.3417 13.1646 39.8041 8.4647 1.2529 -28.2188
# 2 13.1646 52.4635 17.4207 1.1142 9.1554 -15.0696
# 3 39.8041 17.4207 95.2364 3.0097 0.9026 -2.1966
# 4 8.4647 1.1142 3.0097 34.8136 -16.1452 -0.1101
# 5 1.2529 9.1554 0.9026 -16.1452 45.9252 6.9494
# 6 -28.2188 -15.0696 -2.1966 -0.1101 6.9494 42.3069
#
#
#
# Elastic Compliance Matrix: (Units=1/GPa)
#
#
# Indices 1 2 3 4 5 6 
#
# 1 0.012268 0.001949 -0.005107 -0.004191 -0.003484 0.009173
# 2 0.001949 0.024988 -0.004899 -0.004656 -0.008284 0.011295
# 3 -0.005107 -0.004899 0.013366 0.001146 0.001979 -0.004780
# 4 -0.004191 -0.004656 0.001146 0.036703 0.014945 -0.006754
# 5 -0.003484 -0.008284 0.001979 0.014945 0.030265 -0.010105
# 6 0.009173 0.011295 -0.004780 -0.006754 -0.010105 0.035173
#
#
# Mechanical properties :
#
#
# Convention : Reuss Voigt Hill
#
# Bulk Modulus (GPa) = 28.97945 45.42448 37.20196
# Shear Modulus (GPa) = 27.71968 37.78595 32.75281
#
# Velocity S-wave (km/s) = 3.54185 4.13524 3.85000
# Velocity P-wave (km/s) = 5.46270 6.58464 6.04973
#
# Compressibility (1/GPa) = 0.03450722
#
# Stress axis : x y z
#
# Youngs Moduli (GPa) = 81.51573 40.02000 74.81937
#
# Poissons Ratio (x) = -0.07801 0.38209
# Poissons Ratio (y) = -0.15890 0.36656
# Poissons Ratio (z) = 0.41628 0.19607
#
# Static dielectric constant tensor:
#      x y z
#    x 1.856050 -0.056030 0.004100 
#    y -0.056030 1.791810 -0.027740 
#    z 0.004100 -0.027740 1.813050 
# 
# From -- ./inp_files/447170.got.cif
#   From: 2010.05.17/outbox.cif.g08.bks.cpg/sg2_224_cif.got.tgz:447170.got - 2010.06.03 11:33:40.
