data_PCOD9041680
_publ_section_title
;
Structure prediction by ZEFSAII (Michael W. Deem and Ramdas Pophale) SiO2 
 PCOD9041680
Probable space group: P -1
;
_chemical_formula_sum "Si O2"
_cell_formula_units_Z 14
_cell_length_a 14.030160
_cell_length_b 8.577853
_cell_length_c 15.373626
_cell_angle_alpha 128.901716
_cell_angle_beta 25.024204
_cell_angle_gamma 125.208220
_cell_volume 608.906621
_symmetry_space_group_name_H-M "P -1"
_symmetry_group_IT_number 2
_symmetry_cell_setting 'triclinic'
loop_
_space_group_symop_operation_xyz
x,y,z
-x,-y,-z
loop_
_atom_site_type_symbol
_atom_site_label
_atom_site_fract_x
_atom_site_fract_y
_atom_site_fract_z
Si Si1 0.818412 0.993931 0.917228
Si Si2 0.164026 0.568203 0.989746
Si Si3 0.592499 0.301202 0.813307
Si Si4 0.306528 0.337174 0.625951
Si Si5 0.299829 0.928045 0.574097
Si Si6 0.061737 0.155924 0.428633
Si Si7 0.604007 0.480959 0.682494
O O1 0.881902 0.940119 0.745445
O O2 0.026259 0.949040 0.794477
O O3 0.594773 0.867577 0.077090
O O4 0.761052 0.226321 0.047716
O O5 0.201883 0.393071 0.827171
O O6 0.342795 0.528071 0.902708
O O7 0.906846 0.612735 0.242012
O O8 0.630592 0.338472 0.693874
O O9 0.832608 0.270277 0.644870
O O10 0.500000 0.500000 0.000000
O O11 0.500000 0.500000 0.500000
O O12 0.357368 0.100579 0.508940
O O13 0.308299 0.688914 0.513367
O O14 0.500000 0.000000 0.500000
O O15 0.256330 0.314485 0.351130
O O16 0.000000 0.000000 0.500000
#
# Coordination Sequence:
#
# PCOD9041680 Si02
#       7
#     2   2   2   2   2   2   2
#     4  11  25  46  68 100 140 181 230 279 346 416
#     4  10  24  42  65  96 136 175 231 277 329 413
#     4  12  25  44  71  99 137 179 224 287 342 406
#     4  10  23  44  66  93 135 185 228 275 334 398
#     4  11  23  45  69  97 140 179 227 287 335 401
#     4  12  27  46  71 101 142 181 226 284 349 414
#     4  12  24  44  70 104 138 175 231 283 344 406
#
# _framework density 22.992031000000001
#
# number of rings (size 3 to 8) (size 9 to 14) (size 15 to 20)
#    0.000    0.857    4.286    2.143    4.000    4.571 
#    0.000    1.429    0.000    0.000    0.000    0.000 
#    0.000    0.000    0.000    0.000    0.000    0.000 
#
# Total GULP energy -77964.450471 kJ/mol
# GULP energy per Si atom -5568.889319 kJ/mol
# Density = 2.293970 g / cm^3
# Si number density = 22.992031 Si / 1000 Ang^3
#
#
#
# Elastic Constant Matrix: (Units=GPa)
#
#
# Indices 1 2 3 4 5 6 
#
# 1 61.1779 13.4474 31.3081 -0.4854 -34.6147 -1.7600
# 2 13.4474 131.1643 23.8283 -10.3544 -5.0356 10.9245
# 3 31.3081 23.8283 65.4847 0.4058 -24.1108 -1.7948
# 4 -0.4854 -10.3544 0.4058 41.4136 -6.9274 -9.0520
# 5 -34.6147 -5.0356 -24.1108 -6.9274 44.5402 0.8820
# 6 -1.7600 10.9245 -1.7948 -9.0520 0.8820 38.1084
#
#
#
# Elastic Compliance Matrix: (Units=1/GPa)
#
#
# Indices 1 2 3 4 5 6 
#
# 1 0.032889 -0.001046 -0.007136 0.004347 0.022215 0.002001
# 2 -0.001046 0.008560 -0.003159 0.001446 -0.001285 -0.002278
# 3 -0.007136 -0.003159 0.022110 0.000263 0.006076 0.001539
# 4 0.004347 0.001446 0.000263 0.027188 0.007793 0.006076
# 5 0.022215 -0.001285 0.006076 0.007793 0.044022 0.002513
# 6 0.002001 -0.002278 0.001539 0.006076 0.002513 0.028444
#
#
# Mechanical properties :
#
#
# Convention : Reuss Voigt Hill
#
# Bulk Modulus (GPa) = 24.46440 43.88826 34.17633
# Shear Modulus (GPa) = 25.05991 37.42865 31.24428
#
# Velocity S-wave (km/s) = 3.30500 4.03910 3.69035
# Velocity P-wave (km/s) = 5.02270 6.39393 5.74934
#
# Compressibility (1/GPa) = 0.04087572
#
# Stress axis : x y z
#
# Youngs Moduli (GPa) = 30.40488 116.82651 45.22896
#
# Poissons Ratio (x) = 0.12221 0.32277
# Poissons Ratio (y) = 0.03181 0.14289
# Poissons Ratio (z) = 0.21698 0.36908
#
# Static dielectric constant tensor:
#      x y z
#    x 1.894060 0.049200 0.024800 
#    y 0.049200 1.931160 0.073640 
#    z 0.024800 0.073640 1.906340 
# 
# From -- ./inp_files/46566.got.cif
#   From: 2010.05.17/outbox.cif.g08.bks.cpg/sg2_24_cif.got.tgz:46566.got - 2010.06.03 11:33:40.
