data_PCOD9041117
_publ_section_title
;
Structure prediction by ZEFSAII (Michael W. Deem and Ramdas Pophale) SiO2 
 PCOD9041117
Probable space group: P -1
;
_chemical_formula_sum "Si O2"
_cell_formula_units_Z 16
_cell_length_a 7.853771
_cell_length_b 8.476490
_cell_length_c 26.210625
_cell_angle_alpha 33.427117
_cell_angle_beta 129.775824
_cell_angle_gamma 128.695840
_cell_volume 721.398858
_symmetry_space_group_name_H-M "P -1"
_symmetry_group_IT_number 2
_symmetry_cell_setting 'triclinic'
loop_
_space_group_symop_operation_xyz
x,y,z
-x,-y,-z
loop_
_atom_site_type_symbol
_atom_site_label
_atom_site_fract_x
_atom_site_fract_y
_atom_site_fract_z
Si Si1 0.000481 0.545075 0.101073
Si Si2 0.189685 0.607883 0.739786
Si Si3 0.915111 0.062886 0.885026
Si Si4 0.619175 0.096424 0.198113
Si Si5 0.624511 0.754922 0.711864
Si Si6 0.348748 0.591666 0.489779
Si Si7 0.581382 0.446493 0.372590
Si Si8 0.053690 0.932128 0.470283
O O1 0.050403 0.745848 0.107644
O O2 0.195503 0.360232 0.187910
O O3 0.760242 0.319904 0.123978
O O4 0.995592 0.764705 0.994397
O O5 0.318755 0.749685 0.777005
O O6 0.377609 0.669602 0.714433
O O7 0.070679 0.270488 0.817704
O O8 0.992424 0.783879 0.643689
O O9 0.650524 0.979069 0.841953
O O10 0.700627 0.788006 0.296597
O O11 0.606635 0.605005 0.693355
O O12 0.693990 0.097149 0.619635
O O13 0.500000 0.500000 0.500000
O O14 0.472057 0.591143 0.567765
O O15 0.125045 0.339073 0.515395
O O16 0.722424 0.196928 0.455671
O O17 0.000000 0.000000 0.500000
#
# Coordination Sequence:
#
# PCOD9041117 Si02
#       8
#     2   2   2   2   2   2   2   2
#     4  10  23  43  71 101 132 169 237 291 343 410
#     4  11  25  44  66  99 143 177 230 286 338 414
#     4  10  23  44  72  97 130 182 225 293 350 404
#     4  11  22  45  70 100 130 179 231 285 350 411
#     4  12  24  44  64 105 138 182 228 282 344 414
#     4  12  24  42  65 100 140 180 230 280 338 413
#     4  12  24  40  68  97 138 186 224 280 344 410
#     4  12  24  42  62  99 138 185 228 276 341 407
#
# _framework density 22.179131999999999
#
# number of rings (size 3 to 8) (size 9 to 14) (size 15 to 20)
#    0.000    0.750    5.000    1.875    3.500    3.500 
#    2.250    0.625    0.000    0.000    0.000    0.000 
#    0.000    0.000    0.000    0.000    0.000    0.000 
#
# Total GULP energy -89471.732018 kJ/mol
# GULP energy per Si atom -5591.983251 kJ/mol
# Density = 2.212865 g / cm^3
# Si number density = 22.179132 Si / 1000 Ang^3
#
#
#
# Elastic Constant Matrix: (Units=GPa)
#
#
# Indices 1 2 3 4 5 6 
#
# 1 69.8141 30.1321 40.8241 -0.5060 -11.2904 1.2501
# 2 30.1321 100.6069 51.2273 -7.9364 -6.9031 10.7482
# 3 40.8241 51.2273 189.3704 -20.9174 -9.2280 11.6322
# 4 -0.5060 -7.9364 -20.9174 32.8330 7.4455 0.6165
# 5 -11.2904 -6.9031 -9.2280 7.4455 31.9003 -0.2151
# 6 1.2501 10.7482 11.6322 0.6165 -0.2151 32.3214
#
#
#
# Elastic Compliance Matrix: (Units=1/GPa)
#
#
# Indices 1 2 3 4 5 6 
#
# 1 0.018883 -0.004137 -0.003243 -0.004133 0.005828 0.001930
# 2 -0.004137 0.012788 -0.002167 0.001649 0.000269 -0.003342
# 3 -0.003243 -0.002167 0.007104 0.004106 -0.000532 -0.001792
# 4 -0.004133 0.001649 0.004106 0.035311 -0.008177 -0.002594
# 5 0.005828 0.000269 -0.000532 -0.008177 0.035225 0.000267
# 6 0.001930 -0.003342 -0.001792 -0.002594 0.000267 0.032672
#
#
# Mechanical properties :
#
#
# Convention : Reuss Voigt Hill
#
# Bulk Modulus (GPa) = 50.80902 67.12870 58.96886
# Shear Modulus (GPa) = 29.82646 35.25147 32.53896
#
# Velocity S-wave (km/s) = 3.67113 3.99105 3.83443
# Velocity P-wave (km/s) = 6.39748 7.18125 6.80066
#
# Compressibility (1/GPa) = 0.01968155
#
# Stress axis : x y z
#
# Youngs Moduli (GPa) = 52.95649 78.20090 140.77273
#
# Poissons Ratio (x) = 0.32350 0.45650
# Poissons Ratio (y) = 0.21907 0.30504
# Poissons Ratio (z) = 0.17173 0.16946
#
# Static dielectric constant tensor:
#      x y z
#    x 1.842680 0.011140 0.014020 
#    y 0.011140 1.795030 -0.019130 
#    z 0.014020 -0.019130 1.869110 
# 
# From -- ./inp_files/616593.got.cif
#   From: 2010.05.17/outbox.cif.g08.bks.cpg/sg2_309_cif.got.tgz:616593.got - 2010.06.03 11:33:40.
