data_PCOD9041075
_publ_section_title
;
Structure prediction by ZEFSAII (Michael W. Deem and Ramdas Pophale) SiO2 
 PCOD9041075
Probable space group: P -1
;
_chemical_formula_sum "Si O2"
_cell_formula_units_Z 14
_cell_length_a 8.562441
_cell_length_b 21.018593
_cell_length_c 12.316150
_cell_angle_alpha 146.035020
_cell_angle_beta 122.985909
_cell_angle_gamma 34.228167
_cell_volume 622.175010
_symmetry_space_group_name_H-M "P -1"
_symmetry_group_IT_number 2
_symmetry_cell_setting 'triclinic'
loop_
_space_group_symop_operation_xyz
x,y,z
-x,-y,-z
loop_
_atom_site_type_symbol
_atom_site_label
_atom_site_fract_x
_atom_site_fract_y
_atom_site_fract_z
Si Si1 0.199617 0.171345 0.446004
Si Si2 0.140359 0.806861 0.036685
Si Si3 0.532052 0.427584 0.526291
Si Si4 0.351483 0.296181 0.809303
Si Si5 0.219071 0.192056 0.980344
Si Si6 0.240018 0.385172 0.660788
Si Si7 0.521925 0.191375 0.261886
O O1 0.335319 0.169633 0.599912
O O2 0.098995 0.329883 0.557435
O O3 0.885667 0.256572 0.462377
O O4 0.471718 0.973000 0.207035
O O5 0.327513 0.606697 0.779974
O O6 0.948077 0.847418 0.122401
O O7 0.388450 0.782587 0.124897
O O8 0.881272 0.979270 0.099667
O O9 0.500000 0.500000 0.500000
O O10 0.442538 0.339502 0.368451
O O11 0.419935 0.317734 0.746742
O O12 0.000000 0.500000 0.000000
O O13 0.322642 0.186138 0.130058
O O14 0.995697 0.396419 0.135441
O O15 0.430536 0.273558 0.465054
#
# Coordination Sequence:
#
# PCOD9041075 Si02
#       7
#     2   2   2   2   2   2   2
#     4  10  24  44  66  99 137 178 223 283 339 392
#     4  12  24  44  71  98 138 185 225 285 341 398
#     4  12  26  43  69 101 141 180 222 285 353 399
#     4  10  23  47  68  96 145 178 230 283 335 410
#     4  12  24  42  72 103 136 181 228 287 341 399
#     4  10  23  43  70  97 136 182 231 277 336 403
#     4  12  26  42  70 108 137 175 240 275 339 421
#
# _framework density 22.501707
#
# number of rings (size 3 to 8) (size 9 to 14) (size 15 to 20)
#    0.857    0.000    4.286    2.571    2.000    7.429 
#    2.571    1.429    0.000    0.000    0.000    0.000 
#    0.000    0.000    0.000    0.000    0.000    0.000 
#
# Total GULP energy -78207.413565 kJ/mol
# GULP energy per Si atom -5586.243826 kJ/mol
# Density = 2.245049 g / cm^3
# Si number density = 22.501707 Si / 1000 Ang^3
#
#
#
# Elastic Constant Matrix: (Units=GPa)
#
#
# Indices 1 2 3 4 5 6 
#
# 1 41.7121 5.7997 6.7872 -4.8425 4.0289 -6.1680
# 2 5.7997 82.7459 11.8004 -3.6139 0.6055 -20.5792
# 3 6.7872 11.8004 99.8208 13.4709 -10.7380 -5.2299
# 4 -4.8425 -3.6139 13.4709 22.4008 -1.7072 10.2952
# 5 4.0289 0.6055 -10.7380 -1.7072 35.1525 5.9026
# 6 -6.1680 -20.5792 -5.2299 10.2952 5.9026 29.9622
#
#
#
# Elastic Compliance Matrix: (Units=1/GPa)
#
#
# Indices 1 2 3 4 5 6 
#
# 1 0.026004 -0.000247 -0.002685 0.005145 -0.004180 0.003770
# 2 -0.000247 0.015012 -0.001117 -0.002398 -0.002602 0.011402
# 3 -0.002685 -0.001117 0.012100 -0.009385 0.002992 0.003427
# 4 0.005145 -0.002398 -0.009385 0.062529 0.003726 -0.024446
# 5 -0.004180 -0.002602 0.002992 0.003726 0.031686 -0.009648
# 6 0.003770 0.011402 0.003427 -0.024446 -0.009648 0.052881
#
#
# Mechanical properties :
#
#
# Convention : Reuss Voigt Hill
#
# Bulk Modulus (GPa) = 22.21321 30.33929 26.27625
# Shear Modulus (GPa) = 22.38978 30.82921 26.60949
#
# Velocity S-wave (km/s) = 3.15782 3.70548 3.44256
# Velocity P-wave (km/s) = 4.81550 5.64091 5.24447
#
# Compressibility (1/GPa) = 0.04501826
#
# Stress axis : x y z
#
# Youngs Moduli (GPa) = 38.45615 66.61488 82.64150
#
# Poissons Ratio (x) = 0.01643 0.22192
# Poissons Ratio (y) = 0.00949 0.09229
# Poissons Ratio (z) = 0.10327 0.07439
#
# Static dielectric constant tensor:
#      x y z
#    x 1.857960 0.013910 -0.032770 
#    y 0.013910 1.826100 -0.010400 
#    z -0.032770 -0.010400 1.810360 
# 
# From -- ./inp_files/508738.got.cif
#   From: 2010.05.17/outbox.cif.g08.bks.cpg/sg2_255_cif.got.tgz:508738.got - 2010.06.03 11:33:40.
