data_PCOD9041630
_publ_section_title
;
Structure prediction by ZEFSAII (Michael W. Deem and Ramdas Pophale) SiO2 
 PCOD9041630
Probable space group: P -1
;
_chemical_formula_sum "Si O2"
_cell_formula_units_Z 14
_cell_length_a 11.503802
_cell_length_b 7.879908
_cell_length_c 24.166777
_cell_angle_alpha 145.716429
_cell_angle_beta 30.191491
_cell_angle_gamma 138.437484
_cell_volume 616.063903
_symmetry_space_group_name_H-M "P -1"
_symmetry_group_IT_number 2
_symmetry_cell_setting 'triclinic'
loop_
_space_group_symop_operation_xyz
x,y,z
-x,-y,-z
loop_
_atom_site_type_symbol
_atom_site_label
_atom_site_fract_x
_atom_site_fract_y
_atom_site_fract_z
Si Si1 0.500861 0.226606 0.468858
Si Si2 0.588819 0.848987 0.139270
Si Si3 0.065157 0.130359 0.814797
Si Si4 0.706796 0.610355 0.585869
Si Si5 0.235244 0.651233 0.388246
Si Si6 0.922851 0.188621 0.013012
Si Si7 0.369070 0.294504 0.139674
O O1 0.500000 0.500000 0.500000
O O2 0.553759 0.356698 0.543530
O O3 0.698826 0.014765 0.315845
O O4 0.274058 0.994659 0.487963
O O5 0.450322 0.516002 0.114677
O O6 0.411854 0.085791 0.292110
O O7 0.708087 0.958469 0.061549
O O8 0.824717 0.878955 0.087255
O O9 0.103310 0.466966 0.864116
O O10 0.889789 0.871983 0.788842
O O11 0.940654 0.173400 0.936061
O O12 0.724545 0.540279 0.624851
O O13 0.976542 0.627935 0.462820
O O14 0.404303 0.528617 0.239780
O O15 0.500000 0.000000 0.000000
#
# Coordination Sequence:
#
# PCOD9041630 Si02
#       7
#     2   2   2   2   2   2   2
#     4  12  25  43  74 103 135 185 230 287 350 418
#     4  11  24  43  69  98 141 172 240 288 349 408
#     4  11  23  43  70  96 140 180 234 280 362 407
#     4  11  25  47  69 103 137 186 230 294 342 417
#     4  11  26  47  70  99 144 181 236 284 350 418
#     4  10  23  44  66 100 132 187 227 295 341 421
#     4  12  25  44  69 102 137 185 229 291 349 419
#
# _framework density 22.724917000000001
#
# number of rings (size 3 to 8) (size 9 to 14) (size 15 to 20)
#    0.000    0.857    2.857    3.857    6.000    1.714 
#    0.000    0.000    0.000    0.000    0.000    0.000 
#    0.000    0.000    0.000    0.000    0.000    0.000 
#
# Total GULP energy -78154.773829 kJ/mol
# GULP energy per Si atom -5582.483845 kJ/mol
# Density = 2.267319 g / cm^3
# Si number density = 22.724917 Si / 1000 Ang^3
#
#
#
# Elastic Constant Matrix: (Units=GPa)
#
#
# Indices 1 2 3 4 5 6 
#
# 1 54.0421 7.7356 42.5276 15.0983 -10.2840 7.0661
# 2 7.7356 86.0678 45.8866 30.9241 -8.6393 -15.2537
# 3 42.5276 45.8866 136.2560 22.5373 -16.7700 -7.2719
# 4 15.0983 30.9241 22.5373 35.0952 -6.7296 -2.4980
# 5 -10.2840 -8.6393 -16.7700 -6.7296 29.9443 5.3886
# 6 7.0661 -15.2537 -7.2719 -2.4980 5.3886 35.9843
#
#
#
# Elastic Compliance Matrix: (Units=1/GPa)
#
#
# Indices 1 2 3 4 5 6 
#
# 1 0.029963 0.005534 -0.009020 -0.011411 0.005527 -0.006981
# 2 0.005534 0.021331 -0.005793 -0.017063 -0.000033 0.005605
# 3 -0.009020 -0.005793 0.012174 0.001691 0.002146 0.001572
# 4 -0.011411 -0.017063 0.001691 0.047834 0.003180 -0.001806
# 5 0.005527 -0.000033 0.002146 0.003180 0.038313 -0.006182
# 6 -0.006981 0.005605 0.001572 -0.001806 -0.006182 0.032655
#
#
# Mechanical properties :
#
#
# Convention : Reuss Voigt Hill
#
# Bulk Modulus (GPa) = 22.26797 52.07395 37.17096
# Shear Modulus (GPa) = 23.16980 32.21916 27.69448
#
# Velocity S-wave (km/s) = 3.19655 3.76944 3.49475
# Velocity P-wave (km/s) = 4.84191 6.47376 5.71636
#
# Compressibility (1/GPa) = 0.04490755
#
# Stress axis : x y z
#
# Youngs Moduli (GPa) = 33.37468 46.88005 82.14379
#
# Poissons Ratio (x) = -0.25942 0.74097
# Poissons Ratio (y) = -0.18468 0.47588
# Poissons Ratio (z) = 0.30105 0.27159
#
# Static dielectric constant tensor:
#      x y z
#    x 1.989020 0.049060 0.004490 
#    y 0.049060 2.015760 -0.044840 
#    z 0.004490 -0.044840 1.819100 
# 
# From -- ./inp_files/618180.got.cif
#   From: 2010.05.17/outbox.cif.g08.bks.cpg/sg2_310_cif.got.tgz:618180.got - 2010.06.03 11:33:40.
