data_PCOD9041194
_publ_section_title
;
Structure prediction by ZEFSAII (Michael W. Deem and Ramdas Pophale) SiO2 
 PCOD9041194
Probable space group: P -1
;
_chemical_formula_sum "Si O2"
_cell_formula_units_Z 16
_cell_length_a 13.439891
_cell_length_b 7.742966
_cell_length_c 8.783646
_cell_angle_alpha 116.798081
_cell_angle_beta 75.594514
_cell_angle_gamma 127.141082
_cell_volume 650.040453
_symmetry_space_group_name_H-M "P -1"
_symmetry_group_IT_number 2
_symmetry_cell_setting 'triclinic'
loop_
_space_group_symop_operation_xyz
x,y,z
-x,-y,-z
loop_
_atom_site_type_symbol
_atom_site_label
_atom_site_fract_x
_atom_site_fract_y
_atom_site_fract_z
Si Si1 0.546060 0.903840 0.311293
Si Si2 0.336840 0.533467 0.645366
Si Si3 0.837301 0.286811 0.812973
Si Si4 0.718490 0.962462 0.023617
Si Si5 0.613354 0.837392 0.556823
Si Si6 0.539920 0.255106 0.026981
Si Si7 0.873717 0.781425 0.033165
Si Si8 0.064250 0.247369 0.657999
O O1 0.664500 0.051544 0.209816
O O2 0.595616 0.796244 0.366007
O O3 0.442726 0.735847 0.158609
O O4 0.500000 0.000000 0.500000
O O5 0.478165 0.757700 0.641431
O O6 0.347090 0.335221 0.482804
O O7 0.348757 0.560189 0.835475
O O8 0.198531 0.450893 0.618738
O O9 0.725151 0.094440 0.669617
O O10 0.851015 0.532213 0.898071
O O11 0.799042 0.163732 0.947515
O O12 0.966306 0.317706 0.734518
O O13 0.587708 0.760598 0.912985
O O14 0.777025 0.838493 0.030220
O O15 0.500000 0.000000 0.000000
O O16 0.901869 0.801480 0.209434
O O17 0.000000 0.000000 0.000000
O O18 0.000000 0.000000 0.500000
#
# Coordination Sequence:
#
# PCOD9041194 Si02
#       8
#     2   2   2   2   2   2   2   2
#     4  10  23  43  71 116 161 203 270 339 407 485
#     4  11  24  43  78 112 165 211 270 331 416 493
#     4  12  26  52  89 117 164 226 276 336 425 492
#     4  10  25  49  81 114 166 212 273 341 411 489
#     4  11  23  47  75 122 160 210 272 342 411 491
#     4  10  23  43  73 113 158 209 264 323 417 489
#     4  12  28  52  81 122 161 220 288 334 404 510
#     4  12  27  49  81 120 165 221 278 346 416 485
#
# _framework density 24.613852000000001
#
# number of rings (size 3 to 8) (size 9 to 14) (size 15 to 20)
#    0.750    0.250    3.750    1.875    1.750    0.500 
#    2.250    4.375    0.000    0.000    0.000    0.000 
#    0.000    0.000    0.000    0.000    0.000    0.000 
#
# Total GULP energy -89244.759489 kJ/mol
# GULP energy per Si atom -5577.797468 kJ/mol
# Density = 2.455783 g / cm^3
# Si number density = 24.613852 Si / 1000 Ang^3
#
#
#
# Elastic Constant Matrix: (Units=GPa)
#
#
# Indices 1 2 3 4 5 6 
#
# 1 198.6846 78.4657 56.6423 1.2320 -24.4158 21.7868
# 2 78.4657 170.3839 60.3266 25.4477 -5.6935 15.2906
# 3 56.6423 60.3266 117.2302 11.7979 -9.2658 9.7753
# 4 1.2320 25.4477 11.7979 38.7100 6.2513 -1.2271
# 5 -24.4158 -5.6935 -9.2658 6.2513 48.9888 -3.4724
# 6 21.7868 15.2906 9.7753 -1.2271 -3.4724 49.0956
#
#
#
# Elastic Compliance Matrix: (Units=1/GPa)
#
#
# Indices 1 2 3 4 5 6 
#
# 1 0.007093 -0.002586 -0.001910 0.001590 0.002547 -0.001742
# 2 -0.002586 0.008862 -0.002735 -0.004911 -0.000235 -0.001207
# 3 -0.001910 -0.002735 0.011156 -0.001723 0.001025 -0.000493
# 4 0.001590 -0.004911 -0.001723 0.030208 -0.003842 0.001650
# 5 0.002547 -0.000235 0.001025 -0.003842 0.022355 0.000224
# 6 -0.001742 -0.001207 -0.000493 0.001650 0.000224 0.021673
#
#
# Mechanical properties :
#
#
# Convention : Reuss Voigt Hill
#
# Bulk Modulus (GPa) = 79.05330 97.46308 88.25819
# Shear Modulus (GPa) = 41.65796 46.74983 44.20390
#
# Velocity S-wave (km/s) = 4.11842 4.36286 4.24240
# Velocity P-wave (km/s) = 7.40285 8.06611 7.74159
#
# Compressibility (1/GPa) = 0.01264969
#
# Stress axis : x y z
#
# Youngs Moduli (GPa) = 140.98148 112.83715 89.64093
#
# Poissons Ratio (x) = 0.29185 0.17118
# Poissons Ratio (y) = 0.36464 0.24513
# Poissons Ratio (z) = 0.26923 0.30856
#
# Static dielectric constant tensor:
#      x y z
#    x 2.213590 -0.108700 0.067330 
#    y -0.108700 2.042270 -0.102700 
#    z 0.067330 -0.102700 2.053080 
# 
# From -- ./inp_files/300921.got.cif
#   From: 2010.05.17/outbox.cif.g08.bks.cpg/sg2_151_cif.got.tgz:300921.got - 2010.06.03 11:33:40.
