data_PCOD9041979
_publ_section_title
;
Structure prediction by ZEFSAII (Michael W. Deem and Ramdas Pophale) SiO2 
 PCOD9041979
Probable space group: P -1
;
_chemical_formula_sum "Si O2"
_cell_formula_units_Z 14
_cell_length_a 5.498701
_cell_length_b 21.058649
_cell_length_c 8.467852
_cell_angle_alpha 43.621952
_cell_angle_beta 101.200602
_cell_angle_gamma 82.420244
_cell_volume 607.403974
_symmetry_space_group_name_H-M "P -1"
_symmetry_group_IT_number 2
_symmetry_cell_setting 'triclinic'
loop_
_space_group_symop_operation_xyz
x,y,z
-x,-y,-z
loop_
_atom_site_type_symbol
_atom_site_label
_atom_site_fract_x
_atom_site_fract_y
_atom_site_fract_z
Si Si1 0.583957 0.269342 0.189831
Si Si2 0.443507 0.977521 0.850916
Si Si3 0.000599 0.562885 0.229117
Si Si4 0.178122 0.644132 0.363791
Si Si5 0.612524 0.464840 0.907225
Si Si6 0.533955 0.760051 0.132826
Si Si7 0.864726 0.055384 0.718995
O O1 0.685262 0.173935 0.489004
O O2 0.722558 0.344171 0.127075
O O3 0.583246 0.228893 0.082506
O O4 0.275762 0.350207 0.015324
O O5 0.657738 0.006538 0.728089
O O6 0.123737 0.040454 0.670238
O O7 0.500000 0.000000 0.000000
O O8 0.492110 0.863947 0.023650
O O9 0.179376 0.620429 0.220833
O O10 0.160343 0.505397 0.199567
O O11 0.000000 0.500000 0.500000
O O12 0.342569 0.534590 0.654026
O O13 0.357949 0.708513 0.293686
O O14 0.861934 0.697031 0.278051
O O15 0.500000 0.500000 0.000000
O O16 0.000000 0.000000 0.000000
#
# Coordination Sequence:
#
# PCOD9041979 Si02
#       7
#     2   2   2   2   2   2   2
#     4  11  25  42  70 102 139 189 246 293 360 441
#     4  10  23  44  68  96 137 180 238 300 370 423
#     4  11  22  46  73  99 149 197 243 298 356 442
#     4  11  23  44  71 103 146 191 242 285 367 441
#     4  12  26  42  67 109 152 191 241 306 361 440
#     4  11  24  42  74 102 134 192 244 299 358 443
#     4  10  24  45  69  97 139 186 231 305 368 430
#
# _framework density 23.048912000000001
#
# number of rings (size 3 to 8) (size 9 to 14) (size 15 to 20)
#    0.000    1.143    2.857    3.000    2.000    6.286 
#    2.571    0.000    0.000    0.000    0.000    0.000 
#    0.000    0.000    0.000    0.000    0.000    0.000 
#
# Total GULP energy -77953.533307 kJ/mol
# GULP energy per Si atom -5568.109522 kJ/mol
# Density = 2.299645 g / cm^3
# Si number density = 23.048912 Si / 1000 Ang^3
#
#
#
# Elastic Constant Matrix: (Units=GPa)
#
#
# Indices 1 2 3 4 5 6 
#
# 1 136.5799 23.3868 46.4334 -2.8503 -6.5502 3.1016
# 2 23.3868 90.6000 31.5817 -23.7832 -18.2295 -5.9627
# 3 46.4334 31.5817 148.4816 -25.9434 2.6111 0.6519
# 4 -2.8503 -23.7832 -25.9434 27.6199 6.6527 -13.0906
# 5 -6.5502 -18.2295 2.6111 6.6527 30.0496 -16.3912
# 6 3.1016 -5.9627 0.6519 -13.0906 -16.3912 29.0859
#
#
#
# Elastic Compliance Matrix: (Units=1/GPa)
#
#
# Indices 1 2 3 4 5 6 
#
# 1 0.009092 -0.004423 -0.003375 -0.008841 -0.002315 -0.007085
# 2 -0.004423 0.032657 0.000927 0.041717 0.034176 0.045181
# 3 -0.003375 0.000927 0.009747 0.012383 -0.000781 0.005464
# 4 -0.008841 0.041717 0.012383 0.112309 0.043372 0.084206
# 5 -0.002315 0.034176 -0.000781 0.043372 0.084588 0.074460
# 6 -0.007085 0.045181 0.005464 0.084206 0.074460 0.124136
#
#
# Mechanical properties :
#
#
# Convention : Reuss Voigt Hill
#
# Bulk Modulus (GPa) = 26.48889 64.27391 45.38140
# Shear Modulus (GPa) = 12.53582 35.63505 24.08543
#
# Velocity S-wave (km/s) = 2.33465 3.93627 3.23611
# Velocity P-wave (km/s) = 4.33415 6.97175 5.80475
#
# Compressibility (1/GPa) = 0.03775167
#
# Stress axis : x y z
#
# Youngs Moduli (GPa) = 109.98655 30.62116 102.60003
#
# Poissons Ratio (x) = 0.13545 0.34632
# Poissons Ratio (y) = 0.48651 -0.09508
# Poissons Ratio (z) = 0.37125 -0.02838
#
# Static dielectric constant tensor:
#      x y z
#    x 2.248920 0.107330 -0.079270 
#    y 0.107330 1.972930 0.001760 
#    z -0.079270 0.001760 1.855800 
# 
# From -- ./inp_files/141043.got.cif
#   From: 2010.05.17/outbox.cif.g08.bks.cpg/sg2_71_cif.got.tgz:141043.got - 2010.06.03 11:33:40.
