data_PCOD9041498
_publ_section_title
;
Structure prediction by ZEFSAII (Michael W. Deem and Ramdas Pophale) SiO2 
 PCOD9041498
Probable space group: P -1
;
_chemical_formula_sum "Si O2"
_cell_formula_units_Z 16
_cell_length_a 25.808643
_cell_length_b 8.781595
_cell_length_c 7.875162
_cell_angle_alpha 123.231437
_cell_angle_beta 56.952217
_cell_angle_gamma 145.119590
_cell_volume 836.480068
_symmetry_space_group_name_H-M "P -1"
_symmetry_group_IT_number 2
_symmetry_cell_setting 'triclinic'
loop_
_space_group_symop_operation_xyz
x,y,z
-x,-y,-z
loop_
_atom_site_type_symbol
_atom_site_label
_atom_site_fract_x
_atom_site_fract_y
_atom_site_fract_z
Si Si1 0.529064 0.416089 0.035155
Si Si2 0.584698 0.817675 0.592085
Si Si3 0.283630 0.024968 0.791985
Si Si4 0.912013 0.303557 0.163168
Si Si5 0.904412 0.874389 0.025558
Si Si6 0.228957 0.512829 0.663510
Si Si7 0.580251 0.173649 0.598921
Si Si8 0.903293 0.699521 0.547265
O O1 0.439816 0.195368 0.179649
O O2 0.623892 0.686124 0.121593
O O3 0.500000 0.500000 0.000000
O O4 0.556902 0.286713 0.830186
O O5 0.500000 0.500000 0.500000
O O6 0.683024 0.948000 0.444517
O O7 0.578577 0.983441 0.590377
O O8 0.186837 0.916467 0.892547
O O9 0.264623 0.798153 0.789439
O O10 0.910317 0.493099 0.386232
O O11 0.916217 0.118647 0.136543
O O12 0.000000 0.500000 0.000000
O O13 0.828942 0.668557 0.179641
O O14 0.883382 0.732826 0.793075
O O15 0.000000 0.000000 0.000000
O O16 0.319282 0.588824 0.520186
O O17 0.169460 0.390736 0.520640
O O18 0.500000 0.000000 0.500000
O O19 0.000000 0.000000 0.500000
#
# Coordination Sequence:
#
# PCOD9041498 Si02
#       8
#     2   2   2   2   2   2   2   2
#     4  11  22  38  64  93 124 166 210 263 321 386
#     4   9  19  39  64  85 121 161 207 257 319 375
#     4   9  21  43  61  89 128 163 210 263 318 384
#     4  11  23  41  69  94 131 173 212 268 324 383
#     4  12  24  43  69  98 131 173 219 268 326 390
#     4  10  23  44  62  95 130 166 216 271 315 389
#     4  11  23  41  61  91 130 165 211 268 318 381
#     4  11  22  45  69  92 135 172 213 270 331 382
#
# _framework density 19.127773000000001
#
# number of rings (size 3 to 8) (size 9 to 14) (size 15 to 20)
#    0.000    1.500    2.500    3.375    1.750    3.500 
#   15.750    0.000    0.000    0.000    0.000    0.000 
#    0.000    0.000    0.000    0.000    0.000    0.000 
#
# Total GULP energy -89205.336434 kJ/mol
# GULP energy per Si atom -5575.333527 kJ/mol
# Density = 1.908424 g / cm^3
# Si number density = 19.127773 Si / 1000 Ang^3
#
#
#
# Elastic Constant Matrix: (Units=GPa)
#
#
# Indices 1 2 3 4 5 6 
#
# 1 91.1826 44.1625 55.5714 -13.4072 -3.8304 3.9643
# 2 44.1625 126.1222 68.5673 -26.9175 2.1017 -6.2847
# 3 55.5714 68.5673 124.7148 -21.3296 6.0804 -4.0135
# 4 -13.4072 -26.9175 -21.3296 50.3700 -1.0224 -0.0533
# 5 -3.8304 2.1017 6.0804 -1.0224 32.3377 -1.2991
# 6 3.9643 -6.2847 -4.0135 -0.0533 -1.2991 40.0624
#
#
#
# Elastic Compliance Matrix: (Units=1/GPa)
#
#
# Indices 1 2 3 4 5 6 
#
# 1 0.016110 -0.002464 -0.005969 0.000504 0.003107 -0.002477
# 2 -0.002464 0.012431 -0.005023 0.003863 0.000035 0.001697
# 3 -0.005969 -0.005023 0.013881 0.001547 -0.002897 0.001101
# 4 0.000504 0.003863 0.001547 0.022713 0.000266 0.000750
# 5 0.003107 0.000035 -0.002897 0.000266 0.031860 0.000441
# 6 -0.002477 0.001697 0.001101 0.000750 0.000441 0.025598
#
#
# Mechanical properties :
#
#
# Convention : Reuss Voigt Hill
#
# Bulk Modulus (GPa) = 64.47173 75.40246 69.93710
# Shear Modulus (GPa) = 32.32586 36.13525 34.23055
#
# Velocity S-wave (km/s) = 4.11542 4.35115 4.23492
# Velocity P-wave (km/s) = 7.50741 8.04670 7.78173
#
# Compressibility (1/GPa) = 0.01551067
#
# Stress axis : x y z
#
# Youngs Moduli (GPa) = 62.07139 80.44667 72.04100
#
# Poissons Ratio (x) = 0.19819 0.43002
# Poissons Ratio (y) = 0.15292 0.36186
# Poissons Ratio (z) = 0.37051 0.40408
#
# Static dielectric constant tensor:
#      x y z
#    x 1.662690 0.021270 0.036310 
#    y 0.021270 1.671840 0.010590 
#    z 0.036310 0.010590 1.730680 
# 
# From -- ./inp_files/356533.got.cif
#   From: 2010.05.17/outbox.cif.g08.bks.cpg/sg2_179_cif.got.tgz:356533.got - 2010.06.03 11:33:40.
