data_PCOD9041496
_publ_section_title
;
Structure prediction by ZEFSAII (Michael W. Deem and Ramdas Pophale) SiO2 
 PCOD9041496
Probable space group: P -1
;
_chemical_formula_sum "Si O2"
_cell_formula_units_Z 15
_cell_length_a 8.257027
_cell_length_b 14.222767
_cell_length_c 14.644778
_cell_angle_alpha 29.397445
_cell_angle_beta 92.271519
_cell_angle_gamma 73.903213
_cell_volume 651.174866
_symmetry_space_group_name_H-M "P -1"
_symmetry_group_IT_number 2
_symmetry_cell_setting 'triclinic'
loop_
_space_group_symop_operation_xyz
x,y,z
-x,-y,-z
loop_
_atom_site_type_symbol
_atom_site_label
_atom_site_fract_x
_atom_site_fract_y
_atom_site_fract_z
Si Si1 0.000000 0.500000 0.000000
Si Si2 0.888051 0.880114 0.013673
Si Si3 0.337523 0.594642 0.178998
Si Si4 0.884344 0.908740 0.525182
Si Si5 0.557235 0.637305 0.820538
Si Si6 0.183858 0.096349 0.680621
Si Si7 0.131393 0.652151 0.385638
Si Si8 0.464925 0.219421 0.640648
O O1 0.009160 0.366576 0.208593
O O2 0.227328 0.428849 0.089029
O O3 0.831537 0.148433 0.798076
O O4 0.683249 0.959194 0.892014
O O5 0.098326 0.713898 0.098427
O O6 0.951729 0.744562 0.226909
O O7 0.416118 0.451394 0.207297
O O8 0.480503 0.400787 0.426592
O O9 0.313512 0.839555 0.957652
O O10 0.870571 0.940555 0.389294
O O11 0.647854 0.078462 0.414713
O O12 0.000000 0.000000 0.500000
O O13 0.500000 0.500000 0.000000
O O14 0.325529 0.178191 0.613280
O O15 0.970676 0.295889 0.562451
O O16 0.332871 0.380735 0.590301
#
# Coordination Sequence:
#
# PCOD9041496 Si02
#       8
#     1   2   2   2   2   2   2   2
#     4  12  26  46  74  98 140 188 230 304 358 420
#     4   9  20  40  65  93 132 181 220 275 353 407
#     4  10  23  44  62  93 138 172 222 289 337 410
#     4  12  26  48  73 103 145 191 242 296 363 427
#     4  12  24  47  71 101 141 187 241 300 358 422
#     4  11  23  41  67  99 135 176 227 288 343 412
#     4   9  20  40  62  95 138 171 222 283 336 417
#     4  11  22  40  69  98 131 182 226 274 350 420
#
# _framework density 23.035285999999999
#
# number of rings (size 3 to 8) (size 9 to 14) (size 15 to 20)
#    0.000    1.333    2.667    2.800    0.000    4.800 
#    0.000    8.000    0.000    0.000    0.000    0.000 
#    0.000    0.000    0.000    0.000    0.000    0.000 
#
# Total GULP energy -83631.756755 kJ/mol
# GULP energy per Si atom -5575.450450 kJ/mol
# Density = 2.298286 g / cm^3
# Si number density = 23.035286 Si / 1000 Ang^3
#
#
#
# Elastic Constant Matrix: (Units=GPa)
#
#
# Indices 1 2 3 4 5 6 
#
# 1 91.0720 15.8348 2.1429 12.0946 -2.0646 8.2665
# 2 15.8348 132.8015 14.2894 -0.4514 4.6632 -16.8307
# 3 2.1429 14.2894 54.3481 5.6794 -2.4558 -6.1300
# 4 12.0946 -0.4514 5.6794 18.8791 -4.1363 -1.3565
# 5 -2.0646 4.6632 -2.4558 -4.1363 28.8332 2.1536
# 6 8.2665 -16.8307 -6.1300 -1.3565 2.1536 23.1487
#
#
#
# Elastic Compliance Matrix: (Units=1/GPa)
#
#
# Indices 1 2 3 4 5 6 
#
# 1 0.013281 -0.002573 0.000323 -0.009040 0.000629 -0.007116
# 2 -0.002573 0.009040 -0.001798 0.002497 -0.001990 0.007347
# 3 0.000323 -0.001798 0.019892 -0.005786 0.000923 0.003420
# 4 -0.009040 0.002497 -0.005786 0.062551 0.006941 0.006531
# 5 0.000629 -0.001990 0.000923 0.006941 0.036453 -0.004412
# 6 -0.007116 0.007347 0.003420 0.006531 -0.004412 0.052781
#
#
# Mechanical properties :
#
#
# Convention : Reuss Voigt Hill
#
# Bulk Modulus (GPa) = 29.30992 38.08397 33.69694
# Shear Modulus (GPa) = 23.42315 30.56916 26.99616
#
# Velocity S-wave (km/s) = 3.19225 3.64683 3.42709
# Velocity P-wave (km/s) = 5.13214 5.85673 5.50636
#
# Compressibility (1/GPa) = 0.03411814
#
# Stress axis : x y z
#
# Youngs Moduli (GPa) = 75.29623 110.62311 50.27168
#
# Poissons Ratio (x) = 0.28464 -0.01626
# Poissons Ratio (y) = 0.19374 0.09036
# Poissons Ratio (z) = -0.02435 0.19885
#
# Static dielectric constant tensor:
#      x y z
#    x 1.883270 0.028510 -0.034230 
#    y 0.028510 1.829430 -0.018790 
#    z -0.034230 -0.018790 1.912700 
# 
# From -- ./inp_files/505012.got.cif
#   From: 2010.05.17/outbox.cif.g08.bks.cpg/sg2_253_cif.got.tgz:505012.got - 2010.06.03 11:33:40.
