data_PCOD9041109
_publ_section_title
;
Structure prediction by ZEFSAII (Michael W. Deem and Ramdas Pophale) SiO2 
 PCOD9041109
Probable space group: P -1
;
_chemical_formula_sum "Si O2"
_cell_formula_units_Z 16
_cell_length_a 9.095125
_cell_length_b 5.073723
_cell_length_c 18.983863
_cell_angle_alpha 80.841552
_cell_angle_beta 134.554580
_cell_angle_gamma 93.794879
_cell_volume 614.997760
_symmetry_space_group_name_H-M "P -1"
_symmetry_group_IT_number 2
_symmetry_cell_setting 'triclinic'
loop_
_space_group_symop_operation_xyz
x,y,z
-x,-y,-z
loop_
_atom_site_type_symbol
_atom_site_label
_atom_site_fract_x
_atom_site_fract_y
_atom_site_fract_z
Si Si1 0.563882 0.186010 0.912592
Si Si2 0.430711 0.311545 0.660239
Si Si3 0.090317 0.759888 0.200610
Si Si4 0.377936 0.238600 0.484322
Si Si5 0.802953 0.166253 0.388663
Si Si6 0.775797 0.124907 0.134083
Si Si7 0.957620 0.433921 0.294807
Si Si8 0.182418 0.348839 0.021011
O O1 0.329686 0.104249 0.845452
O O2 0.627262 0.475781 0.899280
O O3 0.630515 0.194766 0.016930
O O4 0.712092 0.957096 0.931950
O O5 0.679430 0.284226 0.748941
O O6 0.371047 0.220368 0.566109
O O7 0.342297 0.620348 0.623769
O O8 0.326798 0.071907 0.678157
O O9 0.995289 0.058399 0.171969
O O10 0.071899 0.653393 0.278989
O O11 0.926445 0.651768 0.093594
O O12 0.500000 0.500000 0.500000
O O13 0.152827 0.222664 0.376740
O O14 0.500000 0.000000 0.500000
O O15 0.871172 0.390075 0.345325
O O16 0.000000 0.000000 0.500000
O O17 0.792837 0.349147 0.187125
O O18 0.000000 0.500000 0.000000
#
# Coordination Sequence:
#
# PCOD9041109 Si02
#       8
#     2   2   2   2   2   2   2   2
#     4  10  23  43  71 100 137 185 227 282 351 416
#     4  12  27  48  71 105 145 188 237 293 363 419
#     4  11  26  44  74 104 143 180 243 296 345 421
#     4  12  25  42  73 103 133 183 237 288 348 418
#     4  12  29  47  71 100 147 191 235 292 360 424
#     4  10  24  42  71 102 137 175 239 293 342 410
#     4  12  26  42  73  99 140 180 240 288 350 409
#     4  11  24  44  71 102 144 184 228 284 354 420
#
# _framework density 26.016355999999998
#
# number of rings (size 3 to 8) (size 9 to 14) (size 15 to 20)
#    0.000    0.750    3.750    2.250    5.250    3.500 
#    0.000    0.000    0.000    0.000    0.000    0.000 
#    0.000    0.000    0.000    0.000    0.000    0.000 
#
# Total GULP energy -89134.898344 kJ/mol
# GULP energy per Si atom -5570.931147 kJ/mol
# Density = 2.595714 g / cm^3
# Si number density = 26.016356 Si / 1000 Ang^3
#
#
#
# Elastic Constant Matrix: (Units=GPa)
#
#
# Indices 1 2 3 4 5 6 
#
# 1 91.2078 30.1249 34.5988 -7.9388 17.7382 -13.8940
# 2 30.1249 159.9551 15.5599 0.6734 15.7698 -14.5485
# 3 34.5988 15.5599 51.8016 -13.2318 4.3707 -17.8203
# 4 -7.9388 0.6734 -13.2318 19.5097 1.7345 8.2809
# 5 17.7382 15.7698 4.3707 1.7345 56.7510 -5.1249
# 6 -13.8940 -14.5485 -17.8203 8.2809 -5.1249 44.6823
#
#
#
# Elastic Compliance Matrix: (Units=1/GPa)
#
#
# Indices 1 2 3 4 5 6 
#
# 1 0.015994 -0.001685 -0.009777 0.000252 -0.003781 0.000045
# 2 -0.001685 0.006919 -0.000820 -0.002086 -0.001119 0.001660
# 3 -0.009777 -0.000820 0.032159 0.014855 0.000974 0.006877
# 4 0.000252 -0.002086 0.014855 0.064792 -0.003261 -0.007058
# 5 -0.003781 -0.001119 0.000974 -0.003261 0.019289 0.001665
# 6 0.000045 0.001660 0.006877 -0.007058 0.001665 0.027176
#
#
# Mechanical properties :
#
#
# Convention : Reuss Voigt Hill
#
# Bulk Modulus (GPa) = 32.77961 51.50354 42.14158
# Shear Modulus (GPa) = 24.86785 39.03399 31.95092
#
# Velocity S-wave (km/s) = 3.09504 3.87765 3.50824
# Velocity P-wave (km/s) = 5.03978 6.31568 5.71346
#
# Compressibility (1/GPa) = 0.03050677
#
# Stress axis : x y z
#
# Youngs Moduli (GPa) = 62.52470 144.52955 31.09533
#
# Poissons Ratio (x) = 0.24357 0.30403
# Poissons Ratio (y) = 0.10537 0.02550
# Poissons Ratio (z) = 0.61132 0.11852
#
# Static dielectric constant tensor:
#      x y z
#    x 2.358020 0.202630 -0.120840 
#    y 0.202630 2.142410 -0.101030 
#    z -0.120840 -0.101030 2.104530 
# 
# From -- ./inp_files/585700.got.cif
#   From: 2010.05.17/outbox.cif.g08.bks.cpg/sg2_293_cif.got.tgz:585700.got - 2010.06.03 11:33:40.
