data_PCOD9041836
_publ_section_title
;
Structure prediction by ZEFSAII (Michael W. Deem and Ramdas Pophale) SiO2 
 PCOD9041836
Probable space group: P -1
;
_chemical_formula_sum "Si O2"
_cell_formula_units_Z 10
_cell_length_a 19.405506
_cell_length_b 16.333147
_cell_length_c 6.846216
_cell_angle_alpha 135.882158
_cell_angle_beta 135.064046
_cell_angle_gamma 16.995568
_cell_volume 439.100126
_symmetry_space_group_name_H-M "P -1"
_symmetry_group_IT_number 2
_symmetry_cell_setting 'triclinic'
loop_
_space_group_symop_operation_xyz
x,y,z
-x,-y,-z
loop_
_atom_site_type_symbol
_atom_site_label
_atom_site_fract_x
_atom_site_fract_y
_atom_site_fract_z
Si Si1 0.860898 0.543548 0.394150
Si Si2 0.192156 0.716521 0.776918
Si Si3 0.418985 0.024356 0.077188
Si Si4 0.516107 0.496867 0.298454
Si Si5 0.133344 0.118798 0.514742
O O1 0.717907 0.744452 0.644034
O O2 0.000000 0.500000 0.500000
O O3 0.048943 0.243588 0.340762
O O4 0.660559 0.717063 0.142152
O O5 0.238197 0.730635 0.689937
O O6 0.094341 0.693241 0.520630
O O7 0.423715 0.482551 0.975395
O O8 0.000000 0.000000 0.000000
O O9 0.236727 0.121702 0.824328
O O10 0.500000 0.000000 0.000000
O O11 0.500000 0.500000 0.500000
O O12 0.341173 0.795704 0.399907
#
# Coordination Sequence:
#
# PCOD9041836 Si02
#       5
#     2   2   2   2   2
#     4  11  25  44  65  97 137 171 220 274 319 388
#     4   9  22  44  63  95 133 163 219 276 319 389
#     4  11  25  44  65  98 135 171 224 269 318 398
#     4  10  23  44  67  97 130 169 223 272 323 396
#     4  11  24  41  70  97 131 180 213 268 337 381
#
# _framework density 22.773849999999999
#
# number of rings (size 3 to 8) (size 9 to 14) (size 15 to 20)
#    0.000    1.600    2.000    0.600    5.600    3.200 
#    7.200    0.000    0.000    0.000    0.000    0.000 
#    0.000    0.000    0.000    0.000    0.000    0.000 
#
# Total GULP energy -55853.484775 kJ/mol
# GULP energy per Si atom -5585.348478 kJ/mol
# Density = 2.272202 g / cm^3
# Si number density = 22.773850 Si / 1000 Ang^3
#
#
#
# Elastic Constant Matrix: (Units=GPa)
#
#
# Indices 1 2 3 4 5 6 
#
# 1 196.6970 55.4330 80.5736 -20.6345 -17.3038 -27.0865
# 2 55.4330 98.0634 28.9250 -17.1337 -12.9466 24.2781
# 3 80.5736 28.9250 110.3152 -34.2599 -3.6891 -8.4187
# 4 -20.6345 -17.1337 -34.2599 39.8137 -11.8778 -1.0089
# 5 -17.3038 -12.9466 -3.6891 -11.8778 53.9335 -9.1888
# 6 -27.0865 24.2781 -8.4187 -1.0089 -9.1888 40.8800
#
#
#
# Elastic Compliance Matrix: (Units=1/GPa)
#
#
# Indices 1 2 3 4 5 6 
#
# 1 0.011075 -0.007109 -0.005537 -0.000856 0.003173 0.011112
# 2 -0.007109 0.018793 0.000562 0.004692 0.000663 -0.015490
# 3 -0.005537 0.000562 0.017027 0.012747 0.002391 0.000356
# 4 -0.000856 0.004692 0.012747 0.041090 0.011252 0.002815
# 5 0.003173 0.000663 0.002391 0.011252 0.023690 0.007804
# 6 0.011112 -0.015490 0.000356 0.002815 0.007804 0.042921
#
#
# Mechanical properties :
#
#
# Convention : Reuss Voigt Hill
#
# Bulk Modulus (GPa) = 43.99962 81.65989 62.82975
# Shear Modulus (GPa) = 26.83292 42.93504 34.88398
#
# Velocity S-wave (km/s) = 3.43627 4.34669 3.91801
# Velocity P-wave (km/s) = 5.92504 7.81833 6.93658
#
# Compressibility (1/GPa) = 0.02272747
#
# Stress axis : x y z
#
# Youngs Moduli (GPa) = 90.29379 53.21265 58.72865
#
# Poissons Ratio (x) = 0.37829 0.32517
# Poissons Ratio (y) = 0.64189 -0.03300
# Poissons Ratio (z) = 0.49993 -0.02990
#
# Static dielectric constant tensor:
#      x y z
#    x 1.887060 -0.064210 0.013440 
#    y -0.064210 1.991800 0.032260 
#    z 0.013440 0.032260 1.873950 
# 
# From -- ./inp_files/1692.got.cif
#   From: 2010.05.17/outbox.cif.g08.bks.cpg/sg2_1_cif.got.tgz:1692.got - 2010.06.03 11:33:40.
