data_PCOD9041261
_publ_section_title
;
Structure prediction by ZEFSAII (Michael W. Deem and Ramdas Pophale) SiO2 
 PCOD9041261
Probable space group: P -1
;
_chemical_formula_sum "Si O2"
_cell_formula_units_Z 14
_cell_length_a 18.575142
_cell_length_b 5.286466
_cell_length_c 9.066772
_cell_angle_alpha 56.240744
_cell_angle_beta 129.958408
_cell_angle_gamma 98.741820
_cell_volume 537.241448
_symmetry_space_group_name_H-M "P -1"
_symmetry_group_IT_number 2
_symmetry_cell_setting 'triclinic'
loop_
_space_group_symop_operation_xyz
x,y,z
-x,-y,-z
loop_
_atom_site_type_symbol
_atom_site_label
_atom_site_fract_x
_atom_site_fract_y
_atom_site_fract_z
Si Si1 0.022147 0.898313 0.837118
Si Si2 0.129466 0.374122 0.908445
Si Si3 0.399643 0.476287 0.304009
Si Si4 0.402969 0.474318 0.957277
Si Si5 0.140757 0.352006 0.373191
Si Si6 0.711012 0.909127 0.561625
Si Si7 0.742900 0.853125 0.115504
O O1 0.077622 0.691594 0.833357
O O2 0.909335 0.913132 0.660809
O O3 0.051320 0.217895 0.787380
O O4 0.060175 0.681023 0.104448
O O5 0.206407 0.376119 0.879510
O O6 0.201479 0.122765 0.197841
O O7 0.500000 0.500000 0.500000
O O8 0.376732 0.168649 0.442504
O O9 0.412064 0.465712 0.147948
O O10 0.298505 0.774144 0.106880
O O11 0.360887 0.188063 0.955857
O O12 0.320590 0.777123 0.679997
O O13 0.500000 0.500000 0.000000
O O14 0.237028 0.354457 0.407320
O O15 0.177169 0.253693 0.616289
#
# Coordination Sequence:
#
# PCOD9041261 Si02
#       7
#     2   2   2   2   2   2   2
#     4  10  24  45  70 110 147 204 244 309 376 436
#     4  11  24  44  74 106 153 197 246 306 374 440
#     4  12  28  48  72 105 150 193 247 310 379 446
#     4  12  28  45  72 110 139 192 252 310 374 449
#     4  10  23  43  72 103 147 199 246 305 369 447
#     4  11  24  48  75 104 151 198 245 305 377 448
#     4  12  25  45  73 107 149 193 253 306 373 449
#
# _framework density 26.059047
#
# number of rings (size 3 to 8) (size 9 to 14) (size 15 to 20)
#    0.000    0.857    2.857    3.429    4.000    9.714 
#    0.000    0.000    0.000    0.000    0.000    0.000 
#    0.000    0.000    0.000    0.000    0.000    0.000 
#
# Total GULP energy -78372.476637 kJ/mol
# GULP energy per Si atom -5598.034045 kJ/mol
# Density = 2.599973 g / cm^3
# Si number density = 26.059047 Si / 1000 Ang^3
#
#
#
# Elastic Constant Matrix: (Units=GPa)
#
#
# Indices 1 2 3 4 5 6 
#
# 1 139.4254 19.2467 27.8284 15.5076 -4.2462 1.6262
# 2 19.2467 85.0292 27.4871 14.6306 0.3453 6.6085
# 3 27.8284 27.4871 160.9694 21.3197 -17.8364 -7.2327
# 4 15.5076 14.6306 21.3197 41.3488 2.2355 5.9258
# 5 -4.2462 0.3453 -17.8364 2.2355 38.1160 3.6898
# 6 1.6262 6.6085 -7.2327 5.9258 3.6898 42.3999
#
#
#
# Elastic Compliance Matrix: (Units=1/GPa)
#
#
# Indices 1 2 3 4 5 6 
#
# 1 0.007743 -0.001131 -0.000795 -0.002126 0.000627 -0.000014
# 2 -0.001131 0.013278 -0.001838 -0.003020 -0.000750 -0.001852
# 3 -0.000795 -0.001838 0.007583 -0.003406 0.003504 0.001782
# 4 -0.002126 -0.003020 -0.003406 0.028511 -0.003113 -0.003743
# 5 0.000627 -0.000750 0.003504 -0.003113 0.028264 -0.001334
# 6 -0.000014 -0.001852 0.001782 -0.003743 -0.001334 0.024817
#
#
# Mechanical properties :
#
#
# Convention : Reuss Voigt Hill
#
# Bulk Modulus (GPa) = 47.45031 59.39424 53.42228
# Shear Modulus (GPa) = 40.08038 45.09706 42.58872
#
# Velocity S-wave (km/s) = 3.92607 4.16453 4.04705
# Velocity P-wave (km/s) = 6.22899 6.77983 6.51024
#
# Compressibility (1/GPa) = 0.02107468
#
# Stress axis : x y z
#
# Youngs Moduli (GPa) = 129.15200 75.31492 131.87218
#
# Poissons Ratio (x) = 0.08521 0.10484
# Poissons Ratio (y) = 0.14612 0.24239
# Poissons Ratio (z) = 0.10268 0.13843
#
# Static dielectric constant tensor:
#      x y z
#    x 2.129750 -0.028460 0.034020 
#    y -0.028460 2.148290 -0.070010 
#    z 0.034020 -0.070010 2.041930 
# 
# From -- ./inp_files/139267.got.cif
#   From: 2010.05.17/outbox.cif.g08.bks.cpg/sg2_70_cif.got.tgz:139267.got - 2010.06.03 11:33:40.
