data_PCOD9041830
_publ_section_title
;
Structure prediction by ZEFSAII (Michael W. Deem and Ramdas Pophale) SiO2 
 PCOD9041830
Probable space group: P -1
;
_chemical_formula_sum "Si O2"
_cell_formula_units_Z 16
_cell_length_a 8.579216
_cell_length_b 15.198089
_cell_length_c 10.909549
_cell_angle_alpha 38.386663
_cell_angle_beta 122.736049
_cell_angle_gamma 107.538494
_cell_volume 722.278262
_symmetry_space_group_name_H-M "P -1"
_symmetry_group_IT_number 2
_symmetry_cell_setting 'triclinic'
loop_
_space_group_symop_operation_xyz
x,y,z
-x,-y,-z
loop_
_atom_site_type_symbol
_atom_site_label
_atom_site_fract_x
_atom_site_fract_y
_atom_site_fract_z
Si Si1 0.250613 0.385168 0.880107
Si Si2 0.332407 0.699563 0.529942
Si Si3 0.291918 0.100523 0.825117
Si Si4 0.994866 0.667314 0.934442
Si Si5 0.591333 0.138820 0.366793
Si Si6 0.267561 0.367073 0.364449
Si Si7 0.926801 0.819657 0.111561
Si Si8 0.018518 0.035000 0.279799
O O1 0.289824 0.543512 0.713847
O O2 0.121122 0.333605 0.778530
O O3 0.148194 0.370609 0.981897
O O4 0.447023 0.261427 0.095756
O O5 0.375227 0.783268 0.577392
O O6 0.521021 0.671636 0.558311
O O7 0.141627 0.789513 0.285468
O O8 0.273253 0.267441 0.594787
O O9 0.217479 0.103117 0.929468
O O10 0.150733 0.038427 0.745145
O O11 0.500000 0.000000 0.000000
O O12 0.882777 0.671987 0.754218
O O13 0.033764 0.821037 0.818973
O O14 0.184412 0.538605 0.160625
O O15 0.500000 0.000000 0.500000
O O16 0.798475 0.076602 0.466092
O O17 0.913345 0.911267 0.881026
#
# Coordination Sequence:
#
# PCOD9041830 Si02
#       8
#     2   2   2   2   2   2   2   2
#     4  11  24  43  72 101 130 174 235 279 330 395
#     4  12  24  42  71  99 132 181 225 277 336 397
#     4  12  27  42  66  98 139 181 218 274 342 411
#     4  10  23  44  67  96 134 174 220 283 336 397
#     4  12  22  40  71 104 131 164 230 287 326 389
#     4  11  25  42  65  97 141 174 221 274 342 403
#     4  11  24  45  70  98 135 174 234 277 331 400
#     4  11  24  44  72  97 130 182 228 280 332 394
#
# _framework density 22.152127
#
# number of rings (size 3 to 8) (size 9 to 14) (size 15 to 20)
#    0.000    0.750    5.000    2.625    1.750    4.500 
#    0.000    3.750    0.000    0.000    0.000    0.000 
#    0.000    0.000    0.000    0.000    0.000    0.000 
#
# Total GULP energy -89602.838280 kJ/mol
# GULP energy per Si atom -5600.177393 kJ/mol
# Density = 2.210171 g / cm^3
# Si number density = 22.152127 Si / 1000 Ang^3
#
#
#
# Elastic Constant Matrix: (Units=GPa)
#
#
# Indices 1 2 3 4 5 6 
#
# 1 78.3452 27.8020 53.6156 -10.7992 11.5486 0.2120
# 2 27.8020 104.9665 22.4320 -13.8163 9.6266 7.3933
# 3 53.6156 22.4320 89.3691 -3.0928 18.2237 -12.5278
# 4 -10.7992 -13.8163 -3.0928 33.0748 2.8039 6.8527
# 5 11.5486 9.6266 18.2237 2.8039 40.0072 -3.1189
# 6 0.2120 7.3933 -12.5278 6.8527 -3.1189 32.2519
#
#
#
# Elastic Compliance Matrix: (Units=1/GPa)
#
#
# Indices 1 2 3 4 5 6 
#
# 1 0.024913 -0.001774 -0.015058 0.007586 -0.001007 -0.007315
# 2 -0.001774 0.011623 -0.001891 0.005259 -0.002159 -0.004714
# 3 -0.015058 -0.001891 0.022837 -0.005287 -0.004443 0.010097
# 4 0.007586 0.005259 -0.005287 0.037216 -0.004564 -0.011658
# 5 -0.001007 -0.002159 -0.004443 -0.004564 0.028343 0.002487
# 6 -0.007315 -0.004714 0.010097 -0.011658 0.002487 0.038774
#
#
# Mechanical properties :
#
#
# Convention : Reuss Voigt Hill
#
# Bulk Modulus (GPa) = 45.61104 53.37555 49.49329
# Shear Modulus (GPa) = 23.98521 32.32219 28.15370
#
# Velocity S-wave (km/s) = 3.29409 3.82396 3.56887
# Velocity P-wave (km/s) = 5.92475 6.60638 6.27482
#
# Compressibility (1/GPa) = 0.02192452
#
# Stress axis : x y z
#
# Youngs Moduli (GPa) = 40.14026 86.03449 43.78939
#
# Poissons Ratio (x) = 0.15266 0.65939
# Poissons Ratio (y) = 0.07122 0.08283
# Poissons Ratio (z) = 0.60444 0.16273
#
# Static dielectric constant tensor:
#      x y z
#    x 1.802080 0.001760 -0.008830 
#    y 0.001760 1.801800 -0.001950 
#    z -0.008830 -0.001950 1.827450 
# 
# From -- ./inp_files/208416.got.cif
#   From: 2010.05.17/outbox.cif.g08.bks.cpg/sg2_105_cif.got.tgz:208416.got - 2010.06.03 11:33:40.
