data_PCOD9041735
_publ_section_title
;
Structure prediction by ZEFSAII (Michael W. Deem and Ramdas Pophale) SiO2 
 PCOD9041735
Probable space group: P -1
;
_chemical_formula_sum "Si O2"
_cell_formula_units_Z 13
_cell_length_a 8.056197
_cell_length_b 14.927538
_cell_length_c 12.262075
_cell_angle_alpha 149.604763
_cell_angle_beta 127.908267
_cell_angle_gamma 48.970307
_cell_volume 558.338025
_symmetry_space_group_name_H-M "P -1"
_symmetry_group_IT_number 2
_symmetry_cell_setting 'triclinic'
loop_
_space_group_symop_operation_xyz
x,y,z
-x,-y,-z
loop_
_atom_site_type_symbol
_atom_site_label
_atom_site_fract_x
_atom_site_fract_y
_atom_site_fract_z
Si Si1 0.652824 0.892674 0.723469
Si Si2 0.836019 0.455043 0.581287
Si Si3 0.244538 0.461145 0.003210
Si Si4 0.187540 0.155724 0.506281
Si Si5 0.235505 0.872744 0.417603
Si Si6 0.000000 0.500000 0.500000
Si Si7 0.456090 0.693269 0.831036
O O1 0.735652 0.908595 0.650966
O O2 0.412713 0.873590 0.583236
O O3 0.817728 0.712021 0.654939
O O4 0.631914 0.085045 0.977322
O O5 0.035455 0.505025 0.657824
O O6 0.642629 0.608430 0.725176
O O7 0.742990 0.392666 0.364252
O O8 0.927051 0.277439 0.510641
O O9 0.273225 0.312130 0.762463
O O10 0.249832 0.661778 0.179466
O O11 0.426017 0.374793 0.078712
O O12 0.000000 0.500000 0.000000
O O13 0.257310 0.981832 0.431941
O O14 0.000000 0.000000 0.500000
#
# Coordination Sequence:
#
# PCOD9041735 Si02
#       7
#     2   2   2   2   2   1   2
#     4  11  25  46  68 102 143 180 234 288 341 419
#     4  10  23  44  66  99 138 179 231 286 339 413
#     4  12  22  42  70 102 141 177 229 291 341 412
#     4  11  24  45  66 104 145 176 227 289 344 413
#     4  12  23  41  72 103 136 183 228 280 351 409
#     4  10  24  44  62  98 138 176 228 284 340 406
#     4  11  22  43  71  93 137 187 226 286 340 405
#
# _framework density 23.283384000000002
#
# number of rings (size 3 to 8) (size 9 to 14) (size 15 to 20)
#    0.000    0.923    4.615    1.385    0.000    4.923 
#   11.077    0.000    0.000    0.000    0.000    0.000 
#    0.000    0.000    0.000    0.000    0.000    0.000 
#
# Total GULP energy -72503.134837 kJ/mol
# GULP energy per Si atom -5577.164218 kJ/mol
# Density = 2.323039 g / cm^3
# Si number density = 23.283384 Si / 1000 Ang^3
#
#
#
# Elastic Constant Matrix: (Units=GPa)
#
#
# Indices 1 2 3 4 5 6 
#
# 1 28.9376 9.6535 23.7470 15.8908 -14.3201 -3.0869
# 2 9.6535 169.7396 60.3960 29.2756 9.3634 -3.1119
# 3 23.7470 60.3960 154.1678 34.3144 2.0061 3.7207
# 4 15.8908 29.2756 34.3144 55.4487 1.1092 -1.0584
# 5 -14.3201 9.3634 2.0061 1.1092 32.1277 12.6037
# 6 -3.0869 -3.1119 3.7207 -1.0584 12.6037 37.1078
#
#
#
# Elastic Compliance Matrix: (Units=1/GPa)
#
#
# Indices 1 2 3 4 5 6 
#
# 1 0.062857 -0.000579 -0.006534 -0.014385 0.031107 -0.005140
# 2 -0.000579 0.007303 -0.002290 -0.002184 -0.002833 0.001694
# 3 -0.006534 -0.002290 0.008988 -0.002451 -0.002368 -0.000902
# 4 -0.014385 -0.002184 -0.002451 0.025012 -0.007292 0.002056
# 5 0.031107 -0.002833 -0.002368 -0.007292 0.052244 -0.015365
# 6 -0.005140 0.001694 -0.000902 0.002056 -0.015365 0.032031
#
#
# Mechanical properties :
#
#
# Convention : Reuss Voigt Hill
#
# Bulk Modulus (GPa) = 16.57223 60.04867 38.31045
# Shear Modulus (GPa) = 21.99215 42.20673 32.09944
#
# Velocity S-wave (km/s) = 3.07668 4.26225 3.71703
# Velocity P-wave (km/s) = 4.44458 7.07592 5.90860
#
# Compressibility (1/GPa) = 0.06034192
#
# Stress axis : x y z
#
# Youngs Moduli (GPa) = 15.90916 136.93019 111.25997
#
# Poissons Ratio (x) = 0.07929 0.72699
# Poissons Ratio (y) = 0.00921 0.25475
# Poissons Ratio (z) = 0.10395 0.31353
#
# Static dielectric constant tensor:
#      x y z
#    x -1.566530 -0.531400 -0.927780 
#    y -0.531400 1.787400 -0.160520 
#    z -0.927780 -0.160520 1.570630 
# 
# From -- ./inp_files/177308.got.cif
#   From: 2010.05.17/outbox.cif.g08.bks.cpg/sg2_89_cif.got.tgz:177308.got - 2010.06.03 11:33:40.
