data_PCOD9041218
_publ_section_title
;
Structure prediction by ZEFSAII (Michael W. Deem and Ramdas Pophale) SiO2 
 PCOD9041218
Probable space group: P -1
;
_chemical_formula_sum "Si O2"
_cell_formula_units_Z 14
_cell_length_a 6.097969
_cell_length_b 18.514257
_cell_length_c 8.326228
_cell_angle_alpha 132.971469
_cell_angle_beta 59.031301
_cell_angle_gamma 105.494861
_cell_volume 584.503336
_symmetry_space_group_name_H-M "P -1"
_symmetry_group_IT_number 2
_symmetry_cell_setting 'triclinic'
loop_
_space_group_symop_operation_xyz
x,y,z
-x,-y,-z
loop_
_atom_site_type_symbol
_atom_site_label
_atom_site_fract_x
_atom_site_fract_y
_atom_site_fract_z
Si Si1 0.888049 0.228170 0.071651
Si Si2 0.423653 0.109253 0.623743
Si Si3 0.856789 0.609365 0.583563
Si Si4 0.513222 0.888261 0.765968
Si Si5 0.788896 0.530412 0.971137
Si Si6 0.629661 0.303454 0.962009
Si Si7 0.865135 0.703562 0.391664
O O1 0.683583 0.171299 0.155037
O O2 0.788317 0.287615 0.041283
O O3 0.980934 0.311245 0.277853
O O4 0.117895 0.143796 0.801796
O O5 0.528064 0.110184 0.405766
O O6 0.500000 0.000000 0.500000
O O7 0.529435 0.198253 0.813824
O O8 0.603861 0.609279 0.787702
O O9 0.761288 0.661904 0.530757
O O10 0.032265 0.509960 0.308275
O O11 0.787867 0.821208 0.589699
O O12 0.500000 0.000000 0.000000
O O13 0.500000 0.500000 0.000000
O O14 0.746105 0.648446 0.203715
O O15 0.000000 0.500000 0.000000
O O16 0.825618 0.320514 0.772821
#
# Coordination Sequence:
#
# PCOD9041218 Si02
#       7
#     2   2   2   2   2   2   2
#     4  11  23  43  67  92 137 175 223 291 342 420
#     4  11  26  42  64  96 133 180 233 289 345 416
#     4  10  23  43  71  98 133 180 230 278 351 421
#     4  12  25  40  69  96 129 183 228 279 352 417
#     4  10  23  44  74 105 141 188 233 291 356 422
#     4  11  23  42  67  98 137 176 227 285 352 410
#     4  11  23  44  69  98 139 177 229 291 346 419
#
# _framework density 23.951958000000001
#
# number of rings (size 3 to 8) (size 9 to 14) (size 15 to 20)
#    0.000    1.143    2.857    2.571    6.000    3.429 
#    0.000    0.714    0.000    0.000    0.000    0.000 
#    0.000    0.000    0.000    0.000    0.000    0.000 
#
# Total GULP energy -78264.686808 kJ/mol
# GULP energy per Si atom -5590.334772 kJ/mol
# Density = 2.389744 g / cm^3
# Si number density = 23.951958 Si / 1000 Ang^3
#
#
#
# Elastic Constant Matrix: (Units=GPa)
#
#
# Indices 1 2 3 4 5 6 
#
# 1 95.0153 30.4199 54.1305 7.6280 -15.6010 7.6155
# 2 30.4199 70.2936 21.6584 -5.5199 -14.6617 -0.5714
# 3 54.1305 21.6584 164.1362 12.1504 -6.1135 2.8472
# 4 7.6280 -5.5199 12.1504 39.5494 -0.5896 -16.8351
# 5 -15.6010 -14.6617 -6.1135 -0.5896 40.0273 -2.6469
# 6 7.6155 -0.5714 2.8472 -16.8351 -2.6469 30.8651
#
#
#
# Elastic Compliance Matrix: (Units=1/GPa)
#
#
# Indices 1 2 3 4 5 6 
#
# 1 0.015963 -0.005517 -0.003921 -0.005275 0.003108 -0.006290
# 2 -0.005517 0.018517 -0.001020 0.006488 0.004953 0.005762
# 3 -0.003921 -0.001020 0.007669 -0.002191 -0.000830 -0.001025
# 4 -0.005275 0.006488 -0.002191 0.037346 0.002002 0.022165
# 5 0.003108 0.004953 -0.000830 0.002002 0.028103 0.002903
# 6 -0.006290 0.005762 -0.001025 0.022165 0.002903 0.046491
#
#
# Mechanical properties :
#
#
# Convention : Reuss Voigt Hill
#
# Bulk Modulus (GPa) = 47.09464 60.20696 53.65080
# Shear Modulus (GPa) = 27.46004 36.97078 32.21541
#
# Velocity S-wave (km/s) = 3.38962 3.93305 3.67140
# Velocity P-wave (km/s) = 5.91812 6.76878 6.35769
#
# Compressibility (1/GPa) = 0.02123384
#
# Stress axis : x y z
#
# Youngs Moduli (GPa) = 62.64615 54.00397 130.39165
#
# Poissons Ratio (x) = 0.29793 0.51126
# Poissons Ratio (y) = 0.34561 0.13297
# Poissons Ratio (z) = 0.24563 0.05507
#
# Static dielectric constant tensor:
#      x y z
#    x 2.018560 -0.007190 -0.034570 
#    y -0.007190 1.908000 0.003950 
#    z -0.034570 0.003950 1.922360 
# 
# From -- ./inp_files/38338.got.cif
#   From: 2010.05.17/outbox.cif.g08.bks.cpg/sg2_20_cif.got.tgz:38338.got - 2010.06.03 11:33:40.
