data_PCOD9041730
_publ_section_title
;
Structure prediction by ZEFSAII (Michael W. Deem and Ramdas Pophale) SiO2 
 PCOD9041730
Probable space group: P -1
;
_chemical_formula_sum "Si O2"
_cell_formula_units_Z 14
_cell_length_a 9.148682
_cell_length_b 19.591135
_cell_length_c 5.591533
_cell_angle_alpha 80.120726
_cell_angle_beta 68.287562
_cell_angle_gamma 38.239869
_cell_volume 563.825768
_symmetry_space_group_name_H-M "P -1"
_symmetry_group_IT_number 2
_symmetry_cell_setting 'triclinic'
loop_
_space_group_symop_operation_xyz
x,y,z
-x,-y,-z
loop_
_atom_site_type_symbol
_atom_site_label
_atom_site_fract_x
_atom_site_fract_y
_atom_site_fract_z
Si Si1 0.123534 0.003558 0.718117
Si Si2 0.690245 0.855589 0.496044
Si Si3 0.372749 0.526821 0.809482
Si Si4 0.960336 0.789014 0.876415
Si Si5 0.223447 0.335154 0.518233
Si Si6 0.728274 0.190245 0.509513
Si Si7 0.782944 0.557128 0.912856
O O1 0.380947 0.958117 0.632162
O O2 0.216817 0.907973 0.549798
O O3 0.898085 0.130966 0.680707
O O4 0.000000 0.000000 0.000000
O O5 0.772876 0.746476 0.486044
O O6 0.797395 0.844347 0.694138
O O7 0.796019 0.850306 0.184062
O O8 0.500000 0.500000 0.500000
O O9 0.111560 0.662791 0.876695
O O10 0.500000 0.500000 0.000000
O O11 0.391299 0.437136 0.857055
O O12 0.155423 0.786829 0.731509
O O13 0.421335 0.293636 0.625149
O O14 0.321657 0.340572 0.219723
O O15 0.936237 0.458623 0.677437
O O16 0.000000 0.500000 0.000000
#
# Coordination Sequence:
#
# PCOD9041730 Si02
#       7
#     2   2   2   2   2   2   2
#     4  10  25  47  73  99 135 181 228 289 349 417
#     4  11  26  46  72  98 143 179 231 287 347 412
#     4  12  27  45  68 100 147 185 231 285 342 402
#     4  12  26  46  70 105 140 183 229 285 351 407
#     4  10  23  44  66  99 134 188 230 283 335 416
#     4  10  25  44  70 100 136 177 233 283 349 412
#     4  11  24  40  69  97 137 185 238 277 339 404
#
# _framework density 24.830366999999999
#
# number of rings (size 3 to 8) (size 9 to 14) (size 15 to 20)
#    0.000    1.143    1.429    2.571   14.000    2.286 
#    0.000    0.000    0.000    0.000    0.000    0.000 
#    0.000    0.000    0.000    0.000    0.000    0.000 
#
# Total GULP energy -78184.706535 kJ/mol
# GULP energy per Si atom -5584.621895 kJ/mol
# Density = 2.477385 g / cm^3
# Si number density = 24.830367 Si / 1000 Ang^3
#
#
#
# Elastic Constant Matrix: (Units=GPa)
#
#
# Indices 1 2 3 4 5 6 
#
# 1 104.1409 -2.3617 32.0477 0.0920 11.0854 -0.0043
# 2 -2.3617 64.9043 34.2487 -0.3521 4.6360 2.8354
# 3 32.0477 34.2487 165.3880 -12.5734 -4.2154 -6.9355
# 4 0.0920 -0.3521 -12.5734 37.8152 0.8842 -6.2570
# 5 11.0854 4.6360 -4.2154 0.8842 40.3059 -11.8795
# 6 -0.0043 2.8354 -6.9355 -6.2570 -11.8795 48.4443
#
#
#
# Elastic Compliance Matrix: (Units=1/GPa)
#
#
# Indices 1 2 3 4 5 6 
#
# 1 0.010963 0.002260 -0.002852 -0.001137 -0.004043 -0.001678
# 2 0.002260 0.018320 -0.004592 -0.001755 -0.004039 -0.002946
# 3 -0.002852 -0.004592 0.007950 0.002952 0.002809 0.002477
# 4 -0.001137 -0.001755 0.002952 0.028127 0.001543 0.004536
# 5 -0.004043 -0.004039 0.002809 0.001543 0.028989 0.007946
# 6 -0.001678 -0.002946 0.002477 0.004536 0.007946 0.023704
#
#
# Mechanical properties :
#
#
# Convention : Reuss Voigt Hill
#
# Bulk Modulus (GPa) = 37.22347 51.36694 44.29521
# Shear Modulus (GPa) = 36.39703 43.34630 39.87167
#
# Velocity S-wave (km/s) = 3.83277 4.18269 4.01154
# Velocity P-wave (km/s) = 5.88306 6.63766 6.27172
#
# Compressibility (1/GPa) = 0.02686477
#
# Stress axis : x y z
#
# Youngs Moduli (GPa) = 91.21942 54.58498 125.79104
#
# Poissons Ratio (x) = -0.12335 0.35876
# Poissons Ratio (y) = -0.20614 0.57757
# Poissons Ratio (z) = 0.26016 0.25063
#
# Static dielectric constant tensor:
#      x y z
#    x 2.023950 -0.009140 -0.006270 
#    y -0.009140 2.061520 0.082710 
#    z -0.006270 0.082710 2.034900 
# 
# From -- ./inp_files/45111.got.cif
#   From: 2010.05.17/outbox.cif.g08.bks.cpg/sg2_23_cif.got.tgz:45111.got - 2010.06.03 11:33:40.
