data_PCOD9041048
_publ_section_title
;
Structure prediction by ZEFSAII (Michael W. Deem and Ramdas Pophale) SiO2 
 PCOD9041048
Probable space group: P -1
;
_chemical_formula_sum "Si O2"
_cell_formula_units_Z 12
_cell_length_a 13.638403
_cell_length_b 12.285658
_cell_length_c 8.363943
_cell_angle_alpha 82.189122
_cell_angle_beta 143.181939
_cell_angle_gamma 125.887467
_cell_volume 494.667478
_symmetry_space_group_name_H-M "P -1"
_symmetry_group_IT_number 2
_symmetry_cell_setting 'triclinic'
loop_
_space_group_symop_operation_xyz
x,y,z
-x,-y,-z
loop_
_atom_site_type_symbol
_atom_site_label
_atom_site_fract_x
_atom_site_fract_y
_atom_site_fract_z
Si Si1 0.622805 0.395074 0.258772
Si Si2 0.202359 0.005295 0.295742
Si Si3 0.303897 0.643264 0.300905
Si Si4 0.116006 0.265089 0.594381
Si Si5 0.571752 0.911459 0.081128
Si Si6 0.222937 0.391333 0.075885
O O1 0.562882 0.347870 0.376395
O O2 0.866762 0.613371 0.507304
O O3 0.357881 0.312633 0.851429
O O4 0.655191 0.293146 0.243564
O O5 0.466118 0.146481 0.495841
O O6 0.318489 0.077164 0.612175
O O7 0.000000 0.000000 0.000000
O O8 0.023060 0.797335 0.106413
O O9 0.249924 0.535463 0.101937
O O10 0.000000 0.500000 0.000000
O O11 0.176281 0.332549 0.843665
O O12 0.821967 0.049186 0.253503
O O13 0.500000 0.000000 0.000000
O O14 0.500000 0.500000 0.500000
#
# Coordination Sequence:
#
# PCOD9041048 Si02
#       6
#     2   2   2   2   2   2
#     4  11  24  43  67  98 135 173 225 275 336 405
#     4  11  24  45  73  96 132 188 227 270 334 413
#     4  12  27  41  66 103 137 171 220 286 339 394
#     4  10  23  43  70  96 127 180 223 275 329 406
#     4  11  26  43  67 100 137 174 224 278 342 398
#     4  11  21  44  69  96 129 174 232 270 333 404
#
# _framework density 24.258718999999999
#
# number of rings (size 3 to 8) (size 9 to 14) (size 15 to 20)
#    0.000    1.000    3.333    2.500    7.000    2.667 
#    0.000    0.000    0.000    0.000    0.000    0.000 
#    0.000    0.000    0.000    0.000    0.000    0.000 
#
# Total GULP energy -67090.209252 kJ/mol
# GULP energy per Si atom -5590.850771 kJ/mol
# Density = 2.420351 g / cm^3
# Si number density = 24.258719 Si / 1000 Ang^3
#
#
#
# Elastic Constant Matrix: (Units=GPa)
#
#
# Indices 1 2 3 4 5 6 
#
# 1 51.5242 26.1211 11.6073 2.7572 -0.5369 -2.9780
# 2 26.1211 145.3825 23.8944 23.1020 -1.9829 29.3030
# 3 11.6073 23.8944 66.5556 11.6481 1.8308 4.8555
# 4 2.7572 23.1020 11.6481 34.4937 9.0373 13.7910
# 5 -0.5369 -1.9829 1.8308 9.0373 39.6326 8.5776
# 6 -2.9780 29.3030 4.8555 13.7910 8.5776 50.2068
#
#
#
# Elastic Compliance Matrix: (Units=1/GPa)
#
#
# Indices 1 2 3 4 5 6 
#
# 1 0.022536 -0.004584 -0.002695 0.000720 -0.000878 0.004225
# 2 -0.004584 0.009696 -0.001644 -0.004223 0.002554 -0.005048
# 3 -0.002695 -0.001644 0.016850 -0.004552 0.000052 0.000412
# 4 0.000720 -0.004223 -0.004552 0.037659 -0.007246 -0.006159
# 5 -0.000878 0.002554 0.000052 -0.007246 0.027935 -0.004330
# 6 0.004225 -0.005048 0.000412 -0.006159 -0.004330 0.025506
#
#
# Mechanical properties :
#
#
# Convention : Reuss Voigt Hill
#
# Bulk Modulus (GPa) = 32.01426 42.96754 37.49090
# Shear Modulus (GPa) = 29.68404 38.32256 34.00330
#
# Velocity S-wave (km/s) = 3.50186 3.97891 3.74798
# Velocity P-wave (km/s) = 5.43841 6.23375 5.84961
#
# Compressibility (1/GPa) = 0.03123608
#
# Stress axis : x y z
#
# Youngs Moduli (GPa) = 44.37350 103.13869 59.34562
#
# Poissons Ratio (x) = 0.47280 0.15991
# Poissons Ratio (y) = 0.20341 0.09758
# Poissons Ratio (z) = 0.11957 0.16959
#
# Static dielectric constant tensor:
#      x y z
#    x 1.851010 -0.052080 -0.052020 
#    y -0.052080 1.903780 -0.090900 
#    z -0.052020 -0.090900 1.839180 
# 
# From -- ./inp_files/160599.got.cif
#   From: 2010.05.17/outbox.cif.g08.bks.cpg/sg2_81_cif.got.tgz:160599.got - 2010.06.03 11:33:40.
