data_PCOD9041544
_publ_section_title
;
Structure prediction by ZEFSAII (Michael W. Deem and Ramdas Pophale) SiO2 
 PCOD9041544
Probable space group: P -1
;
_chemical_formula_sum "Si O2"
_cell_formula_units_Z 16
_cell_length_a 9.677583
_cell_length_b 9.104149
_cell_length_c 20.143541
_cell_angle_alpha 89.632537
_cell_angle_beta 55.424501
_cell_angle_gamma 132.480259
_cell_volume 826.588139
_symmetry_space_group_name_H-M "P -1"
_symmetry_group_IT_number 2
_symmetry_cell_setting 'triclinic'
loop_
_space_group_symop_operation_xyz
x,y,z
-x,-y,-z
loop_
_atom_site_type_symbol
_atom_site_label
_atom_site_fract_x
_atom_site_fract_y
_atom_site_fract_z
Si Si1 0.696710 0.434281 0.938574
Si Si2 0.200970 0.769344 0.623146
Si Si3 0.437888 0.664437 0.254625
Si Si4 0.110282 0.954632 0.757065
Si Si5 0.199868 0.006947 0.966999
Si Si6 0.349548 0.516640 0.814179
Si Si7 0.057597 0.439659 0.772935
Si Si8 0.685609 0.903553 0.831921
O O1 0.867986 0.706742 0.873515
O O2 0.917986 0.462607 0.858845
O O3 0.421378 0.215398 0.964194
O O4 0.572293 0.331343 0.046212
O O5 0.158979 0.875979 0.684511
O O6 0.197426 0.623936 0.671817
O O7 0.909571 0.556948 0.656859
O O8 0.500000 0.000000 0.500000
O O9 0.505019 0.540765 0.220816
O O10 0.594810 0.808872 0.281165
O O11 0.601794 0.879630 0.152230
O O12 0.963292 0.996465 0.769903
O O13 0.969956 0.724746 0.060722
O O14 0.000000 0.000000 0.000000
O O15 0.283527 0.511934 0.756672
O O16 0.557754 0.781757 0.794464
O O17 0.796582 0.144837 0.819551
#
# Coordination Sequence:
#
# PCOD9041544 Si02
#       8
#     2   2   2   2   2   2   2   2
#     4  11  21  36  57  94 139 170 204 249 296 368
#     4  11  26  48  69  90 119 157 213 277 325 365
#     4  11  20  40  66  92 126 166 213 251 299 383
#     4  11  21  39  68  91 123 171 212 248 306 379
#     4  10  17  33  57  91 129 171 203 237 287 374
#     4  11  22  36  62  94 133 169 205 244 305 376
#     4  11  24  41  59  93 132 157 208 269 313 356
#     4  12  21  37  63  92 133 174 202 244 309 372
#
# _framework density 19.356676
#
# number of rings (size 3 to 8) (size 9 to 14) (size 15 to 20)
#    0.000    1.000    6.250    3.000    0.000    3.000 
#    0.000    1.250    0.000    0.000    0.000    0.000 
#    0.000    0.000    0.000    0.000    0.000    0.000 
#
# Total GULP energy -89433.419103 kJ/mol
# GULP energy per Si atom -5589.588694 kJ/mol
# Density = 1.931262 g / cm^3
# Si number density = 19.356676 Si / 1000 Ang^3
#
#
#
# Elastic Constant Matrix: (Units=GPa)
#
#
# Indices 1 2 3 4 5 6 
#
# 1 80.2891 12.0994 35.1453 -12.7980 -2.0068 15.4775
# 2 12.0994 60.1501 -1.3347 -8.5635 -4.2317 26.7427
# 3 35.1453 -1.3347 97.3897 -11.2516 -6.4330 10.4033
# 4 -12.7980 -8.5635 -11.2516 14.3517 7.5163 -9.1647
# 5 -2.0068 -4.2317 -6.4330 7.5163 11.7908 -5.4684
# 6 15.4775 26.7427 10.4033 -9.1647 -5.4684 37.9006
#
#
#
# Elastic Compliance Matrix: (Units=1/GPa)
#
#
# Indices 1 2 3 4 5 6 
#
# 1 0.017479 -0.000889 -0.004990 0.014926 -0.011030 -0.003123
# 2 -0.000889 0.025241 0.003151 0.006733 -0.001504 -0.016900
# 3 -0.004990 0.003151 0.013094 0.004411 0.003596 -0.002194
# 4 0.014926 0.006733 0.004411 0.135984 -0.074660 0.010053
# 5 -0.011030 -0.001504 0.003596 -0.074660 0.134716 0.005962
# 6 -0.003123 -0.016900 -0.002194 0.010053 0.005962 0.043478
#
#
# Mechanical properties :
#
#
# Convention : Reuss Voigt Hill
#
# Bulk Modulus (GPa) = 19.85895 36.62766 28.24330
# Shear Modulus (GPa) = 12.74749 25.60320 19.17534
#
# Velocity S-wave (km/s) = 2.56902 3.64085 3.15085
# Velocity P-wave (km/s) = 4.36825 6.05293 5.27823
#
# Compressibility (1/GPa) = 0.05035513
#
# Stress axis : x y z
#
# Youngs Moduli (GPa) = 57.21136 39.61880 76.37323
#
# Poissons Ratio (x) = 0.03523 0.38114
# Poissons Ratio (y) = 0.05088 -0.24063
# Poissons Ratio (z) = 0.28551 -0.12483
#
# Static dielectric constant tensor:
#      x y z
#    x 1.693670 -0.011240 -0.000610 
#    y -0.011240 1.685900 -0.006430 
#    z -0.000610 -0.006430 1.654510 
# 
# From -- ./inp_files/188862.got.cif
#   From: 2010.05.17/outbox.cif.g08.bks.cpg/sg2_95_cif.got.tgz:188862.got - 2010.06.03 11:33:40.
