data_PCOD9041685
_publ_section_title
;
Structure prediction by ZEFSAII (Michael W. Deem and Ramdas Pophale) SiO2 
 PCOD9041685
Probable space group: P -1
;
_chemical_formula_sum "Si O2"
_cell_formula_units_Z 14
_cell_length_a 9.121792
_cell_length_b 17.416076
_cell_length_c 13.842782
_cell_angle_alpha 22.436985
_cell_angle_beta 86.093218
_cell_angle_gamma 73.200706
_cell_volume 673.877430
_symmetry_space_group_name_H-M "P -1"
_symmetry_group_IT_number 2
_symmetry_cell_setting 'triclinic'
loop_
_space_group_symop_operation_xyz
x,y,z
-x,-y,-z
loop_
_atom_site_type_symbol
_atom_site_label
_atom_site_fract_x
_atom_site_fract_y
_atom_site_fract_z
Si Si1 0.242417 0.131082 0.413775
Si Si2 0.781302 0.639262 0.341933
Si Si3 0.484772 0.944349 0.371304
Si Si4 0.309153 0.506967 0.674878
Si Si5 0.487618 0.234714 0.618698
Si Si6 0.302938 0.759874 0.692941
Si Si7 0.917832 0.372476 0.267399
O O1 0.415531 0.114224 0.462922
O O2 0.131111 0.195002 0.443797
O O3 0.259640 0.901501 0.630960
O O4 0.144846 0.354592 0.080556
O O5 0.758204 0.488837 0.434671
O O6 0.676614 0.656012 0.424602
O O7 0.000000 0.500000 0.500000
O O8 0.656235 0.937752 0.972688
O O9 0.584620 0.759683 0.491635
O O10 0.319026 0.927066 0.419940
O O11 0.430887 0.213946 0.035482
O O12 0.423871 0.617309 0.549373
O O13 0.152699 0.629163 0.622247
O O14 0.168307 0.706216 0.717441
O O15 0.500000 0.500000 0.000000
#
# Coordination Sequence:
#
# PCOD9041685 Si02
#       7
#     2   2   2   2   2   2   2
#     4  11  24  38  57  91 131 167 207 258 301 361
#     4  10  24  45  69  95 123 157 204 263 319 386
#     4  11  22  38  61  90 122 164 211 249 305 374
#     4  11  22  42  65  91 123 164 204 257 313 376
#     4  10  23  44  66  94 127 159 205 258 320 379
#     4  12  21  38  60  84 122 174 211 248 303 360
#     4  11  23  39  59  90 130 165 209 256 304 365
#
# _framework density 20.775289000000001
#
# number of rings (size 3 to 8) (size 9 to 14) (size 15 to 20)
#    0.000    1.143    4.286    2.143    2.000    0.571 
#    2.571    0.000    0.000    0.000    0.000    0.000 
#    0.000    0.000    0.000    0.000    0.000    0.000 
#
# Total GULP energy -78091.043588 kJ/mol
# GULP energy per Si atom -5577.931685 kJ/mol
# Density = 2.072800 g / cm^3
# Si number density = 20.775289 Si / 1000 Ang^3
#
#
#
# Elastic Constant Matrix: (Units=GPa)
#
#
# Indices 1 2 3 4 5 6 
#
# 1 80.7219 51.2774 25.6273 -21.8383 -15.1507 -5.4830
# 2 51.2774 174.9238 27.2727 -23.5625 -7.8265 -3.6666
# 3 25.6273 27.2727 56.0761 -21.8556 -20.8659 -1.5722
# 4 -21.8383 -23.5625 -21.8556 26.3234 4.4541 -8.1064
# 5 -15.1507 -7.8265 -20.8659 4.4541 33.0411 -1.5313
# 6 -5.4830 -3.6666 -1.5722 -8.1064 -1.5313 38.4161
#
#
#
# Elastic Compliance Matrix: (Units=1/GPa)
#
#
# Indices 1 2 3 4 5 6 
#
# 1 0.020213 -0.003619 0.001519 0.015403 0.007579 0.006154
# 2 -0.003619 0.007329 -0.001047 0.003084 -0.000965 0.000752
# 3 0.001519 -0.001047 0.037458 0.030731 0.020375 0.008947
# 4 0.015403 0.003084 0.030731 0.082912 0.017039 0.021925
# 5 0.007579 -0.000965 0.020375 0.017039 0.044415 0.007190
# 6 0.006154 0.000752 0.008947 0.021925 0.007190 0.032260
#
#
# Mechanical properties :
#
#
# Convention : Reuss Voigt Hill
#
# Bulk Modulus (GPa) = 17.03428 57.78630 37.41029
# Shear Modulus (GPa) = 19.96418 33.39243 26.67831
#
# Velocity S-wave (km/s) = 3.10330 4.01348 3.58737
# Velocity P-wave (km/s) = 4.58887 7.02515 5.93340
#
# Compressibility (1/GPa) = 0.05870516
#
# Stress axis : x y z
#
# Youngs Moduli (GPa) = 49.47422 136.44767 26.69677
#
# Poissons Ratio (x) = 0.49381 -0.04054
# Poissons Ratio (y) = 0.17905 0.02794
# Poissons Ratio (z) = -0.07514 0.14281
#
# Static dielectric constant tensor:
#      x y z
#    x 1.714790 -0.027170 0.036760 
#    y -0.027170 1.788500 0.009700 
#    z 0.036760 0.009700 1.782880 
# 
# From -- ./inp_files/38368.got.cif
#   From: 2010.05.17/outbox.cif.g08.bks.cpg/sg2_20_cif.got.tgz:38368.got - 2010.06.03 11:33:40.
