data_PCOD9041315
_publ_section_title
;
Structure prediction by ZEFSAII (Michael W. Deem and Ramdas Pophale) SiO2 
 PCOD9041315
Probable space group: P -1
;
_chemical_formula_sum "Si O2"
_cell_formula_units_Z 16
_cell_length_a 5.278321
_cell_length_b 11.986490
_cell_length_c 11.240534
_cell_angle_alpha 111.253686
_cell_angle_beta 95.758678
_cell_angle_gamma 98.504882
_cell_volume 646.304997
_symmetry_space_group_name_H-M "P -1"
_symmetry_group_IT_number 2
_symmetry_cell_setting 'triclinic'
loop_
_space_group_symop_operation_xyz
x,y,z
-x,-y,-z
loop_
_atom_site_type_symbol
_atom_site_label
_atom_site_fract_x
_atom_site_fract_y
_atom_site_fract_z
Si Si1 0.894418 0.628358 0.414052
Si Si2 0.340191 0.150295 0.523709
Si Si3 0.236706 0.299792 0.173903
Si Si4 0.788546 0.245184 0.726222
Si Si5 0.261045 0.054616 0.961384
Si Si6 0.773583 0.338214 0.328440
Si Si7 0.027206 0.046178 0.707188
Si Si8 0.281536 0.523495 0.086973
O O1 0.000053 0.660067 0.299507
O O2 0.113939 0.677430 0.541900
O O3 0.679517 0.710488 0.450181
O O4 0.813642 0.484791 0.369779
O O5 0.631516 0.156095 0.583875
O O6 0.177743 0.098773 0.614828
O O7 0.201135 0.066645 0.379865
O O8 0.469114 0.293578 0.275098
O O9 0.273422 0.430975 0.161394
O O10 0.960172 0.285300 0.223335
O O11 0.280429 0.198679 0.041200
O O12 0.898283 0.158298 0.787162
O O13 0.634313 0.334449 0.817828
O O14 0.216397 0.019860 0.807761
O O15 0.500000 0.000000 0.000000
O O16 0.000000 0.000000 0.000000
O O17 0.500000 0.500000 0.000000
O O18 0.000000 0.500000 0.000000
#
# Coordination Sequence:
#
# PCOD9041315 Si02
#       8
#     2   2   2   2   2   2   2   2
#     4  10  24  40  68 105 141 186 233 291 360 420
#     4  10  23  43  73 100 143 185 242 303 361 416
#     4  12  26  47  71 104 143 188 239 287 363 429
#     4  11  23  43  73 106 142 186 242 295 364 433
#     4  12  30  50  75 103 143 195 245 297 361 433
#     4  11  25  44  70 105 147 185 233 292 352 440
#     4  10  25  46  68 106 139 186 246 300 359 426
#     4  12  27  44  74 106 144 188 234 298 361 430
#
# _framework density 24.756115000000001
#
# number of rings (size 3 to 8) (size 9 to 14) (size 15 to 20)
#    0.000    1.000    1.250    3.375   12.250    1.000 
#    0.000    0.000    0.000    0.000    0.000    0.000 
#    0.000    0.000    0.000    0.000    0.000    0.000 
#
# Total GULP energy -89573.947621 kJ/mol
# GULP energy per Si atom -5598.371726 kJ/mol
# Density = 2.469977 g / cm^3
# Si number density = 24.756115 Si / 1000 Ang^3
#
#
#
# Elastic Constant Matrix: (Units=GPa)
#
#
# Indices 1 2 3 4 5 6 
#
# 1 111.9368 32.7605 25.9712 -14.4711 9.0789 -22.8742
# 2 32.7605 73.3347 29.6107 5.2082 1.8717 -29.5579
# 3 25.9712 29.6107 116.2319 -3.9773 22.3915 -20.9863
# 4 -14.4711 5.2082 -3.9773 34.5882 -10.5169 4.9078
# 5 9.0789 1.8717 22.3915 -10.5169 49.7688 -5.2882
# 6 -22.8742 -29.5579 -20.9863 4.9078 -5.2882 36.3716
#
#
#
# Elastic Compliance Matrix: (Units=1/GPa)
#
#
# Indices 1 2 3 4 5 6 
#
# 1 0.011525 -0.004019 -0.000829 0.004856 -0.000254 0.002812
# 2 -0.004019 0.023562 -0.002651 -0.007482 0.001188 0.016273
# 3 -0.000829 -0.002651 0.010839 -0.000466 -0.004405 0.003001
# 4 0.004856 -0.007482 -0.000466 0.034918 0.006229 -0.007102
# 5 -0.000254 0.001188 -0.004405 0.006229 0.023482 0.000838
# 6 0.002812 0.016273 0.003001 -0.007102 0.000838 0.045298
#
#
# Mechanical properties :
#
#
# Convention : Reuss Voigt Hill
#
# Bulk Modulus (GPa) = 32.33341 53.13203 42.73272
# Shear Modulus (GPa) = 28.58282 38.35645 33.46963
#
# Velocity S-wave (km/s) = 3.40159 3.94048 3.68091
# Velocity P-wave (km/s) = 5.34012 6.49707 5.94680
#
# Compressibility (1/GPa) = 0.03092777
#
# Stress axis : x y z
#
# Youngs Moduli (GPa) = 86.76786 42.44131 92.26364
#
# Poissons Ratio (x) = 0.17057 0.07645
# Poissons Ratio (y) = 0.34872 0.24461
# Poissons Ratio (z) = 0.07190 0.11252
#
# Static dielectric constant tensor:
#      x y z
#    x 1.985850 -0.001230 -0.012550 
#    y -0.001230 1.923660 0.035420 
#    z -0.012550 0.035420 2.046740 
# 
# From -- ./inp_files/70785.got.cif
#   From: 2010.05.17/outbox.cif.g08.bks.cpg/sg2_36_cif.got.tgz:70785.got - 2010.06.03 11:33:40.
