data_PCOD9041998
_publ_section_title
;
Structure prediction by ZEFSAII (Michael W. Deem and Ramdas Pophale) SiO2 
 PCOD9041998
Probable space group: P -1
;
_chemical_formula_sum "Si O2"
_cell_formula_units_Z 12
_cell_length_a 7.107172
_cell_length_b 14.459972
_cell_length_c 5.342506
_cell_angle_alpha 72.968113
_cell_angle_beta 108.974257
_cell_angle_gamma 83.246384
_cell_volume 482.493030
_symmetry_space_group_name_H-M "P -1"
_symmetry_group_IT_number 2
_symmetry_cell_setting 'triclinic'
loop_
_space_group_symop_operation_xyz
x,y,z
-x,-y,-z
loop_
_atom_site_type_symbol
_atom_site_label
_atom_site_fract_x
_atom_site_fract_y
_atom_site_fract_z
Si Si1 0.718468 0.805790 0.334630
Si Si2 0.268490 0.877058 0.313017
Si Si3 0.855903 0.896486 0.820896
Si Si4 0.421104 0.616025 0.405327
Si Si5 0.035105 0.606571 0.510360
Si Si6 0.356216 0.685105 0.811455
O O1 0.484841 0.841707 0.296769
O O2 0.832074 0.843990 0.590791
O O3 0.838583 0.691050 0.429723
O O4 0.743542 0.857248 0.037958
O O5 0.259427 0.795476 0.587157
O O6 0.237487 0.985442 0.333283
O O7 0.088003 0.881224 0.031685
O O8 0.500000 0.500000 0.500000
O O9 0.174942 0.641018 0.327970
O O10 0.510281 0.643658 0.683976
O O11 0.455694 0.673469 0.129956
O O12 0.199752 0.611265 0.797812
O O13 0.000000 0.500000 0.500000
#
# Coordination Sequence:
#
# PCOD9041998 Si02
#       6
#     2   2   2   2   2   2
#     4  12  27  49  74 113 157 200 258 313 379 457
#     4  11  26  47  83 111 154 208 245 317 391 442
#     4  11  27  50  76 115 156 197 259 314 375 468
#     4  10  23  44  68  97 141 190 247 302 367 438
#     4  10  26  45  70 102 150 195 247 316 371 442
#     4  10  24  43  70 103 144 189 248 306 369 447
#
# _framework density 24.870826000000001
#
# number of rings (size 3 to 8) (size 9 to 14) (size 15 to 20)
#    1.000    0.333    1.667    1.500    7.000    7.333 
#    0.000    1.667    0.000    0.000    0.000    0.000 
#    0.000    0.000    0.000    0.000    0.000    0.000 
#
# Total GULP energy -67063.557975 kJ/mol
# GULP energy per Si atom -5588.629831 kJ/mol
# Density = 2.481422 g / cm^3
# Si number density = 24.870826 Si / 1000 Ang^3
#
#
#
# Elastic Constant Matrix: (Units=GPa)
#
#
# Indices 1 2 3 4 5 6 
#
# 1 133.6496 54.9956 36.4454 7.0835 4.9920 -28.6527
# 2 54.9956 224.9448 73.0222 -7.0094 -0.3748 -26.5256
# 3 36.4454 73.0222 119.4751 9.9626 -27.8260 -20.9598
# 4 7.0835 -7.0094 9.9626 31.7526 -5.0826 0.2957
# 5 4.9920 -0.3748 -27.8260 -5.0826 41.5818 1.9096
# 6 -28.6527 -26.5256 -20.9598 0.2957 1.9096 38.0700
#
#
#
# Elastic Compliance Matrix: (Units=1/GPa)
#
#
# Indices 1 2 3 4 5 6 
#
# 1 0.009966 -0.001276 -0.001710 -0.002491 -0.002925 0.005837
# 2 -0.001276 0.006263 -0.003921 0.002538 -0.002165 0.001334
# 3 -0.001710 -0.003921 0.014319 -0.003542 0.009161 0.003433
# 4 -0.002491 0.002538 -0.003542 0.034101 0.002231 -0.002433
# 5 -0.002925 -0.002165 0.009161 0.002231 0.030795 -0.000228
# 6 0.005837 0.001334 0.003433 -0.002433 -0.000228 0.033510
#
#
# Mechanical properties :
#
#
# Convention : Reuss Voigt Hill
#
# Bulk Modulus (GPa) = 59.75280 89.66620 74.70950
# Shear Modulus (GPa) = 33.70543 43.18798 38.44671
#
# Velocity S-wave (km/s) = 3.68532 4.17164 3.93600
# Velocity P-wave (km/s) = 6.49509 7.70289 7.12463
#
# Compressibility (1/GPa) = 0.01673562
#
# Stress axis : x y z
#
# Youngs Moduli (GPa) = 100.34108 159.66998 69.83675
#
# Poissons Ratio (x) = 0.20369 0.11942
# Poissons Ratio (y) = 0.12800 0.27380
# Poissons Ratio (z) = 0.17158 0.62600
#
# Static dielectric constant tensor:
#      x y z
#    x 2.016940 0.041120 -0.018340 
#    y 0.041120 2.002700 0.044550 
#    z -0.018340 0.044550 1.974480 
# 
# From -- ./inp_files/32231.got.cif
#   From: 2010.05.17/outbox.cif.g08.bks.cpg/sg2_17_cif.got.tgz:32231.got - 2010.06.03 11:33:40.
