data_PCOD9041669
_publ_section_title
;
Structure prediction by ZEFSAII (Michael W. Deem and Ramdas Pophale) SiO2 
 PCOD9041669
Probable space group: P -1
;
_chemical_formula_sum "Si O2"
_cell_formula_units_Z 14
_cell_length_a 8.847756
_cell_length_b 26.968398
_cell_length_c 8.972770
_cell_angle_alpha 26.579607
_cell_angle_beta 46.417951
_cell_angle_gamma 39.553904
_cell_volume 610.036835
_symmetry_space_group_name_H-M "P -1"
_symmetry_group_IT_number 2
_symmetry_cell_setting 'triclinic'
loop_
_space_group_symop_operation_xyz
x,y,z
-x,-y,-z
loop_
_atom_site_type_symbol
_atom_site_label
_atom_site_fract_x
_atom_site_fract_y
_atom_site_fract_z
Si Si1 0.077357 0.818483 0.009655
Si Si2 0.427584 0.090231 0.948345
Si Si3 0.920559 0.919612 0.170428
Si Si4 0.551227 0.291430 0.184104
Si Si5 0.701266 0.334742 0.283804
Si Si6 0.142162 0.547759 0.672379
Si Si7 0.184526 0.442643 0.394103
O O1 0.143429 0.673191 0.391247
O O2 0.837036 0.874355 0.926142
O O3 0.013983 0.896295 0.997430
O O4 0.279201 0.805923 0.793564
O O5 0.431708 0.216856 0.548893
O O6 0.500000 0.000000 0.000000
O O7 0.637247 0.002223 0.150755
O O8 0.053923 0.782776 0.518628
O O9 0.000000 0.000000 0.000000
O O10 0.668946 0.327786 0.145331
O O11 0.394352 0.420733 0.852388
O O12 0.462684 0.335702 0.514188
O O13 0.743331 0.450958 0.992604
O O14 0.981577 0.582069 0.540929
O O15 0.000000 0.500000 0.000000
O O16 0.000000 0.500000 0.500000
#
# Coordination Sequence:
#
# PCOD9041669 Si02
#       7
#     2   2   2   2   2   2   2
#     4  11  25  43  71  96 129 176 223 268 331 397
#     4  10  23  44  66  90 131 176 224 267 320 380
#     4  11  24  45  68  93 130 177 220 277 325 378
#     4  12  24  43  68 100 134 172 221 272 325 400
#     4  11  24  43  66  96 140 170 212 275 330 378
#     4  12  22  42  69 101 135 173 213 267 336 394
#     4  11  25  42  68 101 136 171 213 267 335 396
#
# _framework density 22.949432999999999
#
# number of rings (size 3 to 8) (size 9 to 14) (size 15 to 20)
#    0.000    0.857    4.286    2.143    6.000    2.286 
#    0.000    2.143    0.000    0.000    0.000    0.000 
#    0.000    0.000    0.000    0.000    0.000    0.000 
#
# Total GULP energy -78008.006599 kJ/mol
# GULP energy per Si atom -5572.000471 kJ/mol
# Density = 2.289720 g / cm^3
# Si number density = 22.949433 Si / 1000 Ang^3
#
#
#
# Elastic Constant Matrix: (Units=GPa)
#
#
# Indices 1 2 3 4 5 6 
#
# 1 97.4435 29.3627 8.8543 -11.5429 13.0867 -2.5766
# 2 29.3627 123.0441 15.2430 0.6862 15.4365 -9.9837
# 3 8.8543 15.2430 46.0493 -18.4079 -0.4260 -10.6590
# 4 -11.5429 0.6862 -18.4079 42.1852 -4.9508 5.6701
# 5 13.0867 15.4365 -0.4260 -4.9508 17.8621 -19.7411
# 6 -2.5766 -9.9837 -10.6590 5.6701 -19.7411 49.2431
#
#
#
# Elastic Compliance Matrix: (Units=1/GPa)
#
#
# Indices 1 2 3 4 5 6 
#
# 1 0.012997 -0.001305 -0.003249 0.001237 -0.015450 -0.006624
# 2 -0.001305 0.010728 -0.006285 -0.004388 -0.014898 -0.004721
# 3 -0.003249 -0.006285 0.035070 0.015970 0.032024 0.017146
# 4 0.001237 -0.004388 0.015970 0.032492 0.019834 0.006842
# 5 -0.015450 -0.014898 0.032024 0.019834 0.156831 0.063691
# 6 -0.006624 -0.004721 0.017146 0.006842 0.063691 0.047461
#
#
# Mechanical properties :
#
#
# Convention : Reuss Voigt Hill
#
# Bulk Modulus (GPa) = 26.94140 41.49521 34.21830
# Shear Modulus (GPa) = 15.16860 36.06319 25.61590
#
# Velocity S-wave (km/s) = 2.57370 3.96841 3.34457
# Velocity P-wave (km/s) = 4.53838 6.25445 5.46420
#
# Compressibility (1/GPa) = 0.03711759
#
# Stress axis : x y z
#
# Youngs Moduli (GPa) = 76.93994 93.21656 28.51445
#
# Poissons Ratio (x) = 0.12167 0.09263
# Poissons Ratio (y) = 0.10043 0.17921
# Poissons Ratio (z) = 0.24995 0.58584
#
# Static dielectric constant tensor:
#      x y z
#    x 1.784680 0.109830 0.009900 
#    y 0.109830 1.846830 -0.005920 
#    z 0.009900 -0.005920 1.829500 
# 
# From -- ./inp_files/199922.got.cif
#   From: 2010.05.17/outbox.cif.g08.bks.cpg/sg2_100_cif.got.tgz:199922.got - 2010.06.03 11:33:40.
