data_PCOD9041731
_publ_section_title
;
Structure prediction by ZEFSAII (Michael W. Deem and Ramdas Pophale) SiO2 
 PCOD9041731
Probable space group: P -1
;
_chemical_formula_sum "Si O2"
_cell_formula_units_Z 10
_cell_length_a 11.428727
_cell_length_b 8.109627
_cell_length_c 5.376614
_cell_angle_alpha 89.665264
_cell_angle_beta 83.300626
_cell_angle_gamma 130.122479
_cell_volume 376.287416
_symmetry_space_group_name_H-M "P -1"
_symmetry_group_IT_number 2
_symmetry_cell_setting 'triclinic'
loop_
_space_group_symop_operation_xyz
x,y,z
-x,-y,-z
loop_
_atom_site_type_symbol
_atom_site_label
_atom_site_fract_x
_atom_site_fract_y
_atom_site_fract_z
Si Si1 0.911693 0.041791 0.207130
Si Si2 0.165780 0.717081 0.067057
Si Si3 0.567369 0.200757 0.293486
Si Si4 0.363183 0.314865 0.360862
Si Si5 0.198360 0.464355 0.384278
O O1 0.032157 0.236451 0.366883
O O2 0.780978 0.853011 0.421073
O O3 0.839909 0.103944 0.027708
O O4 0.000000 0.000000 0.000000
O O5 0.170832 0.633262 0.331308
O O6 0.332071 0.799681 0.935289
O O7 0.000000 0.500000 0.000000
O O8 0.432556 0.204998 0.245202
O O9 0.707340 0.432396 0.386660
O O10 0.500000 0.000000 0.500000
O O11 0.500000 0.500000 0.500000
O O12 0.308042 0.425517 0.214797
#
# Coordination Sequence:
#
# PCOD9041731 Si02
#       5
#     2   2   2   2   2
#     4  11  24  45  68  98 137 176 224 270 324 405
#     4  10  24  44  68  99 132 174 224 273 327 397
#     4  11  23  46  69  97 139 168 223 282 324 394
#     4  10  23  44  66  99 135 172 221 274 329 386
#     4  10  25  43  71  99 130 181 220 265 342 387
#
# _framework density 26.575430999999998
#
# number of rings (size 3 to 8) (size 9 to 14) (size 15 to 20)
#    0.000    1.600    2.000    0.600   11.200    6.400 
#    3.600    0.000    0.000    0.000    0.000    0.000 
#    0.000    0.000    0.000    0.000    0.000    0.000 
#
# Total GULP energy -55751.105043 kJ/mol
# GULP energy per Si atom -5575.110504 kJ/mol
# Density = 2.651494 g / cm^3
# Si number density = 26.575431 Si / 1000 Ang^3
#
#
#
# Elastic Constant Matrix: (Units=GPa)
#
#
# Indices 1 2 3 4 5 6 
#
# 1 234.0863 27.3048 51.1003 -18.6753 19.8797 -14.5053
# 2 27.3048 135.9591 39.1731 9.7531 -1.2435 26.2930
# 3 51.1003 39.1731 52.0223 -11.6446 4.1528 9.8732
# 4 -18.6753 9.7531 -11.6446 34.8923 7.9909 8.6330
# 5 19.8797 -1.2435 4.1528 7.9909 59.9644 -6.3371
# 6 -14.5053 26.2930 9.8732 8.6330 -6.3371 55.1537
#
#
#
# Elastic Compliance Matrix: (Units=1/GPa)
#
#
# Indices 1 2 3 4 5 6 
#
# 1 0.005900 -0.000013 -0.005895 0.000953 -0.001432 0.002299
# 2 -0.000013 0.010899 -0.009126 -0.005794 0.001370 -0.002501
# 3 -0.005895 -0.009126 0.036436 0.013854 -0.003267 -0.006266
# 4 0.000953 -0.005794 0.013854 0.038635 -0.007215 -0.006344
# 5 -0.001432 0.001370 -0.003267 -0.007215 0.018666 0.002829
# 6 0.002299 -0.002501 -0.006266 -0.006344 0.002829 0.022368
#
#
# Mechanical properties :
#
#
# Convention : Reuss Voigt Hill
#
# Bulk Modulus (GPa) = 43.16296 73.02491 58.09394
# Shear Modulus (GPa) = 29.29203 50.30138 39.79671
#
# Velocity S-wave (km/s) = 3.32357 4.35533 3.87395
# Velocity P-wave (km/s) = 5.56823 7.26841 6.47437
#
# Compressibility (1/GPa) = 0.02316801
#
# Stress axis : x y z
#
# Youngs Moduli (GPa) = 169.47921 91.75146 27.44527
#
# Poissons Ratio (x) = 0.00116 0.16179
# Poissons Ratio (y) = 0.00215 0.25047
# Poissons Ratio (z) = 0.99908 0.83734
#
# Static dielectric constant tensor:
#      x y z
#    x 2.090870 -0.004310 -0.159250 
#    y -0.004310 1.936410 0.111810 
#    z -0.159250 0.111810 2.166000 
# 
# From -- ./inp_files/59215.got.cif
#   From: 2010.05.17/outbox.cif.g08.bks.cpg/sg2_30_cif.got.tgz:59215.got - 2010.06.03 11:33:40.
