data_PCOD9041539
_publ_section_title
;
Structure prediction by ZEFSAII (Michael W. Deem and Ramdas Pophale) SiO2 
 PCOD9041539
Probable space group: P -1
;
_chemical_formula_sum "Si O2"
_cell_formula_units_Z 16
_cell_length_a 9.390669
_cell_length_b 19.132420
_cell_length_c 5.176792
_cell_angle_alpha 88.646793
_cell_angle_beta 84.576388
_cell_angle_gamma 44.793318
_cell_volume 651.112340
_symmetry_space_group_name_H-M "P -1"
_symmetry_group_IT_number 2
_symmetry_cell_setting 'triclinic'
loop_
_space_group_symop_operation_xyz
x,y,z
-x,-y,-z
loop_
_atom_site_type_symbol
_atom_site_label
_atom_site_fract_x
_atom_site_fract_y
_atom_site_fract_z
Si Si1 0.827144 0.867176 0.929583
Si Si2 0.543675 0.060734 0.243966
Si Si3 0.093412 0.044106 0.460255
Si Si4 0.572345 0.540336 0.150896
Si Si5 0.248983 0.338661 0.608540
Si Si6 0.508608 0.220018 0.077761
Si Si7 0.799131 0.487838 0.602488
Si Si8 0.804303 0.236131 0.860754
O O1 0.698322 0.869531 0.739531
O O2 0.899433 0.917704 0.811542
O O3 0.039287 0.766605 0.014617
O O4 0.654105 0.949199 0.157460
O O5 0.675215 0.036051 0.470670
O O6 0.579938 0.115328 0.049143
O O7 0.948324 0.144671 0.647283
O O8 0.000000 0.000000 0.500000
O O9 0.685011 0.482467 0.403051
O O10 0.376972 0.655810 0.239546
O O11 0.500000 0.500000 0.000000
O O12 0.707109 0.530030 0.901540
O O13 0.350477 0.290984 0.870554
O O14 0.212508 0.433097 0.546355
O O15 0.027400 0.382382 0.613390
O O16 0.399070 0.260652 0.368099
O O17 0.683810 0.217430 0.038849
#
# Coordination Sequence:
#
# PCOD9041539 Si02
#       8
#     2   2   2   2   2   2   2   2
#     4  10  23  44  64  92 143 174 231 276 350 410
#     4  10  24  42  64  98 132 185 220 286 343 416
#     4  11  23  41  72 100 137 180 230 282 345 416
#     4  12  26  45  71  99 144 187 229 286 346 423
#     4  11  24  42  73  99 134 176 227 301 341 407
#     4  12  24  42  70 106 136 176 237 285 347 412
#     4  11  23  47  69  99 135 180 235 285 357 402
#     4  11  25  41  67 101 134 179 233 284 345 406
#
# _framework density 24.573332000000001
#
# number of rings (size 3 to 8) (size 9 to 14) (size 15 to 20)
#    0.000    1.000    2.500    3.000    7.000    6.000 
#    2.250    0.000    0.000    0.000    0.000    0.000 
#    0.000    0.000    0.000    0.000    0.000    0.000 
#
# Total GULP energy -89382.098272 kJ/mol
# GULP energy per Si atom -5586.381142 kJ/mol
# Density = 2.451740 g / cm^3
# Si number density = 24.573332 Si / 1000 Ang^3
#
#
#
# Elastic Constant Matrix: (Units=GPa)
#
#
# Indices 1 2 3 4 5 6 
#
# 1 103.8810 28.1582 12.4993 -7.9538 20.5542 -29.1547
# 2 28.1582 74.3189 9.2107 5.8790 10.8679 -29.8091
# 3 12.4993 9.2107 65.3161 -0.8731 16.4881 -13.8065
# 4 -7.9538 5.8790 -0.8731 34.3072 -1.6285 11.1889
# 5 20.5542 10.8679 16.4881 -1.6285 33.7680 -13.7539
# 6 -29.1547 -29.8091 -13.8065 11.1889 -13.7539 49.6568
#
#
#
# Elastic Compliance Matrix: (Units=1/GPa)
#
#
# Indices 1 2 3 4 5 6 
#
# 1 0.012603 -0.002542 0.000138 0.001786 -0.005175 0.004077
# 2 -0.002542 0.020012 0.000256 -0.008040 -0.000399 0.012293
# 3 0.000138 0.000256 0.017850 -0.001002 -0.007576 0.003325
# 4 0.001786 -0.008040 -0.001002 0.034856 -0.001331 -0.012279
# 5 -0.005175 -0.000399 -0.007576 -0.001331 0.038838 0.005673
# 6 0.004077 0.012293 0.003325 -0.012279 0.005673 0.035174
#
#
# Mechanical properties :
#
#
# Convention : Reuss Voigt Hill
#
# Bulk Modulus (GPa) = 21.65874 38.13912 29.89893
# Shear Modulus (GPa) = 27.93023 36.45626 32.19325
#
# Velocity S-wave (km/s) = 3.37502 3.85589 3.62344
# Velocity P-wave (km/s) = 4.90109 5.94795 5.44972
#
# Compressibility (1/GPa) = 0.04617074
#
# Stress axis : x y z
#
# Youngs Moduli (GPa) = 79.34304 49.96997 56.02393
#
# Poissons Ratio (x) = 0.12701 -0.00775
# Poissons Ratio (y) = 0.20167 -0.01435
# Poissons Ratio (z) = -0.01098 -0.01280
#
# Static dielectric constant tensor:
#      x y z
#    x 2.060800 -0.001320 0.018750 
#    y -0.001320 1.967150 0.015440 
#    z 0.018750 0.015440 2.005680 
# 
# From -- ./inp_files/48211.got.cif
#   From: 2010.05.17/outbox.cif.g08.bks.cpg/sg2_25_cif.got.tgz:48211.got - 2010.06.03 11:33:40.
