data_PCOD9041709
_publ_section_title
;
Structure prediction by ZEFSAII (Michael W. Deem and Ramdas Pophale) SiO2 
 PCOD9041709
Probable space group: P -1
;
_chemical_formula_sum "Si O2"
_cell_formula_units_Z 11
_cell_length_a 5.003641
_cell_length_b 5.481317
_cell_length_c 17.764976
_cell_angle_alpha 97.687246
_cell_angle_beta 107.458666
_cell_angle_gamma 84.241311
_cell_volume 459.674764
_symmetry_space_group_name_H-M "P -1"
_symmetry_group_IT_number 2
_symmetry_cell_setting 'triclinic'
loop_
_space_group_symop_operation_xyz
x,y,z
-x,-y,-z
loop_
_atom_site_type_symbol
_atom_site_label
_atom_site_fract_x
_atom_site_fract_y
_atom_site_fract_z
Si Si1 0.462212 0.687184 0.934719
Si Si2 0.331990 0.242328 0.321820
Si Si3 0.000000 0.000000 0.000000
Si Si4 0.754779 0.441933 0.245750
Si Si5 0.250759 0.210860 0.472829
Si Si6 0.789644 0.844068 0.372455
O O1 0.753206 0.811118 0.948419
O O2 0.370293 0.544537 0.846866
O O3 0.214501 0.883953 0.947231
O O4 0.500000 0.500000 0.000000
O O5 0.518040 0.375330 0.282599
O O6 0.327388 0.359002 0.410957
O O7 0.017903 0.244395 0.264712
O O8 0.483575 0.972532 0.335396
O O9 0.873616 0.687926 0.300130
O O10 0.192987 0.315926 0.555580
O O11 0.500000 0.000000 0.500000
O O12 0.984799 0.065381 0.417218
#
# Coordination Sequence:
#
# PCOD9041709 Si02
#       6
#     2   2   1   2   2   2
#     4  11  25  49  74 108 138 184 234 288 360 435
#     4  11  24  44  63 102 140 180 230 282 334 406
#     4  10  24  48  78 100 140 180 222 292 360 430
#     4  12  27  41  70 105 133 176 240 275 348 411
#     4   9  20  43  66  94 142 186 230 269 350 389
#     4  10  23  44  66  97 143 185 224 293 326 401
#
# _framework density 23.929964999999999
#
# number of rings (size 3 to 8) (size 9 to 14) (size 15 to 20)
#    0.000    1.455    1.818    1.636    5.091    5.818 
#    3.273    0.000    0.000    0.000    0.000    0.000 
#    0.000    0.000    0.000    0.000    0.000    0.000 
#
# Total GULP energy -61249.767606 kJ/mol
# GULP energy per Si atom -5568.160691 kJ/mol
# Density = 2.387550 g / cm^3
# Si number density = 23.929965 Si / 1000 Ang^3
#
#
#
# Elastic Constant Matrix: (Units=GPa)
#
#
# Indices 1 2 3 4 5 6 
#
# 1 157.3734 23.7324 39.1161 -7.8550 14.9750 21.5392
# 2 23.7324 44.9636 52.7018 3.7333 6.5036 6.5172
# 3 39.1161 52.7018 208.6986 -2.7082 7.4044 2.6016
# 4 -7.8550 3.7333 -2.7082 33.4692 3.5307 -1.6322
# 5 14.9750 6.5036 7.4044 3.5307 30.2714 2.3507
# 6 21.5392 6.5172 2.6016 -1.6322 2.3507 38.1868
#
#
#
# Elastic Compliance Matrix: (Units=1/GPa)
#
#
# Indices 1 2 3 4 5 6 
#
# 1 0.007806 -0.002597 -0.000622 0.002224 -0.003129 -0.003630
# 2 -0.002597 0.034623 -0.008156 -0.004976 -0.003276 -0.003900
# 3 -0.000622 -0.008156 0.006966 0.001382 0.000092 0.001322
# 4 0.002224 -0.004976 0.001382 0.031557 -0.004136 0.001104
# 5 -0.003129 -0.003276 0.000092 -0.004136 0.035751 -0.000060
# 6 -0.003630 -0.003900 0.001322 0.001104 -0.000060 0.028861
#
#
# Mechanical properties :
#
#
# Convention : Reuss Voigt Hill
#
# Bulk Modulus (GPa) = 37.53113 71.34848 54.43980
# Shear Modulus (GPa) = 28.21737 40.08451 34.15094
#
# Velocity S-wave (km/s) = 3.43762 4.09721 3.78182
# Velocity P-wave (km/s) = 5.61018 7.22932 6.47060
#
# Compressibility (1/GPa) = 0.02664455
#
# Stress axis : x y z
#
# Youngs Moduli (GPa) = 128.10407 28.88260 143.55341
#
# Poissons Ratio (x) = 0.07501 0.08932
# Poissons Ratio (y) = 0.33267 1.17085
# Poissons Ratio (z) = 0.07970 0.23557
#
# Static dielectric constant tensor:
#      x y z
#    x 1.969310 0.000870 -0.030350 
#    y 0.000870 1.980000 0.012190 
#    z -0.030350 0.012190 1.896730 
# 
# From -- ./inp_files/545323.got.cif
#   From: 2010.05.17/outbox.cif.g08.bks.cpg/sg2_273_cif.got.tgz:545323.got - 2010.06.03 11:33:40.
