data_PCOD9041106
_publ_section_title
;
Structure prediction by ZEFSAII (Michael W. Deem and Ramdas Pophale) SiO2 
 PCOD9041106
Probable space group: P -1
;
_chemical_formula_sum "Si O2"
_cell_formula_units_Z 14
_cell_length_a 16.145519
_cell_length_b 13.763634
_cell_length_c 6.874843
_cell_angle_alpha 74.792633
_cell_angle_beta 98.380520
_cell_angle_gamma 152.829735
_cell_volume 659.747095
_symmetry_space_group_name_H-M "P -1"
_symmetry_group_IT_number 2
_symmetry_cell_setting 'triclinic'
loop_
_space_group_symop_operation_xyz
x,y,z
-x,-y,-z
loop_
_atom_site_type_symbol
_atom_site_label
_atom_site_fract_x
_atom_site_fract_y
_atom_site_fract_z
Si Si1 0.357325 0.272284 0.810039
Si Si2 0.151749 0.428113 0.422023
Si Si3 0.503031 0.113738 0.854471
Si Si4 0.013702 0.790920 0.107260
Si Si5 0.402272 0.615253 0.934646
Si Si6 0.908579 0.292622 0.108815
Si Si7 0.439827 0.585746 0.548484
O O1 0.376161 0.409637 0.700903
O O2 0.389970 0.251275 0.624308
O O3 0.168905 0.037715 0.972746
O O4 0.519825 0.402511 0.932399
O O5 0.328284 0.693134 0.340198
O O6 0.030704 0.276755 0.648807
O O7 0.271251 0.452733 0.434632
O O8 0.020356 0.338861 0.266269
O O9 0.304474 0.922721 0.794131
O O10 0.536598 0.227690 0.986024
O O11 0.500000 0.000000 0.000000
O O12 0.818391 0.614600 0.040216
O O13 0.082012 0.758371 0.061883
O O14 0.474066 0.690714 0.695760
O O15 0.000000 0.500000 0.000000
#
# Coordination Sequence:
#
# PCOD9041106 Si02
#       7
#     2   2   2   2   2   2   2
#     4  11  22  44  68 100 137 175 226 271 331 390
#     4  11  24  43  66  97 134 170 223 271 329 399
#     4  12  23  46  69  94 134 175 215 280 333 388
#     4  11  24  41  67 100 131 176 219 275 327 396
#     4  11  22  43  66  97 140 171 221 276 330 393
#     4  12  23  45  70  93 130 175 224 276 333 391
#     4  10  23  43  71 100 132 180 221 275 335 387
#
# _framework density 21.220251999999999
#
# number of rings (size 3 to 8) (size 9 to 14) (size 15 to 20)
#    0.000    0.857    5.714    0.429    0.000    6.286 
#    0.000   11.429    0.000    0.000    0.000    0.000 
#    0.000    0.000    0.000    0.000    0.000    0.000 
#
# Total GULP energy -78127.872938 kJ/mol
# GULP energy per Si atom -5580.562353 kJ/mol
# Density = 2.117195 g / cm^3
# Si number density = 21.220252 Si / 1000 Ang^3
#
#
#
# Elastic Constant Matrix: (Units=GPa)
#
#
# Indices 1 2 3 4 5 6 
#
# 1 91.1361 24.5119 42.0050 -3.8714 34.6874 3.6910
# 2 24.5119 64.7917 52.0722 -18.4746 1.5056 13.4067
# 3 42.0050 52.0722 138.5958 -23.9487 8.9623 1.5638
# 4 -3.8714 -18.4746 -23.9487 36.8139 8.9169 2.2350
# 5 34.6874 1.5056 8.9623 8.9169 40.1769 -4.9008
# 6 3.6910 13.4067 1.5638 2.2350 -4.9008 38.2756
#
#
#
# Elastic Compliance Matrix: (Units=1/GPa)
#
#
# Indices 1 2 3 4 5 6 
#
# 1 0.020344 -0.003152 -0.003297 0.002902 -0.017740 -0.003164
# 2 -0.003152 0.027254 -0.007667 0.008857 0.000297 -0.009408
# 3 -0.003297 -0.007667 0.011611 0.003186 0.000125 0.002359
# 4 0.002902 0.008857 0.003186 0.037525 -0.012771 -0.007339
# 5 -0.017740 0.000297 0.000125 -0.012771 0.043975 0.007978
# 6 -0.003164 -0.009408 0.002359 -0.007339 0.007978 0.031080
#
#
# Mechanical properties :
#
#
# Convention : Reuss Voigt Hill
#
# Bulk Modulus (GPa) = 32.28324 59.07796 45.68060
# Shear Modulus (GPa) = 23.77039 34.78225 29.27632
#
# Velocity S-wave (km/s) = 3.35053 4.05298 3.71838
# Velocity P-wave (km/s) = 5.49677 7.05712 6.32525
#
# Compressibility (1/GPa) = 0.03097583
#
# Stress axis : x y z
#
# Youngs Moduli (GPa) = 49.15543 36.69237 86.12708
#
# Poissons Ratio (x) = 0.11567 0.28396
# Poissons Ratio (y) = 0.15496 0.66031
# Poissons Ratio (z) = 0.16207 0.28131
#
# Static dielectric constant tensor:
#      x y z
#    x 1.772320 0.005110 -0.031430 
#    y 0.005110 1.783820 0.025110 
#    z -0.031430 0.025110 1.812330 
# 
# From -- ./inp_files/110741.got.cif
#   From: 2010.05.17/outbox.cif.g08.bks.cpg/sg2_56_cif.got.tgz:110741.got - 2010.06.03 11:33:40.
