data_PCOD9041422
_publ_section_title
;
Structure prediction by ZEFSAII (Michael W. Deem and Ramdas Pophale) SiO2 
 PCOD9041422
Probable space group: P -1
;
_chemical_formula_sum "Si O2"
_cell_formula_units_Z 16
_cell_length_a 11.719248
_cell_length_b 9.861888
_cell_length_c 10.129520
_cell_angle_alpha 44.454104
_cell_angle_beta 109.349272
_cell_angle_gamma 101.414409
_cell_volume 772.259653
_symmetry_space_group_name_H-M "P -1"
_symmetry_group_IT_number 2
_symmetry_cell_setting 'triclinic'
loop_
_space_group_symop_operation_xyz
x,y,z
-x,-y,-z
loop_
_atom_site_type_symbol
_atom_site_label
_atom_site_fract_x
_atom_site_fract_y
_atom_site_fract_z
Si Si1 0.418589 0.018916 0.827234
Si Si2 0.493661 0.844905 0.487184
Si Si3 0.016445 0.265104 0.181066
Si Si4 0.754491 0.621952 0.703939
Si Si5 0.236487 0.722005 0.840813
Si Si6 0.754399 0.335343 0.425495
Si Si7 0.980853 0.056573 0.800221
Si Si8 0.197725 0.320310 0.605117
O O1 0.516696 0.051701 0.728811
O O2 0.316996 0.183266 0.717445
O O3 0.336172 0.860888 0.836954
O O4 0.500000 0.000000 0.000000
O O5 0.620598 0.720980 0.600492
O O6 0.380308 0.716992 0.550903
O O7 0.500000 0.000000 0.500000
O O8 0.147755 0.225999 0.322056
O O9 0.902453 0.193590 0.266248
O O10 0.014302 0.151425 0.123961
O O11 0.000000 0.500000 0.000000
O O12 0.802974 0.562739 0.616954
O O13 0.757916 0.449173 0.930188
O O14 0.251099 0.655226 0.742147
O O15 0.854379 0.173331 0.631210
O O16 0.786782 0.533695 0.370147
O O17 0.085563 0.189322 0.688475
O O18 0.000000 0.000000 0.000000
#
# Coordination Sequence:
#
# PCOD9041422 Si02
#       8
#     2   2   2   2   2   2   2   2
#     4  11  26  44  72 100 142 188 235 285 350 414
#     4  11  24  45  66 103 140 180 235 288 347 415
#     4  10  23  43  74  99 135 180 234 283 350 413
#     4  10  25  43  73  98 140 184 236 283 350 414
#     4  11  24  46  72 103 135 187 238 285 350 414
#     4  12  28  44  72 103 146 184 233 294 350 418
#     4  12  28  45  72 106 144 180 234 293 361 412
#     4  11  27  46  69 104 140 184 237 285 352 417
#
# _framework density 20.718419999999998
#
# number of rings (size 3 to 8) (size 9 to 14) (size 15 to 20)
#    0.000    1.000    2.500    1.875   14.000    3.500 
#    0.000    0.000    0.000    0.000    0.000    0.000 
#    0.000    0.000    0.000    0.000    0.000    0.000 
#
# Total GULP energy -89214.140368 kJ/mol
# GULP energy per Si atom -5575.883773 kJ/mol
# Density = 2.067126 g / cm^3
# Si number density = 20.718420 Si / 1000 Ang^3
#
#
#
# Elastic Constant Matrix: (Units=GPa)
#
#
# Indices 1 2 3 4 5 6 
#
# 1 110.6568 32.7613 31.2426 17.4892 -4.3430 6.3270
# 2 32.7613 175.4196 53.0192 24.9741 -5.6356 -2.6207
# 3 31.2426 53.0192 111.1427 30.4622 -16.7542 -2.6718
# 4 17.4892 24.9741 30.4622 36.7420 -8.1120 -3.4082
# 5 -4.3430 -5.6356 -16.7542 -8.1120 22.2923 6.3274
# 6 6.3270 -2.6207 -2.6718 -3.4082 6.3274 29.9820
#
#
#
# Elastic Compliance Matrix: (Units=1/GPa)
#
#
# Indices 1 2 3 4 5 6 
#
# 1 0.010474 -0.001056 -0.001613 -0.003145 0.000226 -0.002852
# 2 -0.001056 0.006978 -0.002587 -0.002351 -0.001421 0.000635
# 3 -0.001613 -0.002587 0.013742 -0.007427 0.006932 -0.000968
# 4 -0.003145 -0.002351 -0.007427 0.038117 0.006286 0.002803
# 5 0.000226 -0.001421 0.006932 0.006286 0.055006 -0.010448
# 6 -0.002852 0.000635 -0.000968 0.002803 -0.010448 0.036448
#
#
# Mechanical properties :
#
#
# Convention : Reuss Voigt Hill
#
# Bulk Modulus (GPa) = 48.34952 70.14060 59.24506
# Shear Modulus (GPa) = 28.06293 36.48302 32.27297
#
# Velocity S-wave (km/s) = 3.68433 4.20086 3.95105
# Velocity P-wave (km/s) = 6.44098 7.58006 7.03362
#
# Compressibility (1/GPa) = 0.02068273
#
# Stress axis : x y z
#
# Youngs Moduli (GPa) = 95.47415 143.30419 72.76974
#
# Poissons Ratio (x) = 0.15136 0.11737
# Poissons Ratio (y) = 0.10084 0.18823
# Poissons Ratio (z) = 0.15399 0.37068
#
# Static dielectric constant tensor:
#      x y z
#    x 1.656930 -0.086390 0.013710 
#    y -0.086390 1.618410 -0.089910 
#    z 0.013710 -0.089910 1.676630 
# 
# From -- ./inp_files/242184.got.cif
#   From: 2010.05.17/outbox.cif.g08.bks.cpg/sg2_122_cif.got.tgz:242184.got - 2010.06.03 11:33:40.
