data_PCOD9041624
_publ_section_title
;
Structure prediction by ZEFSAII (Michael W. Deem and Ramdas Pophale) SiO2 
 PCOD9041624
Probable space group: P -1
;
_chemical_formula_sum "Si O2"
_cell_formula_units_Z 16
_cell_length_a 14.437950
_cell_length_b 9.491632
_cell_length_c 8.507625
_cell_angle_alpha 102.754220
_cell_angle_beta 60.154044
_cell_angle_gamma 56.746274
_cell_volume 619.572404
_symmetry_space_group_name_H-M "P -1"
_symmetry_group_IT_number 2
_symmetry_cell_setting 'triclinic'
loop_
_space_group_symop_operation_xyz
x,y,z
-x,-y,-z
loop_
_atom_site_type_symbol
_atom_site_label
_atom_site_fract_x
_atom_site_fract_y
_atom_site_fract_z
Si Si1 0.517701 0.760422 0.655384
Si Si2 0.871705 0.333767 0.755311
Si Si3 0.784009 0.001935 0.474959
Si Si4 0.938330 0.840756 0.979538
Si Si5 0.245219 0.683696 0.830757
Si Si6 0.661041 0.866022 0.717901
Si Si7 0.177126 0.280857 0.133944
Si Si8 0.618002 0.458668 0.767085
O O1 0.580320 0.580244 0.428716
O O2 0.657375 0.738354 0.567181
O O3 0.510642 0.673908 0.799152
O O4 0.346023 0.032316 0.850804
O O5 0.768622 0.390725 0.704474
O O6 0.075208 0.103197 0.538276
O O7 0.798073 0.318578 0.957276
O O8 0.839734 0.537015 0.858473
O O9 0.880069 0.844068 0.200703
O O10 0.658459 0.016201 0.657450
O O11 0.700210 0.239249 0.550986
O O12 0.961394 0.684819 0.803160
O O13 0.798143 0.101713 0.095553
O O14 0.107779 0.752802 0.847956
O O15 0.804429 0.736645 0.697550
O O16 0.500000 0.000000 0.000000
O O17 0.500000 0.500000 0.000000
#
# Coordination Sequence:
#
# PCOD9041624 Si02
#       8
#     2   2   2   2   2   2   2   2
#     4  11  24  44  67  96 136 178 222 275 339 397
#     4  11  27  44  67 104 136 175 230 276 336 401
#     4  11  25  45  72  97 133 182 224 280 335 398
#     4  10  24  45  67  98 135 177 227 275 336 394
#     4  10  24  45  67  96 136 178 227 279 325 405
#     4  10  23  44  65  98 137 172 218 274 336 401
#     4  11  25  43  64 101 137 172 225 277 334 401
#     4  12  25  45  70  98 136 179 225 285 332 398
#
# _framework density 25.824262999999998
#
# number of rings (size 3 to 8) (size 9 to 14) (size 15 to 20)
#    0.000    1.250    2.500    1.875    8.750    4.500 
#    0.000    0.000    0.000    0.000    0.000    0.000 
#    0.000    0.000    0.000    0.000    0.000    0.000 
#
# Total GULP energy -89623.927417 kJ/mol
# GULP energy per Si atom -5601.495464 kJ/mol
# Density = 2.576549 g / cm^3
# Si number density = 25.824263 Si / 1000 Ang^3
#
#
#
# Elastic Constant Matrix: (Units=GPa)
#
#
# Indices 1 2 3 4 5 6 
#
# 1 138.3383 22.1357 9.8837 1.0405 5.2251 9.5444
# 2 22.1357 116.2001 17.7599 -0.2201 -6.0957 22.9781
# 3 9.8837 17.7599 69.1899 5.8529 -0.9249 19.7008
# 4 1.0405 -0.2201 5.8529 44.9895 2.7118 -5.3754
# 5 5.2251 -6.0957 -0.9249 2.7118 28.3844 1.3735
# 6 9.5444 22.9781 19.7008 -5.3754 1.3735 42.1901
#
#
#
# Elastic Compliance Matrix: (Units=1/GPa)
#
#
# Indices 1 2 3 4 5 6 
#
# 1 0.007590 -0.001308 -0.000564 -0.000092 -0.001654 -0.000699
# 2 -0.001308 0.010112 -0.000920 -0.000552 0.002674 -0.004939
# 3 -0.000564 -0.000920 0.017313 -0.003259 0.001164 -0.007909
# 4 -0.000092 -0.000552 -0.003259 0.023399 -0.002681 0.004912
# 5 -0.001654 0.002674 0.001164 -0.002681 0.036556 -0.003158
# 6 -0.000699 -0.004939 -0.007909 0.004912 -0.003158 0.030972
#
#
# Mechanical properties :
#
#
# Convention : Reuss Voigt Hill
#
# Bulk Modulus (GPa) = 33.97832 47.03187 40.50509
# Shear Modulus (GPa) = 35.37691 41.37607 38.37649
#
# Velocity S-wave (km/s) = 3.70524 4.00711 3.85913
# Velocity P-wave (km/s) = 5.61170 6.29770 5.96457
#
# Compressibility (1/GPa) = 0.02943053
#
# Stress axis : x y z
#
# Youngs Moduli (GPa) = 131.75805 98.89674 57.76086
#
# Poissons Ratio (x) = 0.12939 0.03255
# Poissons Ratio (y) = 0.17238 0.05313
# Poissons Ratio (z) = 0.07425 0.09097
#
# Static dielectric constant tensor:
#      x y z
#    x 2.113690 -0.050190 -0.037570 
#    y -0.050190 1.960650 0.067730 
#    z -0.037570 0.067730 2.093960 
# 
# From -- ./inp_files/217669.got.cif
#   From: 2010.05.17/outbox.cif.g08.bks.cpg/sg2_109_cif.got.tgz:217669.got - 2010.06.03 11:33:40.
