data_PCOD9041396
_publ_section_title
;
Structure prediction by ZEFSAII (Michael W. Deem and Ramdas Pophale) SiO2 
 PCOD9041396
Probable space group: P -1
;
_chemical_formula_sum "Si O2"
_cell_formula_units_Z 14
_cell_length_a 13.907702
_cell_length_b 9.388978
_cell_length_c 6.222801
_cell_angle_alpha 105.794604
_cell_angle_beta 121.449510
_cell_angle_gamma 62.263344
_cell_volume 613.086058
_symmetry_space_group_name_H-M "P -1"
_symmetry_group_IT_number 2
_symmetry_cell_setting 'triclinic'
loop_
_space_group_symop_operation_xyz
x,y,z
-x,-y,-z
loop_
_atom_site_type_symbol
_atom_site_label
_atom_site_fract_x
_atom_site_fract_y
_atom_site_fract_z
Si Si1 0.976086 0.947027 0.198192
Si Si2 0.892470 0.435337 0.856737
Si Si3 0.316370 0.344723 0.016145
Si Si4 0.318822 0.521965 0.687070
Si Si5 0.292407 0.820464 0.058618
Si Si6 0.624312 0.004693 0.059974
Si Si7 0.579326 0.294073 0.410598
O O1 0.047269 0.755842 0.184319
O O2 0.000000 0.000000 0.500000
O O3 0.829773 0.020866 0.042050
O O4 0.000000 0.000000 0.000000
O O5 0.806739 0.507626 0.994970
O O6 0.789804 0.498355 0.578118
O O7 0.000000 0.500000 0.000000
O O8 0.439323 0.313540 0.285496
O O9 0.360551 0.380933 0.851006
O O10 0.290122 0.183007 0.926845
O O11 0.415890 0.557680 0.662815
O O12 0.272162 0.688625 0.832578
O O13 0.339283 0.728304 0.295120
O O14 0.391270 0.893209 0.132797
O O15 0.652232 0.123039 0.305233
O O16 0.500000 0.000000 0.000000
#
# Coordination Sequence:
#
# PCOD9041396 Si02
#       7
#     2   2   2   2   2   2   2
#     4  12  26  49  80 108 147 199 258 312 365 450
#     4  12  28  47  68 106 143 196 246 308 379 439
#     4  11  24  43  68 106 148 182 233 308 376 446
#     4  11  23  43  68 102 142 179 240 301 377 442
#     4  11  23  44  73 102 139 189 250 301 362 450
#     4   9  22  41  65 101 141 186 236 292 370 440
#     4  10  23  43  74 104 138 189 241 297 375 450
#
# _framework density 22.835294000000001
#
# number of rings (size 3 to 8) (size 9 to 14) (size 15 to 20)
#    0.000    1.143    1.429    3.857    2.000   10.857 
#    0.000    0.000    0.000    0.000    0.000    0.000 
#    0.000    0.000    0.000    0.000    0.000    0.000 
#
# Total GULP energy -77973.259685 kJ/mol
# GULP energy per Si atom -5569.518549 kJ/mol
# Density = 2.278332 g / cm^3
# Si number density = 22.835294 Si / 1000 Ang^3
#
#
#
# Elastic Constant Matrix: (Units=GPa)
#
#
# Indices 1 2 3 4 5 6 
#
# 1 94.4592 44.7632 40.9562 5.1332 3.1463 8.8249
# 2 44.7632 126.7623 28.8502 23.0917 -14.3643 -1.5448
# 3 40.9562 28.8502 92.9409 5.1521 5.3077 12.1802
# 4 5.1332 23.0917 5.1521 36.6459 -2.8744 -0.7470
# 5 3.1463 -14.3643 5.3077 -2.8744 30.2923 -1.3444
# 6 8.8249 -1.5448 12.1802 -0.7470 -1.3444 50.8886
#
#
#
# Elastic Compliance Matrix: (Units=1/GPa)
#
#
# Indices 1 2 3 4 5 6 
#
# 1 0.015180 -0.004856 -0.004868 0.001351 -0.002973 -0.001673
# 2 -0.004856 0.011783 -0.001743 -0.006002 0.005902 0.001685
# 3 -0.004868 -0.001743 0.013985 -0.000470 -0.002933 -0.002641
# 4 0.001351 -0.006002 -0.000470 0.030953 0.000040 0.000151
# 5 -0.002973 0.005902 -0.002933 0.000040 0.036742 0.002368
# 6 -0.001673 0.001685 -0.002641 0.000151 0.002368 0.020689
#
#
# Mechanical properties :
#
#
# Convention : Reuss Voigt Hill
#
# Bulk Modulus (GPa) = 55.50905 60.36685 57.93795
# Shear Modulus (GPa) = 31.59124 36.87156 34.23140
#
# Velocity S-wave (km/s) = 3.72350 4.02266 3.87597
# Velocity P-wave (km/s) = 6.54577 6.93317 6.74225
#
# Compressibility (1/GPa) = 0.01801508
#
# Stress axis : x y z
#
# Youngs Moduli (GPa) = 65.87435 84.86806 71.50361
#
# Poissons Ratio (x) = 0.41212 0.34808
# Poissons Ratio (y) = 0.31988 0.12462
# Poissons Ratio (z) = 0.32067 0.14791
#
# Static dielectric constant tensor:
#      x y z
#    x 2.012600 -0.000440 -0.099820 
#    y -0.000440 1.862150 0.045300 
#    z -0.099820 0.045300 1.950100 
# 
# From -- ./inp_files/34816.got.cif
#   From: 2010.05.17/outbox.cif.g08.bks.cpg/sg2_18_cif.got.tgz:34816.got - 2010.06.03 11:33:40.
