data_PCOD9041900
_publ_section_title
;
Structure prediction by ZEFSAII (Michael W. Deem and Ramdas Pophale) SiO2 
 PCOD9041900
Probable space group: P -1
;
_chemical_formula_sum "Si O2"
_cell_formula_units_Z 14
_cell_length_a 5.027658
_cell_length_b 11.234326
_cell_length_c 13.752913
_cell_angle_alpha 59.523488
_cell_angle_beta 52.179706
_cell_angle_gamma 78.660187
_cell_volume 521.325451
_symmetry_space_group_name_H-M "P -1"
_symmetry_group_IT_number 2
_symmetry_cell_setting 'triclinic'
loop_
_space_group_symop_operation_xyz
x,y,z
-x,-y,-z
loop_
_atom_site_type_symbol
_atom_site_label
_atom_site_fract_x
_atom_site_fract_y
_atom_site_fract_z
Si Si1 0.413366 0.560362 0.102942
Si Si2 0.593301 0.295942 0.228795
Si Si3 0.117919 0.536208 0.568279
Si Si4 0.535167 0.912927 0.124809
Si Si5 0.850598 0.192946 0.029411
Si Si6 0.929877 0.143699 0.585883
Si Si7 0.157046 0.868888 0.593632
O O1 0.637397 0.463796 0.153205
O O2 0.385662 0.718825 0.014632
O O3 0.078774 0.527559 0.263198
O O4 0.500000 0.500000 0.000000
O O5 0.648501 0.233374 0.346981
O O6 0.233051 0.217148 0.296778
O O7 0.862746 0.248842 0.112897
O O8 0.500000 0.500000 0.500000
O O9 0.039311 0.694862 0.520316
O O10 0.000000 0.500000 0.500000
O O11 0.188154 0.849479 0.279862
O O12 0.770325 0.797095 0.102048
O O13 0.500000 0.000000 0.000000
O O14 0.705963 0.028816 0.116937
O O15 0.705874 0.090417 0.561632
O O16 0.139174 0.013948 0.592020
#
# Coordination Sequence:
#
# PCOD9041900 Si02
#       7
#     2   2   2   2   2   2   2
#     4  10  24  49  75 105 148 201 249 308 372 450
#     4  11  23  48  70 106 139 184 241 302 357 432
#     4  12  29  49  75 111 155 196 249 304 381 451
#     4  11  23  43  69 103 143 188 242 299 363 443
#     4  10  23  44  68 101 143 187 242 295 369 431
#     4  11  25  46  74 106 145 195 241 306 369 437
#     4  11  25  44  75 104 142 180 250 297 361 423
#
# _framework density 26.854628000000002
#
# number of rings (size 3 to 8) (size 9 to 14) (size 15 to 20)
#    0.000    1.143    2.857    1.714    4.000    3.429 
#    7.714    4.286    0.000    0.000    0.000    0.000 
#    0.000    0.000    0.000    0.000    0.000    0.000 
#
# Total GULP energy -78029.812417 kJ/mol
# GULP energy per Si atom -5573.558030 kJ/mol
# Density = 2.679351 g / cm^3
# Si number density = 26.854628 Si / 1000 Ang^3
#
#
#
# Elastic Constant Matrix: (Units=GPa)
#
#
# Indices 1 2 3 4 5 6 
#
# 1 103.9887 26.0720 6.4494 -1.7411 13.4087 -32.2023
# 2 26.0720 159.6321 25.0802 14.4576 -3.7688 -41.1834
# 3 6.4494 25.0802 153.6278 11.0138 3.3346 -23.5143
# 4 -1.7411 14.4576 11.0138 53.1459 -17.3403 6.5236
# 5 13.4087 -3.7688 3.3346 -17.3403 29.2950 -8.7543
# 6 -32.2023 -41.1834 -23.5143 6.5236 -8.7543 40.3575
#
#
#
# Elastic Compliance Matrix: (Units=1/GPa)
#
#
# Indices 1 2 3 4 5 6 
#
# 1 0.013571 0.000830 0.001451 -0.003014 -0.004455 0.012042
# 2 0.000830 0.009380 0.000375 -0.003267 0.002280 0.011476
# 3 0.001451 0.000375 0.007551 -0.002795 -0.001304 0.006109
# 4 -0.003014 -0.003267 -0.002795 0.025799 0.014009 -0.008498
# 5 -0.004455 0.002280 -0.001304 0.014009 0.046662 0.005869
# 6 0.012042 0.011476 0.006109 -0.008498 0.005869 0.052303
#
#
# Mechanical properties :
#
#
# Convention : Reuss Voigt Hill
#
# Bulk Modulus (GPa) = 27.92236 59.16129 43.54183
# Shear Modulus (GPa) = 30.88441 48.53615 39.71028
#
# Velocity S-wave (km/s) = 3.39493 4.25593 3.84958
# Velocity P-wave (km/s) = 5.07815 6.79916 6.00067
#
# Compressibility (1/GPa) = 0.03581359
#
# Stress axis : x y z
#
# Youngs Moduli (GPa) = 73.68415 106.60728 132.43744
#
# Poissons Ratio (x) = -0.08848 -0.19212
# Poissons Ratio (y) = -0.06115 -0.04966
# Poissons Ratio (z) = -0.10689 -0.03998
#
# Static dielectric constant tensor:
#      x y z
#    x 2.438030 0.029930 -0.296810 
#    y 0.029930 2.149920 0.052190 
#    z -0.296810 0.052190 2.328310 
# 
# From -- ./inp_files/363777.got.cif
#   From: 2010.05.17/outbox.cif.g08.bks.cpg/sg2_182_cif.got.tgz:363777.got - 2010.06.03 11:33:40.
