data_PCOD9041228
_publ_section_title
;
Structure prediction by ZEFSAII (Michael W. Deem and Ramdas Pophale) SiO2 
 PCOD9041228
Probable space group: P -1
;
_chemical_formula_sum "Si O2"
_cell_formula_units_Z 16
_cell_length_a 13.774322
_cell_length_b 8.797472
_cell_length_c 12.535343
_cell_angle_alpha 33.416645
_cell_angle_beta 117.444525
_cell_angle_gamma 105.999099
_cell_volume 723.687251
_symmetry_space_group_name_H-M "P -1"
_symmetry_group_IT_number 2
_symmetry_cell_setting 'triclinic'
loop_
_space_group_symop_operation_xyz
x,y,z
-x,-y,-z
loop_
_atom_site_type_symbol
_atom_site_label
_atom_site_fract_x
_atom_site_fract_y
_atom_site_fract_z
Si Si1 0.868212 0.257035 0.840071
Si Si2 0.900564 0.860374 0.488255
Si Si3 0.207427 0.779961 0.594684
Si Si4 0.018313 0.167828 0.673711
Si Si5 0.525463 0.116119 0.828554
Si Si6 0.632003 0.956119 0.593810
Si Si7 0.632549 0.626429 0.582008
Si Si8 0.264459 0.146595 0.063336
O O1 0.928483 0.517989 0.703914
O O2 0.745069 0.433497 0.706271
O O3 0.828178 0.044833 0.861087
O O4 0.936953 0.038561 0.086648
O O5 0.889186 0.917788 0.323264
O O6 0.802663 0.012674 0.428984
O O7 0.000000 0.000000 0.500000
O O8 0.098225 0.876961 0.408105
O O9 0.316480 0.788573 0.574742
O O10 0.208233 0.467662 0.818312
O O11 0.000000 0.500000 0.500000
O O12 0.542494 0.433816 0.669937
O O13 0.427122 0.147801 0.670338
O O14 0.640481 0.954888 0.921458
O O15 0.500000 0.000000 0.000000
O O16 0.500000 0.000000 0.500000
O O17 0.667744 0.723873 0.656749
O O18 0.675303 0.871538 0.782326
#
# Coordination Sequence:
#
# PCOD9041228 Si02
#       8
#     2   2   2   2   2   2   2   2
#     4  11  24  46  74 102 144 193 236 297 370 428
#     4  10  25  45  70 103 143 185 240 292 363 439
#     4  11  26  46  68 108 147 185 245 300 360 439
#     4  11  25  47  74 108 140 187 246 299 365 436
#     4  10  23  43  71  98 142 186 247 299 357 427
#     4  12  26  46  71 100 151 191 241 302 362 428
#     4  10  23  44  66 108 135 190 241 291 360 433
#     4  11  26  42  71 107 140 196 243 296 369 422
#
# _framework density 22.108999000000001
#
# number of rings (size 3 to 8) (size 9 to 14) (size 15 to 20)
#    0.000    1.250    3.750    0.000    5.250    8.000 
#    0.000    0.000    0.000    0.000    0.000    0.000 
#    0.000    0.000    0.000    0.000    0.000    0.000 
#
# Total GULP energy -89244.088155 kJ/mol
# GULP energy per Si atom -5577.755510 kJ/mol
# Density = 2.205868 g / cm^3
# Si number density = 22.108999 Si / 1000 Ang^3
#
#
#
# Elastic Constant Matrix: (Units=GPa)
#
#
# Indices 1 2 3 4 5 6 
#
# 1 85.3633 11.6829 31.2768 13.6546 -9.4065 -3.7414
# 2 11.6829 100.3437 46.3903 24.0786 -7.6250 6.2149
# 3 31.2768 46.3903 107.1381 13.3679 -0.5672 10.0962
# 4 13.6546 24.0786 13.3679 36.9967 -1.4268 -3.8581
# 5 -9.4065 -7.6250 -0.5672 -1.4268 28.7284 0.5354
# 6 -3.7414 6.2149 10.0962 -3.8581 0.5354 41.1150
#
#
#
# Elastic Compliance Matrix: (Units=1/GPa)
#
#
# Indices 1 2 3 4 5 6 
#
# 1 0.014471 0.001764 -0.004563 -0.004477 0.004862 0.001687
# 2 0.001764 0.014771 -0.005727 -0.008196 0.004006 -0.001487
# 3 -0.004563 -0.005727 0.013370 0.000187 -0.002689 -0.002780
# 4 -0.004477 -0.008196 0.000187 0.034291 -0.002009 0.004030
# 5 0.004862 0.004006 -0.002689 -0.002009 0.037314 -0.000177
# 6 0.001687 -0.001487 -0.002780 0.004030 -0.000177 0.025763
#
#
# Mechanical properties :
#
#
# Convention : Reuss Voigt Hill
#
# Bulk Modulus (GPa) = 39.12313 52.39389 45.75851
# Shear Modulus (GPa) = 30.20186 34.93437 32.56812
#
# Velocity S-wave (km/s) = 3.70001 3.97936 3.84222
# Velocity P-wave (km/s) = 5.99895 6.69800 6.35809
#
# Compressibility (1/GPa) = 0.02556033
#
# Stress axis : x y z
#
# Youngs Moduli (GPa) = 69.10411 67.69958 74.79471
#
# Poissons Ratio (x) = -0.11941 0.34128
# Poissons Ratio (y) = -0.12189 0.42833
# Poissons Ratio (z) = 0.31532 0.38770
#
# Static dielectric constant tensor:
#      x y z
#    x 1.912690 0.021790 -0.027060 
#    y 0.021790 1.812400 -0.040560 
#    z -0.027060 -0.040560 1.803420 
# 
# From -- ./inp_files/446547.got.cif
#   From: 2010.05.17/outbox.cif.g08.bks.cpg/sg2_224_cif.got.tgz:446547.got - 2010.06.03 11:33:40.
