data_PCOD9041190
_publ_section_title
;
Structure prediction by ZEFSAII (Michael W. Deem and Ramdas Pophale) SiO2 
 PCOD9041190
Probable space group: P -1
;
_chemical_formula_sum "Si O2"
_cell_formula_units_Z 8
_cell_length_a 5.168070
_cell_length_b 14.914442
_cell_length_c 7.077772
_cell_angle_alpha 56.765499
_cell_angle_beta 44.963929
_cell_angle_gamma 67.865523
_cell_volume 322.403699
_symmetry_space_group_name_H-M "P -1"
_symmetry_group_IT_number 2
_symmetry_cell_setting 'triclinic'
loop_
_space_group_symop_operation_xyz
x,y,z
-x,-y,-z
loop_
_atom_site_type_symbol
_atom_site_label
_atom_site_fract_x
_atom_site_fract_y
_atom_site_fract_z
Si Si1 0.507044 0.099562 0.640414
Si Si2 0.711219 0.426217 0.122111
Si Si3 0.626875 0.864803 0.768578
Si Si4 0.271213 0.279312 0.809176
O O1 0.445780 0.133411 0.417142
O O2 0.251727 0.169546 0.825386
O O3 0.931291 0.123171 0.448004
O O4 0.451540 0.971453 0.825064
O O5 0.470628 0.365230 0.473740
O O6 0.500000 0.500000 0.000000
O O7 0.000000 0.500000 0.000000
O O8 0.913540 0.335531 0.003627
O O9 0.516811 0.759560 0.066410
#
# Coordination Sequence:
#
# PCOD9041190 Si02
#       4
#     2   2   2   2
#     4  10  23  43  71 110 147 183 230 282 350 434
#     4  12  30  50  73 104 139 186 246 308 350 412
#     4  10  23  43  71 110 147 183 230 282 350 434
#     4  12  25  50  78 102 146 188 239 288 370 414
#
# _framework density 24.813609
#
# number of rings (size 3 to 8) (size 9 to 14) (size 15 to 20)
#    0.000    1.000    2.500    2.250    3.500    6.000 
#    0.000    7.500    0.000    0.000    0.000    0.000 
#    0.000    0.000    0.000    0.000    0.000    0.000 
#
# Total GULP energy -44884.471863 kJ/mol
# GULP energy per Si atom -5610.558983 kJ/mol
# Density = 2.475713 g / cm^3
# Si number density = 24.813609 Si / 1000 Ang^3
#
#
#
# Elastic Constant Matrix: (Units=GPa)
#
#
# Indices 1 2 3 4 5 6 
#
# 1 157.9112 50.7734 40.0821 -13.9362 40.3242 -9.5807
# 2 50.7734 148.6455 13.0510 -5.5917 22.4529 -24.9749
# 3 40.0821 13.0510 129.6983 -42.5048 32.8284 -21.1839
# 4 -13.9362 -5.5917 -42.5048 47.8014 -8.8408 11.7545
# 5 40.3242 22.4529 32.8284 -8.8408 43.1606 -11.8455
# 6 -9.5807 -24.9749 -21.1839 11.7545 -11.8455 41.2951
#
#
#
# Elastic Compliance Matrix: (Units=1/GPa)
#
#
# Indices 1 2 3 4 5 6 
#
# 1 0.009000 -0.002242 -0.000848 0.000794 -0.006964 -0.001926
# 2 -0.002242 0.008454 0.000970 -0.000282 -0.001824 0.004648
# 3 -0.000848 0.000970 0.013272 0.009762 -0.007159 0.002367
# 4 0.000794 -0.000282 0.009762 0.030340 -0.003036 -0.004486
# 5 -0.006964 -0.001824 -0.007159 -0.003036 0.036830 0.005038
# 6 -0.001926 0.004648 0.002367 -0.004486 0.005038 0.030516
#
#
# Mechanical properties :
#
#
# Convention : Reuss Voigt Hill
#
# Bulk Modulus (GPa) = 37.75274 71.56310 54.65792
# Shear Modulus (GPa) = 35.34098 48.60799 41.97449
#
# Velocity S-wave (km/s) = 3.77803 4.43078 4.11736
# Velocity P-wave (km/s) = 5.85482 7.42149 6.68421
#
# Compressibility (1/GPa) = 0.02648815
#
# Stress axis : x y z
#
# Youngs Moduli (GPa) = 111.11090 118.29242 75.34502
#
# Poissons Ratio (x) = 0.26517 0.06387
# Poissons Ratio (y) = 0.24907 -0.07312
# Poissons Ratio (z) = 0.09419 -0.11480
#
# Static dielectric constant tensor:
#      x y z
#    x 1.997820 0.013000 -0.036160 
#    y 0.013000 1.939790 -0.021470 
#    z -0.036160 -0.021470 1.954440 
# 
# From -- ./inp_files/1557.got.cif
#   From: 2010.05.17/outbox.cif.g08.bks.cpg/sg2_1_cif.got.tgz:1557.got - 2010.06.03 11:33:40.
