data_PCOD9041448
_publ_section_title
;
Structure prediction by ZEFSAII (Michael W. Deem and Ramdas Pophale) SiO2 
 PCOD9041448
Probable space group: P -1
;
_chemical_formula_sum "Si O2"
_cell_formula_units_Z 12
_cell_length_a 10.233614
_cell_length_b 7.702651
_cell_length_c 8.949552
_cell_angle_alpha 112.083700
_cell_angle_beta 110.584575
_cell_angle_gamma 114.843486
_cell_volume 471.891252
_symmetry_space_group_name_H-M "P -1"
_symmetry_group_IT_number 2
_symmetry_cell_setting 'triclinic'
loop_
_space_group_symop_operation_xyz
x,y,z
-x,-y,-z
loop_
_atom_site_type_symbol
_atom_site_label
_atom_site_fract_x
_atom_site_fract_y
_atom_site_fract_z
Si Si1 0.166628 0.746861 0.734276
Si Si2 0.808429 0.373401 0.952249
Si Si3 0.426527 0.490766 0.125763
Si Si4 0.936963 0.884866 0.602906
Si Si5 0.640664 0.898571 0.570438
Si Si6 0.410498 0.673844 0.682790
O O1 0.350219 0.832298 0.752964
O O2 0.000000 0.500000 0.500000
O O3 0.100642 0.904958 0.745909
O O4 0.188947 0.697806 0.898717
O O5 0.753998 0.543513 0.976186
O O6 0.677759 0.139723 0.716826
O O7 0.000000 0.500000 0.000000
O O8 0.569827 0.762008 0.341135
O O9 0.432469 0.303024 0.160001
O O10 0.500000 0.500000 0.000000
O O11 0.837232 0.963991 0.682110
O O12 0.767143 0.595773 0.433392
O O13 0.000000 0.000000 0.500000
O O14 0.474361 0.701476 0.548758
#
# Coordination Sequence:
#
# PCOD9041448 Si02
#       6
#     2   2   2   2   2   2
#     4  10  24  46  72 104 151 192 242 305 367 434
#     4  12  29  46  72 112 150 196 245 303 370 436
#     4  11  23  48  75 106 145 191 245 299 365 442
#     4  10  23  43  76 105 142 193 239 301 370 430
#     4  11  27  47  74 108 148 194 246 305 366 433
#     4  10  23  47  73 103 147 194 239 302 366 433
#
# _framework density 25.429586
#
# number of rings (size 3 to 8) (size 9 to 14) (size 15 to 20)
#    0.000    1.333    1.667    2.500   11.667    4.000 
#    6.000    0.000    0.000    0.000    0.000    0.000 
#    0.000    0.000    0.000    0.000    0.000    0.000 
#
# Total GULP energy -67054.615264 kJ/mol
# GULP energy per Si atom -5587.884605 kJ/mol
# Density = 2.537171 g / cm^3
# Si number density = 25.429586 Si / 1000 Ang^3
#
#
#
# Elastic Constant Matrix: (Units=GPa)
#
#
# Indices 1 2 3 4 5 6 
#
# 1 294.0165 62.7665 45.3369 -26.9399 5.1088 -20.1354
# 2 62.7665 88.5541 31.6955 -13.3743 4.5431 15.3215
# 3 45.3369 31.6955 139.5571 -8.6543 -4.2663 8.3084
# 4 -26.9399 -13.3743 -8.6543 36.4899 6.4475 9.7545
# 5 5.1088 4.5431 -4.2663 6.4475 47.5915 -14.7255
# 6 -20.1354 15.3215 8.3084 9.7545 -14.7255 50.4420
#
#
#
# Elastic Compliance Matrix: (Units=1/GPa)
#
#
# Indices 1 2 3 4 5 6 
#
# 1 0.004509 -0.003260 -0.000812 0.001092 0.000490 0.002856
# 2 -0.003260 0.017169 -0.002047 0.006715 -0.005162 -0.008985
# 3 -0.000812 -0.002047 0.008015 0.000708 0.000601 -0.000984
# 4 0.001092 0.006715 0.000708 0.035411 -0.008952 -0.011181
# 5 0.000490 -0.005162 0.000601 -0.008952 0.026130 0.011024
# 6 0.002856 -0.008985 -0.000984 -0.011181 0.011024 0.029236
#
#
# Mechanical properties :
#
#
# Convention : Reuss Voigt Hill
#
# Bulk Modulus (GPa) = 57.28638 89.08061 73.18350
# Shear Modulus (GPa) = 36.09411 52.39327 44.24369
#
# Velocity S-wave (km/s) = 3.77155 4.54401 4.17568
# Velocity P-wave (km/s) = 6.44534 7.91436 7.21732
#
# Compressibility (1/GPa) = 0.01745616
#
# Stress axis : x y z
#
# Youngs Moduli (GPa) = 221.75804 58.24352 124.76566
#
# Poissons Ratio (x) = 0.18988 0.10129
# Poissons Ratio (y) = 0.72294 0.25538
# Poissons Ratio (z) = 0.18004 0.11922
#
# Static dielectric constant tensor:
#      x y z
#    x 2.076520 -0.132400 -0.100020 
#    y -0.132400 2.140770 0.269710 
#    z -0.100020 0.269710 2.902750 
# 
# From -- ./inp_files/152277.got.cif
#   From: 2010.05.17/outbox.cif.g08.bks.cpg/sg2_77_cif.got.tgz:152277.got - 2010.06.03 11:33:40.
