data_PCOD9041861
_publ_section_title
;
Structure prediction by ZEFSAII (Michael W. Deem and Ramdas Pophale) SiO2 
 PCOD9041861
Probable space group: P -1
;
_chemical_formula_sum "Si O2"
_cell_formula_units_Z 12
_cell_length_a 9.447553
_cell_length_b 8.515243
_cell_length_c 7.927620
_cell_angle_alpha 47.448011
_cell_angle_beta 109.440456
_cell_angle_gamma 99.770617
_cell_volume 441.621922
_symmetry_space_group_name_H-M "P -1"
_symmetry_group_IT_number 2
_symmetry_cell_setting 'triclinic'
loop_
_space_group_symop_operation_xyz
x,y,z
-x,-y,-z
loop_
_atom_site_type_symbol
_atom_site_label
_atom_site_fract_x
_atom_site_fract_y
_atom_site_fract_z
Si Si1 0.731525 0.100966 0.918927
Si Si2 0.919128 0.502120 0.146283
Si Si3 0.376084 0.644592 0.740912
Si Si4 0.799278 0.973209 0.704486
Si Si5 0.840979 0.838043 0.445459
Si Si6 0.574139 0.707329 0.248633
O O1 0.825196 0.121204 0.771340
O O2 0.604142 0.279001 0.800180
O O3 0.841841 0.021962 0.171180
O O4 0.621623 0.901895 0.004781
O O5 0.774137 0.370958 0.198466
O O6 0.044136 0.365356 0.405549
O O7 0.000000 0.500000 0.000000
O O8 0.847254 0.741414 0.974357
O O9 0.361750 0.895621 0.505610
O O10 0.372978 0.508672 0.667142
O O11 0.500000 0.500000 0.000000
O O12 0.863924 0.926265 0.576631
O O13 0.673736 0.755063 0.417373
#
# Coordination Sequence:
#
# PCOD9041861 Si02
#       6
#     2   2   2   2   2   2
#     4   9  19  39  67  95 130 177 220 266 332 392
#     4  10  23  44  67  99 135 182 222 270 341 398
#     4  12  26  42  67 106 136 168 231 285 328 402
#     4  11  23  40  71  94 132 181 222 268 341 396
#     4   9  20  40  68  91 132 177 224 273 320 404
#     4   9  20  41  64  95 136 174 221 275 327 397
#
# _framework density 27.172564999999999
#
# number of rings (size 3 to 8) (size 9 to 14) (size 15 to 20)
#    1.000    1.000    1.667    1.000    0.000   10.000 
#    0.000    6.667    0.000    0.000    0.000    0.000 
#    0.000    0.000    0.000    0.000    0.000    0.000 
#
# Total GULP energy -66819.653695 kJ/mol
# GULP energy per Si atom -5568.304475 kJ/mol
# Density = 2.711072 g / cm^3
# Si number density = 27.172565 Si / 1000 Ang^3
#
#
#
# Elastic Constant Matrix: (Units=GPa)
#
#
# Indices 1 2 3 4 5 6 
#
# 1 88.1399 52.9814 69.8913 3.0759 20.6229 -20.1959
# 2 52.9814 119.3783 54.8715 -2.6047 4.9390 -38.0475
# 3 69.8913 54.8715 168.4605 -10.5502 47.1556 -16.7312
# 4 3.0759 -2.6047 -10.5502 70.1057 -17.0751 4.9209
# 5 20.6229 4.9390 47.1556 -17.0751 48.1674 1.2349
# 6 -20.1959 -38.0475 -16.7312 4.9209 1.2349 34.9187
#
#
#
# Elastic Compliance Matrix: (Units=1/GPa)
#
#
# Indices 1 2 3 4 5 6 
#
# 1 0.021083 -0.005286 -0.005597 -0.003316 -0.004293 0.004372
# 2 -0.005286 0.015857 -0.002457 0.000225 0.002791 0.012913
# 3 -0.005597 -0.002457 0.011455 -0.000220 -0.008642 -0.000089
# 4 -0.003316 0.000225 -0.000220 0.016540 0.007588 -0.004378
# 5 -0.004293 0.002791 -0.008642 0.007588 0.033613 -0.005841
# 6 0.004372 0.012913 -0.000089 -0.004378 -0.005841 0.046018
#
#
# Mechanical properties :
#
#
# Convention : Reuss Voigt Hill
#
# Bulk Modulus (GPa) = 46.04918 81.27413 63.66165
# Shear Modulus (GPa) = 28.01391 43.85399 35.93395
#
# Velocity S-wave (km/s) = 3.21434 4.02170 3.64048
# Velocity P-wave (km/s) = 5.54615 7.17919 6.41485
#
# Compressibility (1/GPa) = 0.02171591
#
# Stress axis : x y z
#
# Youngs Moduli (GPa) = 47.43155 63.06476 87.29921
#
# Poissons Ratio (x) = 0.33333 0.48863
# Poissons Ratio (y) = 0.25070 0.21446
# Poissons Ratio (z) = 0.26548 0.15493
#
# Static dielectric constant tensor:
#      x y z
#    x 2.142460 0.051110 -0.026030 
#    y 0.051110 2.084600 -0.011580 
#    z -0.026030 -0.011580 2.295760 
# 
# From -- ./inp_files/233283.got.cif
#   From: 2010.05.17/outbox.cif.g08.bks.cpg/sg2_117_cif.got.tgz:233283.got - 2010.06.03 11:33:40.
