data_PCOD9041775
_publ_section_title
;
Structure prediction by ZEFSAII (Michael W. Deem and Ramdas Pophale) SiO2 
 PCOD9041775
Probable space group: P -1
;
_chemical_formula_sum "Si O2"
_cell_formula_units_Z 15
_cell_length_a 10.571715
_cell_length_b 12.757248
_cell_length_c 5.951476
_cell_angle_alpha 49.795663
_cell_angle_beta 85.706168
_cell_angle_gamma 89.725714
_cell_volume 610.302403
_symmetry_space_group_name_H-M "P -1"
_symmetry_group_IT_number 2
_symmetry_cell_setting 'triclinic'
loop_
_space_group_symop_operation_xyz
x,y,z
-x,-y,-z
loop_
_atom_site_type_symbol
_atom_site_label
_atom_site_fract_x
_atom_site_fract_y
_atom_site_fract_z
Si Si1 0.873741 0.059556 0.029636
Si Si2 0.249347 0.821295 0.731233
Si Si3 0.551356 0.274198 0.803234
Si Si4 0.000000 0.500000 0.500000
Si Si5 0.064423 0.687484 0.639719
Si Si6 0.160717 0.298270 0.031335
Si Si7 0.600521 0.518740 0.160700
Si Si8 0.319951 0.072175 0.072858
O O1 0.875451 0.203733 0.697736
O O2 0.754039 0.962994 0.098463
O O3 0.857575 0.095033 0.241586
O O4 0.000000 0.000000 0.000000
O O5 0.173690 0.689970 0.813052
O O6 0.320362 0.928230 0.405370
O O7 0.346025 0.774549 0.969073
O O8 0.614300 0.368011 0.470451
O O9 0.464457 0.380205 0.795745
O O10 0.456847 0.148356 0.914596
O O11 0.023876 0.556910 0.676897
O O12 0.092650 0.372585 0.728709
O O13 0.944070 0.742088 0.711605
O O14 0.263623 0.402705 0.996705
O O15 0.234781 0.173007 0.090681
O O16 0.500000 0.500000 0.000000
#
# Coordination Sequence:
#
# PCOD9041775 Si02
#       8
#     2   2   2   1   2   2   2   2
#     4  11  23  40  67  98 141 181 231 289 351 409
#     4  11  24  42  73 100 142 186 236 290 353 419
#     4  10  24  44  67 102 139 183 242 286 349 414
#     4  12  26  42  66 100 138 184 230 290 350 422
#     4  11  25  42  64 102 136 181 229 292 345 425
#     4  11  25  43  69  99 140 181 239 285 359 415
#     4  10  25  44  70  98 139 189 229 295 345 416
#     4  10  23  44  67 103 136 187 233 295 345 419
#
# _framework density 24.577978999999999
#
# number of rings (size 3 to 8) (size 9 to 14) (size 15 to 20)
#    0.000    1.333    0.000    4.000    5.600   10.133 
#    0.000    0.000    0.000    0.000    0.000    0.000 
#    0.000    0.000    0.000    0.000    0.000    0.000 
#
# Total GULP energy -83736.359677 kJ/mol
# GULP energy per Si atom -5582.423978 kJ/mol
# Density = 2.452204 g / cm^3
# Si number density = 24.577979 Si / 1000 Ang^3
#
#
#
# Elastic Constant Matrix: (Units=GPa)
#
#
# Indices 1 2 3 4 5 6 
#
# 1 125.9168 54.7467 34.4098 2.2202 -2.1805 32.7850
# 2 54.7467 130.7277 23.8199 10.7528 -4.1906 24.9946
# 3 34.4098 23.8199 66.2196 -14.4108 9.8166 18.9703
# 4 2.2202 10.7528 -14.4108 34.8370 -1.6365 8.5229
# 5 -2.1805 -4.1906 9.8166 -1.6365 42.8850 0.8691
# 6 32.7850 24.9946 18.9703 8.5229 0.8691 55.3652
#
#
#
# Elastic Compliance Matrix: (Units=1/GPa)
#
#
# Indices 1 2 3 4 5 6 
#
# 1 0.011493 -0.003279 -0.003908 -0.000311 0.001227 -0.003957
# 2 -0.003279 0.010051 -0.002542 -0.003593 0.001284 -0.001191
# 3 -0.003908 -0.002542 0.023192 0.011910 -0.005175 -0.006237
# 4 -0.000311 -0.003593 0.011910 0.036618 -0.001536 -0.007888
# 5 0.001227 0.001284 -0.005175 -0.001536 0.024626 0.000317
# 6 -0.003957 -0.001191 -0.006237 -0.007888 0.000317 0.024289
#
#
# Mechanical properties :
#
#
# Convention : Reuss Voigt Hill
#
# Bulk Modulus (GPa) = 39.56325 60.97965 50.27145
# Shear Modulus (GPa) = 31.61474 40.60994 36.11234
#
# Velocity S-wave (km/s) = 3.59040 4.06925 3.83730
# Velocity P-wave (km/s) = 5.77234 6.85149 6.33494
#
# Compressibility (1/GPa) = 0.02527598
#
# Stress axis : x y z
#
# Youngs Moduli (GPa) = 87.01212 99.49725 43.11744
#
# Poissons Ratio (x) = 0.32628 0.16851
# Poissons Ratio (y) = 0.28534 0.10962
# Poissons Ratio (z) = 0.34007 0.25295
#
# Static dielectric constant tensor:
#      x y z
#    x 1.950670 -0.014560 0.004140 
#    y -0.014560 1.986850 -0.038130 
#    z 0.004140 -0.038130 1.948890 
# 
# From -- ./inp_files/65559.got.cif
#   From: 2010.05.17/outbox.cif.g08.bks.cpg/sg2_33_cif.got.tgz:65559.got - 2010.06.03 11:33:40.
