data_PCOD9041928
_publ_section_title
;
Structure prediction by ZEFSAII (Michael W. Deem and Ramdas Pophale) SiO2 
 PCOD9041928
Probable space group: P -1
;
_chemical_formula_sum "Si O2"
_cell_formula_units_Z 15
_cell_length_a 5.047455
_cell_length_b 5.605616
_cell_length_c 22.353260
_cell_angle_alpha 120.360988
_cell_angle_beta 81.470558
_cell_angle_gamma 92.007202
_cell_volume 539.100307
_symmetry_space_group_name_H-M "P -1"
_symmetry_group_IT_number 2
_symmetry_cell_setting 'triclinic'
loop_
_space_group_symop_operation_xyz
x,y,z
-x,-y,-z
loop_
_atom_site_type_symbol
_atom_site_label
_atom_site_fract_x
_atom_site_fract_y
_atom_site_fract_z
Si Si1 0.361439 0.781007 0.115630
Si Si2 0.183160 0.198285 0.676684
Si Si3 0.760079 0.706997 0.750559
Si Si4 0.762984 0.026854 0.039899
Si Si5 0.000000 0.500000 0.000000
Si Si6 0.900836 0.667857 0.608697
Si Si7 0.648413 0.550607 0.190495
Si Si8 0.435200 0.301762 0.565806
O O1 0.437228 0.666057 0.163576
O O2 0.182070 0.582921 0.060220
O O3 0.192257 0.060020 0.172259
O O4 0.636971 0.814758 0.073331
O O5 0.243317 0.184063 0.744195
O O6 0.430779 0.257464 0.632341
O O7 0.969651 0.452426 0.716387
O O8 0.048227 0.937579 0.617283
O O9 0.476939 0.610280 0.770620
O O10 0.777268 0.779555 0.690047
O O11 0.786005 0.304956 0.115825
O O12 0.047027 0.819400 0.005373
O O13 0.500000 0.000000 0.000000
O O14 0.140201 0.433745 0.577975
O O15 0.655245 0.520786 0.567564
O O16 0.500000 0.000000 0.500000
#
# Coordination Sequence:
#
# PCOD9041928 Si02
#       8
#     2   2   2   2   1   2   2   2
#     4  11  26  44  73 100 136 188 244 307 387 448
#     4  11  25  44  77 108 151 197 253 314 376 445
#     4  10  23  44  68 106 144 186 254 313 377 443
#     4  11  26  45  69  97 138 183 238 304 377 455
#     4  12  26  46  64  98 138 178 240 300 382 462
#     4  11  25  43  79 111 155 207 258 311 377 451
#     4  11  24  45  72 102 138 190 251 316 378 447
#     4  11  26  48  74 117 164 205 254 311 376 454
#
# _framework density 27.824134999999998
#
# number of rings (size 3 to 8) (size 9 to 14) (size 15 to 20)
#    0.000    1.067    1.333    3.200    3.733    9.600 
#    0.000    0.000    0.000    0.000    0.000    0.000 
#    0.000    0.000    0.000    0.000    0.000    0.000 
#
# Total GULP energy -83791.395466 kJ/mol
# GULP energy per Si atom -5586.093031 kJ/mol
# Density = 2.776081 g / cm^3
# Si number density = 27.824135 Si / 1000 Ang^3
#
#
#
# Elastic Constant Matrix: (Units=GPa)
#
#
# Indices 1 2 3 4 5 6 
#
# 1 135.2905 24.2040 49.9838 11.8421 1.6147 30.8297
# 2 24.2040 95.8381 12.2818 14.4338 -6.9745 12.3426
# 3 49.9838 12.2818 206.8661 26.1967 -21.4948 8.7370
# 4 11.8421 14.4338 26.1967 53.8718 1.3456 -0.0839
# 5 1.6147 -6.9745 -21.4948 1.3456 34.5802 -6.1678
# 6 30.8297 12.3426 8.7370 -0.0839 -6.1678 32.4477
#
#
#
# Elastic Compliance Matrix: (Units=1/GPa)
#
#
# Indices 1 2 3 4 5 6 
#
# 1 0.010934 -0.001340 -0.002467 -0.000759 -0.004067 -0.009990
# 2 -0.001340 0.011724 0.000376 -0.003091 0.002270 -0.002864
# 3 -0.002467 0.000376 0.006138 -0.002650 0.004354 0.001369
# 4 -0.000759 -0.003091 -0.002650 0.020916 -0.002664 0.002158
# 5 -0.004067 0.002270 0.004354 -0.002664 0.033848 0.008255
# 6 -0.009990 -0.002864 0.001369 0.002158 0.008255 0.042606
#
#
# Mechanical properties :
#
#
# Convention : Reuss Voigt Hill
#
# Bulk Modulus (GPa) = 45.59216 67.88155 56.73686
# Shear Modulus (GPa) = 35.62782 47.61496 41.62139
#
# Velocity S-wave (km/s) = 3.58224 4.14125 3.87185
# Velocity P-wave (km/s) = 5.79062 6.87868 6.35797
#
# Compressibility (1/GPa) = 0.02193360
#
# Stress axis : x y z
#
# Youngs Moduli (GPa) = 91.45693 85.29440 162.92229
#
# Poissons Ratio (x) = 0.11433 0.40191
# Poissons Ratio (y) = 0.12259 -0.06127
# Poissons Ratio (z) = 0.22561 -0.03208
#
# Static dielectric constant tensor:
#      x y z
#    x 1.934940 0.190910 0.209140 
#    y 0.190910 2.242620 -0.061130 
#    z 0.209140 -0.061130 2.162750 
# 
# From -- ./inp_files/603475.got.cif
#   From: 2010.05.17/outbox.cif.g08.bks.cpg/sg2_302_cif.got.tgz:603475.got - 2010.06.03 11:33:40.
