data_PCOD9041473
_publ_section_title
;
Structure prediction by ZEFSAII (Michael W. Deem and Ramdas Pophale) SiO2 
 PCOD9041473
Probable space group: P -1
;
_chemical_formula_sum "Si O2"
_cell_formula_units_Z 16
_cell_length_a 9.564701
_cell_length_b 18.737965
_cell_length_c 6.385966
_cell_angle_alpha 113.096320
_cell_angle_beta 132.398040
_cell_angle_gamma 54.175681
_cell_volume 685.293832
_symmetry_space_group_name_H-M "P -1"
_symmetry_group_IT_number 2
_symmetry_cell_setting 'triclinic'
loop_
_space_group_symop_operation_xyz
x,y,z
-x,-y,-z
loop_
_atom_site_type_symbol
_atom_site_label
_atom_site_fract_x
_atom_site_fract_y
_atom_site_fract_z
Si Si1 0.691354 0.351156 0.118064
Si Si2 0.040122 0.247023 0.010465
Si Si3 0.188587 0.461528 0.813760
Si Si4 0.266557 0.778673 0.643269
Si Si5 0.254140 0.952561 0.725232
Si Si6 0.736919 0.473422 0.632075
Si Si7 0.268082 0.352103 0.163738
Si Si8 0.587972 0.934761 0.710509
O O1 0.839904 0.316393 0.025567
O O2 0.723952 0.264224 0.172901
O O3 0.781074 0.399512 0.422364
O O4 0.434107 0.418160 0.923039
O O5 0.167566 0.294424 0.091873
O O6 0.213749 0.163901 0.225281
O O7 0.938320 0.211851 0.685093
O O8 0.000000 0.500000 0.500000
O O9 0.748735 0.558093 0.654704
O O10 0.192842 0.385124 0.884866
O O11 0.297167 0.864346 0.787559
O O12 0.476867 0.709005 0.654644
O O13 0.391277 0.929172 0.622298
O O14 0.000000 0.000000 0.500000
O O15 0.323362 0.015186 0.990894
O O16 0.500000 0.500000 0.500000
O O17 0.846720 0.464018 0.960105
O O18 0.500000 0.000000 0.500000
#
# Coordination Sequence:
#
# PCOD9041473 Si02
#       8
#     2   2   2   2   2   2   2   2
#     4  10  23  43  78 110 150 203 258 311 377 453
#     4  12  25  46  75 116 154 195 252 320 377 456
#     4   8  17  41  83 108 145 203 258 310 376 443
#     4  11  23  47  77 107 154 199 253 309 374 454
#     4  11  24  47  79 110 151 206 242 309 385 454
#     4   8  16  40  80 105 147 203 256 311 369 451
#     4   9  21  44  78 105 157 199 251 320 374 444
#     4  11  27  46  76 117 157 194 252 308 386 465
#
# _framework density 23.347650999999999
#
# number of rings (size 3 to 8) (size 9 to 14) (size 15 to 20)
#    0.750    1.250    3.750    0.000    1.750    2.000 
#    0.000    5.625    5.500    1.500    0.000    0.000 
#    0.000    0.000    0.000    0.000    0.000    0.000 
#
# Total GULP energy -89343.776303 kJ/mol
# GULP energy per Si atom -5583.986019 kJ/mol
# Density = 2.329451 g / cm^3
# Si number density = 23.347651 Si / 1000 Ang^3
#
#
#
# Elastic Constant Matrix: (Units=GPa)
#
#
# Indices 1 2 3 4 5 6 
#
# 1 158.4901 44.9386 48.2641 -2.7714 21.3327 18.8780
# 2 44.9386 120.8621 28.1963 -19.5389 2.4231 21.6368
# 3 48.2641 28.1963 132.6471 -21.2204 16.6796 -1.1163
# 4 -2.7714 -19.5389 -21.2204 37.1455 -1.6715 1.3596
# 5 21.3327 2.4231 16.6796 -1.6715 26.6174 8.5598
# 6 18.8780 21.6368 -1.1163 1.3596 8.5598 43.0946
#
#
#
# Elastic Compliance Matrix: (Units=1/GPa)
#
#
# Indices 1 2 3 4 5 6 
#
# 1 0.008547 -0.002645 -0.002309 -0.002238 -0.004838 -0.001444
# 2 -0.002645 0.011308 -0.001097 0.005500 0.003890 -0.005493
# 3 -0.002309 -0.001097 0.009989 0.004642 -0.004867 0.002641
# 4 -0.002238 0.005500 0.004642 0.032469 0.001375 -0.002958
# 5 -0.004838 0.003890 -0.004867 0.001375 0.047248 -0.009388
# 6 -0.001444 -0.005493 0.002641 -0.002958 -0.009388 0.028622
#
#
# Mechanical properties :
#
#
# Convention : Reuss Voigt Hill
#
# Bulk Modulus (GPa) = 56.36609 72.75525 64.56067
# Shear Modulus (GPa) = 32.01043 40.74485 36.37764
#
# Velocity S-wave (km/s) = 3.70676 4.18202 3.95154
# Velocity P-wave (km/s) = 6.52032 7.38569 6.96645
#
# Compressibility (1/GPa) = 0.01774116
#
# Stress axis : x y z
#
# Youngs Moduli (GPa) = 117.00055 88.43348 100.11127
#
# Poissons Ratio (x) = 0.23395 0.23119
# Poissons Ratio (y) = 0.30952 0.10978
# Poissons Ratio (z) = 0.27019 0.09697
#
# Static dielectric constant tensor:
#      x y z
#    x 1.969910 -0.065570 0.005380 
#    y -0.065570 1.944410 -0.047020 
#    z 0.005380 -0.047020 1.931240 
# 
# From -- ./inp_files/53356.got.cif
#   From: 2010.05.17/outbox.cif.g08.bks.cpg/sg2_27_cif.got.tgz:53356.got - 2010.06.03 11:33:40.
