data_PCOD9041981
_publ_section_title
;
Structure prediction by ZEFSAII (Michael W. Deem and Ramdas Pophale) SiO2 
 PCOD9041981
Probable space group: P -1
;
_chemical_formula_sum "Si O2"
_cell_formula_units_Z 16
_cell_length_a 12.617791
_cell_length_b 9.341223
_cell_length_c 10.055987
_cell_angle_alpha 47.244293
_cell_angle_beta 98.503661
_cell_angle_gamma 117.315988
_cell_volume 748.506627
_symmetry_space_group_name_H-M "P -1"
_symmetry_group_IT_number 2
_symmetry_cell_setting 'triclinic'
loop_
_space_group_symop_operation_xyz
x,y,z
-x,-y,-z
loop_
_atom_site_type_symbol
_atom_site_label
_atom_site_fract_x
_atom_site_fract_y
_atom_site_fract_z
Si Si1 0.006094 0.168047 0.782804
Si Si2 0.787785 0.250634 0.755628
Si Si3 0.727558 0.423559 0.395265
Si Si4 0.300857 0.495229 0.246056
Si Si5 0.534852 0.710505 0.504946
Si Si6 0.262967 0.845852 0.658615
Si Si7 0.345202 0.937923 0.898591
Si Si8 0.896131 0.958019 0.613942
O O1 0.146637 0.360225 0.678512
O O2 0.919046 0.272306 0.740774
O O3 0.953855 0.036225 0.719393
O O4 0.000000 0.000000 0.000000
O O5 0.720851 0.230526 0.615936
O O6 0.713221 0.058273 0.973502
O O7 0.785395 0.458350 0.698479
O O8 0.605704 0.437598 0.389774
O O9 0.736199 0.357317 0.287714
O O10 0.381193 0.403679 0.390879
O O11 0.383092 0.744846 0.043350
O O12 0.211425 0.301585 0.250806
O O13 0.000000 0.000000 0.500000
O O14 0.602384 0.932398 0.470389
O O15 0.553916 0.826569 0.290467
O O16 0.164871 0.895352 0.538558
O O17 0.246852 0.838624 0.820343
#
# Coordination Sequence:
#
# PCOD9041981 Si02
#       8
#     2   2   2   2   2   2   2   2
#     4  12  29  43  63 105 142 177 227 276 346 400
#     4  10  23  44  68  96 140 172 227 279 341 394
#     4  12  23  43  68  94 142 182 214 288 339 402
#     4   9  21  43  71  99 130 174 227 283 324 401
#     4   9  21  43  71 101 132 176 235 267 346 399
#     4   9  21  41  67  97 129 177 228 271 341 396
#     4   8  21  41  69 102 127 175 230 273 338 397
#     4  11  23  41  70  95 134 183 227 273 333 409
#
# _framework density 21.375896000000001
#
# number of rings (size 3 to 8) (size 9 to 14) (size 15 to 20)
#    1.500    0.500    1.250    1.500    5.250    2.000 
#    2.250    2.500    0.000    0.000    0.000    0.000 
#    0.000    0.000    0.000    0.000    0.000    0.000 
#
# Total GULP energy -89209.410423 kJ/mol
# GULP energy per Si atom -5575.588151 kJ/mol
# Density = 2.132724 g / cm^3
# Si number density = 21.375896 Si / 1000 Ang^3
#
#
#
# Elastic Constant Matrix: (Units=GPa)
#
#
# Indices 1 2 3 4 5 6 
#
# 1 132.2630 47.6432 36.6517 -6.4044 0.5360 9.5924
# 2 47.6432 96.9225 23.3084 5.5154 -2.2898 -0.0524
# 3 36.6517 23.3084 74.4621 16.3916 9.2334 2.2247
# 4 -6.4044 5.5154 16.3916 31.0660 -5.4151 -3.6872
# 5 0.5360 -2.2898 9.2334 -5.4151 26.6559 -0.4008
# 6 9.5924 -0.0524 2.2247 -3.6872 -0.4008 22.0493
#
#
#
# Elastic Compliance Matrix: (Units=1/GPa)
#
#
# Indices 1 2 3 4 5 6 
#
# 1 0.011289 -0.004459 -0.005755 0.006223 0.002599 -0.003253
# 2 -0.004459 0.013065 -0.001723 -0.001854 0.001460 0.001861
# 3 -0.005755 -0.001723 0.021262 -0.014157 -0.010306 -0.002200
# 4 0.006223 -0.001854 -0.014157 0.044426 0.013741 0.006396
# 5 0.002599 0.001460 -0.010306 0.013741 0.043995 0.003010
# 6 -0.003253 0.001861 -0.002200 0.006396 0.003010 0.048119
#
#
# Mechanical properties :
#
#
# Convention : Reuss Voigt Hill
#
# Bulk Modulus (GPa) = 45.99863 57.65047 51.82455
# Shear Modulus (GPa) = 23.44360 29.02386 26.23373
#
# Velocity S-wave (km/s) = 3.31529 3.68881 3.50702
# Velocity P-wave (km/s) = 6.01834 6.72097 6.37934
#
# Compressibility (1/GPa) = 0.02173978
#
# Stress axis : x y z
#
# Youngs Moduli (GPa) = 88.58435 76.54039 47.03192
#
# Poissons Ratio (x) = 0.34133 0.27069
# Poissons Ratio (y) = 0.39504 0.08104
# Poissons Ratio (z) = 0.50984 0.13189
#
# Static dielectric constant tensor:
#      x y z
#    x 1.757170 -0.008160 -0.017500 
#    y -0.008160 1.785030 -0.009080 
#    z -0.017500 -0.009080 1.834550 
# 
# From -- ./inp_files/420416.got.cif
#   From: 2010.05.17/outbox.cif.g08.bks.cpg/sg2_211_cif.got.tgz:420416.got - 2010.06.03 11:33:40.
