data_PCOD9041170
_publ_section_title
;
Structure prediction by ZEFSAII (Michael W. Deem and Ramdas Pophale) SiO2 
 PCOD9041170
Probable space group: P -1
;
_chemical_formula_sum "Si O2"
_cell_formula_units_Z 14
_cell_length_a 5.391969
_cell_length_b 14.325832
_cell_length_c 11.822932
_cell_angle_alpha 48.293922
_cell_angle_beta 54.000433
_cell_angle_gamma 53.676485
_cell_volume 520.063501
_symmetry_space_group_name_H-M "P -1"
_symmetry_group_IT_number 2
_symmetry_cell_setting 'triclinic'
loop_
_space_group_symop_operation_xyz
x,y,z
-x,-y,-z
loop_
_atom_site_type_symbol
_atom_site_label
_atom_site_fract_x
_atom_site_fract_y
_atom_site_fract_z
Si Si1 0.748768 0.418638 0.631826
Si Si2 0.241230 0.111321 0.399610
Si Si3 0.316857 0.073880 0.147307
Si Si4 0.333315 0.519601 0.863207
Si Si5 0.276583 0.804226 0.346265
Si Si6 0.669467 0.283409 0.120340
Si Si7 0.906955 0.148243 0.869623
O O1 0.435437 0.499347 0.722615
O O2 0.638896 0.345431 0.611012
O O3 0.944203 0.289453 0.760552
O O4 0.000000 0.500000 0.500000
O O5 0.238212 0.065747 0.307534
O O6 0.368878 0.233535 0.250051
O O7 0.898265 0.171994 0.506853
O O8 0.500000 0.000000 0.500000
O O9 0.977364 0.154895 0.112407
O O10 0.462848 0.916544 0.197982
O O11 0.522136 0.171983 0.985022
O O12 0.300863 0.661030 0.808828
O O13 0.603379 0.406203 0.954625
O O14 0.000000 0.500000 0.000000
O O15 0.001932 0.870901 0.272580
O O16 0.000000 0.000000 0.000000
#
# Coordination Sequence:
#
# PCOD9041170 Si02
#       7
#     2   2   2   2   2   2   2
#     4  10  23  44  73 104 153 196 242 306 379 444
#     4  12  23  42  69 109 146 184 235 303 373 435
#     4  12  24  45  73 109 145 191 249 308 366 446
#     4  11  24  48  75 104 142 197 256 300 358 452
#     4  10  24  40  69 106 149 185 238 302 381 431
#     4  11  25  42  76 102 142 190 251 297 366 438
#     4  10  23  43  71 106 144 190 245 302 366 441
#
# _framework density 26.919789000000002
#
# number of rings (size 3 to 8) (size 9 to 14) (size 15 to 20)
#    0.857    0.286    1.429    5.143    2.000    0.000 
#    0.000    0.000    0.000    8.571    0.000    0.000 
#    0.000    0.000    0.000    0.000    0.000    0.000 
#
# Total GULP energy -77946.806337 kJ/mol
# GULP energy per Si atom -5567.629024 kJ/mol
# Density = 2.685852 g / cm^3
# Si number density = 26.919789 Si / 1000 Ang^3
#
#
#
# Elastic Constant Matrix: (Units=GPa)
#
#
# Indices 1 2 3 4 5 6 
#
# 1 31.2737 31.9634 22.2657 -19.4526 -6.9409 23.0393
# 2 31.9634 176.4077 63.5160 -8.7979 -18.2130 44.0173
# 3 22.2657 63.5160 132.4676 -5.2950 -20.8606 18.3518
# 4 -19.4526 -8.7979 -5.2950 43.7942 14.9040 1.6792
# 5 -6.9409 -18.2130 -20.8606 14.9040 58.9614 -16.6387
# 6 23.0393 44.0173 18.3518 1.6792 -16.6387 50.3970
#
#
#
# Elastic Compliance Matrix: (Units=1/GPa)
#
#
# Indices 1 2 3 4 5 6 
#
# 1 0.115620 -0.002052 -0.011785 0.059132 -0.021939 -0.055986
# 2 -0.002052 0.008505 -0.003000 0.000801 -0.000451 -0.005573
# 3 -0.011785 -0.003000 0.010640 -0.006388 0.004732 0.005909
# 4 0.059132 0.000801 -0.006388 0.056126 -0.018676 -0.033443
# 5 -0.021939 -0.000451 0.004732 -0.018676 0.025654 0.017792
# 6 -0.055986 -0.005573 0.005909 -0.033443 0.017792 0.055141
#
#
# Mechanical properties :
#
#
# Convention : Reuss Voigt Hill
#
# Bulk Modulus (GPa) = 9.89214 63.95989 36.92601
# Shear Modulus (GPa) = 14.74675 45.45747 30.10211
#
# Velocity S-wave (km/s) = 2.34306 4.11375 3.34760
# Velocity P-wave (km/s) = 3.31701 6.80991 5.35619
#
# Compressibility (1/GPa) = 0.10109041
#
# Stress axis : x y z
#
# Youngs Moduli (GPa) = 8.64899 117.58318 93.98889
#
# Poissons Ratio (x) = 0.24134 1.10765
# Poissons Ratio (y) = 0.01775 0.28195
# Poissons Ratio (z) = 0.10193 0.35272
#
# Static dielectric constant tensor:
#      x y z
#    x 1.983910 0.063080 0.482840 
#    y 0.063080 2.187590 -0.109800 
#    z 0.482840 -0.109800 1.703690 
# 
# From -- ./inp_files/366685.got.cif
#   From: 2010.05.17/outbox.cif.g08.bks.cpg/sg2_184_cif.got.tgz:366685.got - 2010.06.03 11:33:40.
