data_PCOD9041327
_publ_section_title
;
Structure prediction by ZEFSAII (Michael W. Deem and Ramdas Pophale) SiO2 
 PCOD9041327
Probable space group: P -1
;
_chemical_formula_sum "Si O2"
_cell_formula_units_Z 14
_cell_length_a 9.936294
_cell_length_b 14.821266
_cell_length_c 14.494925
_cell_angle_alpha 150.246623
_cell_angle_beta 32.915623
_cell_angle_gamma 140.892140
_cell_volume 566.787967
_symmetry_space_group_name_H-M "P -1"
_symmetry_group_IT_number 2
_symmetry_cell_setting 'triclinic'
loop_
_space_group_symop_operation_xyz
x,y,z
-x,-y,-z
loop_
_atom_site_type_symbol
_atom_site_label
_atom_site_fract_x
_atom_site_fract_y
_atom_site_fract_z
Si Si1 0.896448 0.798452 0.474811
Si Si2 0.708072 0.723290 0.172103
Si Si3 0.497953 0.729869 0.500845
Si Si4 0.249203 0.863426 0.060155
Si Si5 0.228418 0.070955 0.998117
Si Si6 0.580467 0.286949 0.850848
Si Si7 0.662484 0.657621 0.674258
O O1 0.763489 0.721766 0.390180
O O2 0.750604 0.677245 0.535091
O O3 0.184083 0.802594 0.334962
O O4 0.850244 0.007506 0.693766
O O5 0.556424 0.750656 0.377308
O O6 0.567959 0.791410 0.225180
O O7 0.006348 0.799660 0.079098
O O8 0.680233 0.503793 0.977401
O O9 0.323259 0.537973 0.461702
O O10 0.380340 0.900359 0.761231
O O11 0.375376 0.696410 0.876459
O O12 0.500000 0.000000 0.000000
O O13 0.390222 0.244037 0.006140
O O14 0.174893 0.167527 0.210116
O O15 0.000000 0.000000 0.000000
#
# Coordination Sequence:
#
# PCOD9041327 Si02
#       7
#     2   2   2   2   2   2   2
#     4  11  25  44  75 106 146 190 243 298 368 428
#     4  11  26  46  74 106 151 191 245 302 366 432
#     4  12  26  46  78 108 142 197 242 302 363 433
#     4  10  23  43  73 103 144 189 239 298 357 425
#     4  12  29  46  76 108 148 191 247 300 366 434
#     4  11  27  49  71 109 147 196 241 303 368 433
#     4  11  25  48  71 111 148 187 245 307 356 433
#
# _framework density 24.700593999999999
#
# number of rings (size 3 to 8) (size 9 to 14) (size 15 to 20)
#    0.000    0.857    2.857    2.143    8.000    7.429 
#    0.000    0.000    0.000    0.000    0.000    0.000 
#    0.000    0.000    0.000    0.000    0.000    0.000 
#
# Total GULP energy -78342.034091 kJ/mol
# GULP energy per Si atom -5595.859578 kJ/mol
# Density = 2.464437 g / cm^3
# Si number density = 24.700594 Si / 1000 Ang^3
#
#
#
# Elastic Constant Matrix: (Units=GPa)
#
#
# Indices 1 2 3 4 5 6 
#
# 1 131.9894 21.1677 16.8900 6.9320 3.4350 21.0652
# 2 21.1677 110.3631 6.0560 19.7438 -0.9094 8.3172
# 3 16.8900 6.0560 35.3818 16.6687 2.0684 5.3574
# 4 6.9320 19.7438 16.6687 34.3843 0.3325 1.8449
# 5 3.4350 -0.9094 2.0684 0.3325 36.5612 -9.0974
# 6 21.0652 8.3172 5.3574 1.8449 -9.0974 52.2252
#
#
#
# Elastic Compliance Matrix: (Units=1/GPa)
#
#
# Indices 1 2 3 4 5 6 
#
# 1 0.008800 -0.001447 -0.003921 0.001144 -0.001450 -0.003210
# 2 -0.001447 0.010508 0.002240 -0.006772 0.000066 -0.001069
# 3 -0.003921 0.002240 0.039431 -0.019454 -0.002258 -0.002526
# 4 0.001144 -0.006772 -0.019454 0.042097 0.000755 0.001257
# 5 -0.001450 0.000066 -0.002258 0.000755 0.029064 0.005842
# 6 -0.003210 -0.001069 -0.002526 0.001257 0.005842 0.021845
#
#
# Mechanical properties :
#
#
# Convention : Reuss Voigt Hill
#
# Bulk Modulus (GPa) = 19.05397 40.66241 29.85819
# Shear Modulus (GPa) = 28.49064 40.20884 34.34974
#
# Velocity S-wave (km/s) = 3.39992 4.03904 3.73318
# Velocity P-wave (km/s) = 4.81075 6.18463 5.54044
#
# Compressibility (1/GPa) = 0.05248251
#
# Stress axis : x y z
#
# Youngs Moduli (GPa) = 113.63336 95.16391 25.36075
#
# Poissons Ratio (x) = 0.13775 0.09945
# Poissons Ratio (y) = 0.16448 -0.05682
# Poissons Ratio (z) = 0.44561 -0.21321
#
# Static dielectric constant tensor:
#      x y z
#    x 1.976270 -0.012780 0.007430 
#    y -0.012780 1.995800 0.010150 
#    z 0.007430 0.010150 1.965550 
# 
# From -- ./inp_files/505659.got.cif
#   From: 2010.05.17/outbox.cif.g08.bks.cpg/sg2_253_cif.got.tgz:505659.got - 2010.06.03 11:33:40.
