data_PCOD9041062
_publ_section_title
;
Structure prediction by ZEFSAII (Michael W. Deem and Ramdas Pophale) SiO2 
 PCOD9041062
Probable space group: P -1
;
_chemical_formula_sum "Si O2"
_cell_formula_units_Z 14
_cell_length_a 12.808543
_cell_length_b 11.803319
_cell_length_c 9.447463
_cell_angle_alpha 127.503413
_cell_angle_beta 144.650616
_cell_angle_gamma 45.846743
_cell_volume 590.044671
_symmetry_space_group_name_H-M "P -1"
_symmetry_group_IT_number 2
_symmetry_cell_setting 'triclinic'
loop_
_space_group_symop_operation_xyz
x,y,z
-x,-y,-z
loop_
_atom_site_type_symbol
_atom_site_label
_atom_site_fract_x
_atom_site_fract_y
_atom_site_fract_z
Si Si1 0.769497 0.546081 0.063991
Si Si2 0.781011 0.390543 0.657153
Si Si3 0.401080 0.852952 0.666150
Si Si4 0.615573 0.409101 0.201661
Si Si5 0.899264 0.232209 0.159017
Si Si6 0.172586 0.193974 0.775938
Si Si7 0.333161 0.962651 0.366746
O O1 0.855228 0.388408 0.135071
O O2 0.872080 0.663519 0.278023
O O3 0.784189 0.489122 0.873397
O O4 0.544437 0.642477 0.947474
O O5 0.664038 0.287793 0.494400
O O6 0.676382 0.481298 0.463136
O O7 0.004264 0.267392 0.765129
O O8 0.429712 0.877583 0.553197
O O9 0.220477 0.017505 0.645989
O O10 0.609053 0.827611 0.946347
O O11 0.819108 0.274815 0.263217
O O12 0.500000 0.500000 0.000000
O O13 0.757702 0.148740 0.889826
O O14 0.130468 0.118048 0.300445
O O15 0.500000 0.000000 0.500000
#
# Coordination Sequence:
#
# PCOD9041062 Si02
#       7
#     2   2   2   2   2   2   2
#     4  11  23  46  69 105 138 182 233 286 339 413
#     4  12  23  45  73  97 138 184 231 283 346 402
#     4  11  25  45  67 103 138 181 234 283 346 407
#     4  10  23  43  70  96 142 181 220 282 348 404
#     4  10  24  47  67 103 139 181 230 285 347 408
#     4  11  26  41  71 103 137 176 235 287 340 410
#     4  11  25  43  74  98 139 183 232 283 347 411
#
# _framework density 23.727015999999999
#
# number of rings (size 3 to 8) (size 9 to 14) (size 15 to 20)
#    0.000    1.143    2.857    2.143    4.000    0.000 
#    5.143    2.143    0.000    0.000    0.000    0.000 
#    0.000    0.000    0.000    0.000    0.000    0.000 
#
# Total GULP energy -78153.135507 kJ/mol
# GULP energy per Si atom -5582.366822 kJ/mol
# Density = 2.367301 g / cm^3
# Si number density = 23.727016 Si / 1000 Ang^3
#
#
#
# Elastic Constant Matrix: (Units=GPa)
#
#
# Indices 1 2 3 4 5 6 
#
# 1 136.8800 26.2174 24.4768 -13.1060 -1.4055 -18.0286
# 2 26.2174 90.6176 19.0234 4.0965 -1.6125 -7.5332
# 3 24.4768 19.0234 53.7457 -0.7592 4.1628 4.0045
# 4 -13.1060 4.0965 -0.7592 25.6286 -6.4703 -4.9196
# 5 -1.4055 -1.6125 4.1628 -6.4703 47.0407 -4.9335
# 6 -18.0286 -7.5332 4.0045 -4.9196 -4.9335 37.3977
#
#
#
# Elastic Compliance Matrix: (Units=1/GPa)
#
#
# Indices 1 2 3 4 5 6 
#
# 1 0.009923 -0.001703 -0.004447 0.006954 0.002231 0.006126
# 2 -0.001703 0.012631 -0.003917 -0.002495 0.000584 0.001892
# 3 -0.004447 -0.003917 0.022696 -0.003009 -0.003340 -0.006200
# 4 0.006954 -0.002495 -0.003009 0.046879 0.007926 0.010384
# 5 0.002231 0.000584 -0.003340 0.007926 0.023325 0.005670
# 6 0.006126 0.001892 -0.006200 0.010384 0.005670 0.032852
#
#
# Mechanical properties :
#
#
# Convention : Reuss Voigt Hill
#
# Bulk Modulus (GPa) = 39.81509 46.74205 43.27857
# Shear Modulus (GPa) = 28.27899 36.11512 32.19706
#
# Velocity S-wave (km/s) = 3.45606 3.90565 3.68772
# Velocity P-wave (km/s) = 5.72213 6.33100 6.03425
#
# Compressibility (1/GPa) = 0.02511610
#
# Stress axis : x y z
#
# Youngs Moduli (GPa) = 100.78053 79.17253 44.06080
#
# Poissons Ratio (x) = 0.13480 0.19595
# Poissons Ratio (y) = 0.17159 0.17257
# Poissons Ratio (z) = 0.44820 0.31009
#
# Static dielectric constant tensor:
#      x y z
#    x 1.856580 -0.008120 -0.039430 
#    y -0.008120 1.984590 -0.084220 
#    z -0.039430 -0.084220 1.969160 
# 
# From -- ./inp_files/263252.got.cif
#   From: 2010.05.17/outbox.cif.g08.bks.cpg/sg2_132_cif.got.tgz:263252.got - 2010.06.03 11:33:40.
