data_PCOD9041658
_publ_section_title
;
Structure prediction by ZEFSAII (Michael W. Deem and Ramdas Pophale) SiO2 
 PCOD9041658
Probable space group: P -1
;
_chemical_formula_sum "Si O2"
_cell_formula_units_Z 14
_cell_length_a 8.806128
_cell_length_b 7.972872
_cell_length_c 8.032533
_cell_angle_alpha 98.735399
_cell_angle_beta 85.278703
_cell_angle_gamma 111.677818
_cell_volume 517.788997
_symmetry_space_group_name_H-M "P -1"
_symmetry_group_IT_number 2
_symmetry_cell_setting 'triclinic'
loop_
_space_group_symop_operation_xyz
x,y,z
-x,-y,-z
loop_
_atom_site_type_symbol
_atom_site_label
_atom_site_fract_x
_atom_site_fract_y
_atom_site_fract_z
Si Si1 0.341528 0.843992 0.564430
Si Si2 0.924808 0.043838 0.239554
Si Si3 0.469334 0.707498 0.850182
Si Si4 0.781279 0.035856 0.904449
Si Si5 0.708579 0.546905 0.628201
Si Si6 0.787120 0.630774 0.264300
Si Si7 0.900633 0.424739 0.829755
O O1 0.388718 0.800857 0.738263
O O2 0.325096 0.664265 0.437436
O O3 0.500000 0.000000 0.500000
O O4 0.172478 0.881044 0.605506
O O5 0.824476 0.826577 0.215782
O O6 0.112129 0.049863 0.236248
O O7 0.890428 0.102747 0.068625
O O8 0.574151 0.600690 0.740643
O O9 0.314746 0.525379 0.883115
O O10 0.609551 0.879747 0.945321
O O11 0.771266 0.218681 0.849899
O O12 0.715850 0.627132 0.454948
O O13 0.851260 0.572121 0.754382
O O14 0.955663 0.606425 0.292408
O O15 0.000000 0.500000 0.000000
#
# Coordination Sequence:
#
# PCOD9041658 Si02
#       7
#     2   2   2   2   2   2   2
#     4  11  22  42  68 102 139 181 231 284 341 407
#     4  10  23  44  71  96 145 182 232 278 337 415
#     4  11  24  41  68 102 139 175 229 280 344 407
#     4  10  25  44  67 102 138 186 227 280 346 407
#     4  11  24  42  69 100 138 177 227 285 341 404
#     4  10  23  44  66 105 132 180 224 284 343 397
#     4  11  26  45  70  96 136 182 231 277 338 415
#
# _framework density 27.038042000000001
#
# number of rings (size 3 to 8) (size 9 to 14) (size 15 to 20)
#    0.000    1.429    0.000    4.714   10.000    2.286 
#    2.571    3.571    0.000    0.000    0.000    0.000 
#    0.000    0.000    0.000    0.000    0.000    0.000 
#
# Total GULP energy -78223.741475 kJ/mol
# GULP energy per Si atom -5587.410105 kJ/mol
# Density = 2.697650 g / cm^3
# Si number density = 27.038042 Si / 1000 Ang^3
#
#
#
# Elastic Constant Matrix: (Units=GPa)
#
#
# Indices 1 2 3 4 5 6 
#
# 1 107.2207 23.5715 21.8053 19.4781 -7.8683 -13.7118
# 2 23.5715 117.2134 7.5936 10.3631 -8.8725 10.1985
# 3 21.8053 7.5936 36.0215 12.0868 7.2157 -5.6164
# 4 19.4781 10.3631 12.0868 37.7426 -4.6699 1.9451
# 5 -7.8683 -8.8725 7.2157 -4.6699 49.0226 11.3595
# 6 -13.7118 10.1985 -5.6164 1.9451 11.3595 56.5662
#
#
#
# Elastic Compliance Matrix: (Units=1/GPa)
#
#
# Indices 1 2 3 4 5 6 
#
# 1 0.011971 -0.001822 -0.005452 -0.003885 0.001437 0.002534
# 2 -0.001822 0.009465 -0.001497 -0.000767 0.002196 -0.002712
# 3 -0.005452 -0.001497 0.037209 -0.010008 -0.008672 0.004729
# 4 -0.003885 -0.000767 -0.010008 0.032699 0.004722 -0.003870
# 5 0.001437 0.002196 -0.008672 0.004722 0.024124 -0.005916
# 6 0.002534 -0.002712 0.004729 -0.003870 -0.005916 0.020572
#
#
# Mechanical properties :
#
#
# Convention : Reuss Voigt Hill
#
# Bulk Modulus (GPa) = 24.32926 40.71071 32.51998
# Shear Modulus (GPa) = 29.88917 42.49863 36.19390
#
# Velocity S-wave (km/s) = 3.32844 3.96891 3.66270
# Velocity P-wave (km/s) = 4.87740 6.00770 5.47181
#
# Compressibility (1/GPa) = 0.04110277
#
# Stress axis : x y z
#
# Youngs Moduli (GPa) = 83.53450 105.65291 26.87486
#
# Poissons Ratio (x) = 0.19255 0.14651
# Poissons Ratio (y) = 0.15224 0.04024
# Poissons Ratio (z) = 0.45540 0.15819
#
# Static dielectric constant tensor:
#      x y z
#    x 2.253230 0.185360 -0.048750 
#    y 0.185360 2.207540 0.019990 
#    z -0.048750 0.019990 2.201180 
# 
# From -- ./inp_files/150823.got.cif
#   From: 2010.05.17/outbox.cif.g08.bks.cpg/sg2_76_cif.got.tgz:150823.got - 2010.06.03 11:33:40.
