data_PCOD9041131
_publ_section_title
;
Structure prediction by ZEFSAII (Michael W. Deem and Ramdas Pophale) SiO2 
 PCOD9041131
Probable space group: P -1
;
_chemical_formula_sum "Si O2"
_cell_formula_units_Z 14
_cell_length_a 9.443786
_cell_length_b 15.604068
_cell_length_c 5.244040
_cell_angle_alpha 93.640061
_cell_angle_beta 53.389924
_cell_angle_gamma 93.198635
_cell_volume 618.905214
_symmetry_space_group_name_H-M "P -1"
_symmetry_group_IT_number 2
_symmetry_cell_setting 'triclinic'
loop_
_space_group_symop_operation_xyz
x,y,z
-x,-y,-z
loop_
_atom_site_type_symbol
_atom_site_label
_atom_site_fract_x
_atom_site_fract_y
_atom_site_fract_z
Si Si1 0.960292 0.733309 0.261951
Si Si2 0.250995 0.700300 0.568150
Si Si3 0.073499 0.406681 0.356383
Si Si4 0.458383 0.442493 0.781009
Si Si5 0.697107 0.971698 0.823293
Si Si6 0.870401 0.139810 0.513824
Si Si7 0.826533 0.880529 0.155855
O O1 0.886298 0.644977 0.437643
O O2 0.838095 0.779292 0.194730
O O3 0.988430 0.802264 0.470602
O O4 0.159104 0.719862 0.941279
O O5 0.418377 0.640726 0.374865
O O6 0.270885 0.792039 0.421615
O O7 0.088420 0.646709 0.604026
O O8 0.000000 0.500000 0.500000
O O9 0.252890 0.415615 0.008674
O O10 0.500000 0.500000 0.500000
O O11 0.500000 0.500000 0.000000
O O12 0.762712 0.926572 0.486787
O O13 0.806361 0.061521 0.740119
O O14 0.715321 0.913195 0.042141
O O15 0.500000 0.000000 0.000000
O O16 0.972295 0.102255 0.153002
#
# Coordination Sequence:
#
# PCOD9041131 Si02
#       7
#     2   2   2   2   2   2   2
#     4  10  23  43  71 102 131 185 237 286 345 413
#     4  10  24  44  69 101 142 180 237 289 348 413
#     4  11  23  44  73  99 141 185 235 285 352 417
#     4  12  27  45  70 104 137 180 231 290 349 413
#     4  12  26  42  68 105 140 179 228 286 343 410
#     4  10  23  44  70  97 135 182 230 282 342 412
#     4  11  23  45  70  95 134 180 232 275 343 409
#
# _framework density 22.620587
#
# number of rings (size 3 to 8) (size 9 to 14) (size 15 to 20)
#    0.000    1.143    2.857    2.143    8.000    2.286 
#    0.000    0.000    0.000    0.000    0.000    0.000 
#    0.000    0.000    0.000    0.000    0.000    0.000 
#
# Total GULP energy -78234.310459 kJ/mol
# GULP energy per Si atom -5588.165033 kJ/mol
# Density = 2.256910 g / cm^3
# Si number density = 22.620587 Si / 1000 Ang^3
#
#
#
# Elastic Constant Matrix: (Units=GPa)
#
#
# Indices 1 2 3 4 5 6 
#
# 1 93.4401 65.7873 64.1982 2.3755 2.1908 -39.7496
# 2 65.7873 132.6907 81.0291 9.0744 -0.3418 -47.2892
# 3 64.1982 81.0291 117.7334 5.9891 7.9830 -34.7844
# 4 2.3755 9.0744 5.9891 45.9906 -9.2605 1.2104
# 5 2.1908 -0.3418 7.9830 -9.2605 46.9211 5.4776
# 6 -39.7496 -47.2892 -34.7844 1.2104 5.4776 52.7646
#
#
#
# Elastic Compliance Matrix: (Units=1/GPa)
#
#
# Indices 1 2 3 4 5 6 
#
# 1 0.021473 -0.003436 -0.006690 0.000026 -0.000910 0.008781
# 2 -0.003436 0.016388 -0.007097 -0.002295 0.000164 0.007456
# 3 -0.006690 -0.007097 0.017406 -0.001130 -0.002971 0.000409
# 4 0.000026 -0.002295 -0.001130 0.023504 0.005265 -0.003868
# 5 -0.000910 0.000164 -0.002971 0.005265 0.023491 -0.005057
# 6 0.008781 0.007456 0.000409 -0.003868 -0.005057 0.033133
#
#
# Mechanical properties :
#
#
# Convention : Reuss Voigt Hill
#
# Bulk Modulus (GPa) = 48.02502 85.09927 66.56214
# Shear Modulus (GPa) = 28.28344 37.99190 33.13767
#
# Velocity S-wave (km/s) = 3.53985 4.10265 3.83160
# Velocity P-wave (km/s) = 6.16313 7.75527 7.00458
#
# Compressibility (1/GPa) = 0.02082248
#
# Stress axis : x y z
#
# Youngs Moduli (GPa) = 46.56913 61.01849 57.45238
#
# Poissons Ratio (x) = 0.20965 0.38434
# Poissons Ratio (y) = 0.16001 0.40774
# Poissons Ratio (z) = 0.31153 0.43305
#
# Static dielectric constant tensor:
#      x y z
#    x 1.900890 0.030890 0.064810 
#    y 0.030890 1.891370 0.015750 
#    z 0.064810 0.015750 1.866340 
# 
# From -- ./inp_files/56089.got.cif
#   From: 2010.05.17/outbox.cif.g08.bks.cpg/sg2_29_cif.got.tgz:56089.got - 2010.06.03 11:33:40.
