data_PCOD9041043
_publ_section_title
;
Structure prediction by ZEFSAII (Michael W. Deem and Ramdas Pophale) SiO2 
 PCOD9041043
Probable space group: P -1
;
_chemical_formula_sum "Si O2"
_cell_formula_units_Z 16
_cell_length_a 17.707871
_cell_length_b 9.344725
_cell_length_c 17.726893
_cell_angle_alpha 140.045507
_cell_angle_beta 150.576059
_cell_angle_gamma 29.452409
_cell_volume 708.173003
_symmetry_space_group_name_H-M "P -1"
_symmetry_group_IT_number 2
_symmetry_cell_setting 'triclinic'
loop_
_space_group_symop_operation_xyz
x,y,z
-x,-y,-z
loop_
_atom_site_type_symbol
_atom_site_label
_atom_site_fract_x
_atom_site_fract_y
_atom_site_fract_z
Si Si1 0.569324 0.180860 0.109196
Si Si2 0.684094 0.442301 0.094396
Si Si3 0.611445 0.602619 0.369569
Si Si4 0.882950 0.984408 0.694990
Si Si5 0.085205 0.362196 0.896075
Si Si6 0.285466 0.413157 0.232189
Si Si7 0.697572 0.782995 0.366503
Si Si8 0.810336 0.795101 0.710461
O O1 0.613500 0.333974 0.269380
O O2 0.770409 0.954500 0.143838
O O3 0.391985 0.444756 0.009791
O O4 0.500000 0.000000 0.000000
O O5 0.894319 0.117418 0.151894
O O6 0.720801 0.639964 0.249408
O O7 0.500000 0.500000 0.000000
O O8 0.740522 0.614063 0.548966
O O9 0.689152 0.610951 0.357929
O O10 0.384357 0.906253 0.302282
O O11 0.862231 0.878430 0.713326
O O12 0.710754 0.328111 0.675689
O O13 0.855555 0.826760 0.542354
O O14 0.887354 0.457051 0.803458
O O15 0.996985 0.603723 0.851691
O O16 0.213938 0.367327 0.073542
O O17 0.484540 0.108149 0.309987
#
# Coordination Sequence:
#
# PCOD9041043 Si02
#       8
#     2   2   2   2   2   2   2   2
#     4  12  26  42  64  99 137 175 225 279 329 393
#     4  12  24  44  69  96 134 176 218 272 337 398
#     4  10  23  43  70  95 134 183 218 275 336 399
#     4  11  26  41  69 102 129 175 224 277 330 394
#     4  11  24  43  64  99 134 175 225 268 342 397
#     4  11  24  41  68 100 131 170 225 281 327 392
#     4  11  22  46  68  97 136 171 225 274 337 398
#     4  10  23  45  68  96 135 177 224 270 339 398
#
# _framework density 22.593350000000001
#
# number of rings (size 3 to 8) (size 9 to 14) (size 15 to 20)
#    0.000    1.000    3.750    2.250    5.250    1.000 
#    2.250    0.000    0.000    0.000    0.000    0.000 
#    0.000    0.000    0.000    0.000    0.000    0.000 
#
# Total GULP energy -89521.251350 kJ/mol
# GULP energy per Si atom -5595.078209 kJ/mol
# Density = 2.254193 g / cm^3
# Si number density = 22.593350 Si / 1000 Ang^3
#
#
#
# Elastic Constant Matrix: (Units=GPa)
#
#
# Indices 1 2 3 4 5 6 
#
# 1 27.7901 1.5259 21.3212 10.7489 -3.9367 5.0473
# 2 1.5259 73.6612 18.3107 8.8162 10.3814 -1.5516
# 3 21.3212 18.3107 66.7122 5.4212 10.8222 -0.6577
# 4 10.7489 8.8162 5.4212 40.3479 -5.3216 0.0943
# 5 -3.9367 10.3814 10.8222 -5.3216 22.9162 1.4329
# 6 5.0473 -1.5516 -0.6577 0.0943 1.4329 39.3322
#
#
#
# Elastic Compliance Matrix: (Units=1/GPa)
#
#
# Indices 1 2 3 4 5 6 
#
# 1 0.061809 0.003059 -0.022603 -0.011739 0.017732 -0.008807
# 2 0.003059 0.015884 -0.004018 -0.004518 -0.005846 0.000391
# 3 -0.022603 -0.004018 0.025483 0.001627 -0.013949 0.003672
# 4 -0.011739 -0.004518 0.001627 0.029474 0.006039 0.001065
# 5 0.017732 -0.005846 -0.013949 0.006039 0.057625 -0.004853
# 6 -0.008807 0.000391 0.003672 0.001065 -0.004853 0.026806
#
#
# Mechanical properties :
#
#
# Convention : Reuss Voigt Hill
#
# Bulk Modulus (GPa) = 17.84055 27.83101 22.83578
# Shear Modulus (GPa) = 17.67468 28.98631 23.33050
#
# Velocity S-wave (km/s) = 2.79999 3.58573 3.21694
# Velocity P-wave (km/s) = 4.28565 5.43030 4.89157
#
# Compressibility (1/GPa) = 0.05605208
#
# Stress axis : x y z
#
# Youngs Moduli (GPa) = 16.17875 62.95665 39.24123
#
# Poissons Ratio (x) = -0.19257 0.88698
# Poissons Ratio (y) = -0.04949 0.15767
# Poissons Ratio (z) = 0.36569 0.25296
#
# Static dielectric constant tensor:
#      x y z
#    x 1.850130 0.001000 0.031840 
#    y 0.001000 1.822700 0.015360 
#    z 0.031840 0.015360 1.839190 
# 
# From -- ./inp_files/243102.got.cif
#   From: 2010.05.17/outbox.cif.g08.bks.cpg/sg2_122_cif.got.tgz:243102.got - 2010.06.03 11:33:40.
