data_PCOD9041130
_publ_section_title
;
Structure prediction by ZEFSAII (Michael W. Deem and Ramdas Pophale) SiO2 
 PCOD9041130
Probable space group: P -1
;
_chemical_formula_sum "Si O2"
_cell_formula_units_Z 16
_cell_length_a 5.559237
_cell_length_b 20.759891
_cell_length_c 9.053306
_cell_angle_alpha 51.120598
_cell_angle_beta 102.179329
_cell_angle_gamma 122.804190
_cell_volume 670.223915
_symmetry_space_group_name_H-M "P -1"
_symmetry_group_IT_number 2
_symmetry_cell_setting 'triclinic'
loop_
_space_group_symop_operation_xyz
x,y,z
-x,-y,-z
loop_
_atom_site_type_symbol
_atom_site_label
_atom_site_fract_x
_atom_site_fract_y
_atom_site_fract_z
Si Si1 0.935597 0.922604 0.734941
Si Si2 0.257771 0.291038 0.910648
Si Si3 0.835183 0.544070 0.327153
Si Si4 0.305675 0.714702 0.568855
Si Si5 0.275588 0.030772 0.094893
Si Si6 0.665714 0.663678 0.463609
Si Si7 0.493226 0.081629 0.746416
Si Si8 0.839410 0.410130 0.994851
O O1 0.691873 0.915679 0.825667
O O2 0.873375 0.812830 0.872656
O O3 0.000000 0.000000 0.500000
O O4 0.221078 0.984232 0.783734
O O5 0.089031 0.347429 0.778616
O O6 0.337463 0.281878 0.764819
O O7 0.538543 0.373064 0.922232
O O8 0.502169 0.452852 0.424189
O O9 0.000000 0.500000 0.500000
O O10 0.929994 0.560439 0.146008
O O11 0.466310 0.674237 0.546894
O O12 0.526629 0.830184 0.436730
O O13 0.242638 0.678163 0.780136
O O14 0.996016 0.696906 0.498739
O O15 0.247435 0.927586 0.268920
O O16 0.518857 0.089427 0.915829
O O17 0.000000 0.000000 0.000000
O O18 0.000000 0.500000 0.000000
#
# Coordination Sequence:
#
# PCOD9041130 Si02
#       8
#     2   2   2   2   2   2   2   2
#     4  11  25  45  70 106 153 192 249 309 377 448
#     4  12  28  45  79 108 152 209 256 309 394 465
#     4  12  26  51  75 111 155 199 258 323 386 464
#     4  12  28  45  79 116 153 201 255 322 382 455
#     4   9  21  41  67  98 140 186 246 303 361 433
#     4  12  27  48  77 115 155 199 263 316 385 461
#     4  10  23  43  71 101 146 193 248 305 372 439
#     4  12  27  48  73 108 150 196 253 316 394 454
#
# _framework density 23.872619
#
# number of rings (size 3 to 8) (size 9 to 14) (size 15 to 20)
#    0.000    0.750    2.500    3.375   10.500    3.500 
#    0.000    0.000    0.000    0.000    0.000    0.000 
#    0.000    0.000    0.000    0.000    0.000    0.000 
#
# Total GULP energy -89157.635863 kJ/mol
# GULP energy per Si atom -5572.352241 kJ/mol
# Density = 2.381828 g / cm^3
# Si number density = 23.872619 Si / 1000 Ang^3
#
#
#
# Elastic Constant Matrix: (Units=GPa)
#
#
# Indices 1 2 3 4 5 6 
#
# 1 74.8134 26.1672 20.6959 -2.4135 3.7357 -4.1784
# 2 26.1672 64.1925 22.6276 -12.6269 1.4528 -5.5855
# 3 20.6959 22.6276 161.4066 0.2936 2.7924 -13.0079
# 4 -2.4135 -12.6269 0.2936 49.8913 -5.0137 8.4866
# 5 3.7357 1.4528 2.7924 -5.0137 31.1187 1.2242
# 6 -4.1784 -5.5855 -13.0079 8.4866 1.2242 40.5477
#
#
#
# Elastic Compliance Matrix: (Units=1/GPa)
#
#
# Indices 1 2 3 4 5 6 
#
# 1 0.015935 -0.006229 -0.001080 -0.001095 -0.001730 0.000719
# 2 -0.006229 0.019755 -0.001956 0.004709 0.000742 0.000444
# 3 -0.001080 -0.001956 0.006784 -0.000994 -0.000628 0.002023
# 4 -0.001095 0.004709 -0.000994 0.022346 0.003781 -0.004574
# 5 -0.001730 0.000742 -0.000628 0.003781 0.033055 -0.002067
# 6 0.000719 0.000444 0.002023 -0.004574 -0.002067 0.026466
#
#
# Mechanical properties :
#
#
# Convention : Reuss Voigt Hill
#
# Bulk Modulus (GPa) = 41.76510 48.82153 45.29332
# Shear Modulus (GPa) = 33.14476 39.70632 36.42554
#
# Velocity S-wave (km/s) = 3.73017 4.08273 3.91042
# Velocity P-wave (km/s) = 6.00709 6.53607 6.27715
#
# Compressibility (1/GPa) = 0.02394344
#
# Stress axis : x y z
#
# Youngs Moduli (GPa) = 62.75411 50.62026 147.40622
#
# Poissons Ratio (x) = 0.31530 0.15922
# Poissons Ratio (y) = 0.39088 0.28839
# Poissons Ratio (z) = 0.06778 0.09903
#
# Static dielectric constant tensor:
#      x y z
#    x 5.061490 -0.431790 -3.208110 
#    y -0.431790 2.027390 0.439400 
#    z -3.208110 0.439400 5.420170 
# 
# From -- ./inp_files/141155.got.cif
#   From: 2010.05.17/outbox.cif.g08.bks.cpg/sg2_71_cif.got.tgz:141155.got - 2010.06.03 11:33:40.
