data_PCOD9041746
_publ_section_title
;
Structure prediction by ZEFSAII (Michael W. Deem and Ramdas Pophale) SiO2 
 PCOD9041746
Probable space group: P -1
;
_chemical_formula_sum "Si O2"
_cell_formula_units_Z 12
_cell_length_a 17.738781
_cell_length_b 17.490394
_cell_length_c 10.463151
_cell_angle_alpha 152.903947
_cell_angle_beta 140.636474
_cell_angle_gamma 21.993435
_cell_volume 527.054706
_symmetry_space_group_name_H-M "P -1"
_symmetry_group_IT_number 2
_symmetry_cell_setting 'triclinic'
loop_
_space_group_symop_operation_xyz
x,y,z
-x,-y,-z
loop_
_atom_site_type_symbol
_atom_site_label
_atom_site_fract_x
_atom_site_fract_y
_atom_site_fract_z
Si Si1 0.570723 0.676272 0.874781
Si Si2 0.651734 0.985304 0.174637
Si Si3 0.503487 0.850691 0.509517
Si Si4 0.016099 0.179701 0.613772
Si Si5 0.175395 0.679014 0.692132
Si Si6 0.529057 0.535948 0.860716
O O1 0.481017 0.660720 0.842484
O O2 0.820403 0.350027 0.697165
O O3 0.451725 0.803607 0.772309
O O4 0.543368 0.902755 0.218711
O O5 0.896402 0.742127 0.109228
O O6 0.643771 0.028471 0.383007
O O7 0.500000 0.000000 0.000000
O O8 0.735633 0.557248 0.441131
O O9 0.498053 0.724567 0.200514
O O10 0.912957 0.305994 0.526656
O O11 0.227512 0.816644 0.343845
O O12 0.365840 0.582780 0.760201
O O13 0.000000 0.000000 0.000000
#
# Coordination Sequence:
#
# PCOD9041746 Si02
#       6
#     2   2   2   2   2   2
#     4  11  26  44  67 104 144 175 223 287 345 397
#     4  10  23  44  67 100 136 174 230 275 339 402
#     4  11  22  47  68  98 136 182 227 280 335 400
#     4  12  23  43  74  97 137 182 228 272 349 400
#     4  12  24  44  74 101 133 183 235 281 333 405
#     4  12  25  45  70 102 140 178 231 282 335 409
#
# _framework density 22.768035000000001
#
# number of rings (size 3 to 8) (size 9 to 14) (size 15 to 20)
#    0.000    0.667    5.000    2.500    0.000    6.667 
#    6.000    0.833    0.000    0.000    0.000    0.000 
#    0.000    0.000    0.000    0.000    0.000    0.000 
#
# Total GULP energy -66916.499439 kJ/mol
# GULP energy per Si atom -5576.374953 kJ/mol
# Density = 2.271621 g / cm^3
# Si number density = 22.768035 Si / 1000 Ang^3
#
#
#
# Elastic Constant Matrix: (Units=GPa)
#
#
# Indices 1 2 3 4 5 6 
#
# 1 103.7241 25.8448 17.0009 -0.3431 8.7149 7.0589
# 2 25.8448 106.4195 26.6923 -3.5888 -4.5999 -10.4246
# 3 17.0009 26.6923 94.2238 -7.1175 -1.8150 -1.9194
# 4 -0.3431 -3.5888 -7.1175 38.2599 1.8070 -1.6551
# 5 8.7149 -4.5999 -1.8150 1.8070 34.3025 2.4378
# 6 7.0589 -10.4246 -1.9194 -1.6551 2.4378 37.4179
#
#
#
# Elastic Compliance Matrix: (Units=1/GPa)
#
#
# Indices 1 2 3 4 5 6 
#
# 1 0.010982 -0.002739 -0.001348 -0.000385 -0.003015 -0.002725
# 2 -0.002739 0.011121 -0.002506 0.000615 0.001781 0.003398
# 3 -0.001348 -0.002506 0.011725 0.001919 0.000511 0.000209
# 4 -0.000385 0.000615 0.001919 0.026676 -0.001237 0.001603
# 5 -0.003015 0.001781 0.000511 -0.001237 0.030316 -0.000939
# 6 -0.002725 0.003398 0.000209 0.001603 -0.000939 0.028329
#
#
# Mechanical properties :
#
#
# Convention : Reuss Voigt Hill
#
# Bulk Modulus (GPa) = 48.44641 49.27148 48.85895
# Shear Modulus (GPa) = 35.91527 37.65135 36.78331
#
# Velocity S-wave (km/s) = 3.97601 4.07097 4.02377
# Velocity P-wave (km/s) = 6.51173 6.61700 6.56458
#
# Compressibility (1/GPa) = 0.02064136
#
# Stress axis : x y z
#
# Youngs Moduli (GPa) = 91.05911 89.91870 85.28549
#
# Poissons Ratio (x) = 0.24629 0.11498
# Poissons Ratio (y) = 0.24942 0.21375
# Poissons Ratio (z) = 0.12276 0.22536
#
# Static dielectric constant tensor:
#      x y z
#    x 1.797990 0.013070 0.025410 
#    y 0.013070 1.835190 0.037850 
#    z 0.025410 0.037850 2.130420 
# 
# From -- ./inp_files/363400.got.cif
#   From: 2010.05.17/outbox.cif.g08.bks.cpg/sg2_182_cif.got.tgz:363400.got - 2010.06.03 11:33:40.
