data_PCOD9041579
_publ_section_title
;
Structure prediction by ZEFSAII (Michael W. Deem and Ramdas Pophale) SiO2 
 PCOD9041579
Probable space group: P -1
;
_chemical_formula_sum "Si O2"
_cell_formula_units_Z 15
_cell_length_a 7.119887
_cell_length_b 9.345720
_cell_length_c 10.594370
_cell_angle_alpha 74.950214
_cell_angle_beta 58.877372
_cell_angle_gamma 76.265617
_cell_volume 578.226432
_symmetry_space_group_name_H-M "P -1"
_symmetry_group_IT_number 2
_symmetry_cell_setting 'triclinic'
loop_
_space_group_symop_operation_xyz
x,y,z
-x,-y,-z
loop_
_atom_site_type_symbol
_atom_site_label
_atom_site_fract_x
_atom_site_fract_y
_atom_site_fract_z
Si Si1 0.103943 0.611093 0.284026
Si Si2 0.830700 0.888023 0.992345
Si Si3 0.369835 0.338979 0.330637
Si Si4 0.490291 0.740805 0.261525
Si Si5 0.500000 0.500000 0.500000
Si Si6 0.744027 0.993653 0.550748
Si Si7 0.172573 0.611836 0.962560
Si Si8 0.893160 0.926679 0.255154
O O1 0.131351 0.437494 0.356397
O O2 0.284439 0.668996 0.298228
O O3 0.920147 0.754543 0.324924
O O4 0.164404 0.606861 0.117298
O O5 0.624005 0.796709 0.084911
O O6 0.822804 0.938630 0.130572
O O7 0.049103 0.771817 0.924725
O O8 0.863072 0.016978 0.853367
O O9 0.444720 0.384211 0.433395
O O10 0.334712 0.167512 0.358019
O O11 0.571589 0.390842 0.165172
O O12 0.614161 0.603448 0.330167
O O13 0.400609 0.873857 0.356468
O O14 0.748788 0.013900 0.392660
O O15 0.000000 0.000000 0.500000
O O16 0.000000 0.500000 0.000000
#
# Coordination Sequence:
#
# PCOD9041579 Si02
#       8
#     2   2   2   2   1   2   2   2
#     4  10  23  46  70  99 143 186 239 292 366 422
#     4  10  24  42  70  99 140 186 238 297 362 416
#     4  11  26  46  74 106 143 198 237 299 362 435
#     4  11  24  47  73 103 145 191 238 298 365 433
#     4  10  24  46  72 106 142 188 238 292 374 418
#     4  12  27  45  69 111 146 187 244 298 359 434
#     4  11  24  45  72 107 142 180 249 302 358 427
#     4  10  23  44  65 101 141 188 236 296 355 428
#
# _framework density 25.941392
#
# number of rings (size 3 to 8) (size 9 to 14) (size 15 to 20)
#    0.000    1.333    1.333    2.800    7.467    5.333 
#    4.800    0.000    0.000    0.000    0.000    0.000 
#    0.000    0.000    0.000    0.000    0.000    0.000 
#
# Total GULP energy -83539.765543 kJ/mol
# GULP energy per Si atom -5569.317703 kJ/mol
# Density = 2.588235 g / cm^3
# Si number density = 25.941392 Si / 1000 Ang^3
#
#
#
# Elastic Constant Matrix: (Units=GPa)
#
#
# Indices 1 2 3 4 5 6 
#
# 1 27.3734 25.1660 14.4520 -6.0537 -13.5051 7.6556
# 2 25.1660 157.7648 33.0359 -17.2664 -10.8563 9.0322
# 3 14.4520 33.0359 100.6000 7.1404 -27.6138 1.0154
# 4 -6.0537 -17.2664 7.1404 45.5802 15.8626 -4.1982
# 5 -13.5051 -10.8563 -27.6138 15.8626 40.5190 3.0118
# 6 7.6556 9.0322 1.0154 -4.1982 3.0118 42.5209
#
#
#
# Elastic Compliance Matrix: (Units=1/GPa)
#
#
# Indices 1 2 3 4 5 6 
#
# 1 0.054037 -0.007048 -0.000359 -0.002440 0.017555 -0.009708
# 2 -0.007048 0.008260 -0.003026 0.004008 -0.003786 0.000250
# 3 -0.000359 -0.003026 0.015013 -0.008035 0.012546 -0.001333
# 4 -0.002440 0.004008 -0.008035 0.030898 -0.017614 0.004078
# 5 0.017555 -0.003786 0.012546 -0.017614 0.045529 -0.007620
# 6 -0.009708 0.000250 -0.001333 0.004078 -0.007620 0.026187
#
#
# Mechanical properties :
#
#
# Convention : Reuss Voigt Hill
#
# Bulk Modulus (GPa) = 17.71640 47.89400 32.80520
# Shear Modulus (GPa) = 22.76825 39.92962 31.34893
#
# Velocity S-wave (km/s) = 2.96578 3.92755 3.48005
# Velocity P-wave (km/s) = 4.30953 6.25060 5.36852
#
# Compressibility (1/GPa) = 0.05644487
#
# Stress axis : x y z
#
# Youngs Moduli (GPa) = 18.50583 121.06136 66.60860
#
# Poissons Ratio (x) = 0.85324 0.02388
# Poissons Ratio (y) = 0.13043 0.20158
# Poissons Ratio (z) = 0.00663 0.36636
#
# Static dielectric constant tensor:
#      x y z
#    x 2.215310 -0.018690 -0.105770 
#    y -0.018690 2.185860 -0.078700 
#    z -0.105770 -0.078700 2.089760 
# 
# From -- ./inp_files/378540.got.cif
#   From: 2010.05.17/outbox.cif.g08.bks.cpg/sg2_190_cif.got.tgz:378540.got - 2010.06.03 11:33:40.
