data_PCOD9041708
_publ_section_title
;
Structure prediction by ZEFSAII (Michael W. Deem and Ramdas Pophale) SiO2 
 PCOD9041708
Probable space group: P -1
;
_chemical_formula_sum "Si O2"
_cell_formula_units_Z 14
_cell_length_a 5.616858
_cell_length_b 11.803431
_cell_length_c 13.720290
_cell_angle_alpha 50.260857
_cell_angle_beta 53.195476
_cell_angle_gamma 73.283151
_cell_volume 553.299474
_symmetry_space_group_name_H-M "P -1"
_symmetry_group_IT_number 2
_symmetry_cell_setting 'triclinic'
loop_
_space_group_symop_operation_xyz
x,y,z
-x,-y,-z
loop_
_atom_site_type_symbol
_atom_site_label
_atom_site_fract_x
_atom_site_fract_y
_atom_site_fract_z
Si Si1 0.192994 0.216508 0.796456
Si Si2 0.722387 0.212702 0.531212
Si Si3 0.811790 0.945172 0.931635
Si Si4 0.866253 0.493309 0.428212
Si Si5 0.799771 0.344275 0.256417
Si Si6 0.277412 0.620794 0.971203
Si Si7 0.747753 0.882164 0.758970
O O1 0.532711 0.225502 0.669762
O O2 0.015916 0.347496 0.736349
O O3 0.192457 0.198372 0.921455
O O4 0.053413 0.070474 0.851380
O O5 0.970561 0.357354 0.416427
O O6 0.574621 0.276955 0.435485
O O7 0.756888 0.039836 0.615113
O O8 0.852069 0.920641 0.822283
O O9 0.500000 0.000000 0.000000
O O10 0.500000 0.500000 0.500000
O O11 0.000000 0.500000 0.500000
O O12 0.033954 0.225578 0.278944
O O13 0.710585 0.335343 0.170474
O O14 0.960112 0.515956 0.131581
O O15 0.424285 0.775888 0.900280
O O16 0.500000 0.500000 0.000000
#
# Coordination Sequence:
#
# PCOD9041708 Si02
#       7
#     2   2   2   2   2   2   2
#     4  10  24  43  67 100 135 182 233 284 351 420
#     4  11  23  44  66 106 138 176 228 288 350 415
#     4  11  23  42  69  96 135 180 232 286 347 416
#     4  10  23  44  66  97 142 185 229 286 349 416
#     4  10  23  44  69  96 137 179 222 277 351 417
#     4   9  22  45  64  94 131 178 231 272 335 414
#     4  11  23  41  69 100 134 173 232 283 340 414
#
# _framework density 25.302754
#
# number of rings (size 3 to 8) (size 9 to 14) (size 15 to 20)
#    0.000    1.714    1.429    1.286    4.000    5.143 
#   15.429    0.000    0.000    0.000    0.000    0.000 
#    0.000    0.000    0.000    0.000    0.000    0.000 
#
# Total GULP energy -78081.054599 kJ/mol
# GULP energy per Si atom -5577.218186 kJ/mol
# Density = 2.524516 g / cm^3
# Si number density = 25.302754 Si / 1000 Ang^3
#
#
#
# Elastic Constant Matrix: (Units=GPa)
#
#
# Indices 1 2 3 4 5 6 
#
# 1 64.1864 20.7030 29.0423 -8.3984 31.8560 4.9221
# 2 20.7030 141.6580 37.8526 -45.0256 13.8837 6.1841
# 3 29.0423 37.8526 161.4236 -29.9281 52.8116 10.8957
# 4 -8.3984 -45.0256 -29.9281 43.5811 -12.5883 4.0986
# 5 31.8560 13.8837 52.8116 -12.5883 37.7686 5.6705
# 6 4.9221 6.1841 10.8957 4.0986 5.6705 38.5328
#
#
#
# Elastic Compliance Matrix: (Units=1/GPa)
#
#
# Indices 1 2 3 4 5 6 
#
# 1 0.030334 -0.003994 0.005610 -0.004131 -0.033420 0.000537
# 2 -0.003994 0.011392 -0.001320 0.011956 0.005465 -0.003021
# 3 0.005610 -0.001320 0.013105 0.002633 -0.021495 -0.001327
# 4 -0.004131 0.011956 0.002633 0.039902 0.009884 -0.007834
# 5 -0.033420 0.005465 -0.021495 0.009884 0.086657 -0.004334
# 6 0.000537 -0.003021 -0.001327 -0.007834 -0.004334 0.028215
#
#
# Mechanical properties :
#
#
# Convention : Reuss Voigt Hill
#
# Bulk Modulus (GPa) = 18.04265 60.27377 39.15821
# Shear Modulus (GPa) = 21.97936 42.62116 32.30026
#
# Velocity S-wave (km/s) = 2.95049 4.10865 3.57676
# Velocity P-wave (km/s) = 4.33052 6.81035 5.70676
#
# Compressibility (1/GPa) = 0.05542424
#
# Stress axis : x y z
#
# Youngs Moduli (GPa) = 32.96646 87.77918 76.30644
#
# Poissons Ratio (x) = 0.35055 -0.42812
# Poissons Ratio (y) = 0.13165 0.10075
# Poissons Ratio (z) = -0.18496 0.11590
#
# Static dielectric constant tensor:
#      x y z
#    x 1.888390 -0.140690 0.104830 
#    y -0.140690 2.012080 0.152070 
#    z 0.104830 0.152070 1.937380 
# 
# From -- ./inp_files/70508.got.cif
#   From: 2010.05.17/outbox.cif.g08.bks.cpg/sg2_36_cif.got.tgz:70508.got - 2010.06.03 11:33:40.
