data_PCOD9041590
_publ_section_title
;
Structure prediction by ZEFSAII (Michael W. Deem and Ramdas Pophale) SiO2 
 PCOD9041590
Probable space group: P -1
;
_chemical_formula_sum "Si O2"
_cell_formula_units_Z 14
_cell_length_a 15.234687
_cell_length_b 18.092347
_cell_length_c 12.416935
_cell_angle_alpha 23.971232
_cell_angle_beta 46.299084
_cell_angle_gamma 29.449821
_cell_volume 582.027315
_symmetry_space_group_name_H-M "P -1"
_symmetry_group_IT_number 2
_symmetry_cell_setting 'triclinic'
loop_
_space_group_symop_operation_xyz
x,y,z
-x,-y,-z
loop_
_atom_site_type_symbol
_atom_site_label
_atom_site_fract_x
_atom_site_fract_y
_atom_site_fract_z
Si Si1 0.074925 0.361810 0.474396
Si Si2 0.496518 0.303160 0.902881
Si Si3 0.694470 0.613462 0.505992
Si Si4 0.426371 0.883607 0.570787
Si Si5 0.111010 0.994411 0.760684
Si Si6 0.767355 0.528714 0.926999
Si Si7 0.357844 0.468314 0.567817
O O1 0.050060 0.593495 0.134572
O O2 0.874417 0.543195 0.471776
O O3 0.066591 0.210222 0.595121
O O4 0.311229 0.041688 0.745411
O O5 0.473834 0.272779 0.838691
O O6 0.561864 0.433824 0.669474
O O7 0.281281 0.546046 0.831997
O O8 0.500312 0.854685 0.430174
O O9 0.628358 0.680307 0.348671
O O10 0.798370 0.290713 0.876475
O O11 0.281080 0.883780 0.688266
O O12 0.625827 0.614229 0.838635
O O13 0.313264 0.188678 0.320823
O O14 0.885834 0.217753 0.608626
#
# Coordination Sequence:
#
# PCOD9041590 Si02
#       7
#     2   2   2   2   2   2   2
#     4  10  17  33  58  74 104 135 178 208 250 300
#     4  11  17  35  57  75 104 141 167 214 247 318
#     4  11  19  32  52  84 103 132 173 219 251 303
#     4  10  19  31  58  74 104 133 179 213 255 289
#     4  10  17  34  51  80 103 136 173 214 245 311
#     4  10  19  37  54  77  97 143 179 208 249 309
#     4  10  21  31  57  80 104 135 171 205 271 297
#
# _framework density 24.053854000000001
#
# number of rings (size 3 to 8) (size 9 to 14) (size 15 to 20)
#    0.000    1.714    7.143    1.286    0.000    0.571 
#    0.000    7.143    3.143    2.571    0.000    0.000 
#    0.000    0.000    0.000    0.000    0.000    0.000 
#
# Total GULP energy -78082.504667 kJ/mol
# GULP energy per Si atom -5577.321762 kJ/mol
# Density = 2.399911 g / cm^3
# Si number density = 24.053854 Si / 1000 Ang^3
#
#
#
# Elastic Constant Matrix: (Units=GPa)
#
#
# Indices 1 2 3 4 5 6 
#
# 1 81.3161 32.1792 38.9614 23.0117 10.3317 -6.3984
# 2 32.1792 145.4502 40.1154 51.1858 -8.8910 -29.1566
# 3 38.9614 40.1154 61.8849 20.8290 -3.4744 -22.1979
# 4 23.0117 51.1858 20.8290 31.7879 0.5912 -17.4723
# 5 10.3317 -8.8910 -3.4744 0.5912 30.2123 17.5892
# 6 -6.3984 -29.1566 -22.1979 -17.4723 17.5892 43.8713
#
#
#
# Elastic Compliance Matrix: (Units=1/GPa)
#
#
# Indices 1 2 3 4 5 6 
#
# 1 0.021485 0.002123 -0.012482 -0.013583 -0.004842 -0.005240
# 2 0.002123 0.017531 -0.003961 -0.030071 0.007490 -0.005022
# 3 -0.012482 -0.003961 0.030044 0.002194 -0.000328 0.011754
# 4 -0.013583 -0.030071 0.002194 0.105673 -0.023976 0.030843
# 5 -0.004842 0.007490 -0.000328 -0.023976 0.052909 -0.026656
# 6 -0.005240 -0.005022 0.011754 0.030843 -0.026656 0.047610
#
#
# Mechanical properties :
#
#
# Convention : Reuss Voigt Hill
#
# Bulk Modulus (GPa) = 24.73978 56.79591 40.76785
# Shear Modulus (GPa) = 15.75466 33.00064 24.37765
#
# Velocity S-wave (km/s) = 2.56202 3.70800 3.18694
# Velocity P-wave (km/s) = 4.36571 6.48040 5.52517
#
# Compressibility (1/GPa) = 0.04042073
#
# Stress axis : x y z
#
# Youngs Moduli (GPa) = 46.54430 57.04090 33.28408
#
# Poissons Ratio (x) = -0.12110 0.41546
# Poissons Ratio (y) = -0.09881 0.13183
# Poissons Ratio (z) = 0.58098 0.22592
#
# Static dielectric constant tensor:
#      x y z
#    x 1.925950 0.017060 -0.024490 
#    y 0.017060 2.098610 0.010130 
#    z -0.024490 0.010130 1.937410 
# 
# From -- ./inp_files/158853.got.cif
#   From: 2010.05.17/outbox.cif.g08.bks.cpg/sg2_80_cif.got.tgz:158853.got - 2010.06.03 11:33:40.
