data_PCOD9041387
_publ_section_title
;
Structure prediction by ZEFSAII (Michael W. Deem and Ramdas Pophale) SiO2 
 PCOD9041387
Probable space group: P -1
;
_chemical_formula_sum "Si O2"
_cell_formula_units_Z 16
_cell_length_a 14.106328
_cell_length_b 20.495112
_cell_length_c 6.130251
_cell_angle_alpha 95.666902
_cell_angle_beta 85.824542
_cell_angle_gamma 157.964982
_cell_volume 660.845495
_symmetry_space_group_name_H-M "P -1"
_symmetry_group_IT_number 2
_symmetry_cell_setting 'triclinic'
loop_
_space_group_symop_operation_xyz
x,y,z
-x,-y,-z
loop_
_atom_site_type_symbol
_atom_site_label
_atom_site_fract_x
_atom_site_fract_y
_atom_site_fract_z
Si Si1 0.335684 0.367960 0.787417
Si Si2 0.629425 0.183595 0.933593
Si Si3 0.977858 0.955698 0.743619
Si Si4 0.437895 0.563036 0.582164
Si Si5 0.997386 0.430708 0.336845
Si Si6 0.526157 0.802774 0.358647
Si Si7 0.889118 0.250924 0.608498
Si Si8 0.774916 0.042433 0.741234
O O1 0.347566 0.434211 0.633671
O O2 0.468731 0.389537 0.667073
O O3 0.034744 0.172788 0.812614
O O4 0.500000 0.500000 0.000000
O O5 0.852685 0.349493 0.110639
O O6 0.369866 0.016042 0.056147
O O7 0.578114 0.203954 0.764993
O O8 0.729566 0.182334 0.803149
O O9 0.693435 0.746334 0.719828
O O10 0.000000 0.000000 0.500000
O O11 0.209772 0.053364 0.730435
O O12 0.000000 0.000000 0.000000
O O13 0.194195 0.449851 0.648582
O O14 0.294960 0.604347 0.322465
O O15 0.852465 0.275864 0.417608
O O16 0.000000 0.500000 0.500000
O O17 0.593043 0.871675 0.610713
O O18 0.820118 0.129746 0.584315
#
# Coordination Sequence:
#
# PCOD9041387 Si02
#       8
#     2   2   2   2   2   2   2   2
#     4  10  23  43  74 102 143 191 252 310 393 456
#     4  12  26  42  75 107 146 195 254 303 391 456
#     4  12  30  49  78 116 156 204 261 325 393 473
#     4  10  24  44  70 107 144 194 248 318 383 461
#     4  12  25  47  69 101 145 196 248 310 374 459
#     4  12  27  47  77 105 153 196 252 318 384 463
#     4  11  26  46  70 105 151 191 251 311 384 461
#     4  11  25  46  72 108 147 193 253 317 388 458
#
# _framework density 24.211410999999998
#
# number of rings (size 3 to 8) (size 9 to 14) (size 15 to 20)
#    0.000    0.750    3.750    1.500    7.000    5.000 
#    0.000    0.000    0.000    0.000    0.000    0.000 
#    0.000    0.000    0.000    0.000    0.000    0.000 
#
# Total GULP energy -89299.874010 kJ/mol
# GULP energy per Si atom -5581.242126 kJ/mol
# Density = 2.415630 g / cm^3
# Si number density = 24.211411 Si / 1000 Ang^3
#
#
#
# Elastic Constant Matrix: (Units=GPa)
#
#
# Indices 1 2 3 4 5 6 
#
# 1 63.9789 7.9318 19.3211 -13.2668 -6.7863 27.9184
# 2 7.9318 126.4998 33.8043 -5.4995 -3.6942 29.3236
# 3 19.3211 33.8043 87.2835 4.0488 -17.7470 21.5980
# 4 -13.2668 -5.4995 4.0488 43.2939 -3.2790 -0.9359
# 5 -6.7863 -3.6942 -17.7470 -3.2790 29.3009 -10.0330
# 6 27.9184 29.3236 21.5980 -0.9359 -10.0330 43.6578
#
#
#
# Elastic Compliance Matrix: (Units=1/GPa)
#
#
# Indices 1 2 3 4 5 6 
#
# 1 0.025096 0.003513 -0.003256 0.008037 -0.000553 -0.016752
# 2 0.003513 0.010522 -0.003455 0.002374 -0.002467 -0.008120
# 3 -0.003256 -0.003455 0.015533 -0.002364 0.007395 -0.001633
# 4 0.008037 0.002374 -0.002364 0.026145 0.002107 -0.004519
# 5 -0.000553 -0.002467 0.007395 0.002107 0.041089 0.007841
# 6 -0.016752 -0.008120 -0.001633 -0.004519 0.007841 0.041585
#
#
# Mechanical properties :
#
#
# Convention : Reuss Voigt Hill
#
# Bulk Modulus (GPa) = 22.34402 44.43075 33.38739
# Shear Modulus (GPa) = 27.58109 37.69752 32.63931
#
# Velocity S-wave (km/s) = 3.37883 3.95018 3.67563
# Velocity P-wave (km/s) = 4.94679 6.26069 5.64212
#
# Compressibility (1/GPa) = 0.04475470
#
# Stress axis : x y z
#
# Youngs Moduli (GPa) = 39.84734 95.04184 64.37898
#
# Poissons Ratio (x) = -0.33388 0.20961
# Poissons Ratio (y) = -0.13998 0.22243
# Poissons Ratio (z) = 0.12974 0.32837
#
# Static dielectric constant tensor:
#      x y z
#    x 1.993970 0.005560 0.016280 
#    y 0.005560 1.971130 -0.095530 
#    z 0.016280 -0.095530 1.955490 
# 
# From -- ./inp_files/101159.got.cif
#   From: 2010.05.17/outbox.cif.g08.bks.cpg/sg2_51_cif.got.tgz:101159.got - 2010.06.03 11:33:40.
