data_PCOD9041193
_publ_section_title
;
Structure prediction by ZEFSAII (Michael W. Deem and Ramdas Pophale) SiO2 
 PCOD9041193
Probable space group: P -1
;
_chemical_formula_sum "Si O2"
_cell_formula_units_Z 14
_cell_length_a 11.641602
_cell_length_b 11.035757
_cell_length_c 12.773183
_cell_angle_alpha 124.534504
_cell_angle_beta 46.412698
_cell_angle_gamma 151.473448
_cell_volume 564.057895
_symmetry_space_group_name_H-M "P -1"
_symmetry_group_IT_number 2
_symmetry_cell_setting 'triclinic'
loop_
_space_group_symop_operation_xyz
x,y,z
-x,-y,-z
loop_
_atom_site_type_symbol
_atom_site_label
_atom_site_fract_x
_atom_site_fract_y
_atom_site_fract_z
Si Si1 0.958183 0.200630 0.053456
Si Si2 0.477586 0.480321 0.767180
Si Si3 0.105653 0.659362 0.404610
Si Si4 0.534242 0.027629 0.862968
Si Si5 0.807790 0.748054 0.879462
Si Si6 0.522347 0.784137 0.482009
Si Si7 0.692059 0.819973 0.610256
O O1 0.995176 0.214136 0.162102
O O2 0.764109 0.167800 0.099471
O O3 0.266982 0.433173 0.929848
O O4 0.867043 0.965046 0.965009
O O5 0.754076 0.673759 0.756064
O O6 0.368822 0.233398 0.691493
O O7 0.540332 0.605719 0.682520
O O8 0.277243 0.736975 0.228096
O O9 0.000000 0.500000 0.500000
O O10 0.804863 0.460093 0.447029
O O11 0.314456 0.941709 0.460986
O O12 0.663872 0.966270 0.735575
O O13 0.500000 0.000000 0.000000
O O14 0.500000 0.500000 0.000000
O O15 0.569279 0.726291 0.527656
O O16 0.000000 0.000000 0.500000
#
# Coordination Sequence:
#
# PCOD9041193 Si02
#       7
#     2   2   2   2   2   2   2
#     4  10  23  43  71 111 157 196 267 335 416 478
#     4  11  23  41  77 106 148 206 269 335 400 496
#     4  11  27  54  78 116 167 215 270 338 419 493
#     4  11  26  48  79 120 158 213 273 344 411 488
#     4   9  21  43  65 106 147 201 251 323 398 489
#     4  11  26  48  79 115 150 215 279 331 404 500
#     4  11  26  49  76 110 162 212 274 339 412 490
#
# _framework density 24.820148
#
# number of rings (size 3 to 8) (size 9 to 14) (size 15 to 20)
#    0.000    1.429    0.000    3.429    8.000    4.000 
#   18.000    0.000    0.000    0.000    0.000    0.000 
#    0.000    0.000    0.000    0.000    0.000    0.000 
#
# Total GULP energy -78013.213426 kJ/mol
# GULP energy per Si atom -5572.372388 kJ/mol
# Density = 2.476366 g / cm^3
# Si number density = 24.820148 Si / 1000 Ang^3
#
#
#
# Elastic Constant Matrix: (Units=GPa)
#
#
# Indices 1 2 3 4 5 6 
#
# 1 175.7956 47.3539 56.3302 2.7764 20.1230 40.9904
# 2 47.3539 83.9287 16.8166 5.6608 8.4977 3.6403
# 3 56.3302 16.8166 111.9769 -8.8781 3.1013 4.1735
# 4 2.7764 5.6608 -8.8781 39.2872 3.2220 0.4263
# 5 20.1230 8.4977 3.1013 3.2220 52.5955 -12.4011
# 6 40.9904 3.6403 4.1735 0.4263 -12.4011 53.5902
#
#
#
# Elastic Compliance Matrix: (Units=1/GPa)
#
#
# Indices 1 2 3 4 5 6 
#
# 1 0.011004 -0.004345 -0.004449 -0.000622 -0.005330 -0.009004
# 2 -0.004345 0.014429 -0.000217 -0.001848 0.000018 0.002379
# 3 -0.004449 -0.000217 0.011266 0.002730 0.001586 0.002886
# 4 -0.000622 -0.001848 0.002730 0.026487 -0.001274 -0.000117
# 5 -0.005330 0.000018 0.001586 -0.001274 0.023236 0.009340
# 6 -0.009004 0.002379 0.002886 -0.000117 0.009340 0.027323
#
#
# Mechanical properties :
#
#
# Convention : Reuss Voigt Hill
#
# Bulk Modulus (GPa) = 53.54064 68.07809 60.80936
# Shear Modulus (GPa) = 36.23386 45.84129 41.03758
#
# Velocity S-wave (km/s) = 3.82495 4.30226 4.07061
# Velocity P-wave (km/s) = 6.41290 7.22270 6.82981
#
# Compressibility (1/GPa) = 0.01867740
#
# Stress axis : x y z
#
# Youngs Moduli (GPa) = 90.87798 69.30262 88.76182
#
# Poissons Ratio (x) = 0.30111 0.39491
# Poissons Ratio (y) = 0.39485 0.01926
# Poissons Ratio (z) = 0.40432 0.01504
#
# Static dielectric constant tensor:
#      x y z
#    x 1.972390 -0.027160 0.009300 
#    y -0.027160 2.127080 0.099420 
#    z 0.009300 0.099420 2.216680 
# 
# From -- ./inp_files/424015.got.cif
#   From: 2010.05.17/outbox.cif.g08.bks.cpg/sg2_213_cif.got.tgz:424015.got - 2010.06.03 11:33:40.
