data_PCOD9041205
_publ_section_title
;
Structure prediction by ZEFSAII (Michael W. Deem and Ramdas Pophale) SiO2 
 PCOD9041205
Probable space group: P -1
;
_chemical_formula_sum "Si O2"
_cell_formula_units_Z 12
_cell_length_a 5.308533
_cell_length_b 15.318616
_cell_length_c 9.334504
_cell_angle_alpha 137.704996
_cell_angle_beta 88.869494
_cell_angle_gamma 89.773775
_cell_volume 510.525317
_symmetry_space_group_name_H-M "P -1"
_symmetry_group_IT_number 2
_symmetry_cell_setting 'triclinic'
loop_
_space_group_symop_operation_xyz
x,y,z
-x,-y,-z
loop_
_atom_site_type_symbol
_atom_site_label
_atom_site_fract_x
_atom_site_fract_y
_atom_site_fract_z
Si Si1 0.252337 0.415646 0.421271
Si Si2 0.905701 0.854771 0.977763
Si Si3 0.617523 0.063378 0.437271
Si Si4 0.291597 0.034135 0.161265
Si Si5 0.679759 0.577150 0.246239
Si Si6 0.820867 0.336547 0.804335
O O1 0.500000 0.500000 0.500000
O O2 0.210145 0.284860 0.172221
O O3 0.271610 0.376826 0.539636
O O4 0.000000 0.500000 0.500000
O O5 0.897074 0.884552 0.840947
O O6 0.764598 0.957567 0.208936
O O7 0.191333 0.896812 0.053403
O O8 0.397941 0.110397 0.386612
O O9 0.783492 0.183670 0.626078
O O10 0.500000 0.000000 0.500000
O O11 0.500000 0.000000 0.000000
O O12 0.393294 0.609108 0.239818
O O13 0.895604 0.632468 0.207028
O O14 0.740042 0.421289 0.046732
#
# Coordination Sequence:
#
# PCOD9041205 Si02
#       6
#     2   2   2   2   2   2
#     4  12  28  43  70  99 138 179 222 284 341 399
#     4  10  24  43  67  98 129 181 227 274 337 407
#     4  11  25  40  66  99 138 172 217 286 342 396
#     4   9  21  41  69  93 130 171 223 275 326 411
#     4  10  23  46  69  95 131 177 230 272 322 412
#     4  10  23  43  71  96 129 179 224 272 333 398
#
# _framework density 23.505199000000001
#
# number of rings (size 3 to 8) (size 9 to 14) (size 15 to 20)
#    0.000    1.667    0.000    2.000   16.333    0.667 
#    0.000    0.000    0.000    0.000    0.000    0.000 
#    0.000    0.000    0.000    0.000    0.000    0.000 
#
# Total GULP energy -66958.755719 kJ/mol
# GULP energy per Si atom -5579.896310 kJ/mol
# Density = 2.345170 g / cm^3
# Si number density = 23.505199 Si / 1000 Ang^3
#
#
#
# Elastic Constant Matrix: (Units=GPa)
#
#
# Indices 1 2 3 4 5 6 
#
# 1 108.7323 16.7771 17.6709 15.1503 6.0053 21.6292
# 2 16.7771 62.2828 36.7850 9.2707 1.0553 24.4851
# 3 17.6709 36.7850 149.3562 39.4072 7.9555 26.9139
# 4 15.1503 9.2707 39.4072 51.7031 8.4340 15.9475
# 5 6.0053 1.0553 7.9555 8.4340 33.1286 9.0097
# 6 21.6292 24.4851 26.9139 15.9475 9.0097 33.5852
#
#
#
# Elastic Compliance Matrix: (Units=1/GPa)
#
#
# Indices 1 2 3 4 5 6 
#
# 1 0.010623 -0.000435 0.000321 -0.001395 0.000033 -0.006128
# 2 -0.000435 0.024776 -0.004067 0.003440 0.004082 -0.017252
# 3 0.000321 -0.004067 0.009633 -0.006051 -0.000144 -0.002049
# 4 -0.001395 0.003440 -0.006051 0.026919 -0.002871 -0.008773
# 5 0.000033 0.004082 -0.000144 -0.002871 0.033686 -0.010555
# 6 -0.006128 -0.017252 -0.002049 -0.008773 -0.010555 0.054938
#
#
# Mechanical properties :
#
#
# Convention : Reuss Voigt Hill
#
# Bulk Modulus (GPa) = 27.27037 51.42635 39.34836
# Shear Modulus (GPa) = 27.59985 40.29261 33.94623
#
# Velocity S-wave (km/s) = 3.43038 4.14478 3.80439
# Velocity P-wave (km/s) = 5.22657 6.69566 6.00620
#
# Compressibility (1/GPa) = 0.03666983
#
# Stress axis : x y z
#
# Youngs Moduli (GPa) = 94.13183 40.36168 103.81510
#
# Poissons Ratio (x) = 0.01755 -0.03329
# Poissons Ratio (y) = 0.04093 0.42220
# Poissons Ratio (z) = -0.03019 0.16415
#
# Static dielectric constant tensor:
#      x y z
#    x 2.023680 -0.070360 0.021680 
#    y -0.070360 1.968510 0.088490 
#    z 0.021680 0.088490 1.903540 
# 
# From -- ./inp_files/25511.got.cif
#   From: 2010.05.17/outbox.cif.g08.bks.cpg/sg2_13_cif.got.tgz:25511.got - 2010.06.03 11:33:40.
