data_PCOD9041492
_publ_section_title
;
Structure prediction by ZEFSAII (Michael W. Deem and Ramdas Pophale) SiO2 
 PCOD9041492
Probable space group: P -1
;
_chemical_formula_sum "Si O2"
_cell_formula_units_Z 14
_cell_length_a 9.237160
_cell_length_b 25.173185
_cell_length_c 12.106014
_cell_angle_alpha 25.851173
_cell_angle_beta 127.449752
_cell_angle_gamma 145.240313
_cell_volume 594.285001
_symmetry_space_group_name_H-M "P -1"
_symmetry_group_IT_number 2
_symmetry_cell_setting 'triclinic'
loop_
_space_group_symop_operation_xyz
x,y,z
-x,-y,-z
loop_
_atom_site_type_symbol
_atom_site_label
_atom_site_fract_x
_atom_site_fract_y
_atom_site_fract_z
Si Si1 0.570819 0.180820 0.167324
Si Si2 0.945148 0.710127 0.870662
Si Si3 0.461124 0.823080 0.399593
Si Si4 0.301696 0.091988 0.430458
Si Si5 0.342400 0.292380 0.444205
Si Si6 0.019966 0.264560 0.759993
Si Si7 0.391726 0.288613 0.727254
O O1 0.461645 0.203105 0.179441
O O2 0.926045 0.350785 0.995732
O O3 0.500000 0.000000 0.500000
O O4 0.440788 0.178579 0.003508
O O5 0.903503 0.778352 0.618637
O O6 0.626946 0.531845 0.114899
O O7 0.175456 0.889767 0.727538
O O8 0.465437 0.768207 0.625393
O O9 0.546342 0.772516 0.439313
O O10 0.163963 0.739381 0.393801
O O11 0.755251 0.066304 0.080589
O O12 0.000000 0.000000 0.500000
O O13 0.277513 0.237261 0.645150
O O14 0.172394 0.243617 0.792616
O O15 0.285149 0.473051 0.557835
#
# Coordination Sequence:
#
# PCOD9041492 Si02
#       7
#     2   2   2   2   2   2   2
#     4  10  24  41  67  96 129 177 223 270 327 397
#     4  10  23  44  62 104 132 176 224 265 348 391
#     4  11  23  42  66 102 128 176 225 275 336 393
#     4  11  21  41  67  91 136 176 218 274 329 400
#     4  11  24  41  71  97 136 174 221 282 326 407
#     4  10  25  43  67 101 133 174 224 277 339 397
#     4  11  24  47  69  96 138 179 223 276 337 399
#
# _framework density 23.557718999999999
#
# number of rings (size 3 to 8) (size 9 to 14) (size 15 to 20)
#    0.000    1.429    1.429    2.571    4.000    8.571 
#    0.000    1.429    0.000    0.000    0.000    0.000 
#    0.000    0.000    0.000    0.000    0.000    0.000 
#
# Total GULP energy -78183.014709 kJ/mol
# GULP energy per Si atom -5584.501051 kJ/mol
# Density = 2.350410 g / cm^3
# Si number density = 23.557719 Si / 1000 Ang^3
#
#
#
# Elastic Constant Matrix: (Units=GPa)
#
#
# Indices 1 2 3 4 5 6 
#
# 1 117.9346 52.4558 7.6296 22.3403 3.7471 16.5217
# 2 52.4558 121.7076 11.0915 32.3625 0.9255 0.0487
# 3 7.6296 11.0915 62.7316 11.2614 5.3092 -1.9583
# 4 22.3403 32.3625 11.2614 47.8313 3.1811 -1.8549
# 5 3.7471 0.9255 5.3092 3.1811 27.5786 7.4496
# 6 16.5217 0.0487 -1.9583 -1.8549 7.4496 45.3058
#
#
#
# Elastic Compliance Matrix: (Units=1/GPa)
#
#
# Indices 1 2 3 4 5 6 
#
# 1 0.011472 -0.004223 -0.000326 -0.002599 0.000112 -0.004318
# 2 -0.004223 0.011609 -0.000523 -0.005756 0.000634 0.001165
# 3 -0.000326 -0.000523 0.016959 -0.003228 -0.003166 0.001241
# 4 -0.002599 -0.005756 -0.003228 0.027039 -0.002585 0.002347
# 5 0.000112 0.000634 -0.003166 -0.002585 0.038937 -0.006687
# 6 -0.004318 0.001165 0.001241 0.002347 -0.006687 0.024895
#
#
# Mechanical properties :
#
#
# Convention : Reuss Voigt Hill
#
# Bulk Modulus (GPa) = 33.44837 49.41417 41.43127
# Shear Modulus (GPa) = 33.10781 39.55626 36.33204
#
# Velocity S-wave (km/s) = 3.75292 4.10215 3.93142
# Velocity P-wave (km/s) = 5.74530 6.59228 6.18331
#
# Compressibility (1/GPa) = 0.02989683
#
# Stress axis : x y z
#
# Youngs Moduli (GPa) = 87.16580 86.13648 58.96489
#
# Poissons Ratio (x) = 0.36374 0.01924
# Poissons Ratio (y) = 0.36809 0.03084
# Poissons Ratio (z) = 0.02845 0.04505
#
# Static dielectric constant tensor:
#      x y z
#    x 1.943870 0.008080 -0.032520 
#    y 0.008080 1.877500 -0.044530 
#    z -0.032520 -0.044530 2.040220 
# 
# From -- ./inp_files/406556.got.cif
#   From: 2010.05.17/outbox.cif.g08.bks.cpg/sg2_204_cif.got.tgz:406556.got - 2010.06.03 11:33:40.
