data_PCOD9041210
_publ_section_title
;
Structure prediction by ZEFSAII (Michael W. Deem and Ramdas Pophale) SiO2 
 PCOD9041210
Probable space group: P -1
;
_chemical_formula_sum "Si O2"
_cell_formula_units_Z 14
_cell_length_a 13.850804
_cell_length_b 25.268692
_cell_length_c 25.245170
_cell_angle_alpha 10.973543
_cell_angle_beta 20.675855
_cell_angle_gamma 20.552256
_cell_volume 572.482053
_symmetry_space_group_name_H-M "P -1"
_symmetry_group_IT_number 2
_symmetry_cell_setting 'triclinic'
loop_
_space_group_symop_operation_xyz
x,y,z
-x,-y,-z
loop_
_atom_site_type_symbol
_atom_site_label
_atom_site_fract_x
_atom_site_fract_y
_atom_site_fract_z
Si Si1 0.552534 0.154308 0.016866
Si Si2 0.704186 0.116249 0.674246
Si Si3 0.337078 0.352736 0.467293
Si Si4 0.989165 0.435785 0.883688
Si Si5 0.412888 0.353707 0.304659
Si Si6 0.036744 0.950394 0.882735
Si Si7 0.759309 0.435423 0.472544
O O1 0.319679 0.057961 0.195717
O O2 0.605644 0.970848 0.223515
O O3 0.503290 0.482979 0.735738
O O4 0.838443 0.070833 0.916686
O O5 0.397275 0.337709 0.625087
O O6 0.923618 0.312229 0.374982
O O7 0.782089 0.866637 0.923650
O O8 0.431436 0.379614 0.332827
O O9 0.000000 0.500000 0.500000
O O10 0.998594 0.515254 0.739270
O O11 0.696808 0.379809 0.106248
O O12 0.318928 0.064721 0.626567
O O13 0.155910 0.610607 0.162258
O O14 0.863382 0.120716 0.754417
O O15 0.500000 0.500000 0.500000
#
# Coordination Sequence:
#
# PCOD9041210 Si02
#       7
#     2   2   2   2   2   2   2
#     4  12  22  40  69  99 126 165 227 282 313 373
#     4  11  23  44  69  97 127 175 227 273 319 381
#     4  12  22  41  65  99 131 172 218 265 329 388
#     4  11  25  45  65  94 139 178 213 269 330 391
#     4  12  26  42  64  98 140 174 212 264 336 399
#     4  12  23  40  66 100 131 167 219 273 325 388
#     4  10  23  43  71  97 127 172 225 272 321 383
#
# _framework density 24.454916000000001
#
# number of rings (size 3 to 8) (size 9 to 14) (size 15 to 20)
#    0.000    0.571    2.857    6.857    0.000    4.571 
#    0.000    4.286    0.000    0.000    0.000    0.000 
#    0.000    0.000    0.000    0.000    0.000    0.000 
#
# Total GULP energy -78388.093170 kJ/mol
# GULP energy per Si atom -5599.149512 kJ/mol
# Density = 2.439926 g / cm^3
# Si number density = 24.454916 Si / 1000 Ang^3
#
#
#
# Elastic Constant Matrix: (Units=GPa)
#
#
# Indices 1 2 3 4 5 6 
#
# 1 108.3950 16.7564 13.9485 8.4987 11.1885 3.8752
# 2 16.7564 49.3804 1.6456 21.0876 16.8865 -3.9052
# 3 13.9485 1.6456 98.6477 -0.2489 9.4179 -5.6286
# 4 8.4987 21.0876 -0.2489 40.6779 -1.5418 6.4689
# 5 11.1885 16.8865 9.4179 -1.5418 61.0410 4.3385
# 6 3.8752 -3.9052 -5.6286 6.4689 4.3385 22.2214
#
#
#
# Elastic Compliance Matrix: (Units=1/GPa)
#
#
# Indices 1 2 3 4 5 6 
#
# 1 0.010088 -0.003460 -0.001476 0.000084 -0.000472 -0.002674
# 2 -0.003460 0.034914 0.001762 -0.020194 -0.010886 0.015190
# 3 -0.001476 0.001762 0.010757 -0.001273 -0.002199 0.004092
# 4 0.000084 -0.020194 -0.001273 0.037946 0.007897 -0.016474
# 5 -0.000472 -0.010886 -0.002199 0.007897 0.020639 -0.008716
# 6 -0.002674 0.015190 0.004092 -0.016474 -0.008716 0.055671
#
#
# Mechanical properties :
#
#
# Convention : Reuss Voigt Hill
#
# Bulk Modulus (GPa) = 20.23870 35.68047 27.95958
# Shear Modulus (GPa) = 25.92915 39.72622 32.82769
#
# Velocity S-wave (km/s) = 3.25973 4.03484 3.66782
# Velocity P-wave (km/s) = 4.73938 6.02732 5.42173
#
# Compressibility (1/GPa) = 0.04941030
#
# Stress axis : x y z
#
# Youngs Moduli (GPa) = 99.12752 28.64177 92.96594
#
# Poissons Ratio (x) = 0.09910 0.13722
# Poissons Ratio (y) = 0.34298 -0.16379
# Poissons Ratio (z) = 0.14631 -0.05046
#
# Static dielectric constant tensor:
#      x y z
#    x 2.013530 -0.019980 -0.107790 
#    y -0.019980 1.928330 0.035070 
#    z -0.107790 0.035070 1.981290 
# 
# From -- ./inp_files/519613.got.cif
#   From: 2010.05.17/outbox.cif.g08.bks.cpg/sg2_260_cif.got.tgz:519613.got - 2010.06.03 11:33:40.
