data_PCOD9041223
_publ_section_title
;
Structure prediction by ZEFSAII (Michael W. Deem and Ramdas Pophale) SiO2 
 PCOD9041223
Probable space group: P -1
;
_chemical_formula_sum "Si O2"
_cell_formula_units_Z 16
_cell_length_a 8.592291
_cell_length_b 11.224069
_cell_length_c 14.215917
_cell_angle_alpha 137.501694
_cell_angle_beta 104.976249
_cell_angle_gamma 54.843425
_cell_volume 722.178323
_symmetry_space_group_name_H-M "P -1"
_symmetry_group_IT_number 2
_symmetry_cell_setting 'triclinic'
loop_
_space_group_symop_operation_xyz
x,y,z
-x,-y,-z
loop_
_atom_site_type_symbol
_atom_site_label
_atom_site_fract_x
_atom_site_fract_y
_atom_site_fract_z
Si Si1 0.668937 0.960509 0.430935
Si Si2 0.493329 0.792945 0.642814
Si Si3 0.152028 0.543178 0.089436
Si Si4 0.211358 0.768973 0.892715
Si Si5 0.163719 0.934206 0.321784
Si Si6 0.528061 0.871201 0.022472
Si Si7 0.365456 0.386858 0.842519
Si Si8 0.798428 0.310778 0.372819
O O1 0.738524 0.734355 0.263869
O O2 0.500000 0.000000 0.500000
O O3 0.572760 0.134624 0.433150
O O4 0.825042 0.967908 0.521372
O O5 0.705355 0.554704 0.537041
O O6 0.338890 0.758755 0.648157
O O7 0.487445 0.982318 0.807486
O O8 0.084181 0.786116 0.238986
O O9 0.264059 0.368662 0.087595
O O10 0.317810 0.462194 0.986010
O O11 0.000000 0.500000 0.000000
O O12 0.261638 0.589862 0.873711
O O13 0.223968 0.682481 0.739211
O O14 0.365455 0.824889 0.969210
O O15 0.000000 0.000000 0.000000
O O16 0.395983 0.778130 0.233575
O O17 0.020385 0.125790 0.337259
O O18 0.500000 0.000000 0.000000
#
# Coordination Sequence:
#
# PCOD9041223 Si02
#       8
#     2   2   2   2   2   2   2   2
#     4  10  23  43  71  98 140 187 236 289 360 430
#     4  11  24  47  70 104 148 184 236 307 361 434
#     4  12  26  44  73 105 142 184 246 300 356 431
#     4  12  27  45  72 105 148 193 243 297 364 435
#     4  11  24  44  71 104 138 190 240 290 363 426
#     4  12  26  47  74 104 144 189 238 299 367 428
#     4  11  24  47  69 100 144 189 240 303 352 425
#     4  11  25  44  70 106 146 186 240 298 368 432
#
# _framework density 22.155193000000001
#
# number of rings (size 3 to 8) (size 9 to 14) (size 15 to 20)
#    0.000    0.750    3.750    3.375    3.500    1.500 
#    0.000    3.750    0.000    0.000    0.000    0.000 
#    0.000    0.000    0.000    0.000    0.000    0.000 
#
# Total GULP energy -89495.617795 kJ/mol
# GULP energy per Si atom -5593.476112 kJ/mol
# Density = 2.210477 g / cm^3
# Si number density = 22.155193 Si / 1000 Ang^3
#
#
#
# Elastic Constant Matrix: (Units=GPa)
#
#
# Indices 1 2 3 4 5 6 
#
# 1 43.4018 21.8144 5.6027 9.4819 16.5107 -10.4658
# 2 21.8144 155.4910 11.6480 15.7433 1.6507 6.0494
# 3 5.6027 11.6480 89.4273 2.2913 22.0128 -3.3471
# 4 9.4819 15.7433 2.2913 44.4597 1.2658 -1.4530
# 5 16.5107 1.6507 22.0128 1.2658 48.2860 -4.6238
# 6 -10.4658 6.0494 -3.3471 -1.4530 -4.6238 42.7338
#
#
#
# Elastic Compliance Matrix: (Units=1/GPa)
#
#
# Indices 1 2 3 4 5 6 
#
# 1 0.031814 -0.004260 0.001572 -0.004819 -0.010633 0.007203
# 2 -0.004260 0.007353 -0.001107 -0.001750 0.001558 -0.002062
# 3 0.001572 -0.001107 0.012808 -0.000398 -0.006246 0.000856
# 4 -0.004819 -0.001750 -0.000398 0.024124 0.001256 -0.000008
# 5 -0.010633 0.001558 -0.006246 0.001256 0.027074 -0.000342
# 6 0.007203 -0.002062 0.000856 -0.000008 -0.000342 0.025486
#
#
# Mechanical properties :
#
#
# Convention : Reuss Voigt Hill
#
# Bulk Modulus (GPa) = 22.53046 40.71669 31.62358
# Shear Modulus (GPa) = 33.10297 43.71292 38.40795
#
# Velocity S-wave (km/s) = 3.86960 4.44670 4.16815
# Velocity P-wave (km/s) = 5.49150 6.69194 6.12122
#
# Compressibility (1/GPa) = 0.04438436
#
# Stress axis : x y z
#
# Youngs Moduli (GPa) = 31.43283 136.00463 78.07831
#
# Poissons Ratio (x) = 0.57945 -0.12276
# Poissons Ratio (y) = 0.13392 0.08641
# Poissons Ratio (z) = -0.04942 0.15052
#
# Static dielectric constant tensor:
#      x y z
#    x 1.801330 0.085910 0.002610 
#    y 0.085910 1.977310 -0.025080 
#    z 0.002610 -0.025080 1.810590 
# 
# From -- ./inp_files/209217.got.cif
#   From: 2010.05.17/outbox.cif.g08.bks.cpg/sg2_105_cif.got.tgz:209217.got - 2010.06.03 11:33:40.
