data_PCOD9041833
_publ_section_title
;
Structure prediction by ZEFSAII (Michael W. Deem and Ramdas Pophale) SiO2 
 PCOD9041833
Probable space group: P -1
;
_chemical_formula_sum "Si O2"
_cell_formula_units_Z 16
_cell_length_a 15.685775
_cell_length_b 9.511385
_cell_length_c 9.801806
_cell_angle_alpha 71.184037
_cell_angle_beta 77.173889
_cell_angle_gamma 132.542980
_cell_volume 791.167709
_symmetry_space_group_name_H-M "P -1"
_symmetry_group_IT_number 2
_symmetry_cell_setting 'triclinic'
loop_
_space_group_symop_operation_xyz
x,y,z
-x,-y,-z
loop_
_atom_site_type_symbol
_atom_site_label
_atom_site_fract_x
_atom_site_fract_y
_atom_site_fract_z
Si Si1 0.899085 0.653129 0.219605
Si Si2 0.417125 0.117266 0.001999
Si Si3 0.898357 0.216609 0.660085
Si Si4 0.315701 0.673049 0.036471
Si Si5 0.868045 0.936453 0.210095
Si Si6 0.354275 0.862100 0.668213
Si Si7 0.400717 0.236607 0.685087
Si Si8 0.021058 0.867150 0.595026
O O1 0.824642 0.703081 0.285940
O O2 0.784231 0.365215 0.310819
O O3 0.016253 0.754984 0.257992
O O4 0.979676 0.821468 0.000847
O O5 0.271370 0.981059 0.172985
O O6 0.364574 0.884298 0.039036
O O7 0.566286 0.294555 0.981074
O O8 0.456548 0.260780 0.805351
O O9 0.000000 0.500000 0.500000
O O10 0.903798 0.128688 0.548221
O O11 0.145859 0.412168 0.219410
O O12 0.327264 0.731184 0.856246
O O13 0.754940 0.894884 0.195784
O O14 0.885242 0.998867 0.342077
O O15 0.500000 0.000000 0.500000
O O16 0.377093 0.062159 0.649190
O O17 0.500000 0.500000 0.500000
O O18 0.000000 0.000000 0.500000
#
# Coordination Sequence:
#
# PCOD9041833 Si02
#       8
#     2   2   2   2   2   2   2   2
#     4  11  24  44  69  96 133 179 225 278 334 396
#     4  10  23  44  68  98 135 178 220 280 336 404
#     4  12  25  42  70 103 135 172 231 280 330 407
#     4  10  23  44  67  96 138 177 222 273 342 403
#     4  11  24  44  69  94 138 177 224 279 334 398
#     4  11  25  42  70  99 133 178 229 278 334 403
#     4  11  25  43  68 100 136 177 225 277 340 402
#     4  12  25  43  67 103 137 180 223 274 343 400
#
# _framework density 20.223272999999999
#
# number of rings (size 3 to 8) (size 9 to 14) (size 15 to 20)
#    0.000    1.000    5.000    0.750    5.250    1.500 
#    2.250    0.625    0.000    0.000    0.000    0.000 
#    0.000    0.000    0.000    0.000    0.000    0.000 
#
# Total GULP energy -89380.458869 kJ/mol
# GULP energy per Si atom -5586.278679 kJ/mol
# Density = 2.017724 g / cm^3
# Si number density = 20.223273 Si / 1000 Ang^3
#
#
#
# Elastic Constant Matrix: (Units=GPa)
#
#
# Indices 1 2 3 4 5 6 
#
# 1 106.2115 32.6848 30.4919 14.3664 -4.1188 -10.0914
# 2 32.6848 82.4664 45.2196 18.1846 0.1916 -5.5550
# 3 30.4919 45.2196 109.8390 7.7776 -9.0015 -18.3772
# 4 14.3664 18.1846 7.7776 35.7374 -4.9279 0.5671
# 5 -4.1188 0.1916 -9.0015 -4.9279 40.9871 -0.2338
# 6 -10.0914 -5.5550 -18.3772 0.5671 -0.2338 28.5465
#
#
#
# Elastic Compliance Matrix: (Units=1/GPa)
#
#
# Indices 1 2 3 4 5 6 
#
# 1 0.011347 -0.003064 -0.001197 -0.002705 0.000582 0.002703
# 2 -0.003064 0.018506 -0.006783 -0.007060 -0.002743 -0.001730
# 3 -0.001197 -0.006783 0.013559 0.001296 0.003085 0.006985
# 4 -0.002705 -0.007060 0.001296 0.032964 0.003997 -0.002118
# 5 0.000582 -0.002743 0.003085 0.003997 0.025637 0.001788
# 6 0.002703 -0.001730 0.006985 -0.002118 0.001788 0.040203
#
#
# Mechanical properties :
#
#
# Convention : Reuss Voigt Hill
#
# Bulk Modulus (GPa) = 46.89454 57.25660 52.07557
# Shear Modulus (GPa) = 29.16962 33.72891 31.44927
#
# Velocity S-wave (km/s) = 3.80199 4.08833 3.94776
# Velocity P-wave (km/s) = 6.52014 7.11756 6.82539
#
# Compressibility (1/GPa) = 0.02132444
#
# Stress axis : x y z
#
# Youngs Moduli (GPa) = 88.12997 54.03616 73.75369
#
# Poissons Ratio (x) = 0.16554 0.08831
# Poissons Ratio (y) = 0.26999 0.50025
# Poissons Ratio (z) = 0.10552 0.36651
#
# Static dielectric constant tensor:
#      x y z
#    x 1.732070 0.028760 -0.036280 
#    y 0.028760 1.712650 -0.035280 
#    z -0.036280 -0.035280 1.743480 
# 
# From -- ./inp_files/273913.got.cif
#   From: 2010.05.17/outbox.cif.g08.bks.cpg/sg2_137_cif.got.tgz:273913.got - 2010.06.03 11:33:40.
