data_PCOD9041467
_publ_section_title
;
Structure prediction by ZEFSAII (Michael W. Deem and Ramdas Pophale) SiO2 
 PCOD9041467
Probable space group: P -1
;
_chemical_formula_sum "Si O2"
_cell_formula_units_Z 15
_cell_length_a 5.391075
_cell_length_b 12.205121
_cell_length_c 12.158841
_cell_angle_alpha 61.704248
_cell_angle_beta 82.919162
_cell_angle_gamma 55.906629
_cell_volume 572.127263
_symmetry_space_group_name_H-M "P -1"
_symmetry_group_IT_number 2
_symmetry_cell_setting 'triclinic'
loop_
_space_group_symop_operation_xyz
x,y,z
-x,-y,-z
loop_
_atom_site_type_symbol
_atom_site_label
_atom_site_fract_x
_atom_site_fract_y
_atom_site_fract_z
Si Si1 0.879986 0.391481 0.767354
Si Si2 0.245702 0.919875 0.425562
Si Si3 0.251356 0.203333 0.294607
Si Si4 0.773931 0.116226 0.191525
Si Si5 0.152337 0.635684 0.975456
Si Si6 0.736377 0.370112 0.422342
Si Si7 0.778480 0.958021 0.079606
Si Si8 0.000000 0.500000 0.500000
O O1 0.521539 0.498091 0.705759
O O2 0.037221 0.440077 0.651605
O O3 0.946396 0.401344 0.888268
O O4 0.020915 0.217440 0.820127
O O5 0.390683 0.739062 0.502709
O O6 0.075648 0.972829 0.293073
O O7 0.000000 0.000000 0.500000
O O8 0.378435 0.023296 0.372707
O O9 0.549014 0.204312 0.264795
O O10 0.044545 0.307878 0.152643
O O11 0.049407 0.271514 0.381643
O O12 0.836307 0.220861 0.070878
O O13 0.623922 0.060931 0.146615
O O14 0.500000 0.500000 0.000000
O O15 0.827355 0.414675 0.508745
O O16 0.500000 0.000000 0.000000
O O17 0.000000 0.000000 0.000000
#
# Coordination Sequence:
#
# PCOD9041467 Si02
#       8
#     2   2   2   2   2   2   2   1
#     4  12  27  50  74 108 155 203 264 318 403 474
#     4   9  22  43  68 103 147 193 246 321 386 467
#     4  10  23  43  77 112 144 192 255 328 404 464
#     4  11  24  43  74 113 143 198 261 324 401 470
#     4  11  23  44  73 111 146 185 244 336 398 466
#     4  11  25  47  71 108 156 203 258 325 389 484
#     4  12  28  51  81 114 160 212 266 329 397 486
#     4  12  30  44  70 104 154 216 254 314 388 484
#
# _framework density 26.217942000000001
#
# number of rings (size 3 to 8) (size 9 to 14) (size 15 to 20)
#    0.000    1.067    2.667    2.000    5.600    5.867 
#    0.000    0.000    0.000    0.000    0.000    0.000 
#    0.000    0.000    0.000    0.000    0.000    0.000 
#
# Total GULP energy -83649.700455 kJ/mol
# GULP energy per Si atom -5576.646697 kJ/mol
# Density = 2.615827 g / cm^3
# Si number density = 26.217942 Si / 1000 Ang^3
#
#
#
# Elastic Constant Matrix: (Units=GPa)
#
#
# Indices 1 2 3 4 5 6 
#
# 1 78.2169 28.2076 44.8200 -9.1593 5.5485 9.6497
# 2 28.2076 85.0337 41.5493 -22.3359 22.8288 18.1709
# 3 44.8200 41.5493 178.1776 -13.1840 -6.1247 6.5696
# 4 -9.1593 -22.3359 -13.1840 51.0585 -6.3630 8.2869
# 5 5.5485 22.8288 -6.1247 -6.3630 62.3582 8.9036
# 6 9.6497 18.1709 6.5696 8.2869 8.9036 33.8292
#
#
#
# Elastic Compliance Matrix: (Units=1/GPa)
#
#
# Indices 1 2 3 4 5 6 
#
# 1 0.016141 -0.002819 -0.003217 0.001247 -0.000205 -0.002717
# 2 -0.002819 0.019927 -0.003121 0.008401 -0.005063 -0.010018
# 3 -0.003217 -0.003121 0.007202 0.000069 0.002052 0.000638
# 4 0.001247 0.008401 0.000069 0.025483 0.001048 -0.011400
# 5 -0.000205 -0.005063 0.002052 0.001048 0.018613 -0.002776
# 6 -0.002717 -0.010018 0.000638 -0.011400 -0.002776 0.039115
#
#
# Mechanical properties :
#
#
# Convention : Reuss Voigt Hill
#
# Bulk Modulus (GPa) = 40.07253 63.39802 51.73528
# Shear Modulus (GPa) = 32.65559 44.57263 38.61411
#
# Velocity S-wave (km/s) = 3.53306 4.12768 3.84189
# Velocity P-wave (km/s) = 5.65340 6.85205 6.28138
#
# Compressibility (1/GPa) = 0.02495475
#
# Stress axis : x y z
#
# Youngs Moduli (GPa) = 61.95404 50.18393 138.85924
#
# Poissons Ratio (x) = 0.14148 0.44677
# Poissons Ratio (y) = 0.17466 0.43333
# Poissons Ratio (z) = 0.19933 0.15660
#
# Static dielectric constant tensor:
#      x y z
#    x 2.084550 0.200840 -0.035000 
#    y 0.200840 1.312090 -0.127420 
#    z -0.035000 -0.127420 2.044560 
# 
# From -- ./inp_files/363822.got.cif
#   From: 2010.05.17/outbox.cif.g08.bks.cpg/sg2_182_cif.got.tgz:363822.got - 2010.06.03 11:33:40.
