data_PCOD9041772
_publ_section_title
;
Structure prediction by ZEFSAII (Michael W. Deem and Ramdas Pophale) SiO2 
 PCOD9041772
Probable space group: P -1
;
_chemical_formula_sum "Si O2"
_cell_formula_units_Z 12
_cell_length_a 5.378978
_cell_length_b 9.585338
_cell_length_c 10.491945
_cell_angle_alpha 81.286132
_cell_angle_beta 73.814739
_cell_angle_gamma 95.735323
_cell_volume 507.729108
_symmetry_space_group_name_H-M "P -1"
_symmetry_group_IT_number 2
_symmetry_cell_setting 'triclinic'
loop_
_space_group_symop_operation_xyz
x,y,z
-x,-y,-z
loop_
_atom_site_type_symbol
_atom_site_label
_atom_site_fract_x
_atom_site_fract_y
_atom_site_fract_z
Si Si1 0.051054 0.072774 0.845213
Si Si2 0.777129 0.803167 0.809771
Si Si3 0.453335 0.766988 0.121852
Si Si4 0.246959 0.383083 0.548420
Si Si5 0.713342 0.908697 0.532658
Si Si6 0.131717 0.480230 0.271405
O O1 0.334599 0.163445 0.815363
O O2 0.805486 0.156804 0.843364
O O3 0.008572 0.935222 0.779125
O O4 0.000000 0.000000 0.000000
O O5 0.641194 0.835860 0.691446
O O6 0.886907 0.653204 0.801167
O O7 0.580352 0.792226 0.959397
O O8 0.376829 0.598568 0.184553
O O9 0.500000 0.500000 0.500000
O O10 0.274304 0.218480 0.552531
O O11 0.127895 0.410979 0.422427
O O12 0.094229 0.423522 0.688977
O O13 0.500000 0.000000 0.500000
O O14 0.000000 0.000000 0.500000
#
# Coordination Sequence:
#
# PCOD9041772 Si02
#       6
#     2   2   2   2   2   2
#     4  10  23  44  67 102 144 182 224 284 345 412
#     4  10  23  47  70 105 142 181 234 291 345 419
#     4  11  24  45  71 106 138 185 229 288 351 413
#     4  10  25  47  68  97 141 184 234 289 343 413
#     4  11  28  46  73 103 137 186 235 289 345 412
#     4  10  24  45  69 101 137 187 229 287 349 415
#
# _framework density 23.634651000000002
#
# number of rings (size 3 to 8) (size 9 to 14) (size 15 to 20)
#    0.000    1.667    0.000    2.500   11.667    4.000 
#    9.000    4.167    0.000    0.000    0.000    0.000 
#    0.000    0.000    0.000    0.000    0.000    0.000 
#
# Total GULP energy -67042.545104 kJ/mol
# GULP energy per Si atom -5586.878759 kJ/mol
# Density = 2.358086 g / cm^3
# Si number density = 23.634651 Si / 1000 Ang^3
#
#
#
# Elastic Constant Matrix: (Units=GPa)
#
#
# Indices 1 2 3 4 5 6 
#
# 1 144.7791 98.9346 45.9687 11.2855 -7.2737 -8.1940
# 2 98.9346 255.0295 45.9265 11.7594 -17.2927 1.7642
# 3 45.9687 45.9265 100.2409 -5.0302 -1.0219 6.6015
# 4 11.2855 11.7594 -5.0302 32.7777 1.6905 5.9795
# 5 -7.2737 -17.2927 -1.0219 1.6905 37.2009 -7.8248
# 6 -8.1940 1.7642 6.6015 5.9795 -7.8248 31.2303
#
#
#
# Elastic Compliance Matrix: (Units=1/GPa)
#
#
# Indices 1 2 3 4 5 6 
#
# 1 0.011239 -0.003314 -0.004188 -0.004392 0.001862 0.005329
# 2 -0.003314 0.005576 -0.001051 -0.001068 0.001905 -0.000281
# 3 -0.004188 -0.001051 0.012948 0.004888 -0.002285 -0.005285
# 4 -0.004392 -0.001068 0.004888 0.035254 -0.004950 -0.010115
# 5 0.001862 0.001905 -0.002285 -0.004950 0.030269 0.009396
# 6 0.005329 -0.000281 -0.005285 -0.010115 0.009396 0.038842
#
#
# Mechanical properties :
#
#
# Convention : Reuss Voigt Hill
#
# Bulk Modulus (GPa) = 79.00298 97.96768 88.48533
# Shear Modulus (GPa) = 32.16407 40.85644 36.51025
#
# Velocity S-wave (km/s) = 3.69302 4.16223 3.93463
# Velocity P-wave (km/s) = 7.18915 8.03989 7.62639
#
# Compressibility (1/GPa) = 0.01265775
#
# Stress axis : x y z
#
# Youngs Moduli (GPa) = 88.97809 179.33266 77.23223
#
# Poissons Ratio (x) = 0.59427 0.32344
# Poissons Ratio (y) = 0.29486 0.08116
# Poissons Ratio (z) = 0.37263 0.18845
#
# Static dielectric constant tensor:
#      x y z
#    x 1.920390 -0.031360 0.007760 
#    y -0.031360 1.961940 -0.031320 
#    z 0.007760 -0.031320 1.965570 
# 
# From -- ./inp_files/315840.got.cif
#   From: 2010.05.17/outbox.cif.g08.bks.cpg/sg2_158_cif.got.tgz:315840.got - 2010.06.03 11:33:40.
