data_PCOD9041014
_publ_section_title
;
Structure prediction by ZEFSAII (Michael W. Deem and Ramdas Pophale) SiO2 
 PCOD9041014
Probable space group: P -1
;
_chemical_formula_sum "Si O2"
_cell_formula_units_Z 10
_cell_length_a 6.534239
_cell_length_b 11.393764
_cell_length_c 23.141152
_cell_angle_alpha 160.411687
_cell_angle_beta 45.372692
_cell_angle_gamma 132.626351
_cell_volume 410.219150
_symmetry_space_group_name_H-M "P -1"
_symmetry_group_IT_number 2
_symmetry_cell_setting 'triclinic'
loop_
_space_group_symop_operation_xyz
x,y,z
-x,-y,-z
loop_
_atom_site_type_symbol
_atom_site_label
_atom_site_fract_x
_atom_site_fract_y
_atom_site_fract_z
Si Si1 0.127341 0.017465 0.211940
Si Si2 0.204637 0.194281 0.635094
Si Si3 0.825137 0.675319 0.013645
Si Si4 0.181067 0.329441 0.471186
Si Si5 0.246187 0.816302 0.833955
O O1 0.152775 0.068201 0.299402
O O2 0.453725 0.993357 0.116571
O O3 0.024479 0.380224 0.375386
O O4 0.917353 0.743821 0.092889
O O5 0.243585 0.416413 0.671224
O O6 0.073705 0.477270 0.837590
O O7 0.500000 0.000000 0.500000
O O8 0.952887 0.885993 0.548030
O O9 0.500000 0.500000 0.000000
O O10 0.801311 0.051050 0.160209
O O11 0.500000 0.500000 0.500000
O O12 0.000000 0.000000 0.000000
#
# Coordination Sequence:
#
# PCOD9041014 Si02
#       5
#     2   2   2   2   2
#     4  11  23  45  73 103 147 194 248 305 363 446
#     4  11  23  46  74 109 148 193 245 309 375 430
#     4  11  25  47  77 107 147 200 253 301 370 450
#     4  11  24  45  75 107 144 196 250 305 369 448
#     4  10  23  43  70 105 145 190 247 303 370 439
#
# _framework density 24.377213999999999
#
# number of rings (size 3 to 8) (size 9 to 14) (size 15 to 20)
#    0.000    1.200    2.000    3.600    0.000    6.400 
#    3.600   12.000    0.000    0.000    0.000    0.000 
#    0.000    0.000    0.000    0.000    0.000    0.000 
#
# Total GULP energy -55758.848518 kJ/mol
# GULP energy per Si atom -5575.884852 kJ/mol
# Density = 2.432173 g / cm^3
# Si number density = 24.377214 Si / 1000 Ang^3
#
#
#
# Elastic Constant Matrix: (Units=GPa)
#
#
# Indices 1 2 3 4 5 6 
#
# 1 183.3633 93.7167 76.2514 10.3186 0.2241 5.2642
# 2 93.7167 157.5520 37.9738 30.4547 -4.2017 1.9782
# 3 76.2514 37.9738 108.5166 -16.1999 -20.0171 -0.4759
# 4 10.3186 30.4547 -16.1999 51.8472 -4.6230 -25.7150
# 5 0.2241 -4.2017 -20.0171 -4.6230 67.6710 10.6867
# 6 5.2642 1.9782 -0.4759 -25.7150 10.6867 60.0936
#
#
#
# Elastic Compliance Matrix: (Units=1/GPa)
#
#
# Indices 1 2 3 4 5 6 
#
# 1 0.010656 -0.004169 -0.006878 -0.002850 -0.002260 -0.001668
# 2 -0.004169 0.010895 -0.002062 -0.007894 0.000078 -0.003402
# 3 -0.006878 -0.002062 0.017309 0.010655 0.005037 0.004471
# 4 -0.002850 -0.007894 0.010655 0.035694 0.002679 0.015391
# 5 -0.002260 0.000078 0.005037 0.002679 0.016714 -0.001591
# 6 -0.001668 -0.003402 0.004471 0.015391 -0.001591 0.023803
#
#
# Mechanical properties :
#
#
# Convention : Reuss Voigt Hill
#
# Bulk Modulus (GPa) = 79.10646 96.14620 87.62633
# Shear Modulus (GPa) = 34.36367 52.02170 43.19269
#
# Velocity S-wave (km/s) = 3.75862 4.62457 4.21390
# Velocity P-wave (km/s) = 7.16643 8.24877 7.72657
#
# Compressibility (1/GPa) = 0.01264119
#
# Stress axis : x y z
#
# Youngs Moduli (GPa) = 93.84591 91.78790 57.77265
#
# Poissons Ratio (x) = 0.38266 0.39738
# Poissons Ratio (y) = 0.39124 0.11913
# Poissons Ratio (z) = 0.64550 0.18927
#
# Static dielectric constant tensor:
#      x y z
#    x 1.899780 -0.088420 0.025590 
#    y -0.088420 1.905790 0.025790 
#    z 0.025590 0.025790 2.057700 
# 
# From -- ./inp_files/17615.got.cif
#   From: 2010.05.17/outbox.cif.g08.bks.cpg/sg2_9_cif.got.tgz:17615.got - 2010.06.03 11:33:40.
