data_PCOD9041331
_publ_section_title
;
Structure prediction by ZEFSAII (Michael W. Deem and Ramdas Pophale) SiO2 
 PCOD9041331
Probable space group: P -1
;
_chemical_formula_sum "Si O2"
_cell_formula_units_Z 14
_cell_length_a 5.116362
_cell_length_b 12.119137
_cell_length_c 12.469885
_cell_angle_alpha 51.007884
_cell_angle_beta 84.264464
_cell_angle_gamma 105.740391
_cell_volume 539.249095
_symmetry_space_group_name_H-M "P -1"
_symmetry_group_IT_number 2
_symmetry_cell_setting 'triclinic'
loop_
_space_group_symop_operation_xyz
x,y,z
-x,-y,-z
loop_
_atom_site_type_symbol
_atom_site_label
_atom_site_fract_x
_atom_site_fract_y
_atom_site_fract_z
Si Si1 0.898231 0.324444 0.463131
Si Si2 0.771885 0.605712 0.245535
Si Si3 0.717935 0.067437 0.048638
Si Si4 0.350113 0.528387 0.883976
Si Si5 0.842315 0.104447 0.408378
Si Si6 0.299503 0.232440 0.658057
Si Si7 0.759842 0.241128 0.134787
O O1 0.944023 0.504460 0.337869
O O2 0.934301 0.253348 0.392278
O O3 0.561706 0.246477 0.562496
O O4 0.070912 0.271563 0.575620
O O5 0.569414 0.509941 0.212833
O O6 0.600638 0.638215 0.329856
O O7 0.000724 0.778537 0.093779
O O8 0.585200 0.132406 0.111318
O O9 0.801929 0.935709 0.176576
O O10 0.500000 0.000000 0.000000
O O11 0.393035 0.703432 0.799923
O O12 0.500000 0.500000 0.000000
O O13 0.009463 0.402542 0.979220
O O14 0.909587 0.153779 0.251495
O O15 0.500000 0.000000 0.500000
O O16 0.000000 0.000000 0.500000
#
# Coordination Sequence:
#
# PCOD9041331 Si02
#       7
#     2   2   2   2   2   2   2
#     4  12  26  50  75 112 148 199 255 308 375 445
#     4  11  25  47  74 112 148 196 259 308 369 449
#     4  11  25  47  75 107 150 200 247 309 380 447
#     4  10  23  43  73 104 140 188 239 314 370 434
#     4  12  26  45  74 107 148 197 242 303 375 452
#     4  12  27  49  74 109 154 200 247 311 376 448
#     4  10  23  45  67 106 142 184 247 301 368 444
#
# _framework density 25.962028
#
# number of rings (size 3 to 8) (size 9 to 14) (size 15 to 20)
#    0.000    0.857    1.429    4.714    4.000    2.286 
#    5.143    0.000    0.000    0.000    0.000    0.000 
#    0.000    0.000    0.000    0.000    0.000    0.000 
#
# Total GULP energy -78420.797829 kJ/mol
# GULP energy per Si atom -5601.485559 kJ/mol
# Density = 2.590294 g / cm^3
# Si number density = 25.962028 Si / 1000 Ang^3
#
#
#
# Elastic Constant Matrix: (Units=GPa)
#
#
# Indices 1 2 3 4 5 6 
#
# 1 97.6339 32.3735 33.6634 -14.7312 22.7958 6.2601
# 2 32.3735 209.6057 49.3507 18.4124 16.3698 5.7646
# 3 33.6634 49.3507 157.1665 -26.0282 28.8621 6.2736
# 4 -14.7312 18.4124 -26.0282 43.2388 2.2800 7.8371
# 5 22.7958 16.3698 28.8621 2.2800 46.6685 2.9382
# 6 6.2601 5.7646 6.2736 7.8371 2.9382 31.5408
#
#
#
# Elastic Compliance Matrix: (Units=1/GPa)
#
#
# Indices 1 2 3 4 5 6 
#
# 1 0.013512 -0.002113 0.000081 0.006478 -0.006014 -0.003361
# 2 -0.002113 0.006024 -0.002403 -0.004938 0.000585 0.000969
# 3 0.000081 -0.002403 0.009411 0.007503 -0.005205 -0.002828
# 4 0.006478 -0.004938 0.007503 0.034084 -0.007128 -0.009681
# 5 -0.006014 0.000585 -0.005205 -0.007128 0.027645 0.001318
# 6 -0.003361 0.000969 -0.002828 -0.009681 0.001318 0.035040
#
#
# Mechanical properties :
#
#
# Convention : Reuss Voigt Hill
#
# Bulk Modulus (GPa) = 49.80737 77.24238 63.52488
# Shear Modulus (GPa) = 35.39060 47.55750 41.47405
#
# Velocity S-wave (km/s) = 3.69612 4.28461 4.00120
# Velocity P-wave (km/s) = 6.11894 7.36843 6.77256
#
# Compressibility (1/GPa) = 0.02007735
#
# Stress axis : x y z
#
# Youngs Moduli (GPa) = 74.00716 165.99070 106.25406
#
# Poissons Ratio (x) = 0.35072 -0.00857
# Poissons Ratio (y) = 0.15637 0.25534
# Poissons Ratio (z) = -0.00597 0.39889
#
# Static dielectric constant tensor:
#      x y z
#    x 2.078750 -0.035820 0.011590 
#    y -0.035820 2.062930 0.007630 
#    z 0.011590 0.007630 2.111960 
# 
# From -- ./inp_files/363686.got.cif
#   From: 2010.05.17/outbox.cif.g08.bks.cpg/sg2_182_cif.got.tgz:363686.got - 2010.06.03 11:33:40.
