data_PCOD9041971
_publ_section_title
;
Structure prediction by ZEFSAII (Michael W. Deem and Ramdas Pophale) SiO2 
 PCOD9041971
Probable space group: P -1
;
_chemical_formula_sum "Si O2"
_cell_formula_units_Z 16
_cell_length_a 14.747518
_cell_length_b 15.676662
_cell_length_c 9.509841
_cell_angle_alpha 142.107543
_cell_angle_beta 140.569737
_cell_angle_gamma 27.554374
_cell_volume 603.829799
_symmetry_space_group_name_H-M "P -1"
_symmetry_group_IT_number 2
_symmetry_cell_setting 'triclinic'
loop_
_space_group_symop_operation_xyz
x,y,z
-x,-y,-z
loop_
_atom_site_type_symbol
_atom_site_label
_atom_site_fract_x
_atom_site_fract_y
_atom_site_fract_z
Si Si1 0.325968 0.639353 0.750488
Si Si2 0.178796 0.379270 0.944076
Si Si3 0.822679 0.968361 0.983004
Si Si4 0.604219 0.048693 0.094736
Si Si5 0.877607 0.469114 0.221704
Si Si6 0.523590 0.131701 0.622863
Si Si7 0.670557 0.253461 0.786089
Si Si8 0.909903 0.858047 0.455607
O O1 0.272990 0.812672 0.819429
O O2 0.549553 0.418798 0.734773
O O3 0.145993 0.664681 0.514139
O O4 0.308310 0.682555 0.955481
O O5 0.100109 0.513780 0.891822
O O6 0.201483 0.201383 0.692799
O O7 0.400297 0.279138 0.124893
O O8 0.000000 0.500000 0.000000
O O9 0.696195 0.960527 0.934341
O O10 0.749105 0.004178 0.782122
O O11 0.039753 0.743722 0.942455
O O12 0.803751 0.950226 0.295750
O O13 0.500000 0.000000 0.000000
O O14 0.646308 0.656791 0.229125
O O15 0.000000 0.500000 0.500000
O O16 0.529671 0.208436 0.581335
O O17 0.500000 0.000000 0.500000
O O18 0.877468 0.034079 0.708397
#
# Coordination Sequence:
#
# PCOD9041971 Si02
#       8
#     2   2   2   2   2   2   2   2
#     4  10  25  44  67  98 140 184 232 277 341 408
#     4  11  25  44  71 104 140 179 230 291 359 420
#     4  11  24  44  64  97 141 174 226 285 338 411
#     4  10  23  44  68  96 134 177 223 292 348 406
#     4  12  24  37  68 105 132 180 226 289 359 410
#     4  11  22  38  64  99 136 170 220 287 347 403
#     4  10  24  43  68  99 140 181 229 281 345 412
#     4  11  24  42  73  96 134 185 232 279 338 426
#
# _framework density 26.497534000000002
#
# number of rings (size 3 to 8) (size 9 to 14) (size 15 to 20)
#    0.000    1.250    2.500    2.625    7.000    3.500 
#    0.000    0.625    0.000    0.000    0.000    0.000 
#    0.000    0.000    0.000    0.000    0.000    0.000 
#
# Total GULP energy -89069.657419 kJ/mol
# GULP energy per Si atom -5566.853589 kJ/mol
# Density = 2.643722 g / cm^3
# Si number density = 26.497534 Si / 1000 Ang^3
#
#
#
# Elastic Constant Matrix: (Units=GPa)
#
#
# Indices 1 2 3 4 5 6 
#
# 1 62.0878 47.7026 -1.7300 1.9327 -7.6814 18.5414
# 2 47.7026 219.9170 34.0173 -10.9954 0.4402 5.5164
# 3 -1.7300 34.0173 69.8502 -15.4453 1.9979 12.4162
# 4 1.9327 -10.9954 -15.4453 59.4040 10.9161 3.2042
# 5 -7.6814 0.4402 1.9979 10.9161 39.7756 10.8221
# 6 18.5414 5.5164 12.4162 3.2042 10.8221 47.1379
#
#
#
# Elastic Compliance Matrix: (Units=1/GPa)
#
#
# Indices 1 2 3 4 5 6 
#
# 1 0.026008 -0.006245 0.005379 -0.001515 0.008725 -0.012816
# 2 -0.006245 0.006423 -0.003624 0.000673 -0.002124 0.003101
# 3 0.005379 -0.003624 0.018350 0.004132 0.000933 -0.007020
# 4 -0.001515 0.000673 0.004132 0.019143 -0.005602 -0.000586
# 5 0.008725 -0.002124 0.000933 -0.005602 0.031113 -0.010191
# 6 -0.012816 0.003101 -0.007020 -0.000586 -0.010191 0.030121
#
#
# Mechanical properties :
#
#
# Convention : Reuss Voigt Hill
#
# Bulk Modulus (GPa) = 23.92372 56.87052 40.39712
# Shear Modulus (GPa) = 32.45238 47.38783 39.92011
#
# Velocity S-wave (km/s) = 3.50341 4.23352 3.88565
# Velocity P-wave (km/s) = 5.04118 6.73840 5.95061
#
# Compressibility (1/GPa) = 0.04179953
#
# Stress axis : x y z
#
# Youngs Moduli (GPa) = 38.44915 155.70113 54.49719
#
# Poissons Ratio (x) = 0.97241 -0.29315
# Poissons Ratio (y) = 0.24013 0.19752
# Poissons Ratio (z) = -0.20682 0.56431
#
# Static dielectric constant tensor:
#      x y z
#    x 2.141800 -0.111430 0.148600 
#    y -0.111430 2.213700 0.009170 
#    z 0.148600 0.009170 2.361680 
# 
# From -- ./inp_files/466618.got.cif
#   From: 2010.05.17/outbox.cif.g08.bks.cpg/sg2_234_cif.got.tgz:466618.got - 2010.06.03 11:33:40.
