data_PCOD9041976
_publ_section_title
;
Structure prediction by ZEFSAII (Michael W. Deem and Ramdas Pophale) SiO2 
 PCOD9041976
Probable space group: P -1
;
_chemical_formula_sum "Si O2"
_cell_formula_units_Z 16
_cell_length_a 24.003781
_cell_length_b 9.699443
_cell_length_c 6.633152
_cell_angle_alpha 47.858404
_cell_angle_beta 121.727851
_cell_angle_gamma 145.166963
_cell_volume 652.950287
_symmetry_space_group_name_H-M "P -1"
_symmetry_group_IT_number 2
_symmetry_cell_setting 'triclinic'
loop_
_space_group_symop_operation_xyz
x,y,z
-x,-y,-z
loop_
_atom_site_type_symbol
_atom_site_label
_atom_site_fract_x
_atom_site_fract_y
_atom_site_fract_z
Si Si1 0.403604 0.801050 0.806522
Si Si2 0.353355 0.960257 0.899157
Si Si3 0.370977 0.338369 0.317655
Si Si4 0.200642 0.393696 0.573666
Si Si5 0.425766 0.187743 0.240839
Si Si6 0.847365 0.376964 0.008947
Si Si7 0.193111 0.098622 0.485923
Si Si8 0.043240 0.909627 0.063629
O O1 0.301521 0.596041 0.691076
O O2 0.387008 0.855715 0.939705
O O3 0.428453 0.636712 0.042402
O O4 0.468494 0.096665 0.528058
O O5 0.404826 0.259338 0.626942
O O6 0.371977 0.992753 0.137652
O O7 0.236132 0.735024 0.878644
O O8 0.280831 0.244166 0.353742
O O9 0.355064 0.157138 0.284148
O O10 0.210230 0.305305 0.465782
O O11 0.163195 0.517723 0.311370
O O12 0.119940 0.130034 0.821248
O O13 0.500000 0.500000 0.000000
O O14 0.953190 0.618434 0.071286
O O15 0.820469 0.106472 0.193202
O O16 0.099762 0.923814 0.335881
O O17 0.000000 0.000000 0.000000
#
# Coordination Sequence:
#
# PCOD9041976 Si02
#       8
#     2   2   2   2   2   2   2   2
#     4  11  23  41  71  99 135 180 225 270 337 406
#     4  10  23  44  68  96 136 178 221 274 337 404
#     4  10  24  42  70 102 131 177 224 269 332 410
#     4  12  24  42  66  98 133 181 232 279 332 394
#     4  11  26  47  72 104 136 170 219 280 343 412
#     4  11  23  41  65  95 132 183 224 280 337 381
#     4  11  25  42  66  97 137 181 231 279 330 399
#     4  12  24  43  62  95 142 179 234 285 329 384
#
# _framework density 24.504163999999999
#
# number of rings (size 3 to 8) (size 9 to 14) (size 15 to 20)
#    0.000    1.000    3.750    2.250    3.500    3.000 
#    2.250    1.250    0.000    0.000    0.000    0.000 
#    0.000    0.000    0.000    0.000    0.000    0.000 
#
# Total GULP energy -89508.564824 kJ/mol
# GULP energy per Si atom -5594.285301 kJ/mol
# Density = 2.444839 g / cm^3
# Si number density = 24.504164 Si / 1000 Ang^3
#
#
#
# Elastic Constant Matrix: (Units=GPa)
#
#
# Indices 1 2 3 4 5 6 
#
# 1 92.7009 27.2375 50.7858 5.1844 12.1382 -11.2977
# 2 27.2375 105.4255 51.5291 10.0267 3.7268 0.7303
# 3 50.7858 51.5291 159.5420 -2.0673 25.0841 -19.1095
# 4 5.1844 10.0267 -2.0673 49.5717 -5.0319 1.1401
# 5 12.1382 3.7268 25.0841 -5.0319 54.5158 -9.9389
# 6 -11.2977 0.7303 -19.1095 1.1401 -9.9389 30.4914
#
#
#
# Elastic Compliance Matrix: (Units=1/GPa)
#
#
# Indices 1 2 3 4 5 6 
#
# 1 0.013664 -0.001766 -0.003306 -0.001377 -0.001026 0.002750
# 2 -0.001766 0.012019 -0.003803 -0.002278 0.000553 -0.003060
# 3 -0.003306 -0.003803 0.009428 0.001162 -0.002522 0.003909
# 4 -0.001377 -0.002278 0.001162 0.021015 0.001886 0.000102
# 5 -0.001026 0.000553 -0.002522 0.001886 0.020728 0.004712
# 6 0.002750 -0.003060 0.003909 0.000102 0.004712 0.037870
#
#
# Mechanical properties :
#
#
# Convention : Reuss Voigt Hill
#
# Bulk Modulus (GPa) = 57.59942 68.53035 63.06488
# Shear Modulus (GPa) = 36.16340 42.12353 39.14347
#
# Velocity S-wave (km/s) = 3.84579 4.15062 4.00111
# Velocity P-wave (km/s) = 6.57854 7.14127 6.86567
#
# Compressibility (1/GPa) = 0.01736129
#
# Stress axis : x y z
#
# Youngs Moduli (GPa) = 73.18414 83.20464 106.06191
#
# Poissons Ratio (x) = 0.14694 0.35068
# Poissons Ratio (y) = 0.12924 0.40331
# Poissons Ratio (z) = 0.24197 0.31639
#
# Static dielectric constant tensor:
#      x y z
#    x 1.929590 0.047320 -0.002130 
#    y 0.047320 1.954880 -0.036510 
#    z -0.002130 -0.036510 1.977920 
# 
# From -- ./inp_files/126376.got.cif
#   From: 2010.05.17/outbox.cif.g08.bks.cpg/sg2_64_cif.got.tgz:126376.got - 2010.06.03 11:33:40.
