data_PCOD9041788
_publ_section_title
;
Structure prediction by ZEFSAII (Michael W. Deem and Ramdas Pophale) SiO2 
 PCOD9041788
Probable space group: P -1
;
_chemical_formula_sum "Si O2"
_cell_formula_units_Z 16
_cell_length_a 10.074030
_cell_length_b 6.513639
_cell_length_c 17.783567
_cell_angle_alpha 100.644661
_cell_angle_beta 144.980058
_cell_angle_gamma 81.563378
_cell_volume 658.112545
_symmetry_space_group_name_H-M "P -1"
_symmetry_group_IT_number 2
_symmetry_cell_setting 'triclinic'
loop_
_space_group_symop_operation_xyz
x,y,z
-x,-y,-z
loop_
_atom_site_type_symbol
_atom_site_label
_atom_site_fract_x
_atom_site_fract_y
_atom_site_fract_z
Si Si1 0.304875 0.824990 0.417666
Si Si2 0.213523 0.489172 0.041981
Si Si3 0.383903 0.209879 0.759320
Si Si4 0.124322 0.592206 0.465303
Si Si5 0.550682 0.242357 0.009287
Si Si6 0.811652 0.568629 0.755484
Si Si7 0.513001 0.249238 0.254838
Si Si8 0.040502 0.208577 0.305512
O O1 0.276147 0.708349 0.476954
O O2 0.298259 0.649340 0.338054
O O3 0.500000 0.000000 0.500000
O O4 0.074503 0.965340 0.316825
O O5 0.404479 0.656298 0.168315
O O6 0.371820 0.285216 0.113578
O O7 0.000000 0.500000 0.000000
O O8 0.075634 0.523305 0.902890
O O9 0.474563 0.199118 0.885594
O O10 0.128788 0.305392 0.644496
O O11 0.397141 0.983483 0.714152
O O12 0.261547 0.617620 0.608346
O O13 0.107979 0.351280 0.416799
O O14 0.500000 0.500000 0.000000
O O15 0.788377 0.264846 0.166602
O O16 0.500000 0.000000 0.000000
O O17 0.676307 0.685926 0.766334
O O18 0.811292 0.714104 0.692245
#
# Coordination Sequence:
#
# PCOD9041788 Si02
#       8
#     2   2   2   2   2   2   2   2
#     4  11  24  42  73 104 138 189 248 321 384 454
#     4  10  25  44  65  99 141 190 247 299 372 452
#     4  12  26  44  72 104 148 192 251 311 382 459
#     4  11  25  46  66 106 143 186 255 300 388 457
#     4  12  27  47  77 113 153 198 256 324 394 459
#     4  10  23  44  67 106 140 182 254 306 380 457
#     4  11  26  44  69  97 148 195 236 310 374 463
#     4  11  23  41  75  99 142 190 244 322 381 445
#
# _framework density 24.311951000000001
#
# number of rings (size 3 to 8) (size 9 to 14) (size 15 to 20)
#    0.000    1.000    2.500    2.625    5.250   10.500 
#    0.000    0.000    0.000    0.000    0.000    0.000 
#    0.000    0.000    0.000    0.000    0.000    0.000 
#
# Total GULP energy -89137.529906 kJ/mol
# GULP energy per Si atom -5571.095619 kJ/mol
# Density = 2.425662 g / cm^3
# Si number density = 24.311951 Si / 1000 Ang^3
#
#
#
# Elastic Constant Matrix: (Units=GPa)
#
#
# Indices 1 2 3 4 5 6 
#
# 1 70.9246 38.5858 25.3056 7.2814 1.0983 -12.1469
# 2 38.5858 116.7579 12.8921 -0.4297 -12.8090 -20.4929
# 3 25.3056 12.8921 122.7091 -2.5660 10.4017 -5.5096
# 4 7.2814 -0.4297 -2.5660 44.1212 -0.0562 1.4544
# 5 1.0983 -12.8090 10.4017 -0.0562 22.9828 -0.2020
# 6 -12.1469 -20.4929 -5.5096 1.4544 -0.2020 35.4340
#
#
#
# Elastic Compliance Matrix: (Units=1/GPa)
#
#
# Indices 1 2 3 4 5 6 
#
# 1 0.019269 -0.005841 -0.003069 -0.003514 -0.002770 0.002879
# 2 -0.005841 0.012234 -0.000461 0.000901 0.007352 0.005007
# 3 -0.003069 -0.000461 0.009217 0.001031 -0.004279 0.000048
# 4 -0.003514 0.000901 0.001031 0.023363 0.000247 -0.001481
# 5 -0.002770 0.007352 -0.004279 0.000247 0.049703 0.002911
# 6 0.002879 0.005007 0.000048 -0.001481 0.002911 0.032189
#
#
# Mechanical properties :
#
#
# Convention : Reuss Voigt Hill
#
# Bulk Modulus (GPa) = 45.49732 51.55094 48.52413
# Shear Modulus (GPa) = 29.06254 36.08147 32.57200
#
# Velocity S-wave (km/s) = 3.46121 3.85659 3.66423
# Velocity P-wave (km/s) = 5.89304 6.40945 6.15666
#
# Compressibility (1/GPa) = 0.02197932
#
# Stress axis : x y z
#
# Youngs Moduli (GPa) = 51.89731 81.73645 108.49359
#
# Poissons Ratio (x) = 0.47738 0.33302
# Poissons Ratio (y) = 0.30311 0.04996
# Poissons Ratio (z) = 0.15930 0.03764
#
# Static dielectric constant tensor:
#      x y z
#    x 1.993390 0.184070 0.117590 
#    y 0.184070 1.984210 -0.069890 
#    z 0.117590 -0.069890 1.903900 
# 
# From -- ./inp_files/592780.got.cif
#   From: 2010.05.17/outbox.cif.g08.bks.cpg/sg2_297_cif.got.tgz:592780.got - 2010.06.03 11:33:40.
