data_PCOD9041112
_publ_section_title
;
Structure prediction by ZEFSAII (Michael W. Deem and Ramdas Pophale) SiO2 
 PCOD9041112
Probable space group: P -1
;
_chemical_formula_sum "Si O2"
_cell_formula_units_Z 12
_cell_length_a 8.841719
_cell_length_b 16.016819
_cell_length_c 5.723317
_cell_angle_alpha 101.459805
_cell_angle_beta 77.228155
_cell_angle_gamma 141.359421
_cell_volume 493.139436
_symmetry_space_group_name_H-M "P -1"
_symmetry_group_IT_number 2
_symmetry_cell_setting 'triclinic'
loop_
_space_group_symop_operation_xyz
x,y,z
-x,-y,-z
loop_
_atom_site_type_symbol
_atom_site_label
_atom_site_fract_x
_atom_site_fract_y
_atom_site_fract_z
Si Si1 0.301132 0.891602 0.810587
Si Si2 0.475472 0.585200 0.155248
Si Si3 0.189528 0.536109 0.627738
Si Si4 0.269677 0.014430 0.510110
Si Si5 0.893645 0.889340 0.168057
Si Si6 0.047311 0.632352 0.981878
O O1 0.458631 0.900191 0.587103
O O2 0.111717 0.750216 0.921507
O O3 0.197517 0.925226 0.709316
O O4 0.500000 0.000000 0.000000
O O5 0.412893 0.582156 0.448914
O O6 0.704731 0.736879 0.075693
O O7 0.221473 0.506120 0.088536
O O8 0.500000 0.500000 0.000000
O O9 0.236695 0.639744 0.835812
O O10 0.000000 0.500000 0.500000
O O11 0.011214 0.393094 0.739044
O O12 0.261808 0.110148 0.623741
O O13 0.096273 0.934101 0.296420
O O14 0.000000 0.000000 0.000000
#
# Coordination Sequence:
#
# PCOD9041112 Si02
#       6
#     2   2   2   2   2   2
#     4  11  24  43  70 107 139 181 243 302 357 421
#     4  11  26  44  69 105 143 183 232 299 362 422
#     4   9  21  44  67  96 137 186 231 288 357 430
#     4  10  25  44  72 101 142 189 240 293 362 423
#     4  11  25  48  72 100 145 192 240 287 362 441
#     4  10  23  43  71 100 140 183 241 294 359 427
#
# _framework density 24.33389
#
# number of rings (size 3 to 8) (size 9 to 14) (size 15 to 20)
#    0.000    1.667    0.000    2.000    4.667   16.667 
#    0.000    0.000    0.000    0.000    0.000    0.000 
#    0.000    0.000    0.000    0.000    0.000    0.000 
#
# Total GULP energy -66892.556117 kJ/mol
# GULP energy per Si atom -5574.379676 kJ/mol
# Density = 2.427850 g / cm^3
# Si number density = 24.333890 Si / 1000 Ang^3
#
#
#
# Elastic Constant Matrix: (Units=GPa)
#
#
# Indices 1 2 3 4 5 6 
#
# 1 134.1116 50.3309 45.5240 -7.9296 -10.4493 -23.9211
# 2 50.3309 183.3737 58.8815 -16.0752 18.0478 -25.4983
# 3 45.5240 58.8815 84.6558 -26.1926 3.7906 -14.8145
# 4 -7.9296 -16.0752 -26.1926 42.7624 -7.5127 8.1075
# 5 -10.4493 18.0478 3.7906 -7.5127 67.5111 -5.3359
# 6 -23.9211 -25.4983 -14.8145 8.1075 -5.3359 28.7236
#
#
#
# Elastic Compliance Matrix: (Units=1/GPa)
#
#
# Indices 1 2 3 4 5 6 
#
# 1 0.010646 -0.000917 -0.004666 -0.002065 0.002453 0.006684
# 2 -0.000917 0.007752 -0.004477 -0.001025 -0.001779 0.003768
# 3 -0.004666 -0.004477 0.020539 0.010118 0.000444 -0.000040
# 4 -0.002065 -0.001025 0.010118 0.030269 0.002318 -0.005524
# 5 0.002453 -0.001779 0.000444 0.002318 0.016141 0.003037
# 6 0.006684 0.003768 -0.000040 -0.005524 0.003037 0.045828
#
#
# Mechanical properties :
#
#
# Convention : Reuss Voigt Hill
#
# Bulk Modulus (GPa) = 53.14287 79.06820 66.10553
# Shear Modulus (GPa) = 31.73275 44.29308 38.01292
#
# Velocity S-wave (km/s) = 3.61509 4.27103 3.95668
# Velocity P-wave (km/s) = 6.26990 7.54227 6.93533
#
# Compressibility (1/GPa) = 0.01881720
#
# Stress axis : x y z
#
# Youngs Moduli (GPa) = 93.93473 129.00625 48.68748
#
# Poissons Ratio (x) = 0.11826 0.22719
# Poissons Ratio (y) = 0.08611 0.21796
# Poissons Ratio (z) = 0.43832 0.57752
#
# Static dielectric constant tensor:
#      x y z
#    x 1.956460 -0.022740 -0.024420 
#    y -0.022740 1.901530 -0.026290 
#    z -0.024420 -0.026290 2.436860 
# 
# From -- ./inp_files/39306.got.cif
#   From: 2010.05.17/outbox.cif.g08.bks.cpg/sg2_20_cif.got.tgz:39306.got - 2010.06.03 11:33:40.
