data_PCOD9041201
_publ_section_title
;
Structure prediction by ZEFSAII (Michael W. Deem and Ramdas Pophale) SiO2 
 PCOD9041201
Probable space group: P -1
;
_chemical_formula_sum "Si O2"
_cell_formula_units_Z 14
_cell_length_a 9.379405
_cell_length_b 7.088608
_cell_length_c 8.816094
_cell_angle_alpha 110.307484
_cell_angle_beta 81.805154
_cell_angle_gamma 76.652403
_cell_volume 518.704644
_symmetry_space_group_name_H-M "P -1"
_symmetry_group_IT_number 2
_symmetry_cell_setting 'triclinic'
loop_
_space_group_symop_operation_xyz
x,y,z
-x,-y,-z
loop_
_atom_site_type_symbol
_atom_site_label
_atom_site_fract_x
_atom_site_fract_y
_atom_site_fract_z
Si Si1 0.510147 0.697265 0.819517
Si Si2 0.802798 0.152055 0.987057
Si Si3 0.394209 0.089821 0.398873
Si Si4 0.942512 0.715744 0.194496
Si Si5 0.715430 0.429678 0.370660
Si Si6 0.174607 0.910568 0.494081
Si Si7 0.169604 0.336984 0.115332
O O1 0.378186 0.756543 0.980405
O O2 0.512928 0.890266 0.760361
O O3 0.449928 0.551397 0.672769
O O4 0.674928 0.630633 0.847001
O O5 0.813819 0.271863 0.180429
O O6 0.076453 0.796839 0.126691
O O7 0.834735 0.899467 0.920873
O O8 0.295387 0.330912 0.520889
O O9 0.500000 0.000000 0.500000
O O10 0.284193 0.945266 0.356735
O O11 0.027320 0.530415 0.246329
O O12 0.819117 0.914765 0.334706
O O13 0.855449 0.634168 0.053425
O O14 0.768854 0.303895 0.483147
O O15 0.000000 0.000000 0.500000
#
# Coordination Sequence:
#
# PCOD9041201 Si02
#       7
#     2   2   2   2   2   2   2
#     4  10  24  45  73 101 135 181 237 282 340 406
#     4  10  23  43  71  94 138 180 224 289 335 404
#     4  12  26  47  74  98 142 186 227 293 341 407
#     4  11  26  43  68 100 143 179 223 289 342 413
#     4  10  25  46  70 102 139 180 230 288 344 401
#     4  12  29  46  70 105 139 183 234 278 351 420
#     4  11  24  43  68 105 136 181 231 280 349 403
#
# _framework density 26.990313
#
# number of rings (size 3 to 8) (size 9 to 14) (size 15 to 20)
#    0.857    0.286    2.857    1.286    8.000    1.143 
#    0.000    0.000    0.000    0.000    0.000    0.000 
#    0.000    0.000    0.000    0.000    0.000    0.000 
#
# Total GULP energy -78266.454295 kJ/mol
# GULP energy per Si atom -5590.461021 kJ/mol
# Density = 2.692888 g / cm^3
# Si number density = 26.990313 Si / 1000 Ang^3
#
#
#
# Elastic Constant Matrix: (Units=GPa)
#
#
# Indices 1 2 3 4 5 6 
#
# 1 160.3233 52.1770 25.5096 -17.0720 -5.2960 -19.1589
# 2 52.1770 166.1434 26.9562 22.4989 -2.8498 -1.5321
# 3 25.5096 26.9562 110.0315 7.4445 -8.1572 5.9624
# 4 -17.0720 22.4989 7.4445 38.1738 0.0153 -5.9820
# 5 -5.2960 -2.8498 -8.1572 0.0153 38.0889 -4.7789
# 6 -19.1589 -1.5321 5.9624 -5.9820 -4.7789 57.5617
#
#
#
# Elastic Compliance Matrix: (Units=1/GPa)
#
#
# Indices 1 2 3 4 5 6 
#
# 1 0.008854 -0.003365 -0.001825 0.006902 0.001069 0.003852
# 2 -0.003365 0.008029 -0.000691 -0.006339 -0.000202 -0.001510
# 3 -0.001825 -0.000691 0.010079 -0.002659 0.001627 -0.001811
# 4 0.006902 -0.006339 -0.002659 0.034484 0.000660 0.006042
# 5 0.001069 -0.000202 0.001627 0.000660 0.027049 0.002496
# 6 0.003852 -0.001510 -0.001811 0.006042 0.002496 0.019637
#
#
# Mechanical properties :
#
#
# Convention : Reuss Voigt Hill
#
# Bulk Modulus (GPa) = 65.78981 71.75375 68.77178
# Shear Modulus (GPa) = 40.01266 48.88856 44.45061
#
# Velocity S-wave (km/s) = 3.85448 4.26060 4.06262
# Velocity P-wave (km/s) = 6.65114 7.13066 6.89507
#
# Compressibility (1/GPa) = 0.01519992
#
# Stress axis : x y z
#
# Youngs Moduli (GPa) = 112.94935 124.55083 99.21356
#
# Poissons Ratio (x) = 0.41914 0.18103
# Poissons Ratio (y) = 0.38009 0.06856
# Poissons Ratio (z) = 0.20609 0.08607
#
# Static dielectric constant tensor:
#      x y z
#    x 2.145720 0.039930 0.023100 
#    y 0.039930 2.093410 -0.050550 
#    z 0.023100 -0.050550 2.380510 
# 
# From -- ./inp_files/380270.got.cif
#   From: 2010.05.17/outbox.cif.g08.bks.cpg/sg2_191_cif.got.tgz:380270.got - 2010.06.03 11:33:40.
