data_PCOD9041595
_publ_section_title
;
Structure prediction by ZEFSAII (Michael W. Deem and Ramdas Pophale) SiO2 
 PCOD9041595
Probable space group: P -1
;
_chemical_formula_sum "Si O2"
_cell_formula_units_Z 16
_cell_length_a 10.664873
_cell_length_b 10.428096
_cell_length_c 7.702601
_cell_angle_alpha 64.751530
_cell_angle_beta 121.972189
_cell_angle_gamma 105.416314
_cell_volume 656.375850
_symmetry_space_group_name_H-M "P -1"
_symmetry_group_IT_number 2
_symmetry_cell_setting 'triclinic'
loop_
_space_group_symop_operation_xyz
x,y,z
-x,-y,-z
loop_
_atom_site_type_symbol
_atom_site_label
_atom_site_fract_x
_atom_site_fract_y
_atom_site_fract_z
Si Si1 0.349723 0.989234 0.785892
Si Si2 0.236534 0.299241 0.899641
Si Si3 0.374146 0.173992 0.395047
Si Si4 0.570487 0.303851 0.030434
Si Si5 0.389998 0.625352 0.376572
Si Si6 0.216323 0.581754 0.600834
Si Si7 0.098764 0.995249 0.857666
Si Si8 0.194932 0.903646 0.339606
O O1 0.331526 0.132501 0.584505
O O2 0.385937 0.851236 0.781707
O O3 0.500000 0.000000 0.000000
O O4 0.200862 0.955039 0.799260
O O5 0.284628 0.278975 0.148052
O O6 0.154843 0.153513 0.864369
O O7 0.393835 0.307868 0.907019
O O8 0.142956 0.433796 0.703583
O O9 0.533507 0.253094 0.509150
O O10 0.337980 0.018262 0.370027
O O11 0.631032 0.322012 0.866979
O O12 0.645759 0.410031 0.163538
O O13 0.500000 0.500000 0.500000
O O14 0.258586 0.564730 0.438775
O O15 0.168966 0.743046 0.481077
O O16 0.137785 0.895970 0.103825
O O17 0.924655 0.002422 0.702709
#
# Coordination Sequence:
#
# PCOD9041595 Si02
#       8
#     2   2   2   2   2   2   2   2
#     4  12  22  37  66  97 123 160 213 270 324 377
#     4  11  22  39  64  89 134 165 211 264 321 385
#     4  11  23  39  62  95 128 170 209 267 322 375
#     4  12  22  38  60 101 127 164 207 266 322 378
#     4  12  23  36  64  95 135 166 209 262 329 379
#     4  12  24  41  63  97 130 173 211 260 324 391
#     4  10  23  44  65  93 125 166 224 267 315 382
#     4  10  24  43  67  89 124 178 217 263 317 377
#
# _framework density 24.376277999999999
#
# number of rings (size 3 to 8) (size 9 to 14) (size 15 to 20)
#    0.000    0.750    6.250    1.875    0.000    2.000 
#    0.000    0.000    0.000    0.750    0.000    0.000 
#    0.000    0.000    0.000    0.000    0.000    0.000 
#
# Total GULP energy -89173.962334 kJ/mol
# GULP energy per Si atom -5573.372646 kJ/mol
# Density = 2.432080 g / cm^3
# Si number density = 24.376278 Si / 1000 Ang^3
#
#
#
# Elastic Constant Matrix: (Units=GPa)
#
#
# Indices 1 2 3 4 5 6 
#
# 1 50.3981 -6.7563 24.2274 0.8389 -6.7939 -5.1046
# 2 -6.7563 83.6645 33.3702 -17.1521 -2.3392 6.6033
# 3 24.2274 33.3702 143.6820 -37.9687 -27.6656 2.5352
# 4 0.8389 -17.1521 -37.9687 51.5924 -0.0007 -0.8313
# 5 -6.7939 -2.3392 -27.6656 -0.0007 25.4148 -0.4356
# 6 -5.1046 6.6033 2.5352 -0.8313 -0.4356 26.5483
#
#
#
# Elastic Compliance Matrix: (Units=1/GPa)
#
#
# Indices 1 2 3 4 5 6 
#
# 1 0.023470 0.003097 -0.005512 -0.003341 0.000630 0.004175
# 2 0.003097 0.014196 -0.003605 0.001975 -0.001834 -0.002559
# 3 -0.005512 -0.003605 0.013585 0.008873 0.012967 -0.000970
# 4 -0.003341 0.001975 0.008873 0.026608 0.008931 -0.001001
# 5 0.000630 -0.001834 0.012967 0.008931 0.053471 0.000496
# 6 0.004175 -0.002559 -0.000970 -0.001001 0.000496 0.039176
#
#
# Mechanical properties :
#
#
# Convention : Reuss Voigt Hill
#
# Bulk Modulus (GPa) = 25.50315 42.15859 33.83087
# Shear Modulus (GPa) = 25.56010 35.83799 30.69905
#
# Velocity S-wave (km/s) = 3.24167 3.83848 3.55263
# Velocity P-wave (km/s) = 4.94936 6.08093 5.54409
#
# Compressibility (1/GPa) = 0.03921084
#
# Stress axis : x y z
#
# Youngs Moduli (GPa) = 42.60697 70.44143 73.60917
#
# Poissons Ratio (x) = -0.21816 0.40573
# Poissons Ratio (y) = -0.13195 0.26540
# Poissons Ratio (z) = 0.23485 0.25397
#
# Static dielectric constant tensor:
#      x y z
#    x 2.141040 0.120870 0.141350 
#    y 0.120870 2.032270 0.116040 
#    z 0.141350 0.116040 2.202890 
# 
# From -- ./inp_files/257106.got.cif
#   From: 2010.05.17/outbox.cif.g08.bks.cpg/sg2_129_cif.got.tgz:257106.got - 2010.06.03 11:33:40.
