data_PCOD9041914
_publ_section_title
;
Structure prediction by ZEFSAII (Michael W. Deem and Ramdas Pophale) SiO2 
 PCOD9041914
Probable space group: P -1
;
_chemical_formula_sum "Si O2"
_cell_formula_units_Z 14
_cell_length_a 8.746088
_cell_length_b 25.414209
_cell_length_c 12.161045
_cell_angle_alpha 150.570484
_cell_angle_beta 39.417670
_cell_angle_gamma 151.806351
_cell_volume 627.358749
_symmetry_space_group_name_H-M "P -1"
_symmetry_group_IT_number 2
_symmetry_cell_setting 'triclinic'
loop_
_space_group_symop_operation_xyz
x,y,z
-x,-y,-z
loop_
_atom_site_type_symbol
_atom_site_label
_atom_site_fract_x
_atom_site_fract_y
_atom_site_fract_z
Si Si1 0.636296 0.339149 0.906649
Si Si2 0.809141 0.530262 0.588134
Si Si3 0.597752 0.153678 0.216426
Si Si4 0.677441 0.343517 0.124842
Si Si5 0.359771 0.086360 0.999385
Si Si6 0.373987 0.490005 0.931295
Si Si7 0.614750 0.915373 0.553233
O O1 0.567883 0.197790 0.651904
O O2 0.486211 0.313503 0.064398
O O3 0.491435 0.358718 0.917374
O O4 0.000000 0.500000 0.000000
O O5 0.743793 0.466256 0.386346
O O6 0.487716 0.450885 0.695178
O O7 0.000000 0.500000 0.500000
O O8 0.046817 0.702698 0.757231
O O9 0.532247 0.172455 0.410069
O O10 0.378376 0.129883 0.194934
O O11 0.500000 0.000000 0.000000
O O12 0.555719 0.220962 0.054992
O O13 0.996192 0.385995 0.972897
O O14 0.515358 0.012434 0.776193
O O15 0.000000 0.000000 0.000000
O O16 0.500000 0.500000 0.000000
O O17 0.000000 0.000000 0.500000
#
# Coordination Sequence:
#
# PCOD9041914 Si02
#       7
#     2   2   2   2   2   2   2
#     4  10  25  45  67 104 144 184 242 311 378 434
#     4  12  23  41  74 107 137 193 248 301 377 442
#     4  10  23  44  68 103 148 189 245 305 376 452
#     4  11  25  46  70 105 149 185 250 312 374 445
#     4  11  26  46  72 106 151 197 247 310 383 446
#     4  11  23  40  75 103 143 186 250 311 365 446
#     4  11  27  45  76 106 145 202 253 305 381 455
#
# _framework density 22.31578
#
# number of rings (size 3 to 8) (size 9 to 14) (size 15 to 20)
#    0.000    1.143    2.857    1.714    8.000    4.571 
#    0.000    0.000    0.000    0.000    0.000    0.000 
#    0.000    0.000    0.000    0.000    0.000    0.000 
#
# Total GULP energy -77955.521956 kJ/mol
# GULP energy per Si atom -5568.251568 kJ/mol
# Density = 2.226499 g / cm^3
# Si number density = 22.315780 Si / 1000 Ang^3
#
#
#
# Elastic Constant Matrix: (Units=GPa)
#
#
# Indices 1 2 3 4 5 6 
#
# 1 135.0504 45.0151 30.9862 4.9238 16.2449 -22.8918
# 2 45.0151 124.5201 33.6263 -6.3056 2.3242 -15.5662
# 3 30.9862 33.6263 99.7172 5.5639 23.3224 8.5501
# 4 4.9238 -6.3056 5.5639 35.0425 -5.6115 -8.2552
# 5 16.2449 2.3242 23.3224 -5.6115 48.5775 -10.1218
# 6 -22.8918 -15.5662 8.5501 -8.2552 -10.1218 47.5578
#
#
#
# Elastic Compliance Matrix: (Units=1/GPa)
#
#
# Indices 1 2 3 4 5 6 
#
# 1 0.009521 -0.002421 -0.002099 -0.000779 -0.001371 0.003741
# 2 -0.002421 0.010932 -0.004583 0.004853 0.004078 0.004947
# 3 -0.002099 -0.004583 0.015375 -0.006348 -0.008918 -0.008274
# 4 -0.000779 0.004853 -0.006348 0.034424 0.009196 0.010288
# 5 -0.001371 0.004078 -0.008918 0.009196 0.028253 0.009888
# 6 0.003741 0.004947 -0.008274 0.010288 0.009888 0.029825
#
#
# Mechanical properties :
#
#
# Convention : Reuss Voigt Hill
#
# Bulk Modulus (GPa) = 56.74596 64.28253 60.51425
# Shear Modulus (GPa) = 32.80651 42.87956 37.84303
#
# Velocity S-wave (km/s) = 3.83835 4.38824 4.12247
# Velocity P-wave (km/s) = 6.71772 7.38538 7.05945
#
# Compressibility (1/GPa) = 0.01762240
#
# Stress axis : x y z
#
# Youngs Moduli (GPa) = 105.03603 91.47615 65.03882
#
# Poissons Ratio (x) = 0.22149 0.13649
# Poissons Ratio (y) = 0.25432 0.29806
# Poissons Ratio (z) = 0.22042 0.41922
#
# Static dielectric constant tensor:
#      x y z
#    x 2.119860 0.022690 -0.004780 
#    y 0.022690 1.852670 -0.014210 
#    z -0.004780 -0.014210 1.940090 
# 
# From -- ./inp_files/406915.got.cif
#   From: 2010.05.17/outbox.cif.g08.bks.cpg/sg2_204_cif.got.tgz:406915.got - 2010.06.03 11:33:40.
