data_PCOD9041123
_publ_section_title
;
Structure prediction by ZEFSAII (Michael W. Deem and Ramdas Pophale) SiO2 
 PCOD9041123
Probable space group: P -1
;
_chemical_formula_sum "Si O2"
_cell_formula_units_Z 16
_cell_length_a 24.685602
_cell_length_b 9.311111
_cell_length_c 5.670376
_cell_angle_alpha 130.219502
_cell_angle_beta 46.365391
_cell_angle_gamma 132.983379
_cell_volume 651.174919
_symmetry_space_group_name_H-M "P -1"
_symmetry_group_IT_number 2
_symmetry_cell_setting 'triclinic'
loop_
_space_group_symop_operation_xyz
x,y,z
-x,-y,-z
loop_
_atom_site_type_symbol
_atom_site_label
_atom_site_fract_x
_atom_site_fract_y
_atom_site_fract_z
Si Si1 0.171680 0.745827 0.206161
Si Si2 0.060107 0.249220 0.570326
Si Si3 0.451392 0.922701 0.316470
Si Si4 0.231794 0.483696 0.074276
Si Si5 0.283926 0.878738 0.625664
Si Si6 0.696396 0.835504 0.516786
Si Si7 0.000394 0.770985 0.768733
Si Si8 0.506233 0.607874 0.846371
O O1 0.189155 0.566429 0.089261
O O2 0.088345 0.765652 0.533770
O O3 0.244683 0.969347 0.299710
O O4 0.194336 0.748816 0.869452
O O5 0.156664 0.322260 0.291610
O O6 0.027711 0.319365 0.505954
O O7 0.000000 0.000000 0.500000
O O8 0.049583 0.326849 0.944095
O O9 0.368846 0.955376 0.594960
O O10 0.500000 0.000000 0.500000
O O11 0.434061 0.683201 0.128309
O O12 0.500000 0.000000 0.000000
O O13 0.290236 0.702835 0.250745
O O14 0.284004 0.360544 0.703574
O O15 0.280091 0.075416 0.723015
O O16 0.600186 0.784377 0.760873
O O17 0.000000 0.000000 0.000000
O O18 0.500000 0.500000 0.500000
O O19 0.500000 0.500000 0.000000
#
# Coordination Sequence:
#
# PCOD9041123 Si02
#       8
#     2   2   2   2   2   2   2   2
#     4  11  27  45  74 107 144 194 244 306 369 440
#     4  10  23  44  72 103 140 194 237 299 363 434
#     4  12  25  48  75 104 148 195 244 301 366 437
#     4  11  27  46  73 109 148 188 250 304 367 441
#     4  11  27  46  73 108 145 195 243 304 372 437
#     4  11  25  48  73 102 148 197 241 302 374 437
#     4  10  23  43  71 101 140 187 245 289 363 433
#     4  12  27  45  73 108 143 190 249 301 361 438
#
# _framework density 24.570969999999999
#
# number of rings (size 3 to 8) (size 9 to 14) (size 15 to 20)
#    0.000    1.000    1.250    3.750   14.000    2.000 
#    0.000    0.000    0.000    0.000    0.000    0.000 
#    0.000    0.000    0.000    0.000    0.000    0.000 
#
# Total GULP energy -89290.874709 kJ/mol
# GULP energy per Si atom -5580.679669 kJ/mol
# Density = 2.451505 g / cm^3
# Si number density = 24.570970 Si / 1000 Ang^3
#
#
#
# Elastic Constant Matrix: (Units=GPa)
#
#
# Indices 1 2 3 4 5 6 
#
# 1 124.1444 24.7070 44.1590 -0.6199 4.6883 -10.3804
# 2 24.7070 80.0326 14.3031 -5.7567 -0.4731 -21.0425
# 3 44.1590 14.3031 95.3028 -7.6951 2.0855 -21.6181
# 4 -0.6199 -5.7567 -7.6951 54.1726 -8.3418 -1.9944
# 5 4.6883 -0.4731 2.0855 -8.3418 51.4450 4.6720
# 6 -10.3804 -21.0425 -21.6181 -1.9944 4.6720 50.3536
#
#
#
# Elastic Compliance Matrix: (Units=1/GPa)
#
#
# Indices 1 2 3 4 5 6 
#
# 1 0.010160 -0.002639 -0.004585 -0.000979 -0.000838 -0.000938
# 2 -0.002639 0.014926 0.000483 0.001862 0.000119 0.005964
# 3 -0.004585 0.000483 0.013937 0.002132 -0.000283 0.005351
# 4 -0.000979 0.001862 0.002132 0.019484 0.002999 0.001985
# 5 -0.000838 0.000119 -0.000283 0.002999 0.020195 -0.002000
# 6 -0.000938 0.005964 0.005351 0.001985 -0.002000 0.024720
#
#
# Mechanical properties :
#
#
# Convention : Reuss Voigt Hill
#
# Bulk Modulus (GPa) = 39.15249 51.75755 45.45502
# Shear Modulus (GPa) = 39.86733 45.61497 42.74115
#
# Velocity S-wave (km/s) = 4.03244 4.31334 4.17525
# Velocity P-wave (km/s) = 6.13595 6.77619 6.46400
#
# Compressibility (1/GPa) = 0.02554116
#
# Stress axis : x y z
#
# Youngs Moduli (GPa) = 98.42965 66.99779 71.75199
#
# Poissons Ratio (x) = 0.17680 0.32897
# Poissons Ratio (y) = 0.25975 -0.03467
# Poissons Ratio (z) = 0.45129 -0.03238
#
# Static dielectric constant tensor:
#      x y z
#    x 1.977730 0.011130 0.098170 
#    y 0.011130 2.150260 0.102500 
#    z 0.098170 0.102500 2.154890 
# 
# From -- ./inp_files/122984.got.cif
#   From: 2010.05.17/outbox.cif.g08.bks.cpg/sg2_62_cif.got.tgz:122984.got - 2010.06.03 11:33:40.
