data_PCOD9041094
_publ_section_title
;
Structure prediction by ZEFSAII (Michael W. Deem and Ramdas Pophale) SiO2 
 PCOD9041094
Probable space group: P -1
;
_chemical_formula_sum "Si O2"
_cell_formula_units_Z 14
_cell_length_a 8.987114
_cell_length_b 21.081029
_cell_length_c 21.168056
_cell_angle_alpha 19.175888
_cell_angle_beta 150.395400
_cell_angle_gamma 150.260399
_cell_volume 622.778587
_symmetry_space_group_name_H-M "P -1"
_symmetry_group_IT_number 2
_symmetry_cell_setting 'triclinic'
loop_
_space_group_symop_operation_xyz
x,y,z
-x,-y,-z
loop_
_atom_site_type_symbol
_atom_site_label
_atom_site_fract_x
_atom_site_fract_y
_atom_site_fract_z
Si Si1 0.424027 0.525256 0.088822
Si Si2 0.796225 0.330282 0.645852
Si Si3 0.094314 0.689026 0.503283
Si Si4 0.318204 0.068584 0.810938
Si Si5 0.884836 0.219691 0.100803
Si Si6 0.332505 0.953097 0.680549
Si Si7 0.520799 0.534685 0.257873
O O1 0.757851 0.474921 0.254158
O O2 0.350491 0.478805 0.180270
O O3 0.198956 0.364623 0.110910
O O4 0.386008 0.749754 0.858989
O O5 0.599423 0.175081 0.767756
O O6 0.592137 0.347942 0.493504
O O7 0.883113 0.554026 0.497946
O O8 0.137607 0.308176 0.777561
O O9 0.876663 0.784317 0.375096
O O10 0.379864 0.867839 0.410644
O O11 0.087281 0.905523 0.832734
O O12 0.500000 0.000000 0.000000
O O13 0.694575 0.095600 0.207905
O O14 0.682692 0.366548 0.867124
O O15 0.000000 0.000000 0.500000
#
# Coordination Sequence:
#
# PCOD9041094 Si02
#       7
#     2   2   2   2   2   2   2
#     4  10  23  44  71 105 139 176 228 298 351 407
#     4  10  23  43  70  98 140 184 236 287 344 409
#     4  11  25  45  70 100 146 184 232 281 353 410
#     4  12  29  45  66 101 145 195 235 277 347 424
#     4  11  24  41  71 101 140 179 236 289 350 410
#     4  11  23  43  77 108 138 176 235 295 350 413
#     4   9  20  40  71 101 131 171 234 294 349 387
#
# _framework density 22.479899
#
# number of rings (size 3 to 8) (size 9 to 14) (size 15 to 20)
#    0.000    1.429    1.429    3.000   14.000    1.143 
#    0.000    0.714    0.000    0.000    0.000    0.000 
#    0.000    0.000    0.000    0.000    0.000    0.000 
#
# Total GULP energy -78118.890332 kJ/mol
# GULP energy per Si atom -5579.920738 kJ/mol
# Density = 2.242873 g / cm^3
# Si number density = 22.479899 Si / 1000 Ang^3
#
#
#
# Elastic Constant Matrix: (Units=GPa)
#
#
# Indices 1 2 3 4 5 6 
#
# 1 42.1591 1.9822 23.5358 12.0031 8.8491 -18.5970
# 2 1.9822 84.2555 39.6759 -0.6690 -8.3364 -21.3083
# 3 23.5358 39.6759 111.5237 13.4079 13.1929 -13.2195
# 4 12.0031 -0.6690 13.4079 33.5993 0.0889 5.0599
# 5 8.8491 -8.3364 13.1929 0.0889 49.9782 -11.3857
# 6 -18.5970 -21.3083 -13.2195 5.0599 -11.3857 33.8498
#
#
#
# Elastic Compliance Matrix: (Units=1/GPa)
#
#
# Indices 1 2 3 4 5 6 
#
# 1 0.047325 0.011582 -0.008267 -0.018508 0.003516 0.034012
# 2 0.011582 0.021252 -0.008212 -0.003441 0.008179 0.019800
# 3 -0.008267 -0.008212 0.013749 -0.001827 -0.004829 -0.005693
# 4 -0.018508 -0.003441 -0.001827 0.039970 -0.001321 -0.019467
# 5 0.003516 0.008179 -0.004829 -0.001321 0.025186 0.013863
# 6 0.034012 0.019800 -0.005693 -0.019467 0.013863 0.066042
#
#
# Mechanical properties :
#
#
# Convention : Reuss Voigt Hill
#
# Bulk Modulus (GPa) = 13.78692 40.92514 27.35603
# Shear Modulus (GPa) = 20.20245 35.00175 27.60210
#
# Velocity S-wave (km/s) = 3.00107 3.95020 3.50788
# Velocity P-wave (km/s) = 4.26085 6.24901 5.34813
#
# Compressibility (1/GPa) = 0.07253251
#
# Stress axis : x y z
#
# Youngs Moduli (GPa) = 21.13053 47.05331 72.73305
#
# Poissons Ratio (x) = -0.54498 0.60129
# Poissons Ratio (y) = -0.24474 0.59728
# Poissons Ratio (z) = 0.17469 0.38640
#
# Static dielectric constant tensor:
#      x y z
#    x 1.825100 -0.022310 -0.002240 
#    y -0.022310 1.905890 -0.030960 
#    z -0.002240 -0.030960 1.899470 
# 
# From -- ./inp_files/588988.got.cif
#   From: 2010.05.17/outbox.cif.g08.bks.cpg/sg2_295_cif.got.tgz:588988.got - 2010.06.03 11:33:40.
