data_PCOD9041532
_publ_section_title
;
Structure prediction by ZEFSAII (Michael W. Deem and Ramdas Pophale) SiO2 
 PCOD9041532
Probable space group: P -1
;
_chemical_formula_sum "Si O2"
_cell_formula_units_Z 16
_cell_length_a 12.902774
_cell_length_b 10.067833
_cell_length_c 8.319624
_cell_angle_alpha 108.563092
_cell_angle_beta 108.948312
_cell_angle_gamma 38.617235
_cell_volume 634.121511
_symmetry_space_group_name_H-M "P -1"
_symmetry_group_IT_number 2
_symmetry_cell_setting 'triclinic'
loop_
_space_group_symop_operation_xyz
x,y,z
-x,-y,-z
loop_
_atom_site_type_symbol
_atom_site_label
_atom_site_fract_x
_atom_site_fract_y
_atom_site_fract_z
Si Si1 0.474387 0.741943 0.655091
Si Si2 0.667933 0.226399 0.086452
Si Si3 0.046477 0.845389 0.102529
Si Si4 0.108783 0.267119 0.401771
Si Si5 0.625599 0.873540 0.309931
Si Si6 0.123704 0.969865 0.445370
Si Si7 0.547225 0.631977 0.274698
Si Si8 0.919853 0.485348 0.089138
O O1 0.471662 0.693026 0.822349
O O2 0.549651 0.619124 0.469418
O O3 0.500010 0.886302 0.726275
O O4 0.284605 0.875076 0.574718
O O5 0.672331 0.389913 0.182699
O O6 0.857247 0.989878 0.123154
O O7 0.609607 0.248579 0.882032
O O8 0.163451 0.820156 0.270508
O O9 0.139085 0.610937 0.027815
O O10 0.000000 0.000000 0.000000
O O11 0.294676 0.122998 0.494655
O O12 0.043352 0.186021 0.411314
O O13 0.000000 0.500000 0.500000
O O14 0.074717 0.298735 0.211521
O O15 0.774214 0.710850 0.192412
O O16 0.413429 0.245665 0.702826
O O17 0.000000 0.000000 0.500000
O O18 0.000000 0.500000 0.000000
#
# Coordination Sequence:
#
# PCOD9041532 Si02
#       8
#     2   2   2   2   2   2   2   2
#     4  11  23  45  67  96 130 169 220 269 323 391
#     4  11  25  43  66  93 134 166 223 278 307 388
#     4  12  22  39  66  94 128 171 208 269 337 383
#     4   9  21  38  59  89 129 161 200 261 318 379
#     4  10  23  44  64  91 132 168 214 264 322 394
#     4  11  22  38  65  96 125 163 210 266 334 388
#     4  11  25  45  66  92 129 179 220 266 322 376
#     4  11  23  40  62  97 132 163 212 268 331 392
#
# _framework density 25.231759
#
# number of rings (size 3 to 8) (size 9 to 14) (size 15 to 20)
#    0.000    1.250    2.500    3.000    7.000    1.500 
#    2.250    0.000    0.000    0.000    0.000    0.000 
#    0.000    0.000    0.000    0.000    0.000    0.000 
#
# Total GULP energy -89264.352617 kJ/mol
# GULP energy per Si atom -5579.022039 kJ/mol
# Density = 2.517433 g / cm^3
# Si number density = 25.231759 Si / 1000 Ang^3
#
#
#
# Elastic Constant Matrix: (Units=GPa)
#
#
# Indices 1 2 3 4 5 6 
#
# 1 126.3187 21.0340 52.9160 -0.6007 -11.1330 40.5016
# 2 21.0340 52.4375 16.5872 14.4805 2.1835 19.7045
# 3 52.9160 16.5872 109.9501 13.2141 -8.7732 20.8800
# 4 -0.6007 14.4805 13.2141 34.0329 9.2526 1.8415
# 5 -11.1330 2.1835 -8.7732 9.2526 45.5940 5.0243
# 6 40.5016 19.7045 20.8800 1.8415 5.0243 50.8188
#
#
#
# Elastic Compliance Matrix: (Units=1/GPa)
#
#
# Indices 1 2 3 4 5 6 
#
# 1 0.012949 -0.001395 -0.004491 0.002247 0.002822 -0.008294
# 2 -0.001395 0.025869 -0.000159 -0.010927 0.001556 -0.008611
# 3 -0.004491 -0.000159 0.012432 -0.005457 0.002578 -0.001524
# 4 0.002247 -0.010927 -0.005457 0.038193 -0.008182 0.004113
# 5 0.002822 0.001556 0.002578 -0.008182 0.025379 -0.006125
# 6 -0.008294 -0.008611 -0.001524 0.004113 -0.006125 0.030710
#
#
# Mechanical properties :
#
#
# Convention : Reuss Voigt Hill
#
# Bulk Modulus (GPa) = 25.53639 52.19787 38.86713
# Shear Modulus (GPa) = 29.29567 39.30040 34.29803
#
# Velocity S-wave (km/s) = 3.41113 3.95090 3.69090
# Velocity P-wave (km/s) = 5.06529 6.44555 5.79665
#
# Compressibility (1/GPa) = 0.03915980
#
# Stress axis : x y z
#
# Youngs Moduli (GPa) = 77.22536 38.65696 80.44079
#
# Poissons Ratio (x) = 0.05392 0.36129
# Poissons Ratio (y) = 0.10772 0.01275
# Poissons Ratio (z) = 0.34685 0.00613
#
# Static dielectric constant tensor:
#      x y z
#    x 2.022950 -0.014430 -0.043460 
#    y -0.014430 2.050830 -0.060200 
#    z -0.043460 -0.060200 2.086220 
# 
# From -- ./inp_files/331284.got.cif
#   From: 2010.05.17/outbox.cif.g08.bks.cpg/sg2_166_cif.got.tgz:331284.got - 2010.06.03 11:33:40.
