data_PCOD9041875
_publ_section_title
;
Structure prediction by ZEFSAII (Michael W. Deem and Ramdas Pophale) SiO2 
 PCOD9041875
Probable space group: P -1
;
_chemical_formula_sum "Si O2"
_cell_formula_units_Z 16
_cell_length_a 30.184902
_cell_length_b 9.395389
_cell_length_c 15.150726
_cell_angle_alpha 47.395903
_cell_angle_beta 19.274185
_cell_angle_gamma 37.058907
_cell_volume 789.241544
_symmetry_space_group_name_H-M "P -1"
_symmetry_group_IT_number 2
_symmetry_cell_setting 'triclinic'
loop_
_space_group_symop_operation_xyz
x,y,z
-x,-y,-z
loop_
_atom_site_type_symbol
_atom_site_label
_atom_site_fract_x
_atom_site_fract_y
_atom_site_fract_z
Si Si1 0.625875 0.113906 0.234894
Si Si2 0.808126 0.176594 0.588841
Si Si3 0.692585 0.586100 0.160434
Si Si4 0.889133 0.536997 0.960487
Si Si5 0.877200 0.307260 0.579397
Si Si6 0.870508 0.455453 0.222401
Si Si7 0.812346 0.279570 0.892889
Si Si8 0.450974 0.858362 0.834551
O O1 0.462263 0.316368 0.520317
O O2 0.587797 0.193117 0.169903
O O3 0.699788 0.826025 0.213659
O O4 0.778579 0.089510 0.009147
O O5 0.785659 0.341678 0.645390
O O6 0.870163 0.251979 0.359804
O O7 0.635620 0.203681 0.904725
O O8 0.979828 0.882617 0.411126
O O9 0.865687 0.431539 0.961898
O O10 0.651748 0.841631 0.096863
O O11 0.708712 0.436502 0.108728
O O12 0.926099 0.390991 0.042307
O O13 0.017168 0.594527 0.673997
O O14 0.761686 0.434883 0.832033
O O15 0.000000 0.000000 0.500000
O O16 0.659303 0.702721 0.520985
O O17 0.000000 0.500000 0.000000
#
# Coordination Sequence:
#
# PCOD9041875 Si02
#       8
#     2   2   2   2   2   2   2   2
#     4  11  17  36  60  86 119 150 197 244 287 348
#     4  11  22  37  61  88 117 156 201 237 281 356
#     4  11  22  34  60  92 123 145 190 252 297 349
#     4  11  19  36  60  87 112 153 199 238 290 340
#     4  10  17  33  58  82 112 147 195 237 281 339
#     4  12  22  38  62  87 117 156 204 239 282 348
#     4  11  21  36  60  91 119 156 186 241 308 342
#     4  11  22  38  63  89 115 153 198 249 289 335
#
# _framework density 20.272628000000001
#
# number of rings (size 3 to 8) (size 9 to 14) (size 15 to 20)
#    0.000    1.000    7.500    3.750    0.000    2.000 
#    0.000    0.625    0.000    0.750    0.000    0.000 
#    0.000    0.000    0.000    0.000    0.000    0.000 
#
# Total GULP energy -89105.483664 kJ/mol
# GULP energy per Si atom -5569.092729 kJ/mol
# Density = 2.022649 g / cm^3
# Si number density = 20.272628 Si / 1000 Ang^3
#
#
#
# Elastic Constant Matrix: (Units=GPa)
#
#
# Indices 1 2 3 4 5 6 
#
# 1 90.6216 25.6217 12.9768 -3.5423 10.6142 11.4170
# 2 25.6217 25.4634 4.8360 -13.0232 9.1630 -3.1743
# 3 12.9768 4.8360 66.1943 -16.9535 -3.3962 5.1648
# 4 -3.5423 -13.0232 -16.9535 27.5788 -0.7766 10.2183
# 5 10.6142 9.1630 -3.3962 -0.7766 37.8064 -0.1364
# 6 11.4170 -3.1743 5.1648 10.2183 -0.1364 30.7215
#
#
#
# Elastic Compliance Matrix: (Units=1/GPa)
#
#
# Indices 1 2 3 4 5 6 
#
# 1 0.018453 -0.022931 -0.003709 -0.008616 -0.000154 -0.005738
# 2 -0.022931 0.087331 0.008053 0.042084 -0.013133 0.002136
# 3 -0.003709 0.008053 0.020750 0.018922 0.001315 -0.007566
# 4 -0.008616 0.042084 0.018922 0.074040 -0.004633 -0.020278
# 5 -0.000154 -0.013133 0.001315 -0.004633 0.029700 0.000152
# 6 -0.005738 0.002136 -0.007566 -0.020278 0.000152 0.042921
#
#
# Mechanical properties :
#
#
# Convention : Reuss Voigt Hill
#
# Bulk Modulus (GPa) = 11.19056 29.90538 20.54797
# Shear Modulus (GPa) = 14.69907 28.47766 21.58837
#
# Velocity S-wave (km/s) = 2.69563 3.75204 3.26682
# Velocity P-wave (km/s) = 3.90136 5.79259 4.93835
#
# Compressibility (1/GPa) = 0.08936107
#
# Stress axis : x y z
#
# Youngs Moduli (GPa) = 54.19029 11.45062 48.19278
#
# Poissons Ratio (x) = 0.26257 0.17877
# Poissons Ratio (y) = 1.24261 -0.38810
# Poissons Ratio (z) = 0.20101 -0.09221
#
# Static dielectric constant tensor:
#      x y z
#    x 1.783640 -0.039250 -0.012070 
#    y -0.039250 1.718990 -0.021080 
#    z -0.012070 -0.021080 1.845630 
# 
# From -- ./inp_files/389164.got.cif
#   From: 2010.05.17/outbox.cif.g08.bks.cpg/sg2_195_cif.got.tgz:389164.got - 2010.06.03 11:33:40.
