data_PCOD9041275
_publ_section_title
;
Structure prediction by ZEFSAII (Michael W. Deem and Ramdas Pophale) SiO2 
 PCOD9041275
Probable space group: P -1
;
_chemical_formula_sum "Si O2"
_cell_formula_units_Z 16
_cell_length_a 5.229079
_cell_length_b 8.100589
_cell_length_c 26.426709
_cell_angle_alpha 47.994843
_cell_angle_beta 66.759479
_cell_angle_gamma 92.084160
_cell_volume 686.350429
_symmetry_space_group_name_H-M "P -1"
_symmetry_group_IT_number 2
_symmetry_cell_setting 'triclinic'
loop_
_space_group_symop_operation_xyz
x,y,z
-x,-y,-z
loop_
_atom_site_type_symbol
_atom_site_label
_atom_site_fract_x
_atom_site_fract_y
_atom_site_fract_z
Si Si1 0.010815 0.439875 0.182308
Si Si2 0.337084 0.012400 0.327823
Si Si3 0.227652 0.873620 0.005929
Si Si4 0.659542 0.188071 0.827208
Si Si5 0.542070 0.400120 0.570861
Si Si6 0.110334 0.979873 0.250941
Si Si7 0.525058 0.248199 0.421026
Si Si8 0.792129 0.650642 0.671505
O O1 0.665692 0.244584 0.263377
O O2 0.039071 0.595337 0.097374
O O3 0.151342 0.630591 0.178595
O O4 0.176186 0.264653 0.193080
O O5 0.330879 0.946914 0.282639
O O6 0.113408 0.135482 0.336766
O O7 0.266506 0.760800 0.414162
O O8 0.500000 0.000000 0.000000
O O9 0.390478 0.948768 0.923351
O O10 0.000000 0.000000 0.000000
O O11 0.561149 0.375286 0.765199
O O12 0.839276 0.092710 0.793925
O O13 0.500000 0.500000 0.500000
O O14 0.627864 0.624996 0.556138
O O15 0.223748 0.196862 0.663044
O O16 0.353397 0.248761 0.381991
O O17 0.899248 0.382745 0.358679
O O18 0.500000 0.000000 0.500000
#
# Coordination Sequence:
#
# PCOD9041275 Si02
#       8
#     2   2   2   2   2   2   2   2
#     4  10  23  45  70 101 146 185 239 292 361 430
#     4  11  24  43  71  98 142 189 236 297 365 424
#     4  10  23  43  72 108 141 188 236 292 360 428
#     4  11  22  45  73 102 144 189 237 296 360 428
#     4  11  26  44  66  97 143 185 237 304 363 426
#     4  11  24  44  68 104 135 188 243 291 362 428
#     4  12  27  46  69 104 134 183 246 293 360 432
#     4  12  24  44  73  98 138 186 236 291 358 427
#
# _framework density 23.311705
#
# number of rings (size 3 to 8) (size 9 to 14) (size 15 to 20)
#    0.000    1.000    2.500    3.375    5.250    2.000 
#    9.000    0.625    0.000    0.000    0.000    0.000 
#    0.000    0.000    0.000    0.000    0.000    0.000 
#
# Total GULP energy -89352.952346 kJ/mol
# GULP energy per Si atom -5584.559522 kJ/mol
# Density = 2.325865 g / cm^3
# Si number density = 23.311705 Si / 1000 Ang^3
#
#
#
# Elastic Constant Matrix: (Units=GPa)
#
#
# Indices 1 2 3 4 5 6 
#
# 1 81.1485 13.2967 26.3296 1.3412 17.3417 -7.3492
# 2 13.2967 125.8966 49.5158 8.1414 9.3176 -10.2284
# 3 26.3296 49.5158 147.7696 8.4566 31.6822 -8.2474
# 4 1.3412 8.1414 8.4566 34.2453 -7.1611 2.6801
# 5 17.3417 9.3176 31.6822 -7.1611 34.8639 -3.6454
# 6 -7.3492 -10.2284 -8.2474 2.6801 -3.6454 29.9444
#
#
#
# Elastic Compliance Matrix: (Units=1/GPa)
#
#
# Indices 1 2 3 4 5 6 
#
# 1 0.014268 -0.000400 -0.000799 -0.001796 -0.006369 0.002531
# 2 -0.000400 0.009419 -0.002903 -0.001652 0.000241 0.002497
# 3 -0.000799 -0.002903 0.009963 -0.003589 -0.008530 0.000839
# 4 -0.001796 -0.001652 -0.003589 0.033139 0.011025 -0.003617
# 5 -0.006369 0.000241 -0.008530 0.011025 0.041831 0.000276
# 6 0.002531 0.002497 0.000839 -0.003617 0.000276 0.035458
#
#
# Mechanical properties :
#
#
# Convention : Reuss Voigt Hill
#
# Bulk Modulus (GPa) = 39.29666 59.23319 49.26493
# Shear Modulus (GPa) = 31.10179 37.52224 34.31201
#
# Velocity S-wave (km/s) = 3.65659 4.01632 3.84067
# Velocity P-wave (km/s) = 5.89247 6.85362 6.39114
#
# Compressibility (1/GPa) = 0.02544746
#
# Stress axis : x y z
#
# Youngs Moduli (GPa) = 70.08886 106.17172 100.36697
#
# Poissons Ratio (x) = 0.04243 0.08018
# Poissons Ratio (y) = 0.02801 0.29134
# Poissons Ratio (z) = 0.05599 0.30819
#
# Static dielectric constant tensor:
#      x y z
#    x 2.003980 0.011030 -0.016790 
#    y 0.011030 1.959510 0.032640 
#    z -0.016790 0.032640 1.955990 
# 
# From -- ./inp_files/621735.got.cif
#   From: 2010.05.17/outbox.cif.g08.bks.cpg/sg2_311_cif.got.tgz:621735.got - 2010.06.03 11:33:40.
