data_PCOD9041460
_publ_section_title
;
Structure prediction by ZEFSAII (Michael W. Deem and Ramdas Pophale) SiO2 
 PCOD9041460
Probable space group: P -1
;
_chemical_formula_sum "Si O2"
_cell_formula_units_Z 16
_cell_length_a 15.300678
_cell_length_b 8.926009
_cell_length_c 7.175294
_cell_angle_alpha 108.504881
_cell_angle_beta 133.521969
_cell_angle_gamma 88.519463
_cell_volume 646.830613
_symmetry_space_group_name_H-M "P -1"
_symmetry_group_IT_number 2
_symmetry_cell_setting 'triclinic'
loop_
_space_group_symop_operation_xyz
x,y,z
-x,-y,-z
loop_
_atom_site_type_symbol
_atom_site_label
_atom_site_fract_x
_atom_site_fract_y
_atom_site_fract_z
Si Si1 0.103771 0.294342 0.793267
Si Si2 0.768021 0.968227 0.980023
Si Si3 0.870302 0.602360 0.558998
Si Si4 0.651402 0.729565 0.414778
Si Si5 0.680919 0.428363 0.768457
Si Si6 0.812833 0.231882 0.435041
Si Si7 0.150768 0.775460 0.091985
Si Si8 0.519808 0.618005 0.830724
O O1 0.112571 0.364496 0.624153
O O2 0.959977 0.247658 0.620665
O O3 0.159252 0.141591 0.845425
O O4 0.200591 0.442238 0.107744
O O5 0.659263 0.850819 0.647165
O O6 0.857512 0.077154 0.995438
O O7 0.734823 0.088295 0.129726
O O8 0.790136 0.720546 0.561755
O O9 0.802829 0.412927 0.437757
O O10 0.012375 0.653156 0.862621
O O11 0.575531 0.545927 0.290377
O O12 0.580398 0.750620 0.128415
O O13 0.750200 0.301493 0.898572
O O14 0.626486 0.545234 0.867559
O O15 0.564231 0.335025 0.433277
O O16 0.792620 0.186280 0.604135
#
# Coordination Sequence:
#
# PCOD9041460 Si02
#       8
#     2   2   2   2   2   2   2   2
#     4  12  23  42  71 105 150 189 227 291 358 433
#     4  12  28  45  66 109 154 190 229 293 366 431
#     4  12  24  44  78 108 145 185 244 291 357 435
#     4  11  24  44  72 105 137 191 244 293 351 422
#     4  11  22  46  73 104 131 188 251 295 344 420
#     4  12  26  44  70 108 153 186 230 295 364 432
#     4  12  27  45  74 108 150 189 232 293 371 429
#     4  10  23  43  76  97 136 186 260 292 336 415
#
# _framework density 24.735999
#
# number of rings (size 3 to 8) (size 9 to 14) (size 15 to 20)
#    0.000    0.500    5.000    3.375    1.750    1.000 
#    0.000    1.250    0.000    0.000    0.000    0.000 
#    0.000    0.000    0.000    0.000    0.000    0.000 
#
# Total GULP energy -89503.645996 kJ/mol
# GULP energy per Si atom -5593.977875 kJ/mol
# Density = 2.467970 g / cm^3
# Si number density = 24.735999 Si / 1000 Ang^3
#
#
#
# Elastic Constant Matrix: (Units=GPa)
#
#
# Indices 1 2 3 4 5 6 
#
# 1 70.6696 8.8804 37.6471 -0.8798 -11.4121 -0.4698
# 2 8.8804 88.0630 28.6968 4.7059 -19.9332 0.9947
# 3 37.6471 28.6968 152.1073 15.5630 -27.3263 -22.3723
# 4 -0.8798 4.7059 15.5630 19.8485 -7.4645 -10.8578
# 5 -11.4121 -19.9332 -27.3263 -7.4645 54.9856 -10.1490
# 6 -0.4698 0.9947 -22.3723 -10.8578 -10.1490 23.8096
#
#
#
# Elastic Compliance Matrix: (Units=1/GPa)
#
#
# Indices 1 2 3 4 5 6 
#
# 1 0.016849 -0.000090 -0.004497 0.004140 0.001543 -0.001344
# 2 -0.000090 0.012798 -0.001906 -0.001110 0.003256 -0.001446
# 3 -0.004497 -0.001906 0.011174 0.001831 0.006803 0.014226
# 4 0.004140 -0.001110 0.001831 0.085164 0.022183 0.050141
# 5 0.001543 0.003256 0.006803 0.022183 0.031593 0.029870
# 6 -0.001344 -0.001446 0.014226 0.050141 0.029870 0.090999
#
#
# Mechanical properties :
#
#
# Convention : Reuss Voigt Hill
#
# Bulk Modulus (GPa) = 35.92730 51.25426 43.59078
# Shear Modulus (GPa) = 18.46088 35.43644 26.94866
#
# Velocity S-wave (km/s) = 2.73484 3.78906 3.30426
# Velocity P-wave (km/s) = 4.95261 6.31729 5.67611
#
# Compressibility (1/GPa) = 0.02783399
#
# Stress axis : x y z
#
# Youngs Moduli (GPa) = 59.34977 78.13422 89.49185
#
# Poissons Ratio (x) = 0.00706 0.40246
# Poissons Ratio (y) = 0.00536 0.17061
# Poissons Ratio (z) = 0.26691 0.14896
#
# Static dielectric constant tensor:
#      x y z
#    x 2.001610 0.016530 -0.065010 
#    y 0.016530 1.988980 0.009960 
#    z -0.065010 0.009960 2.050890 
# 
# From -- ./inp_files/329349.got.cif
#   From: 2010.05.17/outbox.cif.g08.bks.cpg/sg2_165_cif.got.tgz:329349.got - 2010.06.03 11:33:40.
