data_PCOD9041783
_publ_section_title
;
Structure prediction by ZEFSAII (Michael W. Deem and Ramdas Pophale) SiO2 
 PCOD9041783
Probable space group: P -1
;
_chemical_formula_sum "Si O2"
_cell_formula_units_Z 14
_cell_length_a 12.532694
_cell_length_b 8.634737
_cell_length_c 10.438225
_cell_angle_alpha 64.473457
_cell_angle_beta 145.386288
_cell_angle_gamma 103.223680
_cell_volume 561.280585
_symmetry_space_group_name_H-M "P -1"
_symmetry_group_IT_number 2
_symmetry_cell_setting 'triclinic'
loop_
_space_group_symop_operation_xyz
x,y,z
-x,-y,-z
loop_
_atom_site_type_symbol
_atom_site_label
_atom_site_fract_x
_atom_site_fract_y
_atom_site_fract_z
Si Si1 0.551339 0.785120 0.544025
Si Si2 0.796134 0.447729 0.839692
Si Si3 0.933029 0.146575 0.569312
Si Si4 0.569359 0.335476 0.260923
Si Si5 0.332030 0.719299 0.972953
Si Si6 0.615470 0.956322 0.931882
Si Si7 0.958602 0.869029 0.903122
O O1 0.618974 0.613226 0.580337
O O2 0.467488 0.741615 0.609962
O O3 0.429612 0.942935 0.284055
O O4 0.765610 0.813842 0.772274
O O5 0.761834 0.370568 0.971625
O O6 0.000000 0.500000 0.000000
O O7 0.842414 0.280878 0.853727
O O8 0.796406 0.300793 0.465179
O O9 0.839874 0.179878 0.325857
O O10 0.917913 0.965421 0.690306
O O11 0.158762 0.137685 0.796249
O O12 0.494778 0.201895 0.135141
O O13 0.463113 0.543771 0.093509
O O14 0.425192 0.876143 0.066917
O O15 0.000000 0.000000 0.000000
#
# Coordination Sequence:
#
# PCOD9041783 Si02
#       7
#     2   2   2   2   2   2   2
#     4  10  23  44  67 104 143 179 240 297 350 428
#     4   9  21  43  71 102 141 179 236 296 353 414
#     4  12  26  44  73 105 147 190 243 293 356 434
#     4  11  26  48  71 106 149 183 247 301 350 425
#     4  11  26  48  71 105 147 191 244 291 358 437
#     4  12  25  45  75 103 145 195 232 298 364 415
#     4  11  22  40  73 107 136 184 239 293 357 417
#
# _framework density 24.942961
#
# number of rings (size 3 to 8) (size 9 to 14) (size 15 to 20)
#    0.000    1.143    2.857    2.143    2.000    4.571 
#    0.000    4.286    0.000    0.000    0.000    0.000 
#    0.000    0.000    0.000    0.000    0.000    0.000 
#
# Total GULP energy -78244.379155 kJ/mol
# GULP energy per Si atom -5588.884225 kJ/mol
# Density = 2.488619 g / cm^3
# Si number density = 24.942961 Si / 1000 Ang^3
#
#
#
# Elastic Constant Matrix: (Units=GPa)
#
#
# Indices 1 2 3 4 5 6 
#
# 1 51.4335 47.4599 29.6917 -1.3283 -11.5819 2.2432
# 2 47.4599 179.5482 62.9600 -16.3908 11.1944 -27.1665
# 3 29.6917 62.9600 132.3805 -16.3965 -8.5550 -11.1479
# 4 -1.3283 -16.3908 -16.3965 36.0455 3.8652 12.2275
# 5 -11.5819 11.1944 -8.5550 3.8652 39.4980 -16.2396
# 6 2.2432 -27.1665 -11.1479 12.2275 -16.2396 57.3994
#
#
#
# Elastic Compliance Matrix: (Units=1/GPa)
#
#
# Indices 1 2 3 4 5 6 
#
# 1 0.031552 -0.008670 -0.002995 -0.004653 0.010739 -0.001889
# 2 -0.008670 0.009642 -0.002432 0.002679 -0.005067 0.002426
# 3 -0.002995 -0.002432 0.009934 0.002783 0.002054 0.000884
# 4 -0.004653 0.002679 0.002783 0.033377 -0.007799 -0.007327
# 5 0.010739 -0.005067 0.002054 -0.007799 0.034854 0.009104
# 6 -0.001889 0.002426 0.000884 -0.007327 0.009104 0.022952
#
#
# Mechanical properties :
#
#
# Convention : Reuss Voigt Hill
#
# Bulk Modulus (GPa) = 43.60366 71.50948 57.55657
# Shear Modulus (GPa) = 28.06636 41.47193 34.76914
#
# Velocity S-wave (km/s) = 3.35807 4.08201 3.73761
# Velocity P-wave (km/s) = 5.70568 7.13782 6.46155
#
# Compressibility (1/GPa) = 0.02293385
#
# Stress axis : x y z
#
# Youngs Moduli (GPa) = 31.69357 103.71650 100.66194
#
# Poissons Ratio (x) = 0.89924 0.30145
# Poissons Ratio (y) = 0.27479 0.24484
# Poissons Ratio (z) = 0.09491 0.25227
#
# Static dielectric constant tensor:
#      x y z
#    x 2.019540 -0.017560 0.002350 
#    y -0.017560 2.161400 0.008410 
#    z 0.002350 0.008410 1.963570 
# 
# From -- ./inp_files/447249.got.cif
#   From: 2010.05.17/outbox.cif.g08.bks.cpg/sg2_224_cif.got.tgz:447249.got - 2010.06.03 11:33:40.
