data_PCOD9041079
_publ_section_title
;
Structure prediction by ZEFSAII (Michael W. Deem and Ramdas Pophale) SiO2 
 PCOD9041079
Probable space group: P -1
;
_chemical_formula_sum "Si O2"
_cell_formula_units_Z 16
_cell_length_a 8.674196
_cell_length_b 7.065708
_cell_length_c 14.020770
_cell_angle_alpha 128.560425
_cell_angle_beta 105.474180
_cell_angle_gamma 83.672197
_cell_volume 645.795168
_symmetry_space_group_name_H-M "P -1"
_symmetry_group_IT_number 2
_symmetry_cell_setting 'triclinic'
loop_
_space_group_symop_operation_xyz
x,y,z
-x,-y,-z
loop_
_atom_site_type_symbol
_atom_site_label
_atom_site_fract_x
_atom_site_fract_y
_atom_site_fract_z
Si Si1 0.386567 0.173557 0.959473
Si Si2 0.776122 0.418347 0.375179
Si Si3 0.878968 0.172093 0.123448
Si Si4 0.938642 0.236075 0.512088
Si Si5 0.210108 0.350104 0.261044
Si Si6 0.161371 0.551902 0.984106
Si Si7 0.582621 0.038885 0.771176
Si Si8 0.488771 0.558620 0.245178
O O1 0.262252 0.319657 0.926323
O O2 0.479322 0.029956 0.849814
O O3 0.270005 0.028692 0.970513
O O4 0.498221 0.632462 0.900856
O O5 0.843207 0.268985 0.252352
O O6 0.792496 0.242218 0.413266
O O7 0.615007 0.516430 0.336522
O O8 0.903116 0.650776 0.482167
O O9 0.868460 0.368769 0.102221
O O10 0.069827 0.140357 0.143950
O O11 0.879998 0.432799 0.638850
O O12 0.000000 0.000000 0.500000
O O13 0.314445 0.478502 0.234405
O O14 0.335072 0.213829 0.305139
O O15 0.274168 0.757509 0.119161
O O16 0.000000 0.500000 0.000000
O O17 0.498010 0.169647 0.710715
#
# Coordination Sequence:
#
# PCOD9041079 Si02
#       8
#     2   2   2   2   2   2   2   2
#     4  11  23  39  64  97 140 186 222 261 318 390
#     4  10  23  43  70  98 125 168 223 277 339 400
#     4  11  22  39  64  95 134 178 228 270 314 387
#     4  10  25  49  71  93 123 165 224 289 349 406
#     4  11  25  41  65  97 131 172 223 280 340 394
#     4  11  22  37  60  94 137 184 226 264 315 383
#     4  11  23  39  60  95 140 178 220 270 322 392
#     4  11  23  41  65 100 140 177 217 265 326 398
#
# _framework density 24.775659999999998
#
# number of rings (size 3 to 8) (size 9 to 14) (size 15 to 20)
#    0.000    1.250    0.000    6.750    0.000   10.500 
#    0.000    1.250    0.000    0.000    0.000    0.000 
#    0.000    0.000    0.000    0.000    0.000    0.000 
#
# Total GULP energy -89389.425795 kJ/mol
# GULP energy per Si atom -5586.839112 kJ/mol
# Density = 2.471927 g / cm^3
# Si number density = 24.775660 Si / 1000 Ang^3
#
#
#
# Elastic Constant Matrix: (Units=GPa)
#
#
# Indices 1 2 3 4 5 6 
#
# 1 142.8081 67.8327 18.6443 -7.4420 -3.3252 4.5602
# 2 67.8327 218.4075 39.1657 -23.2481 0.4733 -27.9118
# 3 18.6443 39.1657 52.1657 -15.6094 2.6135 -11.7836
# 4 -7.4420 -23.2481 -15.6094 38.7293 -12.4314 1.9453
# 5 -3.3252 0.4733 2.6135 -12.4314 30.8720 -2.9556
# 6 4.5602 -27.9118 -11.7836 1.9453 -2.9556 58.2961
#
#
#
# Elastic Compliance Matrix: (Units=1/GPa)
#
#
# Indices 1 2 3 4 5 6 
#
# 1 0.008569 -0.002678 -0.001680 -0.000275 0.000781 -0.002243
# 2 -0.002678 0.006499 -0.002584 0.002568 0.001130 0.002770
# 3 -0.001680 -0.002584 0.025028 0.008515 0.001527 0.003746
# 4 -0.000275 0.002568 0.008515 0.034957 0.013525 0.002492
# 5 0.000781 0.001130 0.001527 0.013525 0.037992 0.002264
# 6 -0.002243 0.002770 0.003746 0.002492 0.002264 0.019445
#
#
# Mechanical properties :
#
#
# Convention : Reuss Voigt Hill
#
# Bulk Modulus (GPa) = 38.15153 73.85186 56.00169
# Shear Modulus (GPa) = 32.23471 44.76205 38.49838
#
# Velocity S-wave (km/s) = 3.61094 4.25513 3.94620
# Velocity P-wave (km/s) = 5.72865 7.34946 6.58908
#
# Compressibility (1/GPa) = 0.02621127
#
# Stress axis : x y z
#
# Youngs Moduli (GPa) = 116.69759 153.87825 39.95469
#
# Poissons Ratio (x) = 0.41204 0.06714
# Poissons Ratio (y) = 0.31248 0.10326
# Poissons Ratio (z) = 0.19609 0.39769
#
# Static dielectric constant tensor:
#      x y z
#    x 2.021410 -0.003630 0.066260 
#    y -0.003630 2.027720 0.012300 
#    z 0.066260 0.012300 2.003650 
# 
# From -- ./inp_files/488685.got.cif
#   From: 2010.05.17/outbox.cif.g08.bks.cpg/sg2_245_cif.got.tgz:488685.got - 2010.06.03 11:33:40.
