data_PCOD9041537
_publ_section_title
;
Structure prediction by ZEFSAII (Michael W. Deem and Ramdas Pophale) SiO2 
 PCOD9041537
Probable space group: P -1
;
_chemical_formula_sum "Si O2"
_cell_formula_units_Z 14
_cell_length_a 27.781094
_cell_length_b 8.024103
_cell_length_c 27.222295
_cell_angle_alpha 31.073693
_cell_angle_beta 10.427294
_cell_angle_gamma 29.601695
_cell_volume 542.457909
_symmetry_space_group_name_H-M "P -1"
_symmetry_group_IT_number 2
_symmetry_cell_setting 'triclinic'
loop_
_space_group_symop_operation_xyz
x,y,z
-x,-y,-z
loop_
_atom_site_type_symbol
_atom_site_label
_atom_site_fract_x
_atom_site_fract_y
_atom_site_fract_z
Si Si1 0.093312 0.674917 0.409380
Si Si2 0.890437 0.000473 0.409485
Si Si3 0.711057 0.657826 0.028423
Si Si4 0.053688 0.252440 0.081041
Si Si5 0.327986 0.986412 0.726357
Si Si6 0.511845 0.047525 0.917807
Si Si7 0.599353 0.114669 0.515092
O O1 0.000000 0.500000 0.500000
O O2 0.836456 0.998877 0.595837
O O3 0.075381 0.388943 0.538682
O O4 0.386700 0.749402 0.098672
O O5 0.583448 0.144787 0.702010
O O6 0.955164 0.171219 0.252701
O O7 0.090642 0.107220 0.220487
O O8 0.801956 0.320379 0.056132
O O9 0.653431 0.651253 0.029029
O O10 0.907522 0.061103 0.237660
O O11 0.910574 0.657233 0.116732
O O12 0.381405 0.123601 0.775341
O O13 0.500000 0.000000 0.500000
O O14 0.543640 0.921073 0.572301
O O15 0.500000 0.000000 0.000000
O O16 0.500000 0.500000 0.500000
#
# Coordination Sequence:
#
# PCOD9041537 Si02
#       7
#     2   2   2   2   2   2   2
#     4  12  23  46  73  98 134 184 228 280 348 409
#     4  12  25  41  73 101 132 180 235 276 333 418
#     4  12  25  43  66 104 139 173 231 286 338 407
#     4  11  24  45  65  98 135 179 226 277 332 406
#     4  11  24  43  69  99 136 185 220 278 341 399
#     4  12  26  46  72 107 142 175 226 297 353 406
#     4  10  23  44  64  92 133 178 225 276 329 394
#
# _framework density 25.808454000000001
#
# number of rings (size 3 to 8) (size 9 to 14) (size 15 to 20)
#    0.000    0.571    4.286    4.286    2.000    6.286 
#    0.000    0.000    0.000    0.000    0.000    0.000 
#    0.000    0.000    0.000    0.000    0.000    0.000 
#
# Total GULP energy -78262.275189 kJ/mol
# GULP energy per Si atom -5590.162514 kJ/mol
# Density = 2.574971 g / cm^3
# Si number density = 25.808454 Si / 1000 Ang^3
#
#
#
# Elastic Constant Matrix: (Units=GPa)
#
#
# Indices 1 2 3 4 5 6 
#
# 1 123.5358 8.3450 13.5186 -5.0825 24.4259 -11.9953
# 2 8.3450 87.8877 26.9174 -12.7292 2.8057 -17.7926
# 3 13.5186 26.9174 130.9098 -4.6151 22.7701 0.4835
# 4 -5.0825 -12.7292 -4.6151 39.2942 0.1345 5.5223
# 5 24.4259 2.8057 22.7701 0.1345 39.2642 -7.5079
# 6 -11.9953 -17.7926 0.4835 5.5223 -7.5079 32.4880
#
#
#
# Elastic Compliance Matrix: (Units=1/GPa)
#
#
# Indices 1 2 3 4 5 6 
#
# 1 0.009417 -0.000213 0.000054 0.000903 -0.005508 0.001933
# 2 -0.000213 0.014376 -0.003290 0.003125 0.002511 0.007893
# 3 0.000054 -0.003290 0.009363 0.000535 -0.005874 -0.003370
# 4 0.000903 0.003125 0.000535 0.027064 -0.001755 -0.002969
# 5 -0.005508 0.002511 -0.005874 -0.001755 0.033559 0.007483
# 6 0.001933 0.007893 -0.003370 -0.002969 0.007483 0.038101
#
#
# Mechanical properties :
#
#
# Convention : Reuss Voigt Hill
#
# Bulk Modulus (GPa) = 38.08206 48.87724 43.47965
# Shear Modulus (GPa) = 33.89114 41.77941 37.83527
#
# Velocity S-wave (km/s) = 3.62771 4.02783 3.83300
# Velocity P-wave (km/s) = 5.68637 6.37266 6.03927
#
# Compressibility (1/GPa) = 0.02625908
#
# Stress axis : x y z
#
# Youngs Moduli (GPa) = 106.18876 69.55865 106.80588
#
# Poissons Ratio (x) = 0.01480 -0.00576
# Poissons Ratio (y) = 0.02259 0.35138
# Poissons Ratio (z) = -0.00573 0.22884
#
# Static dielectric constant tensor:
#      x y z
#    x 2.158620 -0.035600 -0.057280 
#    y -0.035600 2.163800 -0.022550 
#    z -0.057280 -0.022550 1.978470 
# 
# From -- ./inp_files/624347.got.cif
#   From: 2010.05.17/outbox.cif.g08.bks.cpg/sg2_313_cif.got.tgz:624347.got - 2010.06.03 11:33:40.
