data_PCOD9041956
_publ_section_title
;
Structure prediction by ZEFSAII (Michael W. Deem and Ramdas Pophale) SiO2 
 PCOD9041956
Probable space group: P -1
;
_chemical_formula_sum "Si O2"
_cell_formula_units_Z 14
_cell_length_a 6.628998
_cell_length_b 7.618490
_cell_length_c 15.889646
_cell_angle_alpha 53.794160
_cell_angle_beta 115.495367
_cell_angle_gamma 108.970648
_cell_volume 581.691006
_symmetry_space_group_name_H-M "P -1"
_symmetry_group_IT_number 2
_symmetry_cell_setting 'triclinic'
loop_
_space_group_symop_operation_xyz
x,y,z
-x,-y,-z
loop_
_atom_site_type_symbol
_atom_site_label
_atom_site_fract_x
_atom_site_fract_y
_atom_site_fract_z
Si Si1 0.161988 0.343812 0.460688
Si Si2 0.184710 0.656289 0.736899
Si Si3 0.345027 0.205600 0.825355
Si Si4 0.966554 0.190657 0.631327
Si Si5 0.494893 0.978586 0.403862
Si Si6 0.814884 0.210805 0.971904
Si Si7 0.235089 0.495239 0.964136
O O1 0.127460 0.580412 0.424627
O O2 0.399655 0.249354 0.530772
O O3 0.056214 0.338564 0.351004
O O4 0.004701 0.187764 0.539321
O O5 0.279483 0.427972 0.793100
O O6 0.166400 0.660425 0.832640
O O7 0.353097 0.839978 0.671584
O O8 0.205777 0.184159 0.720235
O O9 0.247181 0.005593 0.923381
O O10 0.615573 0.209082 0.867918
O O11 0.763243 0.019052 0.670568
O O12 0.500000 0.000000 0.500000
O O13 0.786349 0.413631 0.971942
O O14 0.077973 0.268921 0.981420
O O15 0.500000 0.500000 0.000000
#
# Coordination Sequence:
#
# PCOD9041956 Si02
#       7
#     2   2   2   2   2   2   2
#     4  10  23  46  62  98 135 176 228 275 338 411
#     4  11  24  43  67  97 134 174 227 276 332 409
#     4  10  23  45  66 100 132 178 223 271 341 399
#     4  10  23  44  68  94 140 176 225 281 334 414
#     4  12  25  41  70 100 136 181 224 284 338 398
#     4  10  24  46  69  96 135 175 220 286 334 397
#     4  11  24  45  69  98 131 172 228 280 336 399
#
# _framework density 24.067761999999998
#
# number of rings (size 3 to 8) (size 9 to 14) (size 15 to 20)
#    0.000    1.429    2.857    0.857    4.000    1.714 
#    5.143    0.000    0.000    0.000    0.000    0.000 
#    0.000    0.000    0.000    0.000    0.000    0.000 
#
# Total GULP energy -78248.339573 kJ/mol
# GULP energy per Si atom -5589.167112 kJ/mol
# Density = 2.401298 g / cm^3
# Si number density = 24.067762 Si / 1000 Ang^3
#
#
#
# Elastic Constant Matrix: (Units=GPa)
#
#
# Indices 1 2 3 4 5 6 
#
# 1 72.2347 27.7764 22.4001 13.0711 18.7446 34.3922
# 2 27.7764 67.6245 21.5934 -8.5010 14.6711 25.9330
# 3 22.4001 21.5934 91.6554 18.9943 17.5119 23.7228
# 4 13.0711 -8.5010 18.9943 42.2722 2.5139 3.7609
# 5 18.7446 14.6711 17.5119 2.5139 38.2653 4.1460
# 6 34.3922 25.9330 23.7228 3.7609 4.1460 48.8338
#
#
#
# Elastic Compliance Matrix: (Units=1/GPa)
#
#
# Indices 1 2 3 4 5 6 
#
# 1 0.026487 -0.004288 0.002280 -0.008052 -0.010111 -0.016006
# 2 -0.004288 0.022560 -0.003046 0.008206 -0.004860 -0.007700
# 3 0.002280 -0.003046 0.015345 -0.007299 -0.005800 -0.006388
# 4 -0.008052 0.008206 -0.007299 0.030758 0.001865 0.002332
# 5 -0.010111 -0.004860 -0.005800 0.001865 0.034458 0.009450
# 6 -0.016006 -0.007700 -0.006388 0.002332 0.009450 0.037961
#
#
# Mechanical properties :
#
#
# Convention : Reuss Voigt Hill
#
# Bulk Modulus (GPa) = 18.42131 41.67269 30.04700
# Shear Modulus (GPa) = 25.54003 36.52390 31.03197
#
# Velocity S-wave (km/s) = 3.26110 3.89979 3.59466
# Velocity P-wave (km/s) = 4.67442 6.13434 5.45346
#
# Compressibility (1/GPa) = 0.05428495
#
# Stress axis : x y z
#
# Youngs Moduli (GPa) = 37.75410 44.32575 65.16750
#
# Poissons Ratio (x) = 0.19007 -0.14860
# Poissons Ratio (y) = 0.16189 0.19850
# Poissons Ratio (z) = -0.08609 0.13502
#
# Static dielectric constant tensor:
#      x y z
#    x 1.962510 0.012800 0.014250 
#    y 0.012800 1.943810 -0.015880 
#    z 0.014250 -0.015880 1.905040 
# 
# From -- ./inp_files/53144.got.cif
#   From: 2010.05.17/outbox.cif.g08.bks.cpg/sg2_27_cif.got.tgz:53144.got - 2010.06.03 11:33:40.
