data_PCOD9041092
_publ_section_title
;
Structure prediction by ZEFSAII (Michael W. Deem and Ramdas Pophale) SiO2 
 PCOD9041092
Probable space group: P -1
;
_chemical_formula_sum "Si O2"
_cell_formula_units_Z 16
_cell_length_a 8.084686
_cell_length_b 17.019945
_cell_length_c 8.739617
_cell_angle_alpha 94.816786
_cell_angle_beta 50.444426
_cell_angle_gamma 66.529479
_cell_volume 747.324850
_symmetry_space_group_name_H-M "P -1"
_symmetry_group_IT_number 2
_symmetry_cell_setting 'triclinic'
loop_
_space_group_symop_operation_xyz
x,y,z
-x,-y,-z
loop_
_atom_site_type_symbol
_atom_site_label
_atom_site_fract_x
_atom_site_fract_y
_atom_site_fract_z
Si Si1 0.388200 0.732362 0.034019
Si Si2 0.618292 0.555454 0.370313
Si Si3 0.253019 0.765129 0.769977
Si Si4 0.004723 0.429124 0.365164
Si Si5 0.310024 0.927329 0.654229
Si Si6 0.396898 0.583393 0.201956
Si Si7 0.367492 0.078181 0.826249
Si Si8 0.192409 0.950022 0.235584
O O1 0.309366 0.730320 0.906511
O O2 0.704396 0.665780 0.848248
O O3 0.297967 0.682799 0.191830
O O4 0.276898 0.841390 0.155850
O O5 0.500000 0.500000 0.500000
O O6 0.424752 0.668429 0.551136
O O7 0.890806 0.494115 0.290856
O O8 0.628734 0.549993 0.181733
O O9 0.349697 0.833664 0.691921
O O10 0.934915 0.831081 0.946335
O O11 0.827229 0.402531 0.551447
O O12 0.000000 0.500000 0.500000
O O13 0.501370 0.900986 0.389872
O O14 0.360249 0.990075 0.749362
O O15 0.004577 0.992211 0.782313
O O16 0.500000 0.500000 0.000000
O O17 0.553400 0.053660 0.860825
O O18 0.000000 0.000000 0.500000
#
# Coordination Sequence:
#
# PCOD9041092 Si02
#       8
#     2   2   2   2   2   2   2   2
#     4  12  25  44  69 101 143 185 232 295 349 422
#     4  10  24  44  68 101 141 176 232 290 338 428
#     4  12  24  44  71 102 140 184 236 287 356 422
#     4  11  22  47  67 103 139 177 237 285 353 422
#     4  10  23  47  67 101 144 180 232 294 344 422
#     4  11  24  45  69  96 142 186 226 291 353 413
#     4  10  23  43  70  98 139 185 229 289 357 408
#     4  10  24  45  67 103 143 181 241 291 345 434
#
# _framework density 21.409700000000001
#
# number of rings (size 3 to 8) (size 9 to 14) (size 15 to 20)
#    0.000    1.250    3.750    1.125    7.000    2.000 
#    0.000    0.000    0.000    0.000    0.000    0.000 
#    0.000    0.000    0.000    0.000    0.000    0.000 
#
# Total GULP energy -89356.106461 kJ/mol
# GULP energy per Si atom -5584.756654 kJ/mol
# Density = 2.136097 g / cm^3
# Si number density = 21.409700 Si / 1000 Ang^3
#
#
#
# Elastic Constant Matrix: (Units=GPa)
#
#
# Indices 1 2 3 4 5 6 
#
# 1 124.5071 40.6221 20.1183 -5.7764 14.0944 -13.4500
# 2 40.6221 130.5484 42.1082 -12.9620 7.4625 -7.1604
# 3 20.1183 42.1082 96.8648 3.3342 -8.9136 5.7487
# 4 -5.7764 -12.9620 3.3342 46.6748 4.2442 -5.6859
# 5 14.0944 7.4625 -8.9136 4.2442 43.6265 2.0913
# 6 -13.4500 -7.1604 5.7487 -5.6859 2.0913 15.3528
#
#
#
# Elastic Compliance Matrix: (Units=1/GPa)
#
#
# Indices 1 2 3 4 5 6 
#
# 1 0.010876 -0.001178 -0.003003 0.003121 -0.004801 0.011914
# 2 -0.001178 0.010891 -0.005454 0.004587 -0.003439 0.008257
# 3 -0.003003 -0.005454 0.014855 -0.005141 0.006084 -0.013470
# 4 0.003121 0.004587 -0.005141 0.026127 -0.006216 0.017322
# 5 -0.004801 -0.003439 0.006084 -0.006216 0.027587 -0.014147
# 6 0.011914 0.008257 -0.013470 0.017322 -0.014147 0.092808
#
#
# Mechanical properties :
#
#
# Convention : Reuss Voigt Hill
#
# Bulk Modulus (GPa) = 57.63192 61.95751 59.79471
# Shear Modulus (GPa) = 24.01559 37.73558 30.87559
#
# Velocity S-wave (km/s) = 3.35284 4.20282 3.80166
# Velocity P-wave (km/s) = 6.47809 7.24938 6.87456
#
# Compressibility (1/GPa) = 0.01735150
#
# Stress axis : x y z
#
# Youngs Moduli (GPa) = 91.94157 91.82311 67.31966
#
# Poissons Ratio (x) = 0.10816 0.20217
# Poissons Ratio (y) = 0.10830 0.36715
# Poissons Ratio (z) = 0.27612 0.50079
#
# Static dielectric constant tensor:
#      x y z
#    x 1.830140 -0.012690 -0.028710 
#    y -0.012690 1.724880 -0.022310 
#    z -0.028710 -0.022310 1.746730 
# 
# From -- ./inp_files/217613.got.cif
#   From: 2010.05.17/outbox.cif.g08.bks.cpg/sg2_109_cif.got.tgz:217613.got - 2010.06.03 11:33:40.
