data_PCOD9041471
_publ_section_title
;
Structure prediction by ZEFSAII (Michael W. Deem and Ramdas Pophale) SiO2 
 PCOD9041471
Probable space group: P -1
;
_chemical_formula_sum "Si O2"
_cell_formula_units_Z 16
_cell_length_a 12.764460
_cell_length_b 8.540589
_cell_length_c 16.879196
_cell_angle_alpha 138.600186
_cell_angle_beta 34.053140
_cell_angle_gamma 142.176797
_cell_volume 606.846937
_symmetry_space_group_name_H-M "P -1"
_symmetry_group_IT_number 2
_symmetry_cell_setting 'triclinic'
loop_
_space_group_symop_operation_xyz
x,y,z
-x,-y,-z
loop_
_atom_site_type_symbol
_atom_site_label
_atom_site_fract_x
_atom_site_fract_y
_atom_site_fract_z
Si Si1 0.708434 0.452350 0.344246
Si Si2 0.732803 0.524289 0.912621
Si Si3 0.941905 0.008159 0.373531
Si Si4 0.250878 0.630775 0.977475
Si Si5 0.360701 0.826427 0.450248
Si Si6 0.036133 0.374592 0.587588
Si Si7 0.159984 0.883658 0.979403
Si Si8 0.613304 0.616593 0.816393
O O1 0.500000 0.500000 0.500000
O O2 0.809242 0.503666 0.388337
O O3 0.715337 0.209598 0.199455
O O4 0.882194 0.704855 0.283105
O O5 0.512421 0.593271 0.956283
O O6 0.818587 0.384598 0.743626
O O7 0.796028 0.427848 0.920291
O O8 0.833154 0.841005 0.952957
O O9 0.732006 0.024338 0.488826
O O10 0.997273 0.102192 0.465302
O O11 0.140349 0.205233 0.273807
O O12 0.243483 0.837527 0.995908
O O13 0.500606 0.715926 0.859096
O O14 0.085677 0.335433 0.941200
O O15 0.158476 0.585992 0.523269
O O16 0.462333 0.684771 0.279153
O O17 0.500000 0.000000 0.500000
#
# Coordination Sequence:
#
# PCOD9041471 Si02
#       8
#     2   2   2   2   2   2   2   2
#     4  12  27  42  74 109 142 200 258 313 375 443
#     4  10  23  43  78 106 153 192 262 312 373 453
#     4  11  26  49  70 105 158 192 251 305 385 468
#     4   9  22  40  70 108 151 193 249 305 392 429
#     4  11  25  42  74 105 144 196 251 305 376 449
#     4  11  24  47  69 110 149 200 238 315 386 439
#     4  11  23  42  70 118 148 193 258 327 363 439
#     4   9  22  44  71 104 148 199 243 307 386 449
#
# _framework density 26.365791000000002
#
# number of rings (size 3 to 8) (size 9 to 14) (size 15 to 20)
#    0.750    0.750    1.250    3.000   10.500    1.000 
#    0.000    5.000    2.750    0.000    0.000    0.000 
#    0.000    0.000    0.000    0.000    0.000    0.000 
#
# Total GULP energy -89298.834459 kJ/mol
# GULP energy per Si atom -5581.177154 kJ/mol
# Density = 2.630578 g / cm^3
# Si number density = 26.365791 Si / 1000 Ang^3
#
#
#
# Elastic Constant Matrix: (Units=GPa)
#
#
# Indices 1 2 3 4 5 6 
#
# 1 120.1211 14.9530 32.6840 -5.2799 4.1176 -0.2443
# 2 14.9530 108.4893 25.4999 -9.7430 7.0269 -17.8783
# 3 32.6840 25.4999 111.3687 -9.1584 1.7073 3.9457
# 4 -5.2799 -9.7430 -9.1584 27.0006 -3.0449 2.5763
# 5 4.1176 7.0269 1.7073 -3.0449 31.6328 -9.9268
# 6 -0.2443 -17.8783 3.9457 2.5763 -9.9268 40.0845
#
#
#
# Elastic Compliance Matrix: (Units=1/GPa)
#
#
# Indices 1 2 3 4 5 6 
#
# 1 0.009131 -0.000600 -0.002466 0.000650 -0.000936 -0.000243
# 2 -0.000600 0.010881 -0.002270 0.002529 -0.000469 0.004794
# 3 -0.002466 -0.002270 0.010508 0.002455 -0.000219 -0.002274
# 4 0.000650 0.002529 0.002455 0.039306 0.002701 -0.000967
# 5 -0.000936 -0.000469 -0.000219 0.002701 0.034691 0.008224
# 6 -0.000243 0.004794 -0.002274 -0.000967 0.008224 0.029407
#
#
# Mechanical properties :
#
#
# Convention : Reuss Voigt Hill
#
# Bulk Modulus (GPa) = 50.38109 54.02811 52.20460
# Shear Modulus (GPa) = 33.06603 37.53306 35.29955
#
# Velocity S-wave (km/s) = 3.54521 3.77709 3.66298
# Velocity P-wave (km/s) = 5.99233 6.28952 6.14272
#
# Compressibility (1/GPa) = 0.01984872
#
# Stress axis : x y z
#
# Youngs Moduli (GPa) = 109.52045 91.90059 95.16119
#
# Poissons Ratio (x) = 0.05513 0.23466
# Poissons Ratio (y) = 0.06570 0.21603
# Poissons Ratio (z) = 0.27006 0.20863
#
# Static dielectric constant tensor:
#      x y z
#    x 2.144970 0.009150 -0.090670 
#    y 0.009150 2.081080 0.017770 
#    z -0.090670 0.017770 2.197480 
# 
# From -- ./inp_files/567036.got.cif
#   From: 2010.05.17/outbox.cif.g08.bks.cpg/sg2_284_cif.got.tgz:567036.got - 2010.06.03 11:33:40.
