data_PCOD9041626
_publ_section_title
;
Structure prediction by ZEFSAII (Michael W. Deem and Ramdas Pophale) SiO2 
 PCOD9041626
Probable space group: P -1
;
_chemical_formula_sum "Si O2"
_cell_formula_units_Z 13
_cell_length_a 9.633779
_cell_length_b 11.931152
_cell_length_c 11.931996
_cell_angle_alpha 124.362589
_cell_angle_beta 43.194883
_cell_angle_gamma 91.793215
_cell_volume 573.259173
_symmetry_space_group_name_H-M "P -1"
_symmetry_group_IT_number 2
_symmetry_cell_setting 'triclinic'
loop_
_space_group_symop_operation_xyz
x,y,z
-x,-y,-z
loop_
_atom_site_type_symbol
_atom_site_label
_atom_site_fract_x
_atom_site_fract_y
_atom_site_fract_z
Si Si1 0.711640 0.253494 0.991789
Si Si2 0.606817 0.260078 0.305932
Si Si3 0.792496 0.154244 0.481736
Si Si4 0.711306 0.560405 0.191046
Si Si5 0.114330 0.133144 0.069406
Si Si6 0.500000 0.500000 0.000000
Si Si7 0.232791 0.377467 0.198605
O O1 0.562220 0.311315 0.232370
O O2 0.707191 0.414175 0.049313
O O3 0.525899 0.249370 0.017030
O O4 0.013290 0.057015 0.717536
O O5 0.394074 0.413659 0.605777
O O6 0.901800 0.187646 0.128188
O O7 0.635308 0.085103 0.206502
O O8 0.512258 0.247446 0.632750
O O9 0.962454 0.164817 0.294508
O O10 0.700037 0.287778 0.714022
O O11 0.000000 0.500000 0.000000
O O12 0.187906 0.256270 0.094733
O O13 0.258446 0.494753 0.169746
O O14 0.000000 0.500000 0.500000
#
# Coordination Sequence:
#
# PCOD9041626 Si02
#       7
#     2   2   2   2   2   1   2
#     4  11  24  44  70  99 136 182 232 292 340 418
#     4   9  20  40  70  98 131 177 231 277 345 418
#     4  10  23  44  65  98 139 176 236 286 338 420
#     4  11  23  42  64 100 140 178 230 289 343 416
#     4   9  19  42  68  99 135 178 228 285 340 420
#     4  12  24  44  68  94 148 182 224 294 338 414
#     4  12  24  44  71 103 141 184 234 285 351 409
#
# _framework density 22.677353
#
# number of rings (size 3 to 8) (size 9 to 14) (size 15 to 20)
#    0.000    1.538    3.077    2.308    0.000    7.385 
#    2.769    0.000    0.000    0.000    0.000    0.000 
#    0.000    0.000    0.000    0.000    0.000    0.000 
#
# Total GULP energy -72447.957085 kJ/mol
# GULP energy per Si atom -5572.919776 kJ/mol
# Density = 2.262574 g / cm^3
# Si number density = 22.677353 Si / 1000 Ang^3
#
#
#
# Elastic Constant Matrix: (Units=GPa)
#
#
# Indices 1 2 3 4 5 6 
#
# 1 55.6733 25.7100 11.2225 5.9897 -9.1272 8.3289
# 2 25.7100 103.7272 23.4935 1.9722 -7.5508 20.8969
# 3 11.2225 23.4935 93.1411 13.9021 -2.9710 2.8165
# 4 5.9897 1.9722 13.9021 23.2711 -1.4856 0.6778
# 5 -9.1272 -7.5508 -2.9710 -1.4856 46.2422 1.8218
# 6 8.3289 20.8969 2.8165 0.6778 1.8218 43.2241
#
#
#
# Elastic Compliance Matrix: (Units=1/GPa)
#
#
# Indices 1 2 3 4 5 6 
#
# 1 0.021486 -0.004442 -0.000626 -0.004503 0.003410 -0.002025
# 2 -0.004442 0.012424 -0.002694 0.001926 0.001240 -0.005058
# 3 -0.000626 -0.002694 0.012532 -0.007119 -0.000015 0.000719
# 4 -0.004503 0.001926 -0.007119 0.048265 0.000534 -0.000379
# 5 0.003410 0.001240 -0.000015 0.000534 0.022604 -0.002217
# 6 -0.002025 -0.005058 0.000719 -0.000379 -0.002217 0.026023
#
#
# Mechanical properties :
#
#
# Convention : Reuss Voigt Hill
#
# Bulk Modulus (GPa) = 32.34334 41.48817 36.91576
# Shear Modulus (GPa) = 29.55703 35.35518 32.45611
#
# Velocity S-wave (km/s) = 3.61414 3.95277 3.78724
# Velocity P-wave (km/s) = 5.63111 6.25837 5.95301
#
# Compressibility (1/GPa) = 0.03091826
#
# Stress axis : x y z
#
# Youngs Moduli (GPa) = 46.54205 80.48749 79.79822
#
# Poissons Ratio (x) = 0.35751 0.04998
# Poissons Ratio (y) = 0.20673 0.21495
# Poissons Ratio (z) = 0.02915 0.21680
#
# Static dielectric constant tensor:
#      x y z
#    x 1.915010 -0.067550 0.033810 
#    y -0.067550 1.836430 -0.003680 
#    z 0.033810 -0.003680 1.833970 
# 
# From -- ./inp_files/503129.got.cif
#   From: 2010.05.17/outbox.cif.g08.bks.cpg/sg2_252_cif.got.tgz:503129.got - 2010.06.03 11:33:40.
