data_PCOD9041439
_publ_section_title
;
Structure prediction by ZEFSAII (Michael W. Deem and Ramdas Pophale) SiO2 
 PCOD9041439
Probable space group: P -1
;
_chemical_formula_sum "Si O2"
_cell_formula_units_Z 12
_cell_length_a 11.134417
_cell_length_b 12.662147
_cell_length_c 8.750786
_cell_angle_alpha 147.685905
_cell_angle_beta 43.749151
_cell_angle_gamma 138.368291
_cell_volume 423.606149
_symmetry_space_group_name_H-M "P -1"
_symmetry_group_IT_number 2
_symmetry_cell_setting 'triclinic'
loop_
_space_group_symop_operation_xyz
x,y,z
-x,-y,-z
loop_
_atom_site_type_symbol
_atom_site_label
_atom_site_fract_x
_atom_site_fract_y
_atom_site_fract_z
Si Si1 0.724821 0.733626 0.404596
Si Si2 0.708190 0.044174 0.178103
Si Si3 0.022222 0.327083 0.384996
Si Si4 0.312925 0.682696 0.738724
Si Si5 0.906200 0.183792 0.647321
Si Si6 0.442017 0.646509 0.112088
O O1 0.781770 0.937878 0.491693
O O2 0.517014 0.691941 0.603558
O O3 0.113646 0.219925 0.562178
O O4 0.708229 0.530508 0.070007
O O5 0.929545 0.120373 0.106982
O O6 0.680524 0.110733 0.113354
O O7 0.595416 0.811332 0.060957
O O8 0.907921 0.241848 0.541510
O O9 0.630709 0.200209 0.534886
O O10 0.000000 0.500000 0.500000
O O11 0.216098 0.476953 0.469251
O O12 0.184754 0.685706 0.003046
O O13 0.500000 0.500000 0.000000
#
# Coordination Sequence:
#
# PCOD9041439 Si02
#       6
#     2   2   2   2   2   2
#     4  11  25  47  74 116 156 204 263 315 392 471
#     4  10  23  43  75 110 154 203 255 327 387 453
#     4  10  23  46  76 108 150 203 255 311 393 458
#     4  11  23  47  75 114 152 206 253 320 397 459
#     4  11  25  48  76 111 158 203 254 329 388 463
#     4  11  21  42  73 112 157 203 262 318 383 467
#
# _framework density 28.328199000000001
#
# number of rings (size 3 to 8) (size 9 to 14) (size 15 to 20)
#    0.000    1.333    1.667    3.000    2.333    0.667 
#    9.000    0.833    0.000    2.000    0.000    0.000 
#    0.000    0.000    0.000    0.000    0.000    0.000 
#
# Total GULP energy -67277.800791 kJ/mol
# GULP energy per Si atom -5606.483399 kJ/mol
# Density = 2.826372 g / cm^3
# Si number density = 28.328199 Si / 1000 Ang^3
#
#
#
# Elastic Constant Matrix: (Units=GPa)
#
#
# Indices 1 2 3 4 5 6 
#
# 1 158.0262 66.8031 56.5277 -15.1198 -7.9070 -10.9937
# 2 66.8031 201.6064 42.5997 -1.0857 4.4010 -24.2050
# 3 56.5277 42.5997 121.4191 -0.0140 -5.2682 -7.7551
# 4 -15.1198 -1.0857 -0.0140 61.8711 0.1645 12.7735
# 5 -7.9070 4.4010 -5.2682 0.1645 50.7666 3.2309
# 6 -10.9937 -24.2050 -7.7551 12.7735 3.2309 70.2209
#
#
#
# Elastic Compliance Matrix: (Units=1/GPa)
#
#
# Indices 1 2 3 4 5 6 
#
# 1 0.008671 -0.002235 -0.003213 0.002119 0.001217 -0.000209
# 2 -0.002235 0.006166 -0.001052 -0.000819 -0.001107 0.001859
# 3 -0.003213 -0.001052 0.010153 -0.000883 0.000623 0.000387
# 4 0.002119 -0.000819 -0.000883 0.017330 0.000458 -0.003222
# 5 0.001217 -0.001107 0.000623 0.000458 0.020119 -0.001131
# 6 -0.000209 0.001859 0.000387 -0.003222 -0.001131 0.015530
#
#
# Mechanical properties :
#
#
# Convention : Reuss Voigt Hill
#
# Bulk Modulus (GPa) = 83.40594 90.32362 86.86478
# Shear Modulus (GPa) = 52.65090 57.57981 55.11536
#
# Velocity S-wave (km/s) = 4.31583 4.51332 4.41568
# Velocity P-wave (km/s) = 7.37169 7.68857 7.53180
#
# Compressibility (1/GPa) = 0.01198955
#
# Stress axis : x y z
#
# Youngs Moduli (GPa) = 115.32415 162.18126 98.49508
#
# Poissons Ratio (x) = 0.36240 0.31649
# Poissons Ratio (y) = 0.25770 0.10366
# Poissons Ratio (z) = 0.37057 0.17068
#
# Static dielectric constant tensor:
#      x y z
#    x 2.231490 0.113960 -0.070540 
#    y 0.113960 2.195090 -0.015030 
#    z -0.070540 -0.015030 2.220740 
# 
# From -- ./inp_files/295310.got.cif
#   From: 2010.05.17/outbox.cif.g08.bks.cpg/sg2_148_cif.got.tgz:295310.got - 2010.06.03 11:33:40.
