data_PCOD9041691
_publ_section_title
;
Structure prediction by ZEFSAII (Michael W. Deem and Ramdas Pophale) SiO2 
 PCOD9041691
Probable space group: P -1
;
_chemical_formula_sum "Si O2"
_cell_formula_units_Z 14
_cell_length_a 12.905289
_cell_length_b 12.015522
_cell_length_c 20.236128
_cell_angle_alpha 29.752992
_cell_angle_beta 156.868833
_cell_angle_gamma 138.773552
_cell_volume 594.254398
_symmetry_space_group_name_H-M "P -1"
_symmetry_group_IT_number 2
_symmetry_cell_setting 'triclinic'
loop_
_space_group_symop_operation_xyz
x,y,z
-x,-y,-z
loop_
_atom_site_type_symbol
_atom_site_label
_atom_site_fract_x
_atom_site_fract_y
_atom_site_fract_z
Si Si1 0.679007 0.157247 0.331549
Si Si2 0.476478 0.475912 0.576249
Si Si3 0.029236 0.346951 0.234072
Si Si4 0.664787 0.048389 0.982235
Si Si5 0.519055 0.637133 0.165699
Si Si6 0.279294 0.884076 0.463897
Si Si7 0.121798 0.421392 0.832418
O O1 0.676753 0.137546 0.420083
O O2 0.794225 0.374482 0.264548
O O3 0.378437 0.205113 0.098985
O O4 0.870757 0.915463 0.547490
O O5 0.500000 0.500000 0.500000
O O6 0.716543 0.584277 0.688128
O O7 0.171438 0.599295 0.354570
O O8 0.557703 0.202981 0.777310
O O9 0.928398 0.497628 0.162200
O O10 0.781998 0.374776 0.024844
O O11 0.615039 0.793636 0.085587
O O12 0.489160 0.211273 0.851771
O O13 0.978535 0.024193 0.195944
O O14 0.690471 0.379239 0.406058
O O15 0.500000 0.000000 0.500000
#
# Coordination Sequence:
#
# PCOD9041691 Si02
#       7
#     2   2   2   2   2   2   2
#     4  11  23  41  68  99 128 183 217 275 332 398
#     4  10  24  43  68 100 134 173 221 278 335 395
#     4  11  21  42  70  97 134 172 221 273 338 386
#     4  11  25  45  70  97 135 178 226 276 333 398
#     4  11  24  44  72  99 133 179 224 276 333 399
#     4  12  26  43  69 102 138 170 229 280 334 397
#     4  10  23  44  66  94 140 170 229 268 329 406
#
# _framework density 23.558934000000001
#
# number of rings (size 3 to 8) (size 9 to 14) (size 15 to 20)
#    0.000    1.143    2.857    2.571    6.000    2.857 
#    0.000    0.000    0.000    0.000    0.000    0.000 
#    0.000    0.000    0.000    0.000    0.000    0.000 
#
# Total GULP energy -78341.137608 kJ/mol
# GULP energy per Si atom -5595.795543 kJ/mol
# Density = 2.350531 g / cm^3
# Si number density = 23.558934 Si / 1000 Ang^3
#
#
#
# Elastic Constant Matrix: (Units=GPa)
#
#
# Indices 1 2 3 4 5 6 
#
# 1 41.8778 12.2746 14.6872 -4.7843 -10.4481 9.6083
# 2 12.2746 45.6088 -16.8912 11.6278 -14.8600 12.2749
# 3 14.6872 -16.8912 107.4266 1.9937 -11.1982 3.3262
# 4 -4.7843 11.6278 1.9937 48.4104 0.2590 12.3430
# 5 -10.4481 -14.8600 -11.1982 0.2590 16.4868 -6.7907
# 6 9.6083 12.2749 3.3262 12.3430 -6.7907 31.7349
#
#
#
# Elastic Compliance Matrix: (Units=1/GPa)
#
#
# Indices 1 2 3 4 5 6 
#
# 1 0.032158 -0.008201 -0.004916 0.007222 0.006456 -0.007477
# 2 -0.008201 0.048702 0.014028 -0.012625 0.047273 -0.002799
# 3 -0.004916 0.014028 0.014293 -0.004694 0.019546 0.000573
# 4 0.007222 -0.012625 -0.004694 0.027386 -0.014800 -0.010629
# 5 0.006456 0.047273 0.019546 -0.014800 0.125077 0.010232
# 6 -0.007477 -0.002799 0.000573 -0.010629 0.010232 0.041121
#
#
# Mechanical properties :
#
#
# Convention : Reuss Voigt Hill
#
# Bulk Modulus (GPa) = 10.31187 23.89496 17.10341
# Shear Modulus (GPa) = 15.66222 31.64925 23.65573
#
# Velocity S-wave (km/s) = 2.58119 3.66923 3.17221
# Velocity P-wave (km/s) = 3.64279 5.30242 4.54893
#
# Compressibility (1/GPa) = 0.09697566
#
# Stress axis : x y z
#
# Youngs Moduli (GPa) = 31.09670 20.53306 69.96312
#
# Poissons Ratio (x) = 0.16838 0.34391
# Poissons Ratio (y) = 0.25501 -0.98141
# Poissons Ratio (z) = 0.15286 -0.28803
#
# Static dielectric constant tensor:
#      x y z
#    x 1.981140 0.057530 -0.019640 
#    y 0.057530 1.980780 0.002930 
#    z -0.019640 0.002930 1.873280 
# 
# From -- ./inp_files/270039.got.cif
#   From: 2010.05.17/outbox.cif.g08.bks.cpg/sg2_136_cif.got.tgz:270039.got - 2010.06.03 11:33:40.
