data_PCOD9041432
_publ_section_title
;
Structure prediction by ZEFSAII (Michael W. Deem and Ramdas Pophale) SiO2 
 PCOD9041432
Probable space group: P -1
;
_chemical_formula_sum "Si O2"
_cell_formula_units_Z 14
_cell_length_a 13.313054
_cell_length_b 7.941052
_cell_length_c 10.257728
_cell_angle_alpha 90.621763
_cell_angle_beta 32.955956
_cell_angle_gamma 95.962498
_cell_volume 580.874197
_symmetry_space_group_name_H-M "P -1"
_symmetry_group_IT_number 2
_symmetry_cell_setting 'triclinic'
loop_
_space_group_symop_operation_xyz
x,y,z
-x,-y,-z
loop_
_atom_site_type_symbol
_atom_site_label
_atom_site_fract_x
_atom_site_fract_y
_atom_site_fract_z
Si Si1 0.791777 0.649692 0.149060
Si Si2 0.929143 0.873703 0.766157
Si Si3 0.010283 0.690345 0.434545
Si Si4 0.397407 0.667500 0.946998
Si Si5 0.374649 0.286288 0.069596
Si Si6 0.428858 0.736624 0.637742
Si Si7 0.944859 0.136510 0.959620
O O1 0.613140 0.748064 0.350220
O O2 0.694302 0.454015 0.243894
O O3 0.921557 0.691061 0.136098
O O4 0.912126 0.724636 0.892618
O O5 0.049139 0.826252 0.513126
O O6 0.721683 0.854462 0.927698
O O7 0.984648 0.053574 0.777238
O O8 0.000000 0.500000 0.500000
O O9 0.185633 0.695700 0.150001
O O10 0.792877 0.695916 0.644630
O O11 0.411796 0.467277 0.952862
O O12 0.504146 0.745780 0.704431
O O13 0.458747 0.746040 0.021542
O O14 0.274003 0.853871 0.784661
O O15 0.000000 0.000000 0.000000
#
# Coordination Sequence:
#
# PCOD9041432 Si02
#       7
#     2   2   2   2   2   2   2
#     4  10  21  41  61  88 115 150 199 248 290 337
#     4   9  18  39  58  84 117 148 193 240 281 347
#     4   8  15  31  54  82 112 145 191 232 270 335
#     4  10  17  33  57  86 113 145 189 237 289 333
#     4   8  17  32  54  86 111 145 187 236 283 332
#     4  11  22  38  62  89 118 151 192 249 288 347
#     4  10  23  41  58  83 120 160 196 232 296 348
#
# _framework density 24.101604999999999
#
# number of rings (size 3 to 8) (size 9 to 14) (size 15 to 20)
#    0.857    1.714    1.429    0.429    0.000    3.429 
#    7.714    5.714    0.000    0.000    0.000    0.000 
#    0.000    0.000    0.000    0.000    0.000    0.000 
#
# Total GULP energy -78018.700082 kJ/mol
# GULP energy per Si atom -5572.764292 kJ/mol
# Density = 2.404675 g / cm^3
# Si number density = 24.101605 Si / 1000 Ang^3
#
#
#
# Elastic Constant Matrix: (Units=GPa)
#
#
# Indices 1 2 3 4 5 6 
#
# 1 80.9387 28.9536 -5.3419 7.3329 -13.9932 14.9400
# 2 28.9536 70.1829 -7.7479 9.2627 0.3558 2.7847
# 3 -5.3419 -7.7479 70.4592 18.0600 -5.6314 -16.2842
# 4 7.3329 9.2627 18.0600 26.5961 -4.0336 1.7097
# 5 -13.9932 0.3558 -5.6314 -4.0336 29.8006 4.8636
# 6 14.9400 2.7847 -16.2842 1.7097 4.8636 44.4321
#
#
#
# Elastic Compliance Matrix: (Units=1/GPa)
#
#
# Indices 1 2 3 4 5 6 
#
# 1 0.017760 -0.007045 -0.000047 -0.000563 0.009408 -0.006556
# 2 -0.007045 0.018565 0.004055 -0.008175 -0.004440 0.003492
# 3 -0.000047 0.004055 0.020525 -0.015782 0.000391 0.007849
# 4 -0.000563 -0.008175 -0.015782 0.052604 0.005224 -0.007679
# 5 0.009408 -0.004440 0.000391 0.005224 0.040003 -0.007322
# 6 -0.006556 0.003492 0.007849 -0.007679 -0.007322 0.028465
#
#
# Mechanical properties :
#
#
# Convention : Reuss Voigt Hill
#
# Bulk Modulus (GPa) = 19.69456 28.14538 23.91997
# Shear Modulus (GPa) = 24.88514 33.88023 29.38269
#
# Velocity S-wave (km/s) = 3.21675 3.75337 3.49537
# Velocity P-wave (km/s) = 4.68891 5.52149 5.12215
#
# Compressibility (1/GPa) = 0.05077544
#
# Stress axis : x y z
#
# Youngs Moduli (GPa) = 56.30725 53.86353 48.72025
#
# Poissons Ratio (x) = 0.37948 0.00230
# Poissons Ratio (y) = 0.39670 -0.19756
# Poissons Ratio (z) = 0.00266 -0.21841
#
# Static dielectric constant tensor:
#      x y z
#    x 1.937310 0.014100 0.033000 
#    y 0.014100 2.020870 -0.068680 
#    z 0.033000 -0.068680 1.934480 
# 
# From -- ./inp_files/444680.got.cif
#   From: 2010.05.17/outbox.cif.g08.bks.cpg/sg2_223_cif.got.tgz:444680.got - 2010.06.03 11:33:40.
