data_PCOD9041796
_publ_section_title
;
Structure prediction by ZEFSAII (Michael W. Deem and Ramdas Pophale) SiO2 
 PCOD9041796
Probable space group: P -1
;
_chemical_formula_sum "Si O2"
_cell_formula_units_Z 16
_cell_length_a 9.141356
_cell_length_b 14.630339
_cell_length_c 17.178730
_cell_angle_alpha 39.798525
_cell_angle_beta 37.129987
_cell_angle_gamma 29.000309
_cell_volume 652.270022
_symmetry_space_group_name_H-M "P -1"
_symmetry_group_IT_number 2
_symmetry_cell_setting 'triclinic'
loop_
_space_group_symop_operation_xyz
x,y,z
-x,-y,-z
loop_
_atom_site_type_symbol
_atom_site_label
_atom_site_fract_x
_atom_site_fract_y
_atom_site_fract_z
Si Si1 0.823918 0.736838 0.502987
Si Si2 0.321454 0.299923 0.567729
Si Si3 0.240697 0.391737 0.845629
Si Si4 0.644971 0.098257 0.270956
Si Si5 0.481250 0.170810 0.115828
Si Si6 0.673171 0.359002 0.814444
Si Si7 0.055137 0.780596 0.859099
Si Si8 0.446844 0.877508 0.256440
O O1 0.582273 0.771115 0.515216
O O2 0.688221 0.756432 0.632604
O O3 0.167696 0.518612 0.491812
O O4 0.822238 0.902569 0.372746
O O5 0.566343 0.181907 0.612428
O O6 0.006073 0.318789 0.699976
O O7 0.527724 0.348199 0.803828
O O8 0.338392 0.311055 0.768097
O O9 0.905608 0.619714 0.852347
O O10 0.172148 0.262472 0.995601
O O11 0.569761 0.097754 0.214503
O O12 0.849797 0.161530 0.145647
O O13 0.553591 0.999620 0.147545
O O14 0.676797 0.226126 0.960510
O O15 0.388113 0.579160 0.818667
O O16 0.888511 0.955555 0.755540
#
# Coordination Sequence:
#
# PCOD9041796 Si02
#       8
#     2   2   2   2   2   2   2   2
#     4  10  23  44  67  90 130 174 234 280 320 384
#     4  11  24  43  69  97 130 176 228 279 327 393
#     4  11  24  40  66 100 152 171 207 276 343 406
#     4  11  23  42  72  93 127 183 227 271 334 397
#     4  11  23  42  67 105 137 172 221 275 336 403
#     4  11  23  43  69 101 141 176 210 277 343 403
#     4  11  23  43  65 100 137 181 214 269 344 403
#     4  12  24  41  66 101 138 174 221 270 329 408
#
# _framework density 24.529717000000002
#
# number of rings (size 3 to 8) (size 9 to 14) (size 15 to 20)
#    0.000    1.000    5.000    1.875    3.500    1.500 
#    0.000    1.250   11.000    0.000    0.000    0.000 
#    0.000    0.000    0.000    0.000    0.000    0.000 
#
# Total GULP energy -89450.199879 kJ/mol
# GULP energy per Si atom -5590.637492 kJ/mol
# Density = 2.447389 g / cm^3
# Si number density = 24.529717 Si / 1000 Ang^3
#
#
#
# Elastic Constant Matrix: (Units=GPa)
#
#
# Indices 1 2 3 4 5 6 
#
# 1 104.8729 17.6323 23.9304 -3.2334 12.7322 17.4195
# 2 17.6323 75.3475 13.7751 -10.9194 -1.9778 13.8491
# 3 23.9304 13.7751 91.9820 -6.5119 4.0090 2.0243
# 4 -3.2334 -10.9194 -6.5119 40.6605 2.3842 2.4578
# 5 12.7322 -1.9778 4.0090 2.3842 42.1425 -8.9150
# 6 17.4195 13.8491 2.0243 2.4578 -8.9150 38.0517
#
#
#
# Elastic Compliance Matrix: (Units=1/GPa)
#
#
# Indices 1 2 3 4 5 6 
#
# 1 0.011922 -0.001218 -0.002518 0.000862 -0.004748 -0.006049
# 2 -0.001218 0.015404 -0.001579 0.004111 -0.000103 -0.005255
# 3 -0.002518 -0.001579 0.011843 0.001233 -0.000310 0.000945
# 4 0.000862 0.004111 0.001233 0.026373 -0.002579 -0.004264
# 5 -0.004748 -0.000103 -0.000310 -0.002579 0.027188 0.008764
# 6 -0.006049 -0.005255 0.000945 -0.004264 0.008764 0.033240
#
#
# Mechanical properties :
#
#
# Convention : Reuss Voigt Hill
#
# Bulk Modulus (GPa) = 35.03817 42.54201 38.79009
# Shear Modulus (GPa) = 34.21979 38.62858 36.42419
#
# Velocity S-wave (km/s) = 3.73907 3.97264 3.85762
# Velocity P-wave (km/s) = 5.74072 6.19864 5.97407
#
# Compressibility (1/GPa) = 0.02854031
#
# Stress axis : x y z
#
# Youngs Moduli (GPa) = 83.87541 64.91692 84.43537
#
# Poissons Ratio (x) = 0.07904 0.21264
# Poissons Ratio (y) = 0.10212 0.13332
# Poissons Ratio (z) = 0.21123 0.10250
#
# Static dielectric constant tensor:
#      x y z
#    x 1.959940 0.040850 0.021180 
#    y 0.040850 2.012170 0.025690 
#    z 0.021180 0.025690 1.955300 
# 
# From -- ./inp_files/195333.got.cif
#   From: 2010.05.17/outbox.cif.g08.bks.cpg/sg2_98_cif.got.tgz:195333.got - 2010.06.03 11:33:40.
