data_PCOD9041339
_publ_section_title
;
Structure prediction by ZEFSAII (Michael W. Deem and Ramdas Pophale) SiO2 
 PCOD9041339
Probable space group: P -1
;
_chemical_formula_sum "Si O2"
_cell_formula_units_Z 13
_cell_length_a 10.212823
_cell_length_b 9.562816
_cell_length_c 9.645784
_cell_angle_alpha 131.504630
_cell_angle_beta 104.119936
_cell_angle_gamma 48.648866
_cell_volume 497.113247
_symmetry_space_group_name_H-M "P -1"
_symmetry_group_IT_number 2
_symmetry_cell_setting 'triclinic'
loop_
_space_group_symop_operation_xyz
x,y,z
-x,-y,-z
loop_
_atom_site_type_symbol
_atom_site_label
_atom_site_fract_x
_atom_site_fract_y
_atom_site_fract_z
Si Si1 0.458025 0.952322 0.309860
Si Si2 0.002052 0.131906 0.955188
Si Si3 0.855370 0.646445 0.185982
Si Si4 0.422190 0.674211 0.775149
Si Si5 0.690641 0.581259 0.577017
Si Si6 0.071265 0.055296 0.426653
Si Si7 0.500000 0.500000 0.000000
O O1 0.652232 0.790491 0.172669
O O2 0.500000 0.000000 0.500000
O O3 0.315641 0.209112 0.353580
O O4 0.421373 0.774729 0.217852
O O5 0.220513 0.946287 0.856419
O O6 0.880178 0.153444 0.813881
O O7 0.912540 0.417342 0.147469
O O8 0.000000 0.000000 0.000000
O O9 0.847320 0.844011 0.401595
O O10 0.000000 0.500000 0.000000
O O11 0.583661 0.650672 0.739574
O O12 0.419781 0.465721 0.575942
O O13 0.446057 0.624423 0.910494
O O14 0.899309 0.313994 0.471343
O O15 0.000000 0.000000 0.500000
#
# Coordination Sequence:
#
# PCOD9041339 Si02
#       7
#     2   2   2   2   2   2   1
#     4  12  28  49  74 110 152 195 248 311 371 445
#     4  11  25  46  69 106 152 186 249 306 371 439
#     4  12  27  47  76 108 147 195 250 305 371 447
#     4  10  23  43  73 105 141 196 242 311 356 449
#     4  10  24  47  74 104 146 191 251 297 373 438
#     4  11  26  47  76 104 147 196 242 309 374 433
#     4  12  26  44  76 106 152 192 250 296 384 428
#
# _framework density 26.150981999999999
#
# number of rings (size 3 to 8) (size 9 to 14) (size 15 to 20)
#    0.000    0.923    3.077    1.846   10.769    4.923 
#    0.000    0.000    0.000    0.000    0.000    0.000 
#    0.000    0.000    0.000    0.000    0.000    0.000 
#
# Total GULP energy -72538.958909 kJ/mol
# GULP energy per Si atom -5579.919916 kJ/mol
# Density = 2.609146 g / cm^3
# Si number density = 26.150982 Si / 1000 Ang^3
#
#
#
# Elastic Constant Matrix: (Units=GPa)
#
#
# Indices 1 2 3 4 5 6 
#
# 1 21.9092 -15.9493 -8.3455 2.8866 16.8150 2.6116
# 2 -15.9493 102.7968 14.7960 10.0100 31.0513 24.4809
# 3 -8.3455 14.7960 122.3631 -12.8872 26.2177 17.6725
# 4 2.8866 10.0100 -12.8872 66.7069 12.4166 9.0219
# 5 16.8150 31.0513 26.2177 12.4166 38.5296 7.0134
# 6 2.6116 24.4809 17.6725 9.0219 7.0134 33.8547
#
#
#
# Elastic Compliance Matrix: (Units=1/GPa)
#
#
# Indices 1 2 3 4 5 6 
#
# 1 -0.140237 -0.072044 -0.044302 -0.027523 0.146817 0.062960
# 2 -0.072044 -0.021394 -0.020102 -0.012103 0.062286 0.021844
# 3 -0.044302 -0.020102 -0.002433 -0.003996 0.036148 0.012800
# 4 -0.027523 -0.012103 -0.003996 0.012881 0.019328 0.005525
# 5 0.146817 0.062286 0.036148 0.019328 -0.108604 -0.057887
# 6 0.062960 0.021844 0.012800 0.005525 -0.057887 0.012723
#
#
# Mechanical properties :
#
#
# Convention : Reuss Voigt Hill
#
# Bulk Modulus (GPa) = -2.28855 25.34128 11.52637
# Shear Modulus (GPa) = -41.72866 44.92278 1.59706
#
# Velocity S-wave (km/s) = -3.99893 4.14916 0.78233
# Velocity P-wave (km/s) = 4.71158 5.71537 2.28763
#
# Compressibility (1/GPa) = -0.43695871
#
# Stress axis : x y z
#
# Youngs Moduli (GPa) = -7.13081 -46.74124 -411.00674
#
# Poissons Ratio (x) = -3.36741 -18.20847
# Poissons Ratio (y) = -0.51373 -8.26187
# Poissons Ratio (z) = -0.31591 -0.93957
#
# Static dielectric constant tensor:
#      x y z
#    x 2.201610 -0.045790 -0.083770 
#    y -0.045790 1.938300 0.001340 
#    z -0.083770 0.001340 2.130720 
# 
# From -- ./inp_files/156521.got.cif
#   From: 2010.05.17/outbox.cif.g08.bks.cpg/sg2_79_cif.got.tgz:156521.got - 2010.06.03 11:33:40.
