data_PCOD9041957
_publ_section_title
;
Structure prediction by ZEFSAII (Michael W. Deem and Ramdas Pophale) SiO2 
 PCOD9041957
Probable space group: P -1
;
_chemical_formula_sum "Si O2"
_cell_formula_units_Z 14
_cell_length_a 14.377780
_cell_length_b 13.949386
_cell_length_c 15.393466
_cell_angle_alpha 131.359761
_cell_angle_beta 152.288032
_cell_angle_gamma 29.406207
_cell_volume 616.957287
_symmetry_space_group_name_H-M "P -1"
_symmetry_group_IT_number 2
_symmetry_cell_setting 'triclinic'
loop_
_space_group_symop_operation_xyz
x,y,z
-x,-y,-z
loop_
_atom_site_type_symbol
_atom_site_label
_atom_site_fract_x
_atom_site_fract_y
_atom_site_fract_z
Si Si1 0.879750 0.164747 0.163646
Si Si2 0.924280 0.472023 0.510738
Si Si3 0.233087 0.061622 0.570612
Si Si4 0.729882 0.591173 0.759021
Si Si5 0.718268 0.375427 0.489763
Si Si6 0.227102 0.722965 0.141400
Si Si7 0.066328 0.641681 0.808805
O O1 0.038785 0.099044 0.351121
O O2 0.022288 0.201933 0.240475
O O3 0.992748 0.969776 0.103622
O O4 0.463601 0.394150 0.965424
O O5 0.567136 0.579772 0.278090
O O6 0.000000 0.500000 0.500000
O O7 0.228873 0.214467 0.634884
O O8 0.857671 0.620348 0.612387
O O9 0.002853 0.180498 0.539157
O O10 0.571349 0.801228 0.711742
O O11 0.857990 0.420622 0.690796
O O12 0.421270 0.668980 0.595281
O O13 0.000000 0.500000 0.000000
O O14 0.389426 0.596460 0.291942
O O15 0.044143 0.709344 0.926705
#
# Coordination Sequence:
#
# PCOD9041957 Si02
#       7
#     2   2   2   2   2   2   2
#     4  11  21  41  64  92 134 175 211 262 318 377
#     4  11  22  41  64  94 135 174 213 262 314 377
#     4  11  22  45  67  92 139 170 206 270 328 374
#     4  11  25  45  70  95 125 163 225 270 323 391
#     4  10  23  44  68  95 128 167 207 276 330 375
#     4  11  23  42  65  95 132 171 218 262 321 379
#     4  11  22  40  63  93 133 173 219 255 307 392
#
# _framework density 22.692008000000001
#
# number of rings (size 3 to 8) (size 9 to 14) (size 15 to 20)
#    0.000    1.143    5.714    1.714    0.000    4.571 
#    2.571    0.000    0.000    0.000    0.000    0.000 
#    0.000    0.000    0.000    0.000    0.000    0.000 
#
# Total GULP energy -78341.451683 kJ/mol
# GULP energy per Si atom -5595.817977 kJ/mol
# Density = 2.264036 g / cm^3
# Si number density = 22.692008 Si / 1000 Ang^3
#
#
#
# Elastic Constant Matrix: (Units=GPa)
#
#
# Indices 1 2 3 4 5 6 
#
# 1 95.5765 30.5605 22.8922 1.1397 -3.5815 6.8728
# 2 30.5605 158.0920 53.7837 20.1101 -7.6676 12.4520
# 3 22.8922 53.7837 95.0489 26.9185 -23.9232 -5.8582
# 4 1.1397 20.1101 26.9185 41.2693 -3.0582 -7.7390
# 5 -3.5815 -7.6676 -23.9232 -3.0582 29.9937 8.4799
# 6 6.8728 12.4520 -5.8582 -7.7390 8.4799 26.9732
#
#
#
# Elastic Compliance Matrix: (Units=1/GPa)
#
#
# Indices 1 2 3 4 5 6 
#
# 1 0.011695 -0.001370 -0.002731 0.001659 -0.000292 -0.002373
# 2 -0.001370 0.008775 -0.004296 -0.002438 -0.000096 -0.005304
# 3 -0.002731 -0.004296 0.019705 -0.009699 0.013306 -0.000007
# 4 0.001659 -0.002438 -0.009699 0.033100 -0.007765 0.010534
# 5 -0.000292 -0.000096 0.013306 -0.007765 0.047064 -0.014016
# 6 -0.002373 -0.005304 -0.000007 0.010534 -0.014016 0.047554
#
#
# Mechanical properties :
#
#
# Convention : Reuss Voigt Hill
#
# Bulk Modulus (GPa) = 42.77076 62.57670 52.67373
# Shear Modulus (GPa) = 25.97656 35.74597 30.86127
#
# Velocity S-wave (km/s) = 3.38708 3.97327 3.69183
# Velocity P-wave (km/s) = 5.84685 6.97750 6.43705
#
# Compressibility (1/GPa) = 0.02338046
#
# Stress axis : x y z
#
# Youngs Moduli (GPa) = 85.50725 113.95975 50.74829
#
# Poissons Ratio (x) = 0.15612 0.13861
# Poissons Ratio (y) = 0.11714 0.21802
# Poissons Ratio (z) = 0.23354 0.48958
#
# Static dielectric constant tensor:
#      x y z
#    x 1.842470 -0.006300 -0.001080 
#    y -0.006300 1.835600 0.019120 
#    z -0.001080 0.019120 1.860320 
# 
# From -- ./inp_files/534376.got.cif
#   From: 2010.05.17/outbox.cif.g08.bks.cpg/sg2_268_cif.got.tgz:534376.got - 2010.06.03 11:33:40.
