data_PCOD9041224
_publ_section_title
;
Structure prediction by ZEFSAII (Michael W. Deem and Ramdas Pophale) SiO2 
 PCOD9041224
Probable space group: P -1
;
_chemical_formula_sum "Si O2"
_cell_formula_units_Z 16
_cell_length_a 5.184036
_cell_length_b 17.676837
_cell_length_c 9.763832
_cell_angle_alpha 50.290917
_cell_angle_beta 106.036137
_cell_angle_gamma 106.186755
_cell_volume 655.171336
_symmetry_space_group_name_H-M "P -1"
_symmetry_group_IT_number 2
_symmetry_cell_setting 'triclinic'
loop_
_space_group_symop_operation_xyz
x,y,z
-x,-y,-z
loop_
_atom_site_type_symbol
_atom_site_label
_atom_site_fract_x
_atom_site_fract_y
_atom_site_fract_z
Si Si1 0.861382 0.708074 0.495443
Si Si2 0.231206 0.431470 0.099470
Si Si3 0.206199 0.975203 0.358897
Si Si4 0.130782 0.871579 0.965784
Si Si5 0.606764 0.165413 0.661021
Si Si6 0.630968 0.151155 0.262201
Si Si7 0.289546 0.305602 0.008908
Si Si8 0.753236 0.564646 0.396523
O O1 0.763524 0.624259 0.690362
O O2 0.672716 0.793385 0.396385
O O3 0.815163 0.657910 0.398428
O O4 0.178078 0.752917 0.481539
O O5 0.500000 0.500000 0.000000
O O6 0.155074 0.343960 0.078704
O O7 0.000000 0.500000 0.000000
O O8 0.392431 0.928417 0.329758
O O9 0.142263 0.890538 0.563965
O O10 0.366174 0.071434 0.346537
O O11 0.975641 0.022409 0.189348
O O12 0.323077 0.859407 0.879597
O O13 0.263073 0.858158 0.146834
O O14 0.891697 0.781375 0.001542
O O15 0.552390 0.259175 0.150269
O O16 0.330780 0.397498 0.806247
O O17 0.500000 0.500000 0.500000
O O18 0.000000 0.500000 0.500000
#
# Coordination Sequence:
#
# PCOD9041224 Si02
#       8
#     2   2   2   2   2   2   2   2
#     4  12  26  46  68 105 137 181 232 281 347 411
#     4  12  27  47  72 102 138 178 232 290 353 413
#     4  10  24  43  66 106 134 189 227 283 340 403
#     4  11  24  42  70 100 139 182 233 281 337 418
#     4  12  26  44  71 101 146 182 229 279 339 413
#     4  10  23  43  71  98 141 177 238 278 343 410
#     4  11  25  43  69 103 133 183 227 287 346 406
#     4  12  25  44  71  98 136 176 227 284 342 409
#
# _framework density 24.421092999999999
#
# number of rings (size 3 to 8) (size 9 to 14) (size 15 to 20)
#    0.000    0.750    1.250    5.250    8.750    0.500 
#    0.000    0.000    0.000    0.000    0.000    0.000 
#    0.000    0.000    0.000    0.000    0.000    0.000 
#
# Total GULP energy -89535.592575 kJ/mol
# GULP energy per Si atom -5595.974536 kJ/mol
# Density = 2.436551 g / cm^3
# Si number density = 24.421093 Si / 1000 Ang^3
#
#
#
# Elastic Constant Matrix: (Units=GPa)
#
#
# Indices 1 2 3 4 5 6 
#
# 1 124.5023 32.1473 44.4657 -17.6739 -1.5558 -31.9773
# 2 32.1473 101.5508 28.0921 6.1119 8.4184 -34.2744
# 3 44.4657 28.0921 178.0669 3.8312 6.0368 -15.5313
# 4 -17.6739 6.1119 3.8312 45.1774 -8.8145 0.5556
# 5 -1.5558 8.4184 6.0368 -8.8145 34.6192 -8.1499
# 6 -31.9773 -34.2744 -15.5313 0.5556 -8.1499 51.3645
#
#
#
# Elastic Compliance Matrix: (Units=1/GPa)
#
#
# Indices 1 2 3 4 5 6 
#
# 1 0.011771 -0.001714 -0.002409 0.005800 0.004272 0.006071
# 2 -0.001714 0.013479 -0.000921 -0.002939 -0.002217 0.007329
# 3 -0.002409 -0.000921 0.006415 -0.001653 -0.001517 -0.000397
# 4 0.005800 -0.002939 -0.001653 0.026584 0.008555 0.002220
# 5 0.004272 -0.002217 -0.001517 0.008555 0.033457 0.005937
# 6 0.006071 0.007329 -0.000397 0.002220 0.005937 0.028936
#
#
# Mechanical properties :
#
#
# Convention : Reuss Voigt Hill
#
# Bulk Modulus (GPa) = 46.34577 68.17001 57.25789
# Shear Modulus (GPa) = 36.25242 46.19321 41.22281
#
# Velocity S-wave (km/s) = 3.85706 4.35389 4.11299
# Velocity P-wave (km/s) = 6.23337 7.29727 6.78620
#
# Compressibility (1/GPa) = 0.02157694
#
# Stress axis : x y z
#
# Youngs Moduli (GPa) = 84.95514 74.19099 155.88322
#
# Poissons Ratio (x) = 0.12717 0.37553
# Poissons Ratio (y) = 0.14562 0.14354
# Poissons Ratio (z) = 0.20466 0.06832
#
# Static dielectric constant tensor:
#      x y z
#    x 1.989120 0.091330 -0.043120 
#    y 0.091330 1.995840 -0.031580 
#    z -0.043120 -0.031580 2.011700 
# 
# From -- ./inp_files/48942.got.cif
#   From: 2010.05.17/outbox.cif.g08.bks.cpg/sg2_25_cif.got.tgz:48942.got - 2010.06.03 11:33:40.
