data_PCOD9041501
_publ_section_title
;
Structure prediction by ZEFSAII (Michael W. Deem and Ramdas Pophale) SiO2 
 PCOD9041501
Probable space group: P -1
;
_chemical_formula_sum "Si O2"
_cell_formula_units_Z 16
_cell_length_a 19.082897
_cell_length_b 10.321972
_cell_length_c 11.339991
_cell_angle_alpha 75.726477
_cell_angle_beta 136.311236
_cell_angle_gamma 139.041695
_cell_volume 758.463400
_symmetry_space_group_name_H-M "P -1"
_symmetry_group_IT_number 2
_symmetry_cell_setting 'triclinic'
loop_
_space_group_symop_operation_xyz
x,y,z
-x,-y,-z
loop_
_atom_site_type_symbol
_atom_site_label
_atom_site_fract_x
_atom_site_fract_y
_atom_site_fract_z
Si Si1 0.079990 0.678879 0.664405
Si Si2 0.649004 0.094293 0.854442
Si Si3 0.438623 0.204778 0.837872
Si Si4 0.717636 0.690994 0.451374
Si Si5 0.359326 0.156916 0.273477
Si Si6 0.894951 0.868617 0.027952
Si Si7 0.283888 0.545674 0.676464
Si Si8 0.468876 0.749871 0.309156
O O1 0.000000 0.500000 0.500000
O O2 0.910594 0.585014 0.525090
O O3 0.261038 0.967906 0.763541
O O4 0.170917 0.698580 0.878783
O O5 0.601276 0.189817 0.734575
O O6 0.692039 0.035456 0.818055
O O7 0.456543 0.819695 0.752983
O O8 0.407255 0.321855 0.736752
O O9 0.433615 0.115877 0.730483
O O10 0.637257 0.397234 0.109355
O O11 0.577824 0.454662 0.428368
O O12 0.749908 0.629979 0.394514
O O13 0.930625 0.968664 0.704380
O O14 0.205227 0.101318 0.073428
O O15 0.382207 0.152921 0.440685
O O16 0.719769 0.560369 0.875710
O O17 0.000000 0.000000 0.000000
#
# Coordination Sequence:
#
# PCOD9041501 Si02
#       8
#     2   2   2   2   2   2   2   2
#     4  11  23  41  64  91 129 166 208 261 313 369
#     4  10  24  43  67  93 126 170 208 257 317 372
#     4  11  24  39  65  95 125 167 212 256 314 373
#     4  11  23  41  66  94 125 167 208 260 319 370
#     4  11  23  46  65  91 132 164 207 264 315 371
#     4  12  24  41  66  94 128 167 211 258 314 372
#     4  10  23  44  63  92 129 165 211 260 311 374
#     4  12  23  43  66  94 129 165 212 260 311 377
#
# _framework density 21.095281
#
# number of rings (size 3 to 8) (size 9 to 14) (size 15 to 20)
#    0.000    1.000    2.500    4.125    3.500    2.500 
#    2.250    0.625    0.000    0.000    0.000    0.000 
#    0.000    0.000    0.000    0.000    0.000    0.000 
#
# Total GULP energy -89514.865850 kJ/mol
# GULP energy per Si atom -5594.679116 kJ/mol
# Density = 2.104727 g / cm^3
# Si number density = 21.095281 Si / 1000 Ang^3
#
#
#
# Elastic Constant Matrix: (Units=GPa)
#
#
# Indices 1 2 3 4 5 6 
#
# 1 69.4768 -2.1203 -20.2927 7.5546 14.2134 -4.2186
# 2 -2.1203 35.3115 -1.0164 -9.9542 2.8150 -19.1536
# 3 -20.2927 -1.0164 46.0184 -2.1513 8.5491 13.7571
# 4 7.5546 -9.9542 -2.1513 21.8437 -2.2991 -3.7224
# 5 14.2134 2.8150 8.5491 -2.2991 35.9060 -8.8602
# 6 -4.2186 -19.1536 13.7571 -3.7224 -8.8602 35.5063
#
#
#
# Elastic Compliance Matrix: (Units=1/GPa)
#
#
# Indices 1 2 3 4 5 6 
#
# 1 0.023151 -0.008375 0.016638 -0.014326 -0.016820 -0.013913
# 2 -0.008375 0.064017 -0.018337 0.040485 0.017403 0.049231
# 3 0.016638 -0.018337 0.041904 -0.017996 -0.024193 -0.032075
# 4 -0.014326 0.040485 -0.017996 0.076606 0.021695 0.040555
# 5 -0.016820 0.017403 -0.024193 0.021695 0.047944 0.031002
# 6 -0.013913 0.049231 -0.032075 0.040555 0.031002 0.077484
#
#
# Mechanical properties :
#
#
# Convention : Reuss Voigt Hill
#
# Bulk Modulus (GPa) = 9.18066 11.54979 10.36522
# Shear Modulus (GPa) = 12.90111 30.26692 21.58402
#
# Velocity S-wave (km/s) = 2.47566 3.79195 3.20217
# Velocity P-wave (km/s) = 3.54024 4.96576 4.31231
#
# Compressibility (1/GPa) = 0.10892469
#
# Stress axis : x y z
#
# Youngs Moduli (GPa) = 43.19394 15.62074 23.86379
#
# Poissons Ratio (x) = 0.13083 -0.39706
# Poissons Ratio (y) = 0.36177 0.43760
# Poissons Ratio (z) = -0.71868 0.28644
#
# Static dielectric constant tensor:
#      x y z
#    x 1.756330 0.011380 -0.008070 
#    y 0.011380 1.758250 0.014790 
#    z -0.008070 0.014790 1.731560 
# 
# From -- ./inp_files/68670.got.cif
#   From: 2010.05.17/outbox.cif.g08.bks.cpg/sg2_35_cif.got.tgz:68670.got - 2010.06.03 11:33:40.
