data_PCOD9041938
_publ_section_title
;
Structure prediction by ZEFSAII (Michael W. Deem and Ramdas Pophale) SiO2 
 PCOD9041938
Probable space group: P -1
;
_chemical_formula_sum "Si O2"
_cell_formula_units_Z 14
_cell_length_a 13.309492
_cell_length_b 14.306203
_cell_length_c 4.942914
_cell_angle_alpha 122.842413
_cell_angle_beta 118.073566
_cell_angle_gamma 43.842384
_cell_volume 542.599042
_symmetry_space_group_name_H-M "P -1"
_symmetry_group_IT_number 2
_symmetry_cell_setting 'triclinic'
loop_
_space_group_symop_operation_xyz
x,y,z
-x,-y,-z
loop_
_atom_site_type_symbol
_atom_site_label
_atom_site_fract_x
_atom_site_fract_y
_atom_site_fract_z
Si Si1 0.959164 0.119707 0.424559
Si Si2 0.325308 0.597349 0.427439
Si Si3 0.737098 0.499061 0.293671
Si Si4 0.959645 0.701848 0.880963
Si Si5 0.776650 0.963862 0.662323
Si Si6 0.543705 0.809941 0.283253
Si Si7 0.686369 0.828858 0.975659
O O1 0.784102 0.238316 0.348529
O O2 0.087610 0.038533 0.233593
O O3 0.988966 0.225333 0.756246
O O4 0.000000 0.000000 0.500000
O O5 0.500000 0.500000 0.500000
O O6 0.709343 0.404570 0.933769
O O7 0.284319 0.518936 0.450081
O O8 0.620383 0.657707 0.281877
O O9 0.900111 0.431887 0.302644
O O10 0.852397 0.821896 0.712171
O O11 0.851792 0.689092 0.892379
O O12 0.629425 0.100945 0.822219
O O13 0.714485 0.937843 0.278951
O O14 0.619005 0.796978 0.078495
O O15 0.584953 0.880920 0.665195
#
# Coordination Sequence:
#
# PCOD9041938 Si02
#       7
#     2   2   2   2   2   2   2
#     4  10  24  42  68 101 127 171 222 270 327 389
#     4  11  24  46  71  91 135 174 213 272 331 383
#     4  11  25  46  63 101 132 172 216 270 327 385
#     4  10  23  44  68  90 140 169 216 271 330 385
#     4  11  23  43  66  95 135 173 215 275 324 385
#     4  12  26  39  69  98 135 170 226 264 314 397
#     4  11  24  43  66  99 130 180 215 269 328 374
#
# _framework density 25.801739999999999
#
# number of rings (size 3 to 8) (size 9 to 14) (size 15 to 20)
#    0.000    1.143    2.857    2.143    6.000    2.857 
#    0.000    0.000    0.000    0.000    0.000    0.000 
#    0.000    0.000    0.000    0.000    0.000    0.000 
#
# Total GULP energy -78307.702763 kJ/mol
# GULP energy per Si atom -5593.407340 kJ/mol
# Density = 2.574301 g / cm^3
# Si number density = 25.801740 Si / 1000 Ang^3
#
#
#
# Elastic Constant Matrix: (Units=GPa)
#
#
# Indices 1 2 3 4 5 6 
#
# 1 147.7198 77.4819 32.3732 13.0455 -25.4902 -42.0702
# 2 77.4819 198.7129 0.2990 1.0223 -20.6798 -38.5646
# 3 32.3732 0.2990 76.7248 -16.2652 -13.7681 -8.0889
# 4 13.0455 1.0223 -16.2652 25.2787 0.2480 -1.4531
# 5 -25.4902 -20.6798 -13.7681 0.2480 42.6952 -6.0617
# 6 -42.0702 -38.5646 -8.0889 -1.4531 -6.0617 55.7531
#
#
#
# Elastic Compliance Matrix: (Units=1/GPa)
#
#
# Indices 1 2 3 4 5 6 
#
# 1 0.014090 -0.003298 -0.006340 -0.010827 0.005940 0.007795
# 2 -0.003298 0.007262 0.002996 0.003501 0.002975 0.003384
# 3 -0.006340 0.002996 0.019946 0.016004 0.004154 0.001051
# 4 -0.010827 0.003501 0.016004 0.055189 -0.000213 -0.002011
# 5 0.005940 0.002975 0.004154 -0.000213 0.031245 0.010534
# 6 0.007795 0.003384 0.001051 -0.002011 0.010534 0.027404
#
#
# Mechanical properties :
#
#
# Convention : Reuss Voigt Hill
#
# Bulk Modulus (GPa) = 35.69557 71.49618 53.59588
# Shear Modulus (GPa) = 28.12816 45.61232 36.87024
#
# Velocity S-wave (km/s) = 3.30535 4.20908 3.78429
# Velocity P-wave (km/s) = 5.33214 7.16881 6.31758
#
# Compressibility (1/GPa) = 0.02801468
#
# Stress axis : x y z
#
# Youngs Moduli (GPa) = 70.97383 137.70148 50.13524
#
# Poissons Ratio (x) = 0.45411 0.31785
# Poissons Ratio (y) = 0.23405 -0.15021
# Poissons Ratio (z) = 0.44996 -0.41256
#
# Static dielectric constant tensor:
#      x y z
#    x 2.076650 -0.044280 0.055670 
#    y -0.044280 2.086300 0.117080 
#    z 0.055670 0.117080 2.139930 
# 
# From -- ./inp_files/74823.got.cif
#   From: 2010.05.17/outbox.cif.g08.bks.cpg/sg2_38_cif.got.tgz:74823.got - 2010.06.03 11:33:40.
