data_PCOD9041258
_publ_section_title
;
Structure prediction by ZEFSAII (Michael W. Deem and Ramdas Pophale) SiO2 
 PCOD9041258
Probable space group: P -1
;
_chemical_formula_sum "Si O2"
_cell_formula_units_Z 16
_cell_length_a 5.485876
_cell_length_b 12.422069
_cell_length_c 17.810330
_cell_angle_alpha 131.857990
_cell_angle_beta 128.867812
_cell_angle_gamma 71.100546
_cell_volume 694.349538
_symmetry_space_group_name_H-M "P -1"
_symmetry_group_IT_number 2
_symmetry_cell_setting 'triclinic'
loop_
_space_group_symop_operation_xyz
x,y,z
-x,-y,-z
loop_
_atom_site_type_symbol
_atom_site_label
_atom_site_fract_x
_atom_site_fract_y
_atom_site_fract_z
Si Si1 0.764359 0.594281 0.734894
Si Si2 0.810878 0.724371 0.163751
Si Si3 0.793277 0.860642 0.072261
Si Si4 0.846399 0.332582 0.382305
Si Si5 0.469996 0.710609 0.537129
Si Si6 0.074232 0.582391 0.946287
Si Si7 0.221128 0.906793 0.453832
Si Si8 0.902075 0.095248 0.094085
O O1 0.440459 0.654479 0.724479
O O2 0.667283 0.455360 0.597157
O O3 0.982952 0.560727 0.830378
O O4 0.938904 0.737598 0.794845
O O5 0.827723 0.849378 0.162244
O O6 0.972754 0.582393 0.107019
O O7 0.989068 0.796614 0.304196
O O8 0.438033 0.656801 0.066538
O O9 0.998575 0.000246 0.138099
O O10 0.455850 0.886970 0.988579
O O11 0.866857 0.703293 0.987419
O O12 0.688508 0.274987 0.404941
O O13 0.000000 0.500000 0.500000
O O14 0.147726 0.264640 0.383316
O O15 0.367079 0.816533 0.503914
O O16 0.500000 0.000000 0.500000
O O17 0.000000 0.000000 0.500000
O O18 0.000000 0.000000 0.000000
#
# Coordination Sequence:
#
# PCOD9041258 Si02
#       8
#     2   2   2   2   2   2   2   2
#     4  11  21  43  70 102 141 188 239 302 378 441
#     4  11  25  48  73 109 146 194 253 312 371 453
#     4  11  23  42  70 103 153 188 241 299 379 452
#     4  10  23  43  72 103 144 183 247 306 370 429
#     4  11  24  50  69 107 144 195 255 315 361 446
#     4  11  23  45  74 110 145 187 249 306 379 439
#     4  12  29  53  77 108 150 207 258 313 378 450
#     4  11  23  43  62 104 150 187 231 296 374 458
#
# _framework density 23.043151999999999
#
# number of rings (size 3 to 8) (size 9 to 14) (size 15 to 20)
#    0.000    1.000    3.750    2.625    1.750    4.000 
#    9.000    0.000    0.000    0.000    0.000    0.000 
#    0.000    0.000    0.000    0.000    0.000    0.000 
#
# Total GULP energy -89333.537214 kJ/mol
# GULP energy per Si atom -5583.346076 kJ/mol
# Density = 2.299070 g / cm^3
# Si number density = 23.043152 Si / 1000 Ang^3
#
#
#
# Elastic Constant Matrix: (Units=GPa)
#
#
# Indices 1 2 3 4 5 6 
#
# 1 119.4562 60.2737 44.0131 3.1996 -3.6122 -8.7421
# 2 60.2737 193.2964 37.9361 -1.0931 0.2439 5.8680
# 3 44.0131 37.9361 95.0160 -9.0521 -4.6932 -11.7391
# 4 3.1996 -1.0931 -9.0521 31.1227 -12.7148 -0.9141
# 5 -3.6122 0.2439 -4.6932 -12.7148 21.6220 2.5718
# 6 -8.7421 5.8680 -11.7391 -0.9141 2.5718 49.2433
#
#
#
# Elastic Compliance Matrix: (Units=1/GPa)
#
#
# Indices 1 2 3 4 5 6 
#
# 1 0.011545 -0.002796 -0.004381 -0.002859 -0.000830 0.001329
# 2 -0.002796 0.006392 -0.001529 -0.000340 -0.000883 -0.001583
# 3 -0.004381 -0.001529 0.014508 0.007317 0.006421 0.002663
# 4 -0.002859 -0.000340 0.007317 0.046046 0.028113 0.000664
# 5 -0.000830 -0.000883 0.006421 0.028113 0.064205 -0.001343
# 6 0.001329 -0.001583 0.002663 0.000664 -0.001343 0.021449
#
#
# Mechanical properties :
#
#
# Convention : Reuss Voigt Hill
#
# Bulk Modulus (GPa) = 66.51458 76.91271 71.71365
# Shear Modulus (GPa) = 26.80012 38.10066 32.45039
#
# Velocity S-wave (km/s) = 3.41404 4.07067 3.75673
# Velocity P-wave (km/s) = 6.66849 7.45278 7.07152
#
# Compressibility (1/GPa) = 0.01503430
#
# Stress axis : x y z
#
# Youngs Moduli (GPa) = 86.62072 156.43626 68.92985
#
# Poissons Ratio (x) = 0.43732 0.30197
# Poissons Ratio (y) = 0.24215 0.10538
# Poissons Ratio (z) = 0.37947 0.23916
#
# Static dielectric constant tensor:
#      x y z
#    x 2.062830 -0.025460 0.043400 
#    y -0.025460 1.873550 -0.042970 
#    z 0.043400 -0.042970 1.895830 
# 
# From -- ./inp_files/549586.got.cif
#   From: 2010.05.17/outbox.cif.g08.bks.cpg/sg2_275_cif.got.tgz:549586.got - 2010.06.03 11:33:40.
