data_PCOD9041941
_publ_section_title
;
Structure prediction by ZEFSAII (Michael W. Deem and Ramdas Pophale) SiO2 
 PCOD9041941
Probable space group: P -1
;
_chemical_formula_sum "Si O2"
_cell_formula_units_Z 16
_cell_length_a 9.218421
_cell_length_b 17.232810
_cell_length_c 5.235406
_cell_angle_alpha 75.524979
_cell_angle_beta 92.445520
_cell_angle_gamma 65.682129
_cell_volume 723.782238
_symmetry_space_group_name_H-M "P -1"
_symmetry_group_IT_number 2
_symmetry_cell_setting 'triclinic'
loop_
_space_group_symop_operation_xyz
x,y,z
-x,-y,-z
loop_
_atom_site_type_symbol
_atom_site_label
_atom_site_fract_x
_atom_site_fract_y
_atom_site_fract_z
Si Si1 0.906840 0.189318 0.882910
Si Si2 0.847340 0.462735 0.232249
Si Si3 0.578775 0.064982 0.883954
Si Si4 0.997368 0.739758 0.674911
Si Si5 0.352789 0.248199 0.433908
Si Si6 0.873533 0.056150 0.658651
Si Si7 0.787026 0.557382 0.649005
Si Si8 0.363446 0.810828 0.844005
O O1 0.987351 0.204299 0.131765
O O2 0.718250 0.227111 0.922320
O O3 0.944742 0.089427 0.875704
O O4 0.964296 0.229208 0.619689
O O5 0.880823 0.364884 0.219546
O O6 0.771706 0.495273 0.477723
O O7 0.026199 0.458738 0.289205
O O8 0.750726 0.531206 0.946866
O O9 0.452405 0.155252 0.662833
O O10 0.741467 0.022386 0.762610
O O11 0.628862 0.102152 0.107653
O O12 0.500000 0.000000 0.000000
O O13 0.817487 0.747925 0.659968
O O14 0.312661 0.338748 0.509682
O O15 0.461922 0.248833 0.203069
O O16 0.759746 0.150936 0.432745
O O17 0.000000 0.000000 0.500000
#
# Coordination Sequence:
#
# PCOD9041941 Si02
#       8
#     2   2   2   2   2   2   2   2
#     4  11  23  43  65  97 132 178 213 270 325 399
#     4   9  18  34  58  96 132 166 208 274 321 375
#     4  10  24  42  66  96 134 167 218 278 330 381
#     4  11  23  39  69 104 134 167 226 276 325 380
#     4  10  24  39  67 101 131 177 220 270 332 395
#     4  10  23  44  68  92 124 176 225 265 332 395
#     4   9  18  34  60  91 133 170 211 259 328 391
#     4  10  23  45  63  93 128 181 212 265 333 398
#
# _framework density 22.106096000000001
#
# number of rings (size 3 to 8) (size 9 to 14) (size 15 to 20)
#    0.000    2.000    1.250    0.750    3.500    9.000 
#    0.000    0.000    0.000    4.500    0.000    0.000 
#    0.000    0.000    0.000    0.000    0.000    0.000 
#
# Total GULP energy -89302.305327 kJ/mol
# GULP energy per Si atom -5581.394083 kJ/mol
# Density = 2.205578 g / cm^3
# Si number density = 22.106096 Si / 1000 Ang^3
#
#
#
# Elastic Constant Matrix: (Units=GPa)
#
#
# Indices 1 2 3 4 5 6 
#
# 1 95.5368 54.5747 33.7583 10.9685 -8.9039 -16.6188
# 2 54.5747 117.3249 54.2649 10.6755 1.6026 -4.0107
# 3 33.7583 54.2649 98.4476 18.0526 -1.0952 -12.6454
# 4 10.9685 10.6755 18.0526 41.7260 -0.3299 3.0825
# 5 -8.9039 1.6026 -1.0952 -0.3299 20.1354 14.0037
# 6 -16.6188 -4.0107 -12.6454 3.0825 14.0037 21.3474
#
#
#
# Elastic Compliance Matrix: (Units=1/GPa)
#
#
# Indices 1 2 3 4 5 6 
#
# 1 0.017248 -0.007500 0.000742 -0.003988 -0.001592 0.014078
# 2 -0.007500 0.014760 -0.006874 0.001747 0.000557 -0.007755
# 3 0.000742 -0.006874 0.017105 -0.007188 -0.010269 0.017192
# 4 -0.003988 0.001747 -0.007188 0.029130 0.011036 -0.018481
# 5 -0.001592 0.000557 -0.010269 0.011036 0.100531 -0.074759
# 6 0.014078 -0.007755 0.017192 -0.018481 -0.074759 0.118240
#
#
# Mechanical properties :
#
#
# Convention : Reuss Voigt Hill
#
# Bulk Modulus (GPa) = 45.77282 66.27835 56.02558
# Shear Modulus (GPa) = 15.08019 27.88917 21.48468
#
# Velocity S-wave (km/s) = 2.61468 3.55576 3.12090
# Velocity P-wave (km/s) = 5.46501 6.84872 6.19561
#
# Compressibility (1/GPa) = 0.02184703
#
# Stress axis : x y z
#
# Youngs Moduli (GPa) = 57.97799 67.75141 58.46390
#
# Poissons Ratio (x) = 0.50814 -0.04336
# Poissons Ratio (y) = 0.43484 0.40189
# Poissons Ratio (z) = -0.04300 0.46573
#
# Static dielectric constant tensor:
#      x y z
#    x 1.817320 -0.009040 0.015950 
#    y -0.009040 1.809630 -0.006550 
#    z 0.015950 -0.006550 1.889000 
# 
# From -- ./inp_files/39910.got.cif
#   From: 2010.05.17/outbox.cif.g08.bks.cpg/sg2_20_cif.got.tgz:39910.got - 2010.06.03 11:33:40.
