data_PCOD9041553
_publ_section_title
;
Structure prediction by ZEFSAII (Michael W. Deem and Ramdas Pophale) SiO2 
 PCOD9041553
Probable space group: P -1
;
_chemical_formula_sum "Si O2"
_cell_formula_units_Z 16
_cell_length_a 27.196798
_cell_length_b 5.528703
_cell_length_c 6.156850
_cell_angle_alpha 77.972008
_cell_angle_beta 119.160324
_cell_angle_gamma 121.056245
_cell_volume 691.407956
_symmetry_space_group_name_H-M "P -1"
_symmetry_group_IT_number 2
_symmetry_cell_setting 'triclinic'
loop_
_space_group_symop_operation_xyz
x,y,z
-x,-y,-z
loop_
_atom_site_type_symbol
_atom_site_label
_atom_site_fract_x
_atom_site_fract_y
_atom_site_fract_z
Si Si1 0.292498 0.444990 0.087000
Si Si2 0.829254 0.523970 0.072589
Si Si3 0.862221 0.233917 0.583455
Si Si4 0.076705 0.163763 0.139146
Si Si5 0.411499 0.767117 0.575197
Si Si6 0.474823 0.281544 0.293914
Si Si7 0.746480 0.064866 0.665240
Si Si8 0.631591 0.038748 0.157829
O O1 0.337196 0.576196 0.376505
O O2 0.280774 0.129654 0.142326
O O3 0.220430 0.401489 0.927592
O O4 0.332873 0.662868 0.947968
O O5 0.843538 0.322476 0.297868
O O6 0.894307 0.760972 0.058504
O O7 0.786775 0.371426 0.796902
O O8 0.900125 0.539196 0.734571
O O9 0.798766 0.040712 0.630090
O O10 0.898633 0.049014 0.674084
O O11 0.000000 0.000000 0.000000
O O12 0.461806 0.650438 0.718916
O O13 0.413162 0.929365 0.765039
O O14 0.442165 0.979550 0.400503
O O15 0.500000 0.500000 0.500000
O O16 0.412621 0.230423 0.034602
O O17 0.687182 0.010150 0.401437
#
# Coordination Sequence:
#
# PCOD9041553 Si02
#       8
#     2   2   2   2   2   2   2   2
#     4  11  23  41  66 100 136 174 228 294 349 425
#     4  11  24  42  68 102 146 179 237 289 350 423
#     4  11  25  44  74 104 143 194 230 295 360 411
#     4  11  26  47  72 107 147 190 243 288 345 427
#     4  10  23  44  64  96 132 174 228 293 347 424
#     4  10  24  45  65  93 132 178 233 283 353 432
#     4  11  24  41  67 103 135 179 232 286 355 424
#     4  11  23  44  70  96 133 180 230 293 363 416
#
# _framework density 23.141185
#
# number of rings (size 3 to 8) (size 9 to 14) (size 15 to 20)
#    0.000    1.250    3.750    0.750    3.500    2.500 
#    6.750    0.000    0.000    0.000    0.000    0.000 
#    0.000    0.000    0.000    0.000    0.000    0.000 
#
# Total GULP energy -89254.816340 kJ/mol
# GULP energy per Si atom -5578.426021 kJ/mol
# Density = 2.308851 g / cm^3
# Si number density = 23.141185 Si / 1000 Ang^3
#
#
#
# Elastic Constant Matrix: (Units=GPa)
#
#
# Indices 1 2 3 4 5 6 
#
# 1 120.1600 34.7810 43.3116 7.9344 29.5452 18.3252
# 2 34.7810 87.6814 36.9233 -17.6577 19.0169 10.9768
# 3 43.3116 36.9233 94.2356 -11.0656 22.5799 10.9925
# 4 7.9344 -17.6577 -11.0656 31.4553 4.5160 -12.6147
# 5 29.5452 19.0169 22.5799 4.5160 25.5057 -4.8994
# 6 18.3252 10.9768 10.9925 -12.6147 -4.8994 31.3933
#
#
#
# Elastic Compliance Matrix: (Units=1/GPa)
#
#
# Indices 1 2 3 4 5 6 
#
# 1 0.016871 -0.002145 -0.002219 -0.009765 -0.017115 -0.014916
# 2 -0.002145 0.017950 -0.001766 0.010932 -0.011623 -0.001827
# 3 -0.002219 -0.001766 0.016321 0.005693 -0.012227 -0.003423
# 4 -0.009765 0.010932 0.005693 0.051181 -0.007230 0.019322
# 5 -0.017115 -0.011623 -0.012227 -0.007230 0.085325 0.028747
# 6 -0.014916 -0.001827 -0.003423 0.019322 0.028747 0.054648
#
#
# Mechanical properties :
#
#
# Convention : Reuss Voigt Hill
#
# Bulk Modulus (GPa) = 25.71853 59.12319 42.42086
# Shear Modulus (GPa) = 18.69039 30.14161 24.41600
#
# Velocity S-wave (km/s) = 2.84503 3.61294 3.25174
# Velocity P-wave (km/s) = 4.68296 6.55811 5.69820
#
# Compressibility (1/GPa) = 0.03888247
#
# Stress axis : x y z
#
# Youngs Moduli (GPa) = 59.27348 55.70890 61.27062
#
# Poissons Ratio (x) = 0.11949 0.13598
# Poissons Ratio (y) = 0.12713 0.10819
# Poissons Ratio (z) = 0.13155 0.09837
#
# Static dielectric constant tensor:
#      x y z
#    x 1.905030 -0.020980 -0.016480 
#    y -0.020980 1.960600 0.013190 
#    z -0.016480 0.013190 1.957200 
# 
# From -- ./inp_files/10633.got.cif
#   From: 2010.05.17/outbox.cif.g08.bks.cpg/sg2_6_cif.got.tgz:10633.got - 2010.06.03 11:33:40.
