data_PCOD9041057
_publ_section_title
;
Structure prediction by ZEFSAII (Michael W. Deem and Ramdas Pophale) SiO2 
 PCOD9041057
Probable space group: P -1
;
_chemical_formula_sum "Si O2"
_cell_formula_units_Z 14
_cell_length_a 8.624439
_cell_length_b 5.092263
_cell_length_c 21.157679
_cell_angle_alpha 121.367345
_cell_angle_beta 46.381970
_cell_angle_gamma 123.148544
_cell_volume 547.253878
_symmetry_space_group_name_H-M "P -1"
_symmetry_group_IT_number 2
_symmetry_cell_setting 'triclinic'
loop_
_space_group_symop_operation_xyz
x,y,z
-x,-y,-z
loop_
_atom_site_type_symbol
_atom_site_label
_atom_site_fract_x
_atom_site_fract_y
_atom_site_fract_z
Si Si1 0.967686 0.690110 0.791381
Si Si2 0.515131 0.369175 0.048742
Si Si3 0.277778 0.203710 0.518369
Si Si4 0.192413 0.154098 0.675530
Si Si5 0.278209 0.196999 0.853026
Si Si6 0.494428 0.341476 0.264136
Si Si7 0.115985 0.612919 0.414396
O O1 0.706593 0.636776 0.850265
O O2 0.012237 0.351624 0.747518
O O3 0.115254 0.879087 0.715236
O O4 0.057429 0.925506 0.855960
O O5 0.722758 0.610507 0.058126
O O6 0.500000 0.500000 0.000000
O O7 0.500000 0.000000 0.000000
O O8 0.500000 0.500000 0.500000
O O9 0.237550 0.046098 0.579675
O O10 0.061065 0.312627 0.573847
O O11 0.291786 0.959811 0.427959
O O12 0.411805 0.435185 0.673209
O O13 0.353059 0.469348 0.812402
O O14 0.459858 0.997419 0.782524
O O15 0.246807 0.366508 0.325443
O O16 0.000000 0.500000 0.500000
#
# Coordination Sequence:
#
# PCOD9041057 Si02
#       7
#     2   2   2   2   2   2   2
#     4  10  24  45  68 103 133 181 232 273 346 415
#     4  12  26  44  71 107 139 175 224 278 347 425
#     4  11  27  44  66 101 144 190 240 301 357 404
#     4  10  23  43  71  97 137 187 236 286 338 415
#     4  10  24  45  69  99 135 179 217 287 336 410
#     4  10  23  43  70  96 137 178 238 280 346 405
#     4  11  27  42  65 100 137 190 239 295 359 413
#
# _framework density 25.582280000000001
#
# number of rings (size 3 to 8) (size 9 to 14) (size 15 to 20)
#    0.000    1.429    0.000    2.571   14.000    2.286 
#    0.000    0.000    0.000    0.000    0.000    0.000 
#    0.000    0.000    0.000    0.000    0.000    0.000 
#
# Total GULP energy -78514.447984 kJ/mol
# GULP energy per Si atom -5608.174856 kJ/mol
# Density = 2.552405 g / cm^3
# Si number density = 25.582280 Si / 1000 Ang^3
#
#
#
# Elastic Constant Matrix: (Units=GPa)
#
#
# Indices 1 2 3 4 5 6 
#
# 1 98.3226 36.0824 22.9911 22.8103 14.2374 -5.1001
# 2 36.0824 117.9554 30.0025 26.7072 19.2720 4.1064
# 3 22.9911 30.0025 41.9243 19.2671 25.2725 4.6160
# 4 22.8103 26.7072 19.2671 51.2940 1.6553 6.7941
# 5 14.2374 19.2720 25.2725 1.6553 62.1606 4.6504
# 6 -5.1001 4.1064 4.6160 6.7941 4.6504 48.4512
#
#
#
# Elastic Compliance Matrix: (Units=1/GPa)
#
#
# Indices 1 2 3 4 5 6 
#
# 1 0.012891 -0.002157 -0.003625 -0.003546 -0.000900 0.002469
# 2 -0.002157 0.011215 -0.004915 -0.002977 -0.000890 -0.000206
# 3 -0.003625 -0.004915 0.043988 -0.011723 -0.015138 -0.001059
# 4 -0.003546 -0.002977 -0.011723 0.027283 0.006030 -0.003409
# 5 -0.000900 -0.000890 -0.015138 0.006030 0.022683 -0.001600
# 6 0.002469 -0.000206 -0.001059 -0.003409 -0.001600 0.021649
#
#
# Mechanical properties :
#
#
# Convention : Reuss Voigt Hill
#
# Bulk Modulus (GPa) = 21.41429 48.48381 34.94905
# Shear Modulus (GPa) = 28.30146 43.65624 35.97885
#
# Velocity S-wave (km/s) = 3.32970 4.13547 3.75426
# Velocity P-wave (km/s) = 4.81368 6.46498 5.69945
#
# Compressibility (1/GPa) = 0.04669778
#
# Stress axis : x y z
#
# Youngs Moduli (GPa) = 77.57387 89.16957 22.73368
#
# Poissons Ratio (x) = 0.19237 0.08242
# Poissons Ratio (y) = 0.16735 0.11174
# Poissons Ratio (z) = 0.28123 0.43827
#
# Static dielectric constant tensor:
#      x y z
#    x 2.011580 0.050970 0.010450 
#    y 0.050970 2.047600 0.039970 
#    z 0.010450 0.039970 1.997100 
# 
# From -- ./inp_files/585908.got.cif
#   From: 2010.05.17/outbox.cif.g08.bks.cpg/sg2_293_cif.got.tgz:585908.got - 2010.06.03 11:33:40.
