data_PCOD9041920
_publ_section_title
;
Structure prediction by ZEFSAII (Michael W. Deem and Ramdas Pophale) SiO2 
 PCOD9041920
Probable space group: P -1
;
_chemical_formula_sum "Si O2"
_cell_formula_units_Z 16
_cell_length_a 7.261702
_cell_length_b 11.258488
_cell_length_c 20.796178
_cell_angle_alpha 148.154523
_cell_angle_beta 135.396915
_cell_angle_gamma 55.790501
_cell_volume 625.745722
_symmetry_space_group_name_H-M "P -1"
_symmetry_group_IT_number 2
_symmetry_cell_setting 'triclinic'
loop_
_space_group_symop_operation_xyz
x,y,z
-x,-y,-z
loop_
_atom_site_type_symbol
_atom_site_label
_atom_site_fract_x
_atom_site_fract_y
_atom_site_fract_z
Si Si1 0.101411 0.168582 0.044991
Si Si2 0.231638 0.322085 0.897415
Si Si3 0.210685 0.200079 0.564334
Si Si4 0.188245 0.574695 0.519119
Si Si5 0.391757 0.927774 0.823287
Si Si6 0.779219 0.297796 0.693471
Si Si7 0.180201 0.080009 0.259391
Si Si8 0.464316 0.273422 0.791255
O O1 0.408251 0.122676 0.095088
O O2 0.120257 0.442424 0.182108
O O3 0.923243 0.068499 0.895992
O O4 0.000000 0.000000 0.000000
O O5 0.319190 0.316746 0.841954
O O6 0.921283 0.254833 0.777583
O O7 0.432039 0.170355 0.911561
O O8 0.276960 0.548994 0.053425
O O9 0.966737 0.285783 0.506044
O O10 0.465575 0.271951 0.615606
O O11 0.289466 0.310974 0.703394
O O12 0.173046 0.927427 0.437841
O O13 0.259202 0.348860 0.398979
O O14 0.000000 0.500000 0.500000
O O15 0.411013 0.743217 0.687128
O O16 0.089874 0.931009 0.771567
O O17 0.429458 0.969243 0.297116
#
# Coordination Sequence:
#
# PCOD9041920 Si02
#       8
#     2   2   2   2   2   2   2   2
#     4  12  27  46  69 107 145 187 233 292 357 422
#     4  11  24  46  66 102 145 183 232 294 360 415
#     4  11  25  44  75 108 133 187 239 292 349 416
#     4  10  23  44  68 104 142 174 232 297 346 409
#     4  11  24  43  73  98 139 186 236 294 348 414
#     4  11  24  45  72 101 140 182 241 290 348 417
#     4  11  24  44  70 104 134 188 244 287 351 417
#     4  11  26  42  71 102 143 184 233 292 355 423
#
# _framework density 25.569490999999999
#
# number of rings (size 3 to 8) (size 9 to 14) (size 15 to 20)
#    0.000    1.000    2.500    3.375   12.250    1.500 
#    2.250    1.250    0.000    0.000    0.000    0.000 
#    0.000    0.000    0.000    0.000    0.000    0.000 
#
# Total GULP energy -89426.611712 kJ/mol
# GULP energy per Si atom -5589.163232 kJ/mol
# Density = 2.551129 g / cm^3
# Si number density = 25.569491 Si / 1000 Ang^3
#
#
#
# Elastic Constant Matrix: (Units=GPa)
#
#
# Indices 1 2 3 4 5 6 
#
# 1 63.2057 16.9855 17.7993 9.7176 -10.6833 -0.8613
# 2 16.9855 140.2913 43.8640 14.0325 -4.2716 -8.0087
# 3 17.7993 43.8640 146.7274 17.9492 -5.3440 7.8450
# 4 9.7176 14.0325 17.9492 52.8860 -2.8312 3.2582
# 5 -10.6833 -4.2716 -5.3440 -2.8312 33.7448 -5.0104
# 6 -0.8613 -8.0087 7.8450 3.2582 -5.0104 29.4317
#
#
#
# Elastic Compliance Matrix: (Units=1/GPa)
#
#
# Indices 1 2 3 4 5 6 
#
# 1 0.017825 -0.001226 -0.001414 -0.002291 0.005328 0.001725
# 2 -0.001226 0.008335 -0.002320 -0.001356 0.000648 0.003111
# 3 -0.001414 -0.002320 0.008027 -0.001687 -0.000001 -0.002626
# 4 -0.002291 -0.001356 -0.001687 0.020410 0.000220 -0.002208
# 5 0.005328 0.000648 -0.000001 0.000220 0.032283 0.005804
# 6 0.001725 0.003111 -0.002626 -0.002208 0.005804 0.036806
#
#
# Mechanical properties :
#
#
# Convention : Reuss Voigt Hill
#
# Bulk Modulus (GPa) = 41.20694 56.39132 48.79913
# Shear Modulus (GPa) = 35.28707 41.31755 38.30231
#
# Velocity S-wave (km/s) = 3.71893 4.02418 3.87456
# Velocity P-wave (km/s) = 5.88143 6.61015 6.25641
#
# Compressibility (1/GPa) = 0.02426776
#
# Stress axis : x y z
#
# Youngs Moduli (GPa) = 56.09985 119.98011 124.57801
#
# Poissons Ratio (x) = 0.14712 0.17612
# Poissons Ratio (y) = 0.06879 0.28899
# Poissons Ratio (z) = 0.07931 0.27833
#
# Static dielectric constant tensor:
#      x y z
#    x 2.182050 0.024950 0.101930 
#    y 0.024950 2.148220 0.092630 
#    z 0.101930 0.092630 2.004100 
# 
# From -- ./inp_files/589757.got.cif
#   From: 2010.05.17/outbox.cif.g08.bks.cpg/sg2_295_cif.got.tgz:589757.got - 2010.06.03 11:33:40.
