data_PCOD9041272
_publ_section_title
;
Structure prediction by ZEFSAII (Michael W. Deem and Ramdas Pophale) SiO2 
 PCOD9041272
Probable space group: P -1
;
_chemical_formula_sum "Si O2"
_cell_formula_units_Z 14
_cell_length_a 8.495139
_cell_length_b 12.319887
_cell_length_c 10.556683
_cell_angle_alpha 33.732623
_cell_angle_beta 66.928185
_cell_angle_gamma 82.416058
_cell_volume 522.224761
_symmetry_space_group_name_H-M "P -1"
_symmetry_group_IT_number 2
_symmetry_cell_setting 'triclinic'
loop_
_space_group_symop_operation_xyz
x,y,z
-x,-y,-z
loop_
_atom_site_type_symbol
_atom_site_label
_atom_site_fract_x
_atom_site_fract_y
_atom_site_fract_z
Si Si1 0.895815 0.712782 0.437736
Si Si2 0.718864 0.880721 0.115131
Si Si3 0.310265 0.194790 0.340231
Si Si4 0.211155 0.156558 0.125512
Si Si5 0.023316 0.420863 0.814118
Si Si6 0.693367 0.279189 0.205821
Si Si7 0.653840 0.205563 0.568727
O O1 0.782835 0.734723 0.329491
O O2 0.791966 0.757099 0.552330
O O3 0.918124 0.488084 0.669350
O O4 0.100459 0.900865 0.171828
O O5 0.549596 0.920179 0.194443
O O6 0.644986 0.774261 0.104792
O O7 0.231016 0.227425 0.196326
O O8 0.532995 0.312196 0.144150
O O9 0.304003 0.954256 0.589918
O O10 0.214584 0.924468 0.366354
O O11 0.053855 0.208806 0.048864
O O12 0.227193 0.595915 0.579373
O O13 0.897081 0.437186 0.955111
O O14 0.633705 0.290311 0.355962
#
# Coordination Sequence:
#
# PCOD9041272 Si02
#       7
#     2   2   2   2   2   2   2
#     4  11  25  44  75 101 140 188 233 285 351 416
#     4  11  24  49  71 100 143 191 228 284 354 419
#     4  10  23  46  72 104 140 186 233 290 345 410
#     4  11  26  45  72 104 144 180 235 288 346 415
#     4  12  27  42  72 110 140 183 235 291 349 411
#     4  10  23  43  72 107 139 181 237 290 347 410
#     4  11  24  47  71 104 143 188 226 293 348 418
#
# _framework density 26.808378999999999
#
# number of rings (size 3 to 8) (size 9 to 14) (size 15 to 20)
#    0.000    1.143    2.857    1.714    4.000    4.571 
#    0.000    0.000    0.000    0.000    0.000    0.000 
#    0.000    0.000    0.000    0.000    0.000    0.000 
#
# Total GULP energy -78054.222344 kJ/mol
# GULP energy per Si atom -5575.301596 kJ/mol
# Density = 2.674736 g / cm^3
# Si number density = 26.808379 Si / 1000 Ang^3
#
#
#
# Elastic Constant Matrix: (Units=GPa)
#
#
# Indices 1 2 3 4 5 6 
#
# 1 106.0154 33.2958 71.2380 0.5880 10.3023 -21.4469
# 2 33.2958 76.3876 47.1077 16.9163 15.5069 -11.0272
# 3 71.2380 47.1077 108.4566 10.9245 10.1785 -21.3213
# 4 0.5880 16.9163 10.9245 60.9268 -12.7359 18.4038
# 5 10.3023 15.5069 10.1785 -12.7359 38.8311 5.9280
# 6 -21.4469 -11.0272 -21.3213 18.4038 5.9280 38.5010
#
#
#
# Elastic Compliance Matrix: (Units=1/GPa)
#
#
# Indices 1 2 3 4 5 6 
#
# 1 0.017603 0.000016 -0.010370 -0.000291 -0.002761 0.004632
# 2 0.000016 0.023507 -0.005506 -0.011833 -0.013576 0.011439
# 3 -0.010370 -0.005506 0.020492 -0.004692 -0.002982 0.006697
# 4 -0.000291 -0.011833 -0.004692 0.032270 0.020389 -0.024714
# 5 -0.002761 -0.013576 -0.002982 0.020389 0.042954 -0.023438
# 6 0.004632 0.011439 0.006697 -0.024714 -0.023438 0.050960
#
#
# Mechanical properties :
#
#
# Convention : Reuss Voigt Hill
#
# Bulk Modulus (GPa) = 33.46507 66.01584 49.74046
# Shear Modulus (GPa) = 21.78961 36.93297 29.36129
#
# Velocity S-wave (km/s) = 2.85404 3.71572 3.31301
# Velocity P-wave (km/s) = 4.83435 6.56409 5.76447
#
# Compressibility (1/GPa) = 0.02988190
#
# Stress axis : x y z
#
# Youngs Moduli (GPa) = 56.80947 42.53977 48.79896
#
# Poissons Ratio (x) = -0.00068 0.50605
# Poissons Ratio (y) = -0.00091 0.26869
# Poissons Ratio (z) = 0.58912 0.23423
#
# Static dielectric constant tensor:
#      x y z
#    x 2.146990 0.030470 0.030910 
#    y 0.030470 2.195880 -0.052570 
#    z 0.030910 -0.052570 2.108870 
# 
# From -- ./inp_files/395039.got.cif
#   From: 2010.05.17/outbox.cif.g08.bks.cpg/sg2_198_cif.got.tgz:395039.got - 2010.06.03 11:33:40.
