data_PCOD9041349
_publ_section_title
;
Structure prediction by ZEFSAII (Michael W. Deem and Ramdas Pophale) SiO2 
 PCOD9041349
Probable space group: P -1
;
_chemical_formula_sum "Si O2"
_cell_formula_units_Z 13
_cell_length_a 8.525360
_cell_length_b 9.026643
_cell_length_c 14.036808
_cell_angle_alpha 130.820205
_cell_angle_beta 43.477880
_cell_angle_gamma 131.073502
_cell_volume 526.722466
_symmetry_space_group_name_H-M "P -1"
_symmetry_group_IT_number 2
_symmetry_cell_setting 'triclinic'
loop_
_space_group_symop_operation_xyz
x,y,z
-x,-y,-z
loop_
_atom_site_type_symbol
_atom_site_label
_atom_site_fract_x
_atom_site_fract_y
_atom_site_fract_z
Si Si1 0.550845 0.047477 0.107470
Si Si2 0.436654 0.534348 0.791403
Si Si3 0.000000 0.000000 0.000000
Si Si4 0.782833 0.089100 0.636426
Si Si5 0.260227 0.378082 0.994055
Si Si6 0.543078 0.191035 0.490987
Si Si7 0.919555 0.567096 0.709386
O O1 0.578088 0.289715 0.199283
O O2 0.792747 0.012896 0.018753
O O3 0.321578 0.907316 0.211062
O O4 0.500000 0.000000 0.000000
O O5 0.404953 0.332785 0.657767
O O6 0.700324 0.588687 0.751508
O O7 0.258108 0.491104 0.943998
O O8 0.772628 0.857904 0.114015
O O9 0.856773 0.321437 0.656759
O O10 0.571757 0.910973 0.599532
O O11 0.000000 0.000000 0.500000
O O12 0.063645 0.319496 0.144855
O O13 0.500000 0.500000 0.000000
O O14 0.825028 0.331382 0.411940
O O15 0.500000 0.000000 0.500000
#
# Coordination Sequence:
#
# PCOD9041349 Si02
#       7
#     2   2   1   2   2   2   2
#     4  12  27  49  80 117 152 204 260 318 389 461
#     4  11  24  45  75 111 150 198 258 309 383 460
#     4  12  26  46  76 108 156 196 248 316 388 446
#     4  12  28  48  74 111 157 201 252 316 388 457
#     4  10  23  43  73 106 146 194 251 313 375 446
#     4  12  27  45  76 109 150 203 255 310 382 459
#     4  11  23  46  75 106 151 201 251 319 379 453
#
# _framework density 24.680928999999999
#
# number of rings (size 3 to 8) (size 9 to 14) (size 15 to 20)
#    0.000    0.615    1.538    6.923    4.308    5.538 
#    0.000    0.000    0.000    0.000    0.000    0.000 
#    0.000    0.000    0.000    0.000    0.000    0.000 
#
# Total GULP energy -72592.641547 kJ/mol
# GULP energy per Si atom -5584.049350 kJ/mol
# Density = 2.462475 g / cm^3
# Si number density = 24.680929 Si / 1000 Ang^3
#
#
#
# Elastic Constant Matrix: (Units=GPa)
#
#
# Indices 1 2 3 4 5 6 
#
# 1 129.6047 42.4224 41.6194 -4.5817 -16.8141 -10.6754
# 2 42.4224 177.0927 38.6991 -13.3300 -14.2386 -25.1154
# 3 41.6194 38.6991 112.7276 3.4446 6.9887 -7.1266
# 4 -4.5817 -13.3300 3.4446 51.7213 -9.5705 -1.5282
# 5 -16.8141 -14.2386 6.9887 -9.5705 38.9993 7.5273
# 6 -10.6754 -25.1154 -7.1266 -1.5282 7.5273 42.7791
#
#
#
# Elastic Compliance Matrix: (Units=1/GPa)
#
#
# Indices 1 2 3 4 5 6 
#
# 1 0.009961 -0.000981 -0.003671 0.001803 0.004942 0.000493
# 2 -0.000981 0.007207 -0.002141 0.002485 0.002571 0.003266
# 3 -0.003671 -0.002141 0.011393 -0.002571 -0.005141 0.000538
# 4 0.001803 0.002485 -0.002571 0.021681 0.007278 0.000975
# 5 0.004942 0.002571 -0.005141 0.007278 0.032094 -0.003501
# 6 0.000493 0.003266 0.000538 0.000975 -0.003501 0.026157
#
#
# Mechanical properties :
#
#
# Convention : Reuss Voigt Hill
#
# Bulk Modulus (GPa) = 66.78028 73.87852 70.32940
# Shear Modulus (GPa) = 39.34861 46.47891 42.91376
#
# Velocity S-wave (km/s) = 3.99719 4.34428 4.17435
# Velocity P-wave (km/s) = 6.95842 7.42712 7.19659
#
# Compressibility (1/GPa) = 0.01497448
#
# Stress axis : x y z
#
# Youngs Moduli (GPa) = 100.38895 138.76330 87.77691
#
# Poissons Ratio (x) = 0.13612 0.32225
# Poissons Ratio (y) = 0.09848 0.18790
# Poissons Ratio (z) = 0.36855 0.29705
#
# Static dielectric constant tensor:
#      x y z
#    x 1.985180 -0.043480 -0.013210 
#    y -0.043480 1.798420 -0.142980 
#    z -0.013210 -0.142980 1.910300 
# 
# From -- ./inp_files/241641.got.cif
#   From: 2010.05.17/outbox.cif.g08.bks.cpg/sg2_121_cif.got.tgz:241641.got - 2010.06.03 11:33:40.
