data_PCOD9041484
_publ_section_title
;
Structure prediction by ZEFSAII (Michael W. Deem and Ramdas Pophale) SiO2 
 PCOD9041484
Probable space group: P -1
;
_chemical_formula_sum "Si O2"
_cell_formula_units_Z 12
_cell_length_a 16.272942
_cell_length_b 13.377182
_cell_length_c 9.641514
_cell_angle_alpha 153.793105
_cell_angle_beta 47.967995
_cell_angle_gamma 143.927303
_cell_volume 533.111320
_symmetry_space_group_name_H-M "P -1"
_symmetry_group_IT_number 2
_symmetry_cell_setting 'triclinic'
loop_
_space_group_symop_operation_xyz
x,y,z
-x,-y,-z
loop_
_atom_site_type_symbol
_atom_site_label
_atom_site_fract_x
_atom_site_fract_y
_atom_site_fract_z
Si Si1 0.607954 0.840086 0.765905
Si Si2 0.042928 0.756433 0.507855
Si Si3 0.510616 0.858955 0.597839
Si Si4 0.867021 0.949259 0.517710
Si Si5 0.762109 0.369853 0.774791
Si Si6 0.776308 0.609989 0.765852
O O1 0.500000 0.500000 0.500000
O O2 0.586949 0.873312 0.668659
O O3 0.769890 0.965462 0.752430
O O4 0.564951 0.001604 0.103974
O O5 0.094302 0.581810 0.289082
O O6 0.881684 0.623959 0.555905
O O7 0.079149 0.831199 0.398501
O O8 0.140797 0.065204 0.864487
O O9 0.378747 0.531677 0.295038
O O10 0.628542 0.056780 0.594408
O O11 0.769492 0.620709 0.156629
O O12 0.000000 0.000000 0.500000
O O13 0.754218 0.413817 0.676745
#
# Coordination Sequence:
#
# PCOD9041484 Si02
#       6
#     2   2   2   2   2   2
#     4  11  24  43  61  95 131 158 210 256 303 380
#     4  10  23  44  61  92 130 157 216 258 297 378
#     4  11  24  41  67  93 125 166 204 257 315 363
#     4  11  25  41  66  94 125 167 205 256 313 364
#     4  11  22  43  63  94 125 161 211 258 304 373
#     4  10  24  41  65  92 121 168 208 256 314 359
#
# _framework density 22.509371999999999
#
# number of rings (size 3 to 8) (size 9 to 14) (size 15 to 20)
#    0.000    1.333    3.333    1.000    4.667    2.667 
#    0.000    0.000    0.000    0.000    0.000    0.000 
#    0.000    0.000    0.000    0.000    0.000    0.000 
#
# Total GULP energy -67179.601172 kJ/mol
# GULP energy per Si atom -5598.300098 kJ/mol
# Density = 2.245814 g / cm^3
# Si number density = 22.509372 Si / 1000 Ang^3
#
#
#
# Elastic Constant Matrix: (Units=GPa)
#
#
# Indices 1 2 3 4 5 6 
#
# 1 55.8110 -1.6198 0.4502 -10.2522 -9.4397 23.2297
# 2 -1.6198 102.1748 14.0433 -9.6499 -1.8553 18.9289
# 3 0.4502 14.0433 46.3845 3.3813 -9.5958 1.6096
# 4 -10.2522 -9.6499 3.3813 24.0939 14.1758 -1.6524
# 5 -9.4397 -1.8553 -9.5958 14.1758 30.2949 3.4053
# 6 23.2297 18.9289 1.6096 -1.6524 3.4053 35.7664
#
#
#
# Elastic Compliance Matrix: (Units=1/GPa)
#
#
# Indices 1 2 3 4 5 6 
#
# 1 0.031005 0.005900 -0.000187 0.009020 0.008399 -0.023634
# 2 0.005900 0.013192 -0.004742 0.008883 -0.001887 -0.010010
# 3 -0.000187 -0.004742 0.027281 -0.014884 0.015341 -0.000745
# 4 0.009020 0.008883 -0.014884 0.070837 -0.034128 -0.003367
# 5 0.008399 -0.001887 0.015341 -0.034128 0.057712 -0.012218
# 6 -0.023634 -0.010010 -0.000745 -0.003367 -0.012218 0.049648
#
#
# Mechanical properties :
#
#
# Convention : Reuss Voigt Hill
#
# Bulk Modulus (GPa) = 13.62029 25.56863 19.59446
# Shear Modulus (GPa) = 18.36844 30.79746 24.58295
#
# Velocity S-wave (km/s) = 2.85973 3.70294 3.30831
# Velocity P-wave (km/s) = 4.11924 5.44666 4.82878
#
# Compressibility (1/GPa) = 0.07341988
#
# Stress axis : x y z
#
# Youngs Moduli (GPa) = 32.25297 75.80610 36.65575
#
# Poissons Ratio (x) = -0.44726 0.00686
# Poissons Ratio (y) = -0.19030 0.17381
# Poissons Ratio (z) = 0.00603 0.35945
#
# Static dielectric constant tensor:
#      x y z
#    x 1.805610 0.025740 0.020400 
#    y 0.025740 1.792380 0.012780 
#    z 0.020400 0.012780 1.859660 
# 
# From -- ./inp_files/18294.got.cif
#   From: 2010.05.17/outbox.cif.g08.bks.cpg/sg2_10_cif.got.tgz:18294.got - 2010.06.03 11:33:40.
