data_PCOD9041427
_publ_section_title
;
Structure prediction by ZEFSAII (Michael W. Deem and Ramdas Pophale) SiO2 
 PCOD9041427
Probable space group: P -1
;
_chemical_formula_sum "Si O2"
_cell_formula_units_Z 13
_cell_length_a 5.058199
_cell_length_b 8.602104
_cell_length_c 14.500895
_cell_angle_alpha 104.996273
_cell_angle_beta 63.865659
_cell_angle_gamma 86.382411
_cell_volume 535.624958
_symmetry_space_group_name_H-M "P -1"
_symmetry_group_IT_number 2
_symmetry_cell_setting 'triclinic'
loop_
_space_group_symop_operation_xyz
x,y,z
-x,-y,-z
loop_
_atom_site_type_symbol
_atom_site_label
_atom_site_fract_x
_atom_site_fract_y
_atom_site_fract_z
Si Si1 0.151865 0.637080 0.951262
Si Si2 0.467245 0.188293 0.565855
Si Si3 0.491273 0.189694 0.935839
Si Si4 0.500000 0.500000 0.500000
Si Si5 0.178380 0.822641 0.301919
Si Si6 0.779925 0.870895 0.760416
Si Si7 0.654408 0.342872 0.272570
O O1 0.292893 0.582918 0.822634
O O2 0.387480 0.701331 0.990001
O O3 0.000000 0.500000 0.000000
O O4 0.865397 0.785741 0.002510
O O5 0.512271 0.305339 0.492851
O O6 0.677479 0.191167 0.622233
O O7 0.121727 0.248083 0.662200
O O8 0.500000 0.000000 0.500000
O O9 0.595854 0.244979 0.827024
O O10 0.341751 0.001015 0.119583
O O11 0.452905 0.465929 0.391858
O O12 0.094664 0.016218 0.315726
O O13 0.501701 0.808937 0.749333
O O14 0.027609 0.719987 0.735005
#
# Coordination Sequence:
#
# PCOD9041427 Si02
#       7
#     2   2   2   1   2   2   2
#     4  12  26  45  71 106 143 198 245 305 384 448
#     4  12  25  47  77 105 148 205 248 311 365 440
#     4  10  24  44  76 103 142 182 249 300 368 458
#     4  12  32  48  76 114 154 198 254 312 372 440
#     4  10  23  43  75 103 144 186 244 300 372 444
#     4  10  23  45  75 109 142 193 246 305 381 449
#     4  12  27  45  70 106 153 187 247 317 365 444
#
# _framework density 24.270714000000002
#
# number of rings (size 3 to 8) (size 9 to 14) (size 15 to 20)
#    0.923    0.000    0.000    6.462    4.308    7.385 
#    0.000    0.000    0.000    0.000    0.000    0.000 
#    0.000    0.000    0.000    0.000    0.000    0.000 
#
# Total GULP energy -72532.603052 kJ/mol
# GULP energy per Si atom -5579.431004 kJ/mol
# Density = 2.421547 g / cm^3
# Si number density = 24.270714 Si / 1000 Ang^3
#
#
#
# Elastic Constant Matrix: (Units=GPa)
#
#
# Indices 1 2 3 4 5 6 
#
# 1 67.1730 0.0991 -0.6868 -1.3480 10.0879 -2.5918
# 2 0.0991 108.7784 27.9358 -16.3850 14.2661 -3.0942
# 3 -0.6868 27.9358 117.0857 -15.1864 25.7946 12.6787
# 4 -1.3480 -16.3850 -15.1864 24.4535 -2.3111 12.0242
# 5 10.0879 14.2661 25.7946 -2.3111 28.9324 -3.1616
# 6 -2.5918 -3.0942 12.6787 12.0242 -3.1616 20.3849
#
#
#
# Elastic Compliance Matrix: (Units=1/GPa)
#
#
# Indices 1 2 3 4 5 6 
#
# 1 0.016120 0.000901 0.002469 0.003597 -0.008279 -0.002755
# 2 0.000901 0.011199 0.000547 0.009940 -0.006113 -0.005337
# 3 0.002469 0.000547 0.019040 0.024794 -0.019301 -0.029063
# 4 0.003597 0.009940 0.024794 0.097530 -0.028713 -0.075437
# 5 -0.008279 -0.006113 -0.019301 -0.028713 0.059330 0.036162
# 6 -0.002755 -0.005337 -0.029063 -0.075437 0.036162 0.116077
#
#
# Mechanical properties :
#
#
# Convention : Reuss Voigt Hill
#
# Bulk Modulus (GPa) = 18.45301 38.63704 28.54503
# Shear Modulus (GPa) = 15.17325 32.46675 23.82000
#
# Velocity S-wave (km/s) = 2.50305 3.66142 3.13618
# Velocity P-wave (km/s) = 3.99664 5.81622 4.99007
#
# Compressibility (1/GPa) = 0.05419169
#
# Stress axis : x y z
#
# Youngs Moduli (GPa) = 62.03438 89.29561 52.52173
#
# Poissons Ratio (x) = -0.08043 -0.12965
# Poissons Ratio (y) = -0.05587 -0.02874
# Poissons Ratio (z) = -0.15314 -0.04887
#
# Static dielectric constant tensor:
#      x y z
#    x 1.857330 -0.054520 -0.078180 
#    y -0.054520 1.938240 -0.076270 
#    z -0.078180 -0.076270 1.917880 
# 
# From -- ./inp_files/479194.got.cif
#   From: 2010.05.17/outbox.cif.g08.bks.cpg/sg2_240_cif.got.tgz:479194.got - 2010.06.03 11:33:40.
