data_PCOD9041250
_publ_section_title
;
Structure prediction by ZEFSAII (Michael W. Deem and Ramdas Pophale) SiO2 
 PCOD9041250
Probable space group: P -1
;
_chemical_formula_sum "Si O2"
_cell_formula_units_Z 16
_cell_length_a 11.238150
_cell_length_b 8.835393
_cell_length_c 19.873946
_cell_angle_alpha 64.151863
_cell_angle_beta 22.392354
_cell_angle_gamma 65.381710
_cell_volume 676.011657
_symmetry_space_group_name_H-M "P -1"
_symmetry_group_IT_number 2
_symmetry_cell_setting 'triclinic'
loop_
_space_group_symop_operation_xyz
x,y,z
-x,-y,-z
loop_
_atom_site_type_symbol
_atom_site_label
_atom_site_fract_x
_atom_site_fract_y
_atom_site_fract_z
Si Si1 0.612509 0.007334 0.315257
Si Si2 0.572070 0.370938 0.265296
Si Si3 0.668398 0.018041 0.012310
Si Si4 0.510076 0.336730 0.572213
Si Si5 0.045148 0.539677 0.081789
Si Si6 0.568825 0.281682 0.892908
Si Si7 0.320286 0.096206 0.315769
Si Si8 0.962291 0.434350 0.436785
O O1 0.457125 0.187764 0.380488
O O2 0.552837 0.011932 0.265145
O O3 0.449878 0.837809 0.455215
O O4 0.968249 0.009697 0.152870
O O5 0.298785 0.514849 0.381320
O O6 0.800343 0.422739 0.195852
O O7 0.778347 0.374000 0.089117
O O8 0.481839 0.083791 0.162046
O O9 0.526439 0.844327 0.093079
O O10 0.626582 0.159648 0.949445
O O11 0.500000 0.500000 0.500000
O O12 0.773242 0.363044 0.485580
O O13 0.166455 0.334370 0.786992
O O14 0.283424 0.420446 0.022359
O O15 0.862390 0.397254 0.705376
O O16 0.207682 0.285928 0.356595
O O17 0.000000 0.000000 0.500000
#
# Coordination Sequence:
#
# PCOD9041250 Si02
#       8
#     2   2   2   2   2   2   2   2
#     4  12  25  47  74 103 143 185 233 297 354 418
#     4  10  24  44  74 106 140 183 242 290 352 418
#     4  11  28  47  70 107 140 188 239 289 355 428
#     4  11  26  45  69 104 146 185 236 286 361 427
#     4  10  23  43  72 101 140 192 230 291 350 424
#     4  11  25  48  73 100 145 189 240 286 351 430
#     4  12  28  45  73 108 143 183 236 303 357 413
#     4  11  26  47  68 107 141 187 234 297 355 411
#
# _framework density 23.668230999999999
#
# number of rings (size 3 to 8) (size 9 to 14) (size 15 to 20)
#    0.000    1.000    2.500    1.875   10.500    1.500 
#    2.250    1.875    0.000    0.000    0.000    0.000 
#    0.000    0.000    0.000    0.000    0.000    0.000 
#
# Total GULP energy -89573.810290 kJ/mol
# GULP energy per Si atom -5598.363143 kJ/mol
# Density = 2.361436 g / cm^3
# Si number density = 23.668231 Si / 1000 Ang^3
#
#
#
# Elastic Constant Matrix: (Units=GPa)
#
#
# Indices 1 2 3 4 5 6 
#
# 1 84.9043 23.4342 25.7655 6.8993 -25.0025 -14.0544
# 2 23.4342 149.2292 24.8938 -18.5051 -16.2144 -12.2528
# 3 25.7655 24.8938 61.4074 1.3335 -23.5645 -3.5975
# 4 6.8993 -18.5051 1.3335 41.0136 -3.3888 -15.2982
# 5 -25.0025 -16.2144 -23.5645 -3.3888 26.2237 -4.2546
# 6 -14.0544 -12.2528 -3.5975 -15.2982 -4.2546 35.5237
#
#
#
# Elastic Compliance Matrix: (Units=1/GPa)
#
#
# Indices 1 2 3 4 5 6 
#
# 1 0.019656 0.000609 0.000604 0.003285 0.022049 0.012103
# 2 0.000609 0.009097 -0.000695 0.007440 0.007750 0.007441
# 3 0.000604 -0.000695 0.026477 0.003550 0.025577 0.007273
# 4 0.003285 0.007440 0.003550 0.037066 0.019364 0.022507
# 5 0.022049 0.007750 0.025577 0.019364 0.094899 0.033691
# 6 0.012103 0.007441 0.007273 0.022507 0.033691 0.049970
#
#
# Mechanical properties :
#
#
# Convention : Reuss Voigt Hill
#
# Bulk Modulus (GPa) = 17.77253 49.30309 33.53781
# Shear Modulus (GPa) = 19.61683 35.31536 27.46609
#
# Velocity S-wave (km/s) = 2.88206 3.86696 3.41025
# Velocity P-wave (km/s) = 4.31281 6.38858 5.45043
#
# Compressibility (1/GPa) = 0.05626662
#
# Stress axis : x y z
#
# Youngs Moduli (GPa) = 50.87573 109.92638 37.76879
#
# Poissons Ratio (x) = -0.06698 -0.02283
# Poissons Ratio (y) = -0.03100 0.02626
# Poissons Ratio (z) = -0.03075 0.07643
#
# Static dielectric constant tensor:
#      x y z
#    x 1.904440 0.035810 -0.027520 
#    y 0.035810 1.918900 -0.014110 
#    z -0.027520 -0.014110 1.881230 
# 
# From -- ./inp_files/594088.got.cif
#   From: 2010.05.17/outbox.cif.g08.bks.cpg/sg2_298_cif.got.tgz:594088.got - 2010.06.03 11:33:40.
