data_PCOD9041263
_publ_section_title
;
Structure prediction by ZEFSAII (Michael W. Deem and Ramdas Pophale) SiO2 
 PCOD9041263
Probable space group: P -1
;
_chemical_formula_sum "Si O2"
_cell_formula_units_Z 14
_cell_length_a 5.200085
_cell_length_b 5.089436
_cell_length_c 19.670820
_cell_angle_alpha 85.613631
_cell_angle_beta 72.991915
_cell_angle_gamma 93.838683
_cell_volume 494.187994
_symmetry_space_group_name_H-M "P -1"
_symmetry_group_IT_number 2
_symmetry_cell_setting 'triclinic'
loop_
_space_group_symop_operation_xyz
x,y,z
-x,-y,-z
loop_
_atom_site_type_symbol
_atom_site_label
_atom_site_fract_x
_atom_site_fract_y
_atom_site_fract_z
Si Si1 0.782330 0.309541 0.818113
Si Si2 0.865518 0.199595 0.956822
Si Si3 0.641783 0.341284 0.102088
Si Si4 0.050455 0.709011 0.393879
Si Si5 0.684244 0.932935 0.223260
Si Si6 0.659640 0.658439 0.543373
Si Si7 0.791354 0.187884 0.351978
O O1 0.739239 0.133120 0.894062
O O2 0.636398 0.566539 0.847274
O O3 0.610330 0.208965 0.767763
O O4 0.095235 0.278256 0.781654
O O5 0.108221 0.427760 0.917826
O O6 0.637040 0.288713 0.023189
O O7 0.000000 0.000000 0.000000
O O8 0.731408 0.110025 0.148157
O O9 0.930602 0.743452 0.479248
O O10 0.888262 0.483542 0.363405
O O11 0.305368 0.550151 0.394666
O O12 0.015206 0.993408 0.359439
O O13 0.718332 0.124209 0.281255
O O14 0.500000 0.500000 0.500000
O O15 0.482959 0.879575 0.582007
#
# Coordination Sequence:
#
# PCOD9041263 Si02
#       7
#     2   2   2   2   2   2   2
#     4  12  26  49  68 105 139 186 240 299 363 439
#     4  11  23  47  74 106 138 180 243 305 369 434
#     4  11  25  45  75 102 140 187 236 304 371 429
#     4  10  23  43  72 104 144 184 244 301 360 428
#     4  12  30  46  71 102 148 190 242 296 363 450
#     4   9  21  43  72 107 142 184 241 303 360 423
#     4  11  26  44  69 104 142 196 239 294 366 436
#
# _framework density 28.329298999999999
#
# number of rings (size 3 to 8) (size 9 to 14) (size 15 to 20)
#    0.000    1.143    2.857    0.857    6.000   10.857 
#    0.000    0.000    0.000    0.000    0.000    0.000 
#    0.000    0.000    0.000    0.000    0.000    0.000 
#
# Total GULP energy -78349.940451 kJ/mol
# GULP energy per Si atom -5596.424318 kJ/mol
# Density = 2.826482 g / cm^3
# Si number density = 28.329299 Si / 1000 Ang^3
#
#
#
# Elastic Constant Matrix: (Units=GPa)
#
#
# Indices 1 2 3 4 5 6 
#
# 1 124.3992 36.5480 32.5955 0.7299 20.0042 -38.3313
# 2 36.5480 120.3465 42.6725 8.7176 2.6798 -23.3345
# 3 32.5955 42.6725 174.9447 19.5059 29.3296 -19.4331
# 4 0.7299 8.7176 19.5059 55.1538 -7.2373 -0.3840
# 5 20.0042 2.6798 29.3296 -7.2373 46.9935 -1.3665
# 6 -38.3313 -23.3345 -19.4331 -0.3840 -1.3665 46.7452
#
#
#
# Elastic Compliance Matrix: (Units=1/GPa)
#
#
# Indices 1 2 3 4 5 6 
#
# 1 0.012084 -0.001825 0.000050 -0.000469 -0.004885 0.008872
# 2 -0.001825 0.010120 -0.001984 -0.000669 0.001415 0.002767
# 3 0.000050 -0.001984 0.007603 -0.003026 -0.005060 0.002039
# 4 -0.000469 -0.000669 -0.003026 0.019978 0.005154 -0.001661
# 5 -0.004885 0.001415 -0.005060 0.005154 0.027097 -0.004569
# 6 0.008872 0.002767 0.002039 -0.001661 -0.004569 0.030749
#
#
# Mechanical properties :
#
#
# Convention : Reuss Voigt Hill
#
# Bulk Modulus (GPa) = 44.86188 71.48024 58.17106
# Shear Modulus (GPa) = 40.79044 50.30348 45.54696
#
# Velocity S-wave (km/s) = 3.79868 4.21844 4.01405
# Velocity P-wave (km/s) = 5.92538 7.00098 6.48552
#
# Compressibility (1/GPa) = 0.02229064
#
# Stress axis : x y z
#
# Youngs Moduli (GPa) = 82.75682 98.81106 131.53081
#
# Poissons Ratio (x) = 0.18029 -0.00664
# Poissons Ratio (y) = 0.15100 0.26095
# Poissons Ratio (z) = -0.00418 0.19604
#
# Static dielectric constant tensor:
#      x y z
#    x 2.304470 0.048790 -0.100490 
#    y 0.048790 2.223400 0.007530 
#    z -0.100490 0.007530 2.224160 
# 
# From -- ./inp_files/114550.got.cif
#   From: 2010.05.17/outbox.cif.g08.bks.cpg/sg2_58_cif.got.tgz:114550.got - 2010.06.03 11:33:40.
