data_PCOD9041758
_publ_section_title
;
Structure prediction by ZEFSAII (Michael W. Deem and Ramdas Pophale) SiO2 
 PCOD9041758
Probable space group: P -1
;
_chemical_formula_sum "Si O2"
_cell_formula_units_Z 12
_cell_length_a 5.102902
_cell_length_b 16.548695
_cell_length_c 7.694241
_cell_angle_alpha 42.687988
_cell_angle_beta 106.538062
_cell_angle_gamma 106.041217
_cell_volume 420.054004
_symmetry_space_group_name_H-M "P -1"
_symmetry_group_IT_number 2
_symmetry_cell_setting 'triclinic'
loop_
_space_group_symop_operation_xyz
x,y,z
-x,-y,-z
loop_
_atom_site_type_symbol
_atom_site_label
_atom_site_fract_x
_atom_site_fract_y
_atom_site_fract_z
Si Si1 0.297512 0.571884 0.735743
Si Si2 0.101166 0.965401 0.852585
Si Si3 0.429527 0.360830 0.662545
Si Si4 0.675261 0.883653 0.639112
Si Si5 0.995831 0.670980 0.080324
Si Si6 0.155924 0.818427 0.417452
O O1 0.499204 0.641985 0.521180
O O2 0.088822 0.463107 0.792558
O O3 0.137592 0.674468 0.631492
O O4 0.500000 0.500000 0.000000
O O5 0.797219 0.912661 0.809692
O O6 0.085725 0.096586 0.726650
O O7 0.246996 0.995934 0.649120
O O8 0.236505 0.879054 0.147526
O O9 0.500000 0.500000 0.500000
O O10 0.140556 0.327585 0.754167
O O11 0.678377 0.300883 0.895845
O O12 0.374163 0.846879 0.567091
O O13 0.842089 0.770563 0.796936
#
# Coordination Sequence:
#
# PCOD9041758 Si02
#       6
#     2   2   2   2   2   2
#     4  11  22  43  68 104 141 179 230 296 362 426
#     4  10  25  44  70 100 136 192 238 299 357 423
#     4  10  23  44  67 100 145 188 233 284 356 438
#     4  11  23  45  72 100 139 185 243 293 357 435
#     4  11  24  46  72 105 141 188 236 293 366 432
#     4  11  23  47  66 104 142 179 242 300 359 427
#
# _framework density 28.567754000000001
#
# number of rings (size 3 to 8) (size 9 to 14) (size 15 to 20)
#    0.000    1.333    1.667    4.000    2.333    0.000 
#   18.000    8.333    0.000    0.000    0.000    0.000 
#    0.000    0.000    0.000    0.000    0.000    0.000 
#
# Total GULP energy -67109.950144 kJ/mol
# GULP energy per Si atom -5592.495845 kJ/mol
# Density = 2.850273 g / cm^3
# Si number density = 28.567754 Si / 1000 Ang^3
#
#
#
# Elastic Constant Matrix: (Units=GPa)
#
#
# Indices 1 2 3 4 5 6 
#
# 1 83.0931 36.4485 22.1128 0.8053 32.1736 18.5055
# 2 36.4485 139.6994 60.7803 -30.7987 14.5042 -0.9457
# 3 22.1128 60.7803 231.0544 -6.5559 27.5851 -5.1779
# 4 0.8053 -30.7987 -6.5559 73.0182 -12.6335 14.4335
# 5 32.1736 14.5042 27.5851 -12.6335 45.3990 -2.9415
# 6 18.5055 -0.9457 -5.1779 14.4335 -2.9415 24.1709
#
#
#
# Elastic Compliance Matrix: (Units=1/GPa)
#
#
# Indices 1 2 3 4 5 6 
#
# 1 0.026880 -0.005842 0.000756 -0.001728 -0.019548 -0.021994
# 2 -0.005842 0.010346 -0.002428 0.004419 0.003680 0.002167
# 3 0.000756 -0.002428 0.005266 -0.001288 -0.003265 0.000826
# 4 -0.001728 0.004419 -0.001288 0.018112 0.005053 -0.008981
# 5 -0.019548 0.003680 -0.003265 0.005053 0.039142 0.016157
# 6 -0.021994 0.002167 0.000826 -0.008981 0.016157 0.065802
#
#
# Mechanical properties :
#
#
# Convention : Reuss Voigt Hill
#
# Bulk Modulus (GPa) = 36.41135 76.94779 56.67957
# Shear Modulus (GPa) = 26.35332 50.81796 38.58564
#
# Velocity S-wave (km/s) = 3.04054 4.22223 3.67913
# Velocity P-wave (km/s) = 5.00997 7.12483 6.15886
#
# Compressibility (1/GPa) = 0.02746396
#
# Stress axis : x y z
#
# Youngs Moduli (GPa) = 37.20199 96.66021 189.89753
#
# Poissons Ratio (x) = 0.56473 -0.14362
# Poissons Ratio (y) = 0.21735 0.46103
# Poissons Ratio (z) = -0.02814 0.23467
#
# Static dielectric constant tensor:
#      x y z
#    x 2.301910 -0.059020 -0.086960 
#    y -0.059020 2.274940 0.049380 
#    z -0.086960 0.049380 2.218710 
# 
# From -- ./inp_files/116782.got.cif
#   From: 2010.05.17/outbox.cif.g08.bks.cpg/sg2_59_cif.got.tgz:116782.got - 2010.06.03 11:33:40.
