data_PCOD9041364
_publ_section_title
;
Structure prediction by ZEFSAII (Michael W. Deem and Ramdas Pophale) SiO2 
 PCOD9041364
Probable space group: P -1
;
_chemical_formula_sum "Si O2"
_cell_formula_units_Z 14
_cell_length_a 12.168314
_cell_length_b 7.261201
_cell_length_c 6.035744
_cell_angle_alpha 99.893188
_cell_angle_beta 101.233320
_cell_angle_gamma 98.223525
_cell_volume 506.632191
_symmetry_space_group_name_H-M "P -1"
_symmetry_group_IT_number 2
_symmetry_cell_setting 'triclinic'
loop_
_space_group_symop_operation_xyz
x,y,z
-x,-y,-z
loop_
_atom_site_type_symbol
_atom_site_label
_atom_site_fract_x
_atom_site_fract_y
_atom_site_fract_z
Si Si1 0.127959 0.286255 0.935995
Si Si2 0.370302 0.244523 0.369421
Si Si3 0.648714 0.429454 0.895048
Si Si4 0.793568 0.117877 0.870203
Si Si5 0.572421 0.174575 0.195892
Si Si6 0.776925 0.981458 0.381519
Si Si7 0.007775 0.591382 0.764965
O O1 0.241386 0.428252 0.943795
O O2 0.136986 0.099898 0.763913
O O3 0.028183 0.396575 0.850081
O O4 0.102321 0.312315 0.194893
O O5 0.495204 0.195063 0.382406
O O6 0.316668 0.189482 0.576945
O O7 0.500000 0.000000 0.000000
O O8 0.281614 0.092703 0.151654
O O9 0.574952 0.352962 0.066043
O O10 0.619262 0.550047 0.697724
O O11 0.698711 0.244474 0.807189
O O12 0.843462 0.079098 0.641824
O O13 0.696114 0.123288 0.283019
O O14 0.885181 0.240868 0.094110
O O15 0.000000 0.500000 0.500000
#
# Coordination Sequence:
#
# PCOD9041364 Si02
#       7
#     2   2   2   2   2   2   2
#     4  10  24  46  72 117 154 205 266 320 402 480
#     4  10  23  43  73 114 159 213 268 314 392 462
#     4  11  23  44  74 106 163 211 262 328 385 462
#     4   9  23  47  74 113 159 205 260 329 398 469
#     4  12  22  44  72 112 165 213 269 321 382 473
#     4  10  24  45  75 114 165 209 262 323 396 470
#     4  10  23  49  83 115 154 200 265 335 402 481
#
# _framework density 27.633458000000001
#
# number of rings (size 3 to 8) (size 9 to 14) (size 15 to 20)
#    0.857    0.857    1.429    1.714    2.000    1.714 
#   12.857    5.000    6.286    2.571    0.000    1.000 
#    0.000    0.000    0.000    0.000    0.000    0.000 
#
# Total GULP energy -78052.883695 kJ/mol
# GULP energy per Si atom -5575.205978 kJ/mol
# Density = 2.757056 g / cm^3
# Si number density = 27.633458 Si / 1000 Ang^3
#
#
#
# Elastic Constant Matrix: (Units=GPa)
#
#
# Indices 1 2 3 4 5 6 
#
# 1 130.4339 58.6804 63.0158 15.8872 -28.5239 6.2337
# 2 58.6804 191.2441 52.6255 -11.6685 0.3358 3.4132
# 3 63.0158 52.6255 127.9731 37.8021 -20.2674 -6.1488
# 4 15.8872 -11.6685 37.8021 54.1074 -2.5146 4.5639
# 5 -28.5239 0.3358 -20.2674 -2.5146 48.6202 13.7730
# 6 6.2337 3.4132 -6.1488 4.5639 13.7730 54.0168
#
#
#
# Elastic Compliance Matrix: (Units=1/GPa)
#
#
# Indices 1 2 3 4 5 6 
#
# 1 0.012506 -0.002806 -0.003805 -0.001030 0.006654 -0.003309
# 2 -0.002806 0.007353 -0.003505 0.004744 -0.002852 -0.000213
# 3 -0.003805 -0.003505 0.014602 -0.009926 0.002662 0.002483
# 4 -0.001030 0.004744 -0.009926 0.026871 -0.002555 -0.002930
# 5 0.006654 -0.002852 0.002662 -0.002555 0.027472 -0.007074
# 6 -0.003309 -0.000213 0.002483 -0.002930 -0.007074 0.021242
#
#
# Mechanical properties :
#
#
# Convention : Reuss Voigt Hill
#
# Bulk Modulus (GPa) = 70.28028 88.69939 79.48983
# Shear Modulus (GPa) = 37.03121 49.70417 43.36769
#
# Velocity S-wave (km/s) = 3.66469 4.24570 3.96585
# Velocity P-wave (km/s) = 6.58748 7.49686 7.05683
#
# Compressibility (1/GPa) = 0.01422874
#
# Stress axis : x y z
#
# Youngs Moduli (GPa) = 79.96066 136.00595 68.48201
#
# Poissons Ratio (x) = 0.38159 0.26059
# Poissons Ratio (y) = 0.22435 0.24005
# Poissons Ratio (z) = 0.30427 0.47673
#
# Static dielectric constant tensor:
#      x y z
#    x 2.238690 0.021650 -0.206520 
#    y 0.021650 2.355810 -0.517030 
#    z -0.206520 -0.517030 3.314020 
# 
# From -- ./inp_files/90978.got.cif
#   From: 2010.05.17/outbox.cif.g08.bks.cpg/sg2_46_cif.got.tgz:90978.got - 2010.06.03 11:33:40.
