data_PCOD9041964
_publ_section_title
;
Structure prediction by ZEFSAII (Michael W. Deem and Ramdas Pophale) SiO2 
 PCOD9041964
Probable space group: P -1
;
_chemical_formula_sum "Si O2"
_cell_formula_units_Z 16
_cell_length_a 5.506318
_cell_length_b 11.094356
_cell_length_c 23.091754
_cell_angle_alpha 28.980291
_cell_angle_beta 66.700733
_cell_angle_gamma 60.439574
_cell_volume 592.332983
_symmetry_space_group_name_H-M "P -1"
_symmetry_group_IT_number 2
_symmetry_cell_setting 'triclinic'
loop_
_space_group_symop_operation_xyz
x,y,z
-x,-y,-z
loop_
_atom_site_type_symbol
_atom_site_label
_atom_site_fract_x
_atom_site_fract_y
_atom_site_fract_z
Si Si1 0.882622 0.774186 0.474019
Si Si2 0.514483 0.238187 0.357872
Si Si3 0.697190 0.622173 0.803538
Si Si4 0.662433 0.406528 0.583881
Si Si5 0.419264 0.980889 0.781842
Si Si6 0.298984 0.351978 0.005863
Si Si7 0.810641 0.904228 0.983881
Si Si8 0.906206 0.325152 0.736581
O O1 0.650336 0.643762 0.528067
O O2 0.993174 0.584600 0.599589
O O3 0.041400 0.736032 0.414293
O O4 0.814374 0.078513 0.369318
O O5 0.312008 0.290603 0.298809
O O6 0.420833 0.510993 0.286296
O O7 0.500000 0.000000 0.500000
O O8 0.595536 0.865171 0.756463
O O9 0.434178 0.515299 0.882795
O O10 0.974963 0.375533 0.896486
O O11 0.500000 0.500000 0.500000
O O12 0.544259 0.190215 0.710735
O O13 0.087192 0.135575 0.748143
O O14 0.486016 0.751321 0.918730
O O15 0.255378 0.132380 0.061260
O O16 0.000000 0.500000 0.000000
O O17 0.963788 0.128075 0.870102
O O18 0.500000 0.000000 0.000000
#
# Coordination Sequence:
#
# PCOD9041964 Si02
#       8
#     2   2   2   2   2   2   2   2
#     4  10  23  44  68  95 138 182 233 294 345 420
#     4  10  25  46  71  97 138 194 234 293 358 413
#     4  12  26  47  72 106 150 189 240 302 357 428
#     4  11  22  39  67 102 129 179 237 283 351 415
#     4  12  24  42  73 106 144 185 233 297 360 430
#     4  12  25  44  70 108 148 186 233 292 367 432
#     4  12  27  45  72 107 145 195 242 290 363 434
#     4  11  23  46  68 101 144 183 235 296 356 420
#
# _framework density 27.011831999999998
#
# number of rings (size 3 to 8) (size 9 to 14) (size 15 to 20)
#    0.000    0.750    3.750    3.375    5.250    2.000 
#    0.000    0.625    0.000    0.000    0.000    0.000 
#    0.000    0.000    0.000    0.000    0.000    0.000 
#
# Total GULP energy -89075.571676 kJ/mol
# GULP energy per Si atom -5567.223230 kJ/mol
# Density = 2.695035 g / cm^3
# Si number density = 27.011832 Si / 1000 Ang^3
#
#
#
# Elastic Constant Matrix: (Units=GPa)
#
#
# Indices 1 2 3 4 5 6 
#
# 1 68.2783 49.2409 31.0244 -6.7950 -5.0803 -6.7386
# 2 49.2409 203.2674 61.5485 -16.9841 28.6958 -27.6938
# 3 31.0244 61.5485 165.1851 -0.0002 24.7820 -9.2049
# 4 -6.7950 -16.9841 -0.0002 52.6078 -0.2018 9.7780
# 5 -5.0803 28.6958 24.7820 -0.2018 35.0749 -2.1175
# 6 -6.7386 -27.6938 -9.2049 9.7780 -2.1175 43.2194
#
#
#
# Elastic Compliance Matrix: (Units=1/GPa)
#
#
# Indices 1 2 3 4 5 6 
#
# 1 0.020876 -0.005414 -0.003418 0.001119 0.009831 -0.000714
# 2 -0.005414 0.007966 -0.000776 0.001196 -0.006535 0.003504
# 3 -0.003418 -0.000776 0.007820 -0.000816 -0.005356 0.000558
# 4 0.001119 0.001196 -0.000816 0.020250 -0.000355 -0.003832
# 5 0.009831 -0.006535 -0.005356 -0.000355 0.038954 -0.001806
# 6 -0.000714 0.003504 0.000558 -0.003832 -0.001806 0.026169
#
#
# Mechanical properties :
#
#
# Convention : Reuss Voigt Hill
#
# Bulk Modulus (GPa) = 57.32056 80.03983 68.68020
# Shear Modulus (GPa) = 33.99852 45.84156 39.92004
#
# Velocity S-wave (km/s) = 3.55160 4.12405 3.84848
# Velocity P-wave (km/s) = 6.17131 7.23690 6.72524
#
# Compressibility (1/GPa) = 0.01744575
#
# Stress axis : x y z
#
# Youngs Moduli (GPa) = 47.90220 125.53599 127.88488
#
# Poissons Ratio (x) = 0.67961 0.43716
# Poissons Ratio (y) = 0.25933 0.09920
# Poissons Ratio (z) = 0.16375 0.09737
#
# Static dielectric constant tensor:
#      x y z
#    x 2.356310 -0.044050 -0.044310 
#    y -0.044050 2.068170 -0.118590 
#    z -0.044310 -0.118590 2.199590 
# 
# From -- ./inp_files/604390.got.cif
#   From: 2010.05.17/outbox.cif.g08.bks.cpg/sg2_303_cif.got.tgz:604390.got - 2010.06.03 11:33:40.
