data_PCOD9041978
_publ_section_title
;
Structure prediction by ZEFSAII (Michael W. Deem and Ramdas Pophale) SiO2 
 PCOD9041978
Probable space group: P -1
;
_chemical_formula_sum "Si O2"
_cell_formula_units_Z 14
_cell_length_a 7.516845
_cell_length_b 21.119866
_cell_length_c 6.763241
_cell_angle_alpha 56.485082
_cell_angle_beta 123.771937
_cell_angle_gamma 140.164972
_cell_volume 555.676397
_symmetry_space_group_name_H-M "P -1"
_symmetry_group_IT_number 2
_symmetry_cell_setting 'triclinic'
loop_
_space_group_symop_operation_xyz
x,y,z
-x,-y,-z
loop_
_atom_site_type_symbol
_atom_site_label
_atom_site_fract_x
_atom_site_fract_y
_atom_site_fract_z
Si Si1 0.285334 0.282385 0.871098
Si Si2 0.375280 0.094147 0.273353
Si Si3 0.282538 0.440064 0.786252
Si Si4 0.990655 0.567146 0.722702
Si Si5 0.040442 0.123702 0.724161
Si Si6 0.176520 0.699578 0.941723
Si Si7 0.591759 0.777724 0.601694
O O1 0.354969 0.384463 0.792521
O O2 0.042577 0.205036 0.695846
O O3 0.565950 0.301042 0.937485
O O4 0.203282 0.225693 0.128941
O O5 0.417619 0.142910 0.430059
O O6 0.141660 0.092049 0.018864
O O7 0.667583 0.183013 0.184763
O O8 0.237482 0.979263 0.367911
O O9 0.986405 0.352407 0.868066
O O10 0.500000 0.500000 0.000000
O O11 0.221785 0.489802 0.497365
O O12 0.294176 0.660938 0.643870
O O13 0.956161 0.629466 0.746704
O O14 0.000000 0.500000 0.000000
O O15 0.282118 0.183578 0.601858
#
# Coordination Sequence:
#
# PCOD9041978 Si02
#       7
#     2   2   2   2   2   2   2
#     4   9  22  41  61  99 132 172 231 277 337 407
#     4   8  16  31  59 100 127 174 225 262 342 405
#     4  12  27  45  68 101 130 186 235 280 347 409
#     4  10  23  44  68  96 137 179 227 284 345 406
#     4   9  15  32  64  91 134 173 218 282 324 410
#     4   9  22  44  63  95 143 176 218 292 337 407
#     4   9  18  36  62  97 132 180 219 277 338 408
#
# _framework density 25.194520000000001
#
# number of rings (size 3 to 8) (size 9 to 14) (size 15 to 20)
#    0.000    3.143    0.000    2.143    4.000    2.286 
#   10.286    0.714    0.000    4.286    0.000    0.000 
#    0.000    0.000    0.000    0.000    0.000    0.000 
#
# Total GULP energy -78065.571540 kJ/mol
# GULP energy per Si atom -5576.112253 kJ/mol
# Density = 2.513718 g / cm^3
# Si number density = 25.194520 Si / 1000 Ang^3
#
#
#
# Elastic Constant Matrix: (Units=GPa)
#
#
# Indices 1 2 3 4 5 6 
#
# 1 70.2283 22.7461 42.6663 2.0732 -7.3899 -7.4328
# 2 22.7461 193.8707 73.8329 0.3211 5.8489 -4.1360
# 3 42.6663 73.8329 129.6299 19.8729 -6.0863 -2.6232
# 4 2.0732 0.3211 19.8729 31.9178 4.4319 -8.4086
# 5 -7.3899 5.8489 -6.0863 4.4319 35.1027 5.0662
# 6 -7.4328 -4.1360 -2.6232 -8.4086 5.0662 16.4103
#
#
#
# Elastic Compliance Matrix: (Units=1/GPa)
#
#
# Indices 1 2 3 4 5 6 
#
# 1 0.019649 0.000840 -0.007688 0.006383 0.000259 0.011073
# 2 0.000840 0.007228 -0.005188 0.004829 -0.003236 0.004846
# 3 -0.007688 -0.005188 0.015091 -0.012187 0.004862 -0.010123
# 4 0.006383 0.004829 -0.012187 0.048186 -0.012071 0.030577
# 5 0.000259 -0.003236 0.004862 -0.012071 0.033837 -0.016552
# 6 0.011073 0.004846 -0.010123 0.030577 -0.016552 0.086334
#
#
# Mechanical properties :
#
#
# Convention : Reuss Voigt Hill
#
# Bulk Modulus (GPa) = 55.87466 74.69105 65.28286
# Shear Modulus (GPa) = 20.80190 33.65173 27.22681
#
# Velocity S-wave (km/s) = 2.87653 3.65866 3.29091
# Velocity P-wave (km/s) = 5.76698 6.89622 6.35672
#
# Compressibility (1/GPa) = 0.01789720
#
# Stress axis : x y z
#
# Youngs Moduli (GPa) = 50.89387 138.34802 66.26387
#
# Poissons Ratio (x) = -0.11628 0.50945
# Poissons Ratio (y) = -0.04277 0.34376
# Poissons Ratio (z) = 0.39128 0.71771
#
# Static dielectric constant tensor:
#      x y z
#    x 2.091730 0.070470 0.118140 
#    y 0.070470 2.157310 -0.016670 
#    z 0.118140 -0.016670 2.017360 
# 
# From -- ./inp_files/210360.got.cif
#   From: 2010.05.17/outbox.cif.g08.bks.cpg/sg2_106_cif.got.tgz:210360.got - 2010.06.03 11:33:40.
