data_PCOD9041021
_publ_section_title
;
Structure prediction by ZEFSAII (Michael W. Deem and Ramdas Pophale) SiO2 
 PCOD9041021
Probable space group: P -1
;
_chemical_formula_sum "Si O2"
_cell_formula_units_Z 16
_cell_length_a 17.178475
_cell_length_b 12.124194
_cell_length_c 8.872570
_cell_angle_alpha 111.910239
_cell_angle_beta 24.612578
_cell_angle_gamma 99.614563
_cell_volume 639.182011
_symmetry_space_group_name_H-M "P -1"
_symmetry_group_IT_number 2
_symmetry_cell_setting 'triclinic'
loop_
_space_group_symop_operation_xyz
x,y,z
-x,-y,-z
loop_
_atom_site_type_symbol
_atom_site_label
_atom_site_fract_x
_atom_site_fract_y
_atom_site_fract_z
Si Si1 0.072486 0.115557 0.324801
Si Si2 0.504749 0.597802 0.731903
Si Si3 0.719831 0.745358 0.544678
Si Si4 0.828547 0.750559 0.030167
Si Si5 0.617279 0.612099 0.196711
Si Si6 0.535661 0.966426 0.189969
Si Si7 0.093180 0.665792 0.023597
Si Si8 0.737493 0.162234 0.264140
O O1 0.933020 0.237265 0.739767
O O2 0.042456 0.185756 0.250210
O O3 0.300050 0.071742 0.981198
O O4 0.083865 0.971331 0.197965
O O5 0.521013 0.716106 0.853704
O O6 0.519084 0.623268 0.542620
O O7 0.347426 0.531965 0.999014
O O8 0.724348 0.475275 0.332168
O O9 0.851498 0.707691 0.139667
O O10 0.878172 0.663467 0.357637
O O11 0.654090 0.894776 0.793233
O O12 0.813779 0.640923 0.891993
O O13 0.595487 0.876801 0.509276
O O14 0.453724 0.730719 0.443808
O O15 0.376588 0.902682 0.465653
O O16 0.156259 0.744968 0.824229
#
# Coordination Sequence:
#
# PCOD9041021 Si02
#       8
#     2   2   2   2   2   2   2   2
#     4  10  18  32  56  83 104 131 175 216 263 310
#     4   9  19  34  54  72 109 137 178 214 252 301
#     4  10  21  34  53  74 111 143 172 201 265 316
#     4  10  17  33  57  80 107 129 173 222 263 298
#     4   9  16  31  56  80  94 131 176 225 258 275
#     4  10  18  32  56  83 104 131 175 216 263 310
#     4  10  21  34  53  74 111 143 172 201 265 316
#     4  10  17  33  57  80 107 129 173 222 263 298
#
# _framework density 25.031994000000001
#
# number of rings (size 3 to 8) (size 9 to 14) (size 15 to 20)
#    0.000    2.250    2.500    1.875    0.000    0.000 
#    0.000    7.500   19.250    0.000    0.000    0.000 
#    0.000    0.000    0.000    0.000    0.000    0.000 
#
# Total GULP energy -89192.485564 kJ/mol
# GULP energy per Si atom -5574.530348 kJ/mol
# Density = 2.497502 g / cm^3
# Si number density = 25.031994 Si / 1000 Ang^3
#
#
#
# Elastic Constant Matrix: (Units=GPa)
#
#
# Indices 1 2 3 4 5 6 
#
# 1 67.1483 31.3727 0.2538 5.0292 0.3205 21.8400
# 2 31.3727 116.5676 -9.5062 7.4271 4.4562 8.2765
# 3 0.2538 -9.5062 16.8186 11.1481 -0.9796 -1.5442
# 4 5.0292 7.4271 11.1481 27.0372 0.2103 -2.6123
# 5 0.3205 4.4562 -0.9796 0.2103 22.0975 2.6975
# 6 21.8400 8.2765 -1.5442 -2.6123 2.6975 31.9930
#
#
#
# Elastic Compliance Matrix: (Units=1/GPa)
#
#
# Indices 1 2 3 4 5 6 
#
# 1 0.022154 -0.005002 -0.002188 -0.003255 0.002379 -0.014402
# 2 -0.005002 0.011229 0.010676 -0.006481 -0.001735 0.000642
# 3 -0.002188 0.010676 0.092671 -0.040787 0.002415 -0.000329
# 4 -0.003255 -0.006481 -0.040787 0.056853 -0.001816 0.006725
# 5 0.002379 -0.001735 0.002415 -0.001816 0.046318 -0.005112
# 6 -0.014402 0.000642 -0.000329 0.006725 -0.005112 0.041886
#
#
# Mechanical properties :
#
#
# Convention : Reuss Voigt Hill
#
# Bulk Modulus (GPa) = 7.51728 27.19723 17.35725
# Shear Modulus (GPa) = 16.20843 28.11982 22.16413
#
# Velocity S-wave (km/s) = 2.54738 3.35529 2.97885
# Velocity P-wave (km/s) = 3.41493 5.08912 4.33364
#
# Compressibility (1/GPa) = 0.13302689
#
# Stress axis : x y z
#
# Youngs Moduli (GPa) = 45.13820 89.05324 10.79086
#
# Poissons Ratio (x) = 0.44544 0.02361
# Poissons Ratio (y) = 0.22578 -0.11520
# Poissons Ratio (z) = 0.09875 -0.95073
#
# Static dielectric constant tensor:
#      x y z
#    x 1.976950 -0.000490 0.031230 
#    y -0.000490 2.006590 -0.071010 
#    z 0.031230 -0.071010 2.105690 
# 
# From -- ./inp_files/178797.got.cif
#   From: 2010.05.17/outbox.cif.g08.bks.cpg/sg2_90_cif.got.tgz:178797.got - 2010.06.03 11:33:40.
