data_PCOD9041360
_publ_section_title
;
Structure prediction by ZEFSAII (Michael W. Deem and Ramdas Pophale) SiO2 
 PCOD9041360
Probable space group: P -1
;
_chemical_formula_sum "Si O2"
_cell_formula_units_Z 10
_cell_length_a 7.488501
_cell_length_b 13.514392
_cell_length_c 7.055876
_cell_angle_alpha 45.987226
_cell_angle_beta 132.310297
_cell_angle_gamma 130.664074
_cell_volume 356.347344
_symmetry_space_group_name_H-M "P -1"
_symmetry_group_IT_number 2
_symmetry_cell_setting 'triclinic'
loop_
_space_group_symop_operation_xyz
x,y,z
-x,-y,-z
loop_
_atom_site_type_symbol
_atom_site_label
_atom_site_fract_x
_atom_site_fract_y
_atom_site_fract_z
Si Si1 0.386716 0.696923 0.694873
Si Si2 0.273915 0.970775 0.215103
Si Si3 0.565382 0.737777 0.205310
Si Si4 0.942484 0.432539 0.837341
Si Si5 0.897604 0.825213 0.642064
O O1 0.178760 0.534433 0.747902
O O2 0.634472 0.760854 0.655943
O O3 0.222239 0.800148 0.385308
O O4 0.504649 0.709675 0.976454
O O5 0.500000 0.000000 0.500000
O O6 0.419074 0.090515 0.001258
O O7 0.000000 0.000000 0.000000
O O8 0.835336 0.763433 0.465678
O O9 0.361351 0.602400 0.352245
O O10 0.932998 0.265870 0.043547
O O11 0.000000 0.500000 0.000000
O O12 0.000000 0.000000 0.500000
#
# Coordination Sequence:
#
# PCOD9041360 Si02
#       5
#     2   2   2   2   2
#     4  10  24  47  72 109 149 199 256 321 387 459
#     4  10  23  43  73 111 149 203 253 309 388 463
#     4  10  25  45  73 104 150 200 249 312 393 449
#     4  10  24  48  73 108 153 195 259 314 395 462
#     4  12  27  45  75 112 150 197 263 316 383 470
#
# _framework density 28.062507
#
# number of rings (size 3 to 8) (size 9 to 14) (size 15 to 20)
#    0.000    1.600    0.000    1.800   14.000    7.200 
#    3.600    0.000    0.000    0.000    0.000    0.000 
#    0.000    0.000    0.000    0.000    0.000    0.000 
#
# Total GULP energy -55766.398549 kJ/mol
# GULP energy per Si atom -5576.639855 kJ/mol
# Density = 2.799864 g / cm^3
# Si number density = 28.062507 Si / 1000 Ang^3
#
#
#
# Elastic Constant Matrix: (Units=GPa)
#
#
# Indices 1 2 3 4 5 6 
#
# 1 130.9810 54.4271 34.8390 -13.1271 -5.3293 41.8200
# 2 54.4271 204.9604 64.9636 -8.5252 -17.6875 24.3549
# 3 34.8390 64.9636 112.8724 -5.9370 13.9577 3.7322
# 4 -13.1271 -8.5252 -5.9370 72.9736 -4.9671 -28.8620
# 5 -5.3293 -17.6875 13.9577 -4.9671 57.3813 -5.4029
# 6 41.8200 24.3549 3.7322 -28.8620 -5.4029 55.3645
#
#
#
# Elastic Compliance Matrix: (Units=1/GPa)
#
#
# Indices 1 2 3 4 5 6 
#
# 1 0.011527 -0.001182 -0.002724 -0.001778 0.000377 -0.008893
# 2 -0.001182 0.006854 -0.003877 -0.000212 0.002767 -0.001701
# 3 -0.002724 -0.003877 0.012389 0.000991 -0.004089 0.003045
# 4 -0.001778 -0.000212 0.000991 0.017895 0.002104 0.010904
# 5 0.000377 0.002767 -0.004089 0.002104 0.019661 0.001789
# 6 -0.008893 -0.001701 0.003045 0.010904 0.001789 0.031182
#
#
# Mechanical properties :
#
#
# Convention : Reuss Voigt Hill
#
# Bulk Modulus (GPa) = 65.77224 84.14147 74.95685
# Shear Modulus (GPa) = 41.61778 56.78280 49.20029
#
# Velocity S-wave (km/s) = 3.85520 4.50315 4.19171
# Velocity P-wave (km/s) = 6.58069 7.55556 7.08491
#
# Compressibility (1/GPa) = 0.01520398
#
# Stress axis : x y z
#
# Youngs Moduli (GPa) = 86.75202 145.90180 80.71904
#
# Poissons Ratio (x) = 0.17251 0.21984
# Poissons Ratio (y) = 0.10257 0.31294
# Poissons Ratio (z) = 0.23627 0.56565
#
# Static dielectric constant tensor:
#      x y z
#    x 2.602070 0.030620 0.100670 
#    y 0.030620 2.273290 0.055020 
#    z 0.100670 0.055020 2.327010 
# 
# From -- ./inp_files/209630.got.cif
#   From: 2010.05.17/outbox.cif.g08.bks.cpg/sg2_105_cif.got.tgz:209630.got - 2010.06.03 11:33:40.
