data_PCOD9041182
_publ_section_title
;
Structure prediction by ZEFSAII (Michael W. Deem and Ramdas Pophale) SiO2 
 PCOD9041182
Probable space group: P -1
;
_chemical_formula_sum "Si O2"
_cell_formula_units_Z 14
_cell_length_a 11.040617
_cell_length_b 5.364840
_cell_length_c 13.212564
_cell_angle_alpha 97.118273
_cell_angle_beta 96.479928
_cell_angle_gamma 42.620594
_cell_volume 525.569001
_symmetry_space_group_name_H-M "P -1"
_symmetry_group_IT_number 2
_symmetry_cell_setting 'triclinic'
loop_
_space_group_symop_operation_xyz
x,y,z
-x,-y,-z
loop_
_atom_site_type_symbol
_atom_site_label
_atom_site_fract_x
_atom_site_fract_y
_atom_site_fract_z
Si Si1 0.403902 0.879753 0.455219
Si Si2 0.464254 0.500133 0.757114
Si Si3 0.640405 0.646872 0.923006
Si Si4 0.930592 0.925485 0.578964
Si Si5 0.151125 0.313535 0.718484
Si Si6 0.853391 0.410429 0.759200
Si Si7 0.171324 0.687668 0.879246
O O1 0.500000 0.500000 0.500000
O O2 0.432759 0.814162 0.333206
O O3 0.193563 0.123333 0.467463
O O4 0.500000 0.000000 0.500000
O O5 0.572602 0.515290 0.844010
O O6 0.334770 0.535709 0.818099
O O7 0.327964 0.886817 0.700230
O O8 0.709503 0.721384 0.842318
O O9 0.785839 0.332048 0.001967
O O10 0.500000 0.000000 0.000000
O O11 0.806115 0.274782 0.663304
O O12 0.894686 0.407329 0.354163
O O13 0.000000 0.000000 0.500000
O O14 0.163493 0.405738 0.837795
O O15 0.969850 0.430726 0.710016
O O16 0.996413 0.069636 0.832785
#
# Coordination Sequence:
#
# PCOD9041182 Si02
#       7
#     2   2   2   2   2   2   2
#     4  12  32  52  82 119 160 213 275 346 418 483
#     4  11  25  49  73 112 156 203 263 331 398 475
#     4  12  23  44  74 112 155 205 260 322 399 471
#     4  11  27  50  79 115 154 214 272 335 414 489
#     4  10  24  47  76 107 156 202 260 328 398 491
#     4  10  24  46  71 107 156 203 263 319 398 482
#     4  10  23  43  71 107 150 207 250 320 390 481
#
# _framework density 26.637795000000001
#
# number of rings (size 3 to 8) (size 9 to 14) (size 15 to 20)
#    0.000    1.143    2.857    0.857   10.000    2.286 
#    5.143    0.714    0.000    0.000    0.000    0.000 
#    0.000    0.000    0.000    0.000    0.000    0.000 
#
# Total GULP energy -78369.134262 kJ/mol
# GULP energy per Si atom -5597.795304 kJ/mol
# Density = 2.657717 g / cm^3
# Si number density = 26.637795 Si / 1000 Ang^3
#
#
#
# Elastic Constant Matrix: (Units=GPa)
#
#
# Indices 1 2 3 4 5 6 
#
# 1 132.6381 18.7461 79.6475 1.5485 25.6522 7.6014
# 2 18.7461 70.9340 45.8697 -15.2822 1.1871 -3.4553
# 3 79.6475 45.8697 218.2005 1.5904 0.4618 -1.5065
# 4 1.5485 -15.2822 1.5904 53.3070 -2.5764 -1.1780
# 5 25.6522 1.1871 0.4618 -2.5764 53.2153 1.8249
# 6 7.6014 -3.4553 -1.5065 -1.1780 1.8249 33.5014
#
#
#
# Elastic Compliance Matrix: (Units=1/GPa)
#
#
# Indices 1 2 3 4 5 6 
#
# 1 0.011171 -0.000573 -0.003958 -0.000682 -0.005285 -0.002508
# 2 -0.000573 0.017776 -0.003553 0.005267 0.000098 0.001984
# 3 -0.003958 -0.003553 0.006783 -0.001001 0.001856 0.000700
# 4 -0.000682 0.005267 -0.001001 0.020404 0.001163 0.001307
# 5 -0.005285 0.000098 0.001856 0.001163 0.021371 0.000169
# 6 -0.002508 0.001984 0.000700 0.001307 0.000169 0.030691
#
#
# Mechanical properties :
#
#
# Convention : Reuss Voigt Hill
#
# Bulk Modulus (GPa) = 51.11958 78.92212 65.02085
# Shear Modulus (GPa) = 38.20136 46.50535 42.35335
#
# Velocity S-wave (km/s) = 3.79106 4.18286 3.99177
# Velocity P-wave (km/s) = 6.19638 7.28152 6.76076
#
# Compressibility (1/GPa) = 0.01956198
#
# Stress axis : x y z
#
# Youngs Moduli (GPa) = 89.51758 56.25508 147.43120
#
# Poissons Ratio (x) = 0.03224 0.58358
# Poissons Ratio (y) = 0.05130 0.52376
# Poissons Ratio (z) = 0.35434 0.19985
#
# Static dielectric constant tensor:
#      x y z
#    x 2.179010 -0.003000 0.007860 
#    y -0.003000 2.234100 0.059640 
#    z 0.007860 0.059640 2.030510 
# 
# From -- ./inp_files/411088.got.cif
#   From: 2010.05.17/outbox.cif.g08.bks.cpg/sg2_206_cif.got.tgz:411088.got - 2010.06.03 11:33:40.
