data_PCOD9041777
_publ_section_title
;
Structure prediction by ZEFSAII (Michael W. Deem and Ramdas Pophale) SiO2 
 PCOD9041777
Probable space group: P -1
;
_chemical_formula_sum "Si O2"
_cell_formula_units_Z 16
_cell_length_a 21.231552
_cell_length_b 8.886746
_cell_length_c 11.803813
_cell_angle_alpha 28.853804
_cell_angle_beta 140.044002
_cell_angle_gamma 127.379193
_cell_volume 675.198388
_symmetry_space_group_name_H-M "P -1"
_symmetry_group_IT_number 2
_symmetry_cell_setting 'triclinic'
loop_
_space_group_symop_operation_xyz
x,y,z
-x,-y,-z
loop_
_atom_site_type_symbol
_atom_site_label
_atom_site_fract_x
_atom_site_fract_y
_atom_site_fract_z
Si Si1 0.283714 0.543968 0.924219
Si Si2 0.840401 0.172285 0.625740
Si Si3 0.036146 0.373629 0.506205
Si Si4 0.492316 0.586287 0.120552
Si Si5 0.774614 0.183837 0.921248
Si Si6 0.441908 0.792891 0.302002
Si Si7 0.153045 0.559688 0.929454
Si Si8 0.327829 0.787438 0.464161
O O1 0.183821 0.687177 0.624206
O O2 0.251994 0.612516 0.964487
O O3 0.373834 0.688921 0.905428
O O4 0.310766 0.168338 0.185261
O O5 0.928032 0.320794 0.700920
O O6 0.739042 0.298684 0.471421
O O7 0.853292 0.798560 0.877538
O O8 0.000000 0.500000 0.500000
O O9 0.951109 0.258721 0.389849
O O10 0.137851 0.100931 0.817949
O O11 0.520306 0.361204 0.420550
O O12 0.554368 0.341020 0.277462
O O13 0.528901 0.905561 0.921759
O O14 0.828875 0.382348 0.952522
O O15 0.678730 0.110994 0.906568
O O16 0.718879 0.341370 0.627572
O O17 0.500000 0.500000 0.500000
#
# Coordination Sequence:
#
# PCOD9041777 Si02
#       8
#     2   2   2   2   2   2   2   2
#     4  11  23  43  70 102 140 189 242 293 359 433
#     4  11  23  44  71  96 139 186 235 297 365 429
#     4  12  22  47  72  99 138 185 237 299 367 427
#     4  11  25  40  71 105 143 190 250 301 357 435
#     4  11  24  46  70 104 144 182 240 296 362 434
#     4  11  25  46  68 105 152 198 234 297 374 437
#     4  11  25  43  69 102 136 182 240 297 357 434
#     4  10  23  44  67 103 140 189 235 299 365 431
#
# _framework density 23.696738
#
# number of rings (size 3 to 8) (size 9 to 14) (size 15 to 20)
#    0.000    1.000    2.500    3.750    7.000    0.500 
#    4.500    1.250    0.000    0.000    0.000    0.000 
#    0.000    0.000    0.000    0.000    0.000    0.000 
#
# Total GULP energy -89124.175099 kJ/mol
# GULP energy per Si atom -5570.260944 kJ/mol
# Density = 2.364280 g / cm^3
# Si number density = 23.696738 Si / 1000 Ang^3
#
#
#
# Elastic Constant Matrix: (Units=GPa)
#
#
# Indices 1 2 3 4 5 6 
#
# 1 126.4103 45.3445 30.6551 5.8657 12.7987 5.4016
# 2 45.3445 65.7241 16.2588 20.2662 -6.2187 -1.7957
# 3 30.6551 16.2588 80.9453 8.4159 6.0613 7.7172
# 4 5.8657 20.2662 8.4159 34.9077 1.7947 -7.5939
# 5 12.7987 -6.2187 6.0613 1.7947 42.7573 2.5182
# 6 5.4016 -1.7957 7.7172 -7.5939 2.5182 39.8124
#
#
#
# Elastic Compliance Matrix: (Units=1/GPa)
#
#
# Indices 1 2 3 4 5 6 
#
# 1 0.012358 -0.009651 -0.002789 0.004355 -0.004865 -0.000433
# 2 -0.009651 0.027260 -0.000829 -0.014516 0.007613 -0.000551
# 3 -0.002789 -0.000829 0.014252 -0.003075 -0.001004 -0.002945
# 4 0.004355 -0.014516 -0.003075 0.038884 -0.005028 0.007085
# 5 -0.004865 0.007613 -0.001004 -0.005028 0.026389 -0.001430
# 6 -0.000433 -0.000551 -0.002945 0.007085 -0.001430 0.027164
#
#
# Mechanical properties :
#
#
# Convention : Reuss Voigt Hill
#
# Bulk Modulus (GPa) = 36.58616 50.84406 43.71511
# Shear Modulus (GPa) = 27.47925 35.55022 31.51474
#
# Velocity S-wave (km/s) = 3.40902 3.87746 3.65076
# Velocity P-wave (km/s) = 5.56489 6.44585 6.02151
#
# Compressibility (1/GPa) = 0.02733274
#
# Stress axis : x y z
#
# Youngs Moduli (GPa) = 80.91960 36.68397 70.16406
#
# Poissons Ratio (x) = 0.35404 0.19567
# Poissons Ratio (y) = 0.78096 0.05816
# Poissons Ratio (z) = 0.22567 0.03041
#
# Static dielectric constant tensor:
#      x y z
#    x 1.926910 0.030680 0.022190 
#    y 0.030680 1.953470 0.037690 
#    z 0.022190 0.037690 1.966660 
# 
# From -- ./inp_files/110946.got.cif
#   From: 2010.05.17/outbox.cif.g08.bks.cpg/sg2_56_cif.got.tgz:110946.got - 2010.06.03 11:33:40.
