data_PCOD9041294
_publ_section_title
;
Structure prediction by ZEFSAII (Michael W. Deem and Ramdas Pophale) SiO2 
 PCOD9041294
Probable space group: P -1
;
_chemical_formula_sum "Si O2"
_cell_formula_units_Z 16
_cell_length_a 14.684194
_cell_length_b 8.194010
_cell_length_c 11.555809
_cell_angle_alpha 106.310999
_cell_angle_beta 124.137872
_cell_angle_gamma 117.922970
_cell_volume 680.157924
_symmetry_space_group_name_H-M "P -1"
_symmetry_group_IT_number 2
_symmetry_cell_setting 'triclinic'
loop_
_space_group_symop_operation_xyz
x,y,z
-x,-y,-z
loop_
_atom_site_type_symbol
_atom_site_label
_atom_site_fract_x
_atom_site_fract_y
_atom_site_fract_z
Si Si1 0.024018 0.993375 0.318032
Si Si2 0.556097 0.574657 0.719600
Si Si3 0.558525 0.736558 0.201318
Si Si4 0.694107 0.521251 0.621716
Si Si5 0.065404 0.832583 0.892461
Si Si6 0.248140 0.328227 0.737601
Si Si7 0.945204 0.529581 0.087135
Si Si8 0.522499 0.054317 0.663822
O O1 0.898061 0.799500 0.298648
O O2 0.039683 0.828448 0.233465
O O3 0.938579 0.039855 0.191499
O O4 0.190665 0.290890 0.558215
O O5 0.529564 0.511837 0.823950
O O6 0.619569 0.476865 0.685672
O O7 0.371992 0.402670 0.490289
O O8 0.725872 0.898865 0.869917
O O9 0.725111 0.844332 0.285639
O O10 0.577028 0.912965 0.336952
O O11 0.427576 0.619730 0.979303
O O12 0.899715 0.718030 0.820944
O O13 0.586274 0.240667 0.427848
O O14 0.023021 0.579804 0.815628
O O15 0.733071 0.310484 0.891152
O O16 0.000000 0.500000 0.000000
O O17 0.500000 0.000000 0.500000
#
# Coordination Sequence:
#
# PCOD9041294 Si02
#       8
#     2   2   2   2   2   2   2   2
#     4  11  25  48  71  99 140 183 236 294 341 405
#     4  11  22  42  64  99 137 182 230 278 346 427
#     4  11  22  42  74  95 132 186 233 287 351 404
#     4  11  25  38  64  99 143 179 216 282 355 420
#     4  12  25  44  70 101 144 183 229 281 350 419
#     4  10  23  43  72  98 128 190 244 285 341 403
#     4  12  28  43  72 110 140 181 228 285 358 425
#     4  12  23  42  63 103 143 171 222 294 348 420
#
# _framework density 23.523949999999999
#
# number of rings (size 3 to 8) (size 9 to 14) (size 15 to 20)
#    0.000    0.750    5.000    1.875    7.000    0.000 
#    0.000    2.500    5.500    3.750    0.000    0.000 
#    0.000    0.000    0.000    0.000    0.000    0.000 
#
# Total GULP energy -89132.271005 kJ/mol
# GULP energy per Si atom -5570.766938 kJ/mol
# Density = 2.347041 g / cm^3
# Si number density = 23.523950 Si / 1000 Ang^3
#
#
#
# Elastic Constant Matrix: (Units=GPa)
#
#
# Indices 1 2 3 4 5 6 
#
# 1 132.4101 23.7383 34.7770 2.6644 -6.2070 2.2976
# 2 23.7383 69.5594 38.8753 2.6424 -2.4886 -15.6782
# 3 34.7770 38.8753 88.9310 -11.3152 -4.5755 -7.7466
# 4 2.6644 2.6424 -11.3152 29.4210 0.4353 4.9046
# 5 -6.2070 -2.4886 -4.5755 0.4353 39.0704 -5.0756
# 6 2.2976 -15.6782 -7.7466 4.9046 -5.0756 29.0421
#
#
#
# Elastic Compliance Matrix: (Units=1/GPa)
#
#
# Indices 1 2 3 4 5 6 
#
# 1 0.008741 -0.001676 -0.003015 -0.001472 0.000681 -0.002033
# 2 -0.001676 0.023128 -0.009298 -0.007478 0.001721 0.011702
# 3 -0.003015 -0.009298 0.017427 0.008028 0.000703 -0.001366
# 4 -0.001472 -0.007478 0.008028 0.039344 -0.001333 -0.008656
# 5 0.000681 0.001721 0.000703 -0.001333 0.026683 0.005951
# 6 -0.002033 0.011702 -0.001366 -0.008656 0.005951 0.043048
#
#
# Mechanical properties :
#
#
# Convention : Reuss Voigt Hill
#
# Bulk Modulus (GPa) = 46.90954 53.96463 50.43709
# Shear Modulus (GPa) = 25.84559 32.40736 29.12647
#
# Velocity S-wave (km/s) = 3.31825 3.71567 3.52257
# Velocity P-wave (km/s) = 5.88774 6.43416 6.16701
#
# Compressibility (1/GPa) = 0.02131762
#
# Stress axis : x y z
#
# Youngs Moduli (GPa) = 114.39693 43.23789 57.38233
#
# Poissons Ratio (x) = 0.07247 0.17301
# Poissons Ratio (y) = 0.19174 0.53355
# Poissons Ratio (z) = 0.34491 0.40204
#
# Static dielectric constant tensor:
#      x y z
#    x 1.926500 -0.047850 0.046360 
#    y -0.047850 2.058520 0.040580 
#    z 0.046360 0.040580 2.001170 
# 
# From -- ./inp_files/447871.got.cif
#   From: 2010.05.17/outbox.cif.g08.bks.cpg/sg2_224_cif.got.tgz:447871.got - 2010.06.03 11:33:40.
