data_PCOD9041180
_publ_section_title
;
Structure prediction by ZEFSAII (Michael W. Deem and Ramdas Pophale) SiO2 
 PCOD9041180
Probable space group: P -1
;
_chemical_formula_sum "Si O2"
_cell_formula_units_Z 16
_cell_length_a 22.572614
_cell_length_b 7.869515
_cell_length_c 18.764762
_cell_angle_alpha 31.072957
_cell_angle_beta 156.294940
_cell_angle_gamma 146.097343
_cell_volume 674.637972
_symmetry_space_group_name_H-M "P -1"
_symmetry_group_IT_number 2
_symmetry_cell_setting 'triclinic'
loop_
_space_group_symop_operation_xyz
x,y,z
-x,-y,-z
loop_
_atom_site_type_symbol
_atom_site_label
_atom_site_fract_x
_atom_site_fract_y
_atom_site_fract_z
Si Si1 0.306193 0.351482 0.021376
Si Si2 0.506328 0.487498 0.327433
Si Si3 0.888029 0.362397 0.990733
Si Si4 0.368670 0.244748 0.408215
Si Si5 0.150266 0.310125 0.404818
Si Si6 0.943537 0.276304 0.388992
Si Si7 0.476728 0.243147 0.001001
Si Si8 0.233862 0.561632 0.559516
O O1 0.428698 0.335610 0.222767
O O2 0.393705 0.606667 0.966788
O O3 0.175087 0.526020 0.844236
O O4 0.223951 0.992314 0.026837
O O5 0.422466 0.258123 0.381014
O O6 0.688964 0.555107 0.505141
O O7 0.474872 0.865870 0.158655
O O8 0.001924 0.328233 0.191851
O O9 0.785286 0.623663 0.803311
O O10 0.000000 0.500000 0.000000
O O11 0.500000 0.500000 0.500000
O O12 0.350953 0.910672 0.556023
O O13 0.166043 0.522934 0.419049
O O14 0.124583 0.927187 0.543230
O O15 0.100805 0.548186 0.474198
O O16 0.000000 0.000000 0.500000
O O17 0.322631 0.274610 0.780218
O O18 0.500000 0.500000 0.000000
#
# Coordination Sequence:
#
# PCOD9041180 Si02
#       8
#     2   2   2   2   2   2   2   2
#     4  12  25  46  75 110 145 200 247 307 371 448
#     4  12  25  46  80 108 148 190 253 302 375 448
#     4  12  29  48  71 106 155 194 254 305 376 443
#     4  12  28  49  73 109 149 196 251 309 372 444
#     4  11  25  46  73 109 143 193 243 313 370 444
#     4  10  23  43  71 107 147 182 244 305 371 437
#     4  12  25  45  77 113 149 196 250 310 367 443
#     4  11  25  46  75 105 149 193 250 303 376 441
#
# _framework density 23.716422000000001
#
# number of rings (size 3 to 8) (size 9 to 14) (size 15 to 20)
#    0.000    0.500    2.500    5.625    8.750    2.500 
#    0.000    0.000    0.000    0.000    0.000    0.000 
#    0.000    0.000    0.000    0.000    0.000    0.000 
#
# Total GULP energy -89561.864845 kJ/mol
# GULP energy per Si atom -5597.616553 kJ/mol
# Density = 2.366244 g / cm^3
# Si number density = 23.716422 Si / 1000 Ang^3
#
#
#
# Elastic Constant Matrix: (Units=GPa)
#
#
# Indices 1 2 3 4 5 6 
#
# 1 67.4443 -5.5122 22.0290 9.1282 12.2866 11.4412
# 2 -5.5122 82.1210 7.1601 4.5568 6.8119 12.5404
# 3 22.0290 7.1601 127.9814 2.3848 14.2490 -4.4167
# 4 9.1282 4.5568 2.3848 40.2043 0.8189 0.4437
# 5 12.2866 6.8119 14.2490 0.8189 40.2268 16.3801
# 6 11.4412 12.5404 -4.4167 0.4437 16.3801 48.7937
#
#
#
# Elastic Compliance Matrix: (Units=1/GPa)
#
#
# Indices 1 2 3 4 5 6 
#
# 1 0.017783 0.002543 -0.002919 -0.004045 -0.003115 -0.004005
# 2 0.002543 0.013212 -0.001152 -0.001944 -0.001049 -0.003726
# 3 -0.002919 -0.001152 0.008831 0.000303 -0.003210 0.002855
# 4 -0.004045 -0.001944 0.000303 0.025972 0.000491 0.001075
# 5 -0.003115 -0.001049 -0.003210 0.000491 0.031076 -0.009727
# 6 -0.004005 -0.003726 0.002855 0.001075 -0.009727 0.025905
#
#
# Mechanical properties :
#
#
# Convention : Reuss Voigt Hill
#
# Bulk Modulus (GPa) = 27.19791 36.10004 31.64898
# Shear Modulus (GPa) = 36.20756 42.76960 39.48858
#
# Velocity S-wave (km/s) = 3.91152 4.25122 4.08491
# Velocity P-wave (km/s) = 5.64738 6.27310 5.96844
#
# Compressibility (1/GPa) = 0.03676752
#
# Stress axis : x y z
#
# Youngs Moduli (GPa) = 56.23474 75.68767 113.23979
#
# Poissons Ratio (x) = -0.19244 0.33056
# Poissons Ratio (y) = -0.14298 0.13050
# Poissons Ratio (z) = 0.16416 0.08722
#
# Static dielectric constant tensor:
#      x y z
#    x 2.091850 0.054150 0.048190 
#    y 0.054150 2.038020 0.029240 
#    z 0.048190 0.029240 1.908620 
# 
# From -- ./inp_files/601926.got.cif
#   From: 2010.05.17/outbox.cif.g08.bks.cpg/sg2_301_cif.got.tgz:601926.got - 2010.06.03 11:33:40.
