data_PCOD9041725
_publ_section_title
;
Structure prediction by ZEFSAII (Michael W. Deem and Ramdas Pophale) SiO2 
 PCOD9041725
Probable space group: P -1
;
_chemical_formula_sum "Si O2"
_cell_formula_units_Z 16
_cell_length_a 10.769728
_cell_length_b 16.727677
_cell_length_c 18.814726
_cell_angle_alpha 155.922225
_cell_angle_beta 146.827672
_cell_angle_gamma 46.068566
_cell_volume 718.018614
_symmetry_space_group_name_H-M "P -1"
_symmetry_group_IT_number 2
_symmetry_cell_setting 'triclinic'
loop_
_space_group_symop_operation_xyz
x,y,z
-x,-y,-z
loop_
_atom_site_type_symbol
_atom_site_label
_atom_site_fract_x
_atom_site_fract_y
_atom_site_fract_z
Si Si1 0.700043 0.662447 0.498428
Si Si2 0.199548 0.018270 0.673212
Si Si3 0.126160 0.904595 0.230471
Si Si4 0.421006 0.941546 0.218881
Si Si5 0.055983 0.522733 0.655389
Si Si6 0.483157 0.262594 0.779175
Si Si7 0.768110 0.099789 0.239523
Si Si8 0.175572 0.400221 0.041634
O O1 0.776784 0.571377 0.389521
O O2 0.429986 0.556976 0.312220
O O3 0.886643 0.618411 0.606127
O O4 0.705557 0.897853 0.683869
O O5 0.425787 0.976104 0.711049
O O6 0.181388 0.925358 0.671053
O O7 0.262855 0.258609 0.914634
O O8 0.000000 0.000000 0.500000
O O9 0.265611 0.773089 0.148960
O O10 0.310823 0.127084 0.525386
O O11 0.909463 0.978623 0.160508
O O12 0.990265 0.746026 0.098180
O O13 0.604289 0.892049 0.321861
O O14 0.233233 0.717561 0.937040
O O15 0.885397 0.340203 0.472780
O O16 0.500000 0.500000 0.000000
O O17 0.500000 0.000000 0.000000
O O18 0.000000 0.500000 0.000000
#
# Coordination Sequence:
#
# PCOD9041725 Si02
#       8
#     2   2   2   2   2   2   2   2
#     4  11  24  45  71 103 140 188 241 299 360 433
#     4  11  24  44  69 107 148 186 239 305 360 429
#     4  10  23  44  66  98 142 183 237 299 355 423
#     4  12  24  43  69 104 141 182 241 296 361 429
#     4  11  24  45  74  98 142 190 243 291 359 438
#     4  11  24  42  70 103 139 187 243 300 360 430
#     4  11  24  46  77 104 147 198 240 297 372 438
#     4  11  22  41  68  96 135 187 233 290 363 422
#
# _framework density 22.283546000000001
#
# number of rings (size 3 to 8) (size 9 to 14) (size 15 to 20)
#    0.000    1.000    1.250    6.375    3.500    2.000 
#    9.000    0.625    0.000    0.000    0.000    0.000 
#    0.000    0.000    0.000    0.000    0.000    0.000 
#
# Total GULP energy -89075.303207 kJ/mol
# GULP energy per Si atom -5567.206450 kJ/mol
# Density = 2.223283 g / cm^3
# Si number density = 22.283546 Si / 1000 Ang^3
#
#
#
# Elastic Constant Matrix: (Units=GPa)
#
#
# Indices 1 2 3 4 5 6 
#
# 1 106.7947 45.0235 45.5311 -6.0164 -7.0639 -24.2022
# 2 45.0235 125.5279 56.7938 12.9929 -11.5954 -20.0788
# 3 45.5311 56.7938 88.4106 2.6482 -13.4747 -12.3040
# 4 -6.0164 12.9929 2.6482 40.5052 -12.6045 -6.8637
# 5 -7.0639 -11.5954 -13.4747 -12.6045 31.3760 6.3443
# 6 -24.2022 -20.0788 -12.3040 -6.8637 6.3443 48.9778
#
#
#
# Elastic Compliance Matrix: (Units=1/GPa)
#
#
# Indices 1 2 3 4 5 6 
#
# 1 0.013916 -0.002269 -0.004992 0.004252 0.000811 0.005183
# 2 -0.002269 0.012342 -0.006482 -0.003748 -0.000616 0.001865
# 3 -0.004992 -0.006482 0.018686 0.001626 0.005340 -0.000893
# 4 0.004252 -0.003748 0.001626 0.030742 0.011863 0.003745
# 5 0.000811 -0.000616 0.005340 0.011863 0.039277 -0.001936
# 6 0.005183 0.001865 -0.000893 0.003745 -0.001936 0.024294
#
#
# Mechanical properties :
#
#
# Convention : Reuss Voigt Hill
#
# Bulk Modulus (GPa) = 57.27604 68.38108 62.82856
# Shear Modulus (GPa) = 28.97495 35.73080 32.35288
#
# Velocity S-wave (km/s) = 3.60986 4.00867 3.81448
# Velocity P-wave (km/s) = 6.56764 7.22353 6.90337
#
# Compressibility (1/GPa) = 0.01745931
#
# Stress axis : x y z
#
# Youngs Moduli (GPa) = 71.85778 81.02249 53.51515
#
# Poissons Ratio (x) = 0.18385 0.26713
# Poissons Ratio (y) = 0.16305 0.34689
# Poissons Ratio (z) = 0.35869 0.52519
#
# Static dielectric constant tensor:
#      x y z
#    x 1.916770 0.012670 0.031090 
#    y 0.012670 1.893570 -0.063060 
#    z 0.031090 -0.063060 1.959970 
# 
# From -- ./inp_files/596100.got.cif
#   From: 2010.05.17/outbox.cif.g08.bks.cpg/sg2_299_cif.got.tgz:596100.got - 2010.06.03 11:33:40.
