data_PCOD9041335
_publ_section_title
;
Structure prediction by ZEFSAII (Michael W. Deem and Ramdas Pophale) SiO2 
 PCOD9041335
Probable space group: P -1
;
_chemical_formula_sum "Si O2"
_cell_formula_units_Z 15
_cell_length_a 16.405755
_cell_length_b 5.502762
_cell_length_c 13.924511
_cell_angle_alpha 111.971360
_cell_angle_beta 146.405159
_cell_angle_gamma 77.282868
_cell_volume 634.695340
_symmetry_space_group_name_H-M "P -1"
_symmetry_group_IT_number 2
_symmetry_cell_setting 'triclinic'
loop_
_space_group_symop_operation_xyz
x,y,z
-x,-y,-z
loop_
_atom_site_type_symbol
_atom_site_label
_atom_site_fract_x
_atom_site_fract_y
_atom_site_fract_z
Si Si1 0.903424 0.542142 0.504609
Si Si2 0.836592 0.373002 0.855936
Si Si3 0.354263 0.242820 0.230684
Si Si4 0.355308 0.979596 0.514672
Si Si5 0.545964 0.506595 0.838151
Si Si6 0.500000 0.000000 0.000000
Si Si7 0.164379 0.715608 0.932270
Si Si8 0.263995 0.965342 0.623565
O O1 0.833163 0.803612 0.450514
O O2 0.000000 0.500000 0.500000
O O3 0.015396 0.610060 0.713728
O O4 0.796762 0.262919 0.389492
O O5 0.710403 0.553021 0.734415
O O6 0.768199 0.090489 0.699039
O O7 0.843712 0.360783 0.975529
O O8 0.000000 0.500000 0.000000
O O9 0.420306 0.379120 0.218553
O O10 0.486227 0.095247 0.375382
O O11 0.209786 0.032413 0.025444
O O12 0.402576 0.277814 0.645221
O O13 0.284125 0.834312 0.520585
O O14 0.528855 0.735762 0.928470
O O15 0.693824 0.385349 0.991318
O O16 0.422770 0.100086 0.842272
#
# Coordination Sequence:
#
# PCOD9041335 Si02
#       8
#     2   2   2   2   2   1   2   2
#     4  12  28  48  74 111 155 205 253 317 394 454
#     4  11  25  45  74 104 148 198 253 315 386 458
#     4  10  23  44  69 105 144 195 241 321 374 463
#     4  11  24  46  70 111 147 195 255 315 385 450
#     4  10  23  43  73 104 148 194 247 318 373 460
#     4  12  24  48  74 108 146 194 258 308 392 430
#     4  10  25  45  72 106 148 200 252 308 382 466
#     4  12  28  45  77 109 150 200 257 324 370 474
#
# _framework density 23.633386999999999
#
# number of rings (size 3 to 8) (size 9 to 14) (size 15 to 20)
#    0.000    1.067    1.333    3.200    7.467    8.533 
#    0.000    0.000    0.000    0.000    0.000    0.000 
#    0.000    0.000    0.000    0.000    0.000    0.000 
#
# Total GULP energy -83609.687206 kJ/mol
# GULP energy per Si atom -5573.979147 kJ/mol
# Density = 2.357960 g / cm^3
# Si number density = 23.633387 Si / 1000 Ang^3
#
#
#
# Elastic Constant Matrix: (Units=GPa)
#
#
# Indices 1 2 3 4 5 6 
#
# 1 104.4923 33.1922 0.8601 0.8403 -20.2502 -2.1492
# 2 33.1922 93.5420 2.8842 -2.4831 -4.7867 -15.0107
# 3 0.8601 2.8842 35.0651 -26.2135 -50.6588 -22.0305
# 4 0.8403 -2.4831 -26.2135 27.5000 -6.8174 -1.8130
# 5 -20.2502 -4.7867 -50.6588 -6.8174 16.1338 6.7126
# 6 -2.1492 -15.0107 -22.0305 -1.8130 6.7126 40.4857
#
#
#
# Elastic Compliance Matrix: (Units=1/GPa)
#
#
# Indices 1 2 3 4 5 6 
#
# 1 0.011183 -0.004455 -0.003604 -0.004141 0.001054 -0.003380
# 2 -0.004455 0.013027 0.000368 0.001483 -0.002113 0.005211
# 3 -0.003604 0.000368 -0.003364 -0.007604 -0.018543 0.000849
# 4 -0.004141 0.001483 -0.007604 0.024870 -0.018264 0.000334
# 5 0.001054 -0.002113 -0.018543 -0.018264 0.001695 -0.011916
# 6 -0.003380 0.005211 0.000849 0.000334 -0.011916 0.028905
#
#
# Mechanical properties :
#
#
# Convention : Reuss Voigt Hill
#
# Bulk Modulus (GPa) = 183.02830 34.10804 108.56817
# Shear Modulus (GPa) = 53.46380 29.90145 41.68263
#
# Velocity S-wave (km/s) = 4.76143 3.56085 4.20422
# Velocity P-wave (km/s) = 10.38467 5.60087 8.34299
#
# Compressibility (1/GPa) = 0.00546364
#
# Stress axis : x y z
#
# Youngs Moduli (GPa) = 89.42100 76.76151 -297.27851
#
# Poissons Ratio (x) = 0.34200 -1.07144
# Poissons Ratio (y) = 0.39840 0.10941
# Poissons Ratio (z) = 0.32229 -0.02825
#
# Static dielectric constant tensor:
#      x y z
#    x 1.939420 0.034800 0.009120 
#    y 0.034800 1.992750 0.029610 
#    z 0.009120 0.029610 1.929030 
# 
# From -- ./inp_files/442222.got.cif
#   From: 2010.05.17/outbox.cif.g08.bks.cpg/sg2_222_cif.got.tgz:442222.got - 2010.06.03 11:33:40.
