data_PCOD9041413
_publ_section_title
;
Structure prediction by ZEFSAII (Michael W. Deem and Ramdas Pophale) SiO2 
 PCOD9041413
Probable space group: P -1
;
_chemical_formula_sum "Si O2"
_cell_formula_units_Z 16
_cell_length_a 10.593913
_cell_length_b 14.600848
_cell_length_c 7.925947
_cell_angle_alpha 36.600335
_cell_angle_beta 68.144544
_cell_angle_gamma 56.453164
_cell_volume 602.896311
_symmetry_space_group_name_H-M "P -1"
_symmetry_group_IT_number 2
_symmetry_cell_setting 'triclinic'
loop_
_space_group_symop_operation_xyz
x,y,z
-x,-y,-z
loop_
_atom_site_type_symbol
_atom_site_label
_atom_site_fract_x
_atom_site_fract_y
_atom_site_fract_z
Si Si1 0.410979 0.350825 0.131425
Si Si2 0.802221 0.268207 0.289875
Si Si3 0.116966 0.708705 0.405817
Si Si4 0.872153 0.892185 0.741948
Si Si5 0.515717 0.815840 0.328080
Si Si6 0.383072 0.791455 0.082841
Si Si7 0.786131 0.843799 0.483801
Si Si8 0.829062 0.606100 0.362706
O O1 0.523259 0.211088 0.420021
O O2 0.505371 0.326094 0.946381
O O3 0.273749 0.297589 0.244103
O O4 0.341672 0.547971 0.942510
O O5 0.854012 0.303344 0.392973
O O6 0.943701 0.218939 0.163455
O O7 0.811948 0.078451 0.579826
O O8 0.191983 0.520970 0.566818
O O9 0.932646 0.787777 0.369159
O O10 0.215397 0.798130 0.149815
O O11 0.832734 0.900286 0.552910
O O12 0.804656 0.778540 0.027548
O O13 0.694843 0.676910 0.457798
O O14 0.447208 0.751320 0.301657
O O15 0.500000 0.000000 0.000000
O O16 0.353093 0.985532 0.771822
O O17 0.000000 0.500000 0.500000
#
# Coordination Sequence:
#
# PCOD9041413 Si02
#       8
#     2   2   2   2   2   2   2   2
#     4  12  26  50  82 115 157 215 268 328 406 484
#     4  10  23  44  74 114 158 202 263 333 397 470
#     4  11  26  48  75 113 159 213 265 337 400 478
#     4  10  23  43  74 114 152 202 265 330 395 474
#     4  12  28  48  80 117 159 213 268 327 404 489
#     4  12  28  48  78 119 165 209 268 333 407 478
#     4  11  23  46  81 112 154 211 271 329 398 479
#     4  12  27  48  79 112 157 210 274 330 400 487
#
# _framework density 26.53856
#
# number of rings (size 3 to 8) (size 9 to 14) (size 15 to 20)
#    0.000    0.750    1.250    5.250    3.500    8.000 
#    0.000    3.125    0.000    0.750    0.000    0.000 
#    0.000    0.000    0.000    0.000    0.000    0.000 
#
# Total GULP energy -89586.432997 kJ/mol
# GULP energy per Si atom -5599.152062 kJ/mol
# Density = 2.647816 g / cm^3
# Si number density = 26.538560 Si / 1000 Ang^3
#
#
#
# Elastic Constant Matrix: (Units=GPa)
#
#
# Indices 1 2 3 4 5 6 
#
# 1 82.8468 35.4055 18.0777 -8.9005 4.0800 -9.6160
# 2 35.4055 140.9356 39.2817 -16.7072 3.3150 -8.5915
# 3 18.0777 39.2817 106.8391 -10.0129 -12.7524 8.8630
# 4 -8.9005 -16.7072 -10.0129 48.0800 10.8449 7.3029
# 5 4.0800 3.3150 -12.7524 10.8449 49.0937 -9.2045
# 6 -9.6160 -8.5915 8.8630 7.3029 -9.2045 48.3370
#
#
#
# Elastic Compliance Matrix: (Units=1/GPa)
#
#
# Indices 1 2 3 4 5 6 
#
# 1 0.014049 -0.002782 -0.001565 0.001265 -0.001262 0.002156
# 2 -0.002782 0.008941 -0.002862 0.002169 -0.001414 0.000964
# 3 -0.001565 -0.002862 0.011276 0.000864 0.002588 -0.002525
# 4 0.001265 0.002169 0.000864 0.024007 -0.006140 -0.004318
# 5 -0.001262 -0.001414 0.002588 -0.006140 0.023425 0.004411
# 6 0.002156 0.000964 -0.002525 -0.004318 0.004411 0.023244
#
#
# Mechanical properties :
#
#
# Convention : Reuss Voigt Hill
#
# Bulk Modulus (GPa) = 50.38304 57.35014 53.86659
# Shear Modulus (GPa) = 39.68955 44.95925 42.32440
#
# Velocity S-wave (km/s) = 3.87142 4.12042 3.99786
# Velocity P-wave (km/s) = 6.24579 6.65539 6.45384
#
# Compressibility (1/GPa) = 0.01984795
#
# Stress axis : x y z
#
# Youngs Moduli (GPa) = 71.17821 111.84201 88.68043
#
# Poissons Ratio (x) = 0.31115 0.13880
# Poissons Ratio (y) = 0.19802 0.25382
# Poissons Ratio (z) = 0.11141 0.32012
#
# Static dielectric constant tensor:
#      x y z
#    x 2.196100 -0.052310 0.009060 
#    y -0.052310 2.075380 0.022800 
#    z 0.009060 0.022800 2.011940 
# 
# From -- ./inp_files/269460.got.cif
#   From: 2010.05.17/outbox.cif.g08.bks.cpg/sg2_135_cif.got.tgz:269460.got - 2010.06.03 11:33:40.
