data_PCOD9041183
_publ_section_title
;
Structure prediction by ZEFSAII (Michael W. Deem and Ramdas Pophale) SiO2 
 PCOD9041183
Probable space group: P -1
;
_chemical_formula_sum "Si O2"
_cell_formula_units_Z 14
_cell_length_a 4.683648
_cell_length_b 11.625649
_cell_length_c 12.980625
_cell_angle_alpha 119.661010
_cell_angle_beta 92.886854
_cell_angle_gamma 66.398257
_cell_volume 553.035206
_symmetry_space_group_name_H-M "P -1"
_symmetry_group_IT_number 2
_symmetry_cell_setting 'triclinic'
loop_
_space_group_symop_operation_xyz
x,y,z
-x,-y,-z
loop_
_atom_site_type_symbol
_atom_site_label
_atom_site_fract_x
_atom_site_fract_y
_atom_site_fract_z
Si Si1 0.216307 0.645546 0.805716
Si Si2 0.148574 0.294260 0.812441
Si Si3 0.495034 0.689319 0.378859
Si Si4 0.357522 0.063765 0.137512
Si Si5 0.745662 0.614621 0.930482
Si Si6 0.788831 0.876124 0.516007
Si Si7 0.973401 0.977172 0.234977
O O1 0.367563 0.486029 0.683951
O O2 0.490805 0.686103 0.868582
O O3 0.943928 0.778704 0.801818
O O4 0.057544 0.626253 0.900567
O O5 0.371674 0.278811 0.712363
O O6 0.352371 0.237769 0.504851
O O7 0.829195 0.442568 0.854747
O O8 0.307990 0.329630 0.930731
O O9 0.932010 0.839220 0.219466
O O10 0.117028 0.778825 0.418918
O O11 0.632018 0.067430 0.216144
O O12 0.220607 0.956799 0.138815
O O13 0.500000 0.000000 0.000000
O O14 0.500000 0.000000 0.500000
O O15 0.902673 0.949680 0.641302
#
# Coordination Sequence:
#
# PCOD9041183 Si02
#       7
#     2   2   2   2   2   2   2
#     4  11  24  48  73 107 149 206 253 309 370 447
#     4  10  25  43  73 113 154 198 243 314 387 466
#     4  11  26  46  76 108 153 203 248 314 385 446
#     4  12  28  52  79 108 152 206 258 311 372 450
#     4  10  23  43  71 107 156 192 250 303 386 458
#     4  12  29  49  73 115 156 198 251 317 386 457
#     4  12  29  49  75 113 153 199 257 312 384 446
#
# _framework density 25.314845999999999
#
# number of rings (size 3 to 8) (size 9 to 14) (size 15 to 20)
#    0.000    0.857    0.000    5.143    8.000   10.857 
#    2.571    5.714    0.000    0.000    0.000    0.000 
#    0.000    0.000    0.000    0.000    0.000    0.000 
#
# Total GULP energy -78461.610626 kJ/mol
# GULP energy per Si atom -5604.400759 kJ/mol
# Density = 2.525723 g / cm^3
# Si number density = 25.314846 Si / 1000 Ang^3
#
#
#
# Elastic Constant Matrix: (Units=GPa)
#
#
# Indices 1 2 3 4 5 6 
#
# 1 153.7045 55.8037 45.5229 8.7904 3.5205 -26.6124
# 2 55.8037 171.6478 59.3441 20.0208 12.6087 -31.2608
# 3 45.5229 59.3441 108.6613 16.1170 9.7282 -7.9008
# 4 8.7904 20.0208 16.1170 33.0920 1.2806 2.9124
# 5 3.5205 12.6087 9.7282 1.2806 56.5881 -9.5695
# 6 -26.6124 -31.2608 -7.9008 2.9124 -9.5695 51.7418
#
#
#
# Elastic Compliance Matrix: (Units=1/GPa)
#
#
# Indices 1 2 3 4 5 6 
#
# 1 0.008289 -0.001195 -0.002565 -0.000552 0.000766 0.003322
# 2 -0.001195 0.008571 -0.003299 -0.003611 -0.000481 0.004175
# 3 -0.002565 -0.003299 0.012586 -0.003267 -0.001444 -0.001474
# 4 -0.000552 -0.003611 -0.003267 0.034585 -0.000220 -0.004951
# 5 0.000766 -0.000481 -0.001444 -0.000220 0.018547 0.003325
# 6 0.003322 0.004175 -0.001474 -0.004951 0.003325 0.024227
#
#
# Mechanical properties :
#
#
# Convention : Reuss Voigt Hill
#
# Bulk Modulus (GPa) = 65.23540 83.92834 74.58187
# Shear Modulus (GPa) = 39.67276 46.50725 43.09000
#
# Velocity S-wave (km/s) = 3.96305 4.29085 4.13020
# Velocity P-wave (km/s) = 6.83861 7.60094 7.22983
#
# Compressibility (1/GPa) = 0.01532910
#
# Stress axis : x y z
#
# Youngs Moduli (GPa) = 120.64612 116.66577 79.45460
#
# Poissons Ratio (x) = 0.13938 0.20382
# Poissons Ratio (y) = 0.14413 0.26209
# Poissons Ratio (z) = 0.30948 0.38483
#
# Static dielectric constant tensor:
#      x y z
#    x 1.971850 -0.001110 0.013540 
#    y -0.001110 2.038200 0.032010 
#    z 0.013540 0.032010 2.035410 
# 
# From -- ./inp_files/367853.got.cif
#   From: 2010.05.17/outbox.cif.g08.bks.cpg/sg2_184_cif.got.tgz:367853.got - 2010.06.03 11:33:40.
