data_PCOD9041098
_publ_section_title
;
Structure prediction by ZEFSAII (Michael W. Deem and Ramdas Pophale) SiO2 
 PCOD9041098
Probable space group: P -1
;
_chemical_formula_sum "Si O2"
_cell_formula_units_Z 13
_cell_length_a 4.790134
_cell_length_b 10.144947
_cell_length_c 13.978654
_cell_angle_alpha 133.256738
_cell_angle_beta 78.739282
_cell_angle_gamma 88.650354
_cell_volume 473.282144
_symmetry_space_group_name_H-M "P -1"
_symmetry_group_IT_number 2
_symmetry_cell_setting 'triclinic'
loop_
_space_group_symop_operation_xyz
x,y,z
-x,-y,-z
loop_
_atom_site_type_symbol
_atom_site_label
_atom_site_fract_x
_atom_site_fract_y
_atom_site_fract_z
Si Si1 0.500000 0.000000 0.000000
Si Si2 0.457567 0.956928 0.626136
Si Si3 0.098623 0.790270 0.230253
Si Si4 0.483791 0.738828 0.692693
Si Si5 0.072501 0.770103 0.996421
Si Si6 0.685558 0.554221 0.820263
Si Si7 0.848391 0.589444 0.432593
O O1 0.491543 0.849506 0.841952
O O2 0.202022 0.943387 0.044121
O O3 0.646277 0.099260 0.719888
O O4 0.189567 0.069954 0.640839
O O5 0.325838 0.876395 0.688777
O O6 0.662982 0.770196 0.478844
O O7 0.192214 0.597331 0.182911
O O8 0.038612 0.756909 0.106050
O O9 0.797590 0.666845 0.583178
O O10 0.321435 0.574650 0.638151
O O11 0.338273 0.595910 0.865639
O O12 0.787649 0.745361 0.942102
O O13 0.846156 0.476934 0.673485
#
# Coordination Sequence:
#
# PCOD9041098 Si02
#       7
#     1   2   2   2   2   2   2
#     4  12  22  44  76 100 136 180 236 290 348 408
#     4  10  23  43  70  99 137 182 232 286 342 414
#     4  12  24  45  69  99 143 185 234 288 338 412
#     4   9  20  46  68 107 138 182 227 298 348 420
#     4  12  26  43  68 105 137 184 235 288 349 412
#     4  12  26  44  69 100 143 188 230 281 352 420
#     4   9  21  45  69 104 142 184 225 290 358 412
#
# _framework density 27.467756999999999
#
# number of rings (size 3 to 8) (size 9 to 14) (size 15 to 20)
#    0.923    0.308    3.077    2.769    0.000    4.308 
#    0.000    2.308    0.000    0.000    0.000    0.000 
#    0.000    0.000    0.000    0.000    0.000    0.000 
#
# Total GULP energy -72735.902680 kJ/mol
# GULP energy per Si atom -5595.069437 kJ/mol
# Density = 2.740524 g / cm^3
# Si number density = 27.467757 Si / 1000 Ang^3
#
#
#
# Elastic Constant Matrix: (Units=GPa)
#
#
# Indices 1 2 3 4 5 6 
#
# 1 129.0968 9.4724 24.4100 -3.2556 -1.3990 12.3605
# 2 9.4724 112.6867 40.4220 -15.8216 18.7389 5.0360
# 3 24.4100 40.4220 153.0362 -11.2178 -8.4620 15.3895
# 4 -3.2556 -15.8216 -11.2178 38.5350 5.6404 6.1250
# 5 -1.3990 18.7389 -8.4620 5.6404 57.0637 10.2086
# 6 12.3605 5.0360 15.3895 6.1250 10.2086 32.6336
#
#
#
# Elastic Compliance Matrix: (Units=1/GPa)
#
#
# Indices 1 2 3 4 5 6 
#
# 1 0.008240 -0.000252 -0.000857 0.000730 0.000624 -0.003010
# 2 -0.000252 0.011319 -0.002920 0.004401 -0.004655 0.000356
# 3 -0.000857 -0.002920 0.008112 0.001349 0.002753 -0.004165
# 4 0.000730 0.004401 0.001349 0.029644 -0.003048 -0.006203
# 5 0.000624 -0.004655 0.002753 -0.003048 0.020996 -0.006812
# 6 -0.003010 0.000356 -0.004165 -0.006203 -0.006812 0.036988
#
#
# Mechanical properties :
#
#
# Convention : Reuss Voigt Hill
#
# Bulk Modulus (GPa) = 50.98632 60.38097 55.68364
# Shear Modulus (GPa) = 38.49273 47.01416 42.75344
#
# Velocity S-wave (km/s) = 3.74756 4.14165 3.94952
# Velocity P-wave (km/s) = 6.10968 6.70084 6.41207
#
# Compressibility (1/GPa) = 0.01961310
#
# Stress axis : x y z
#
# Youngs Moduli (GPa) = 121.35829 88.34836 123.26937
#
# Poissons Ratio (x) = 0.02226 0.10565
# Poissons Ratio (y) = 0.03057 0.35996
# Poissons Ratio (z) = 0.10401 0.25799
#
# Static dielectric constant tensor:
#      x y z
#    x 2.101330 -0.057120 -0.045820 
#    y -0.057120 2.178810 -0.070800 
#    z -0.045820 -0.070800 2.031670 
# 
# From -- ./inp_files/548726.got.cif
#   From: 2010.05.17/outbox.cif.g08.bks.cpg/sg2_275_cif.got.tgz:548726.got - 2010.06.03 11:33:40.
