data_PCOD9041891
_publ_section_title
;
Structure prediction by ZEFSAII (Michael W. Deem and Ramdas Pophale) SiO2 
 PCOD9041891
Probable space group: P -1
;
_chemical_formula_sum "Si O2"
_cell_formula_units_Z 12
_cell_length_a 12.827190
_cell_length_b 7.968587
_cell_length_c 10.731204
_cell_angle_alpha 98.974251
_cell_angle_beta 33.486740
_cell_angle_gamma 114.919788
_cell_volume 505.266579
_symmetry_space_group_name_H-M "P -1"
_symmetry_group_IT_number 2
_symmetry_cell_setting 'triclinic'
loop_
_space_group_symop_operation_xyz
x,y,z
-x,-y,-z
loop_
_atom_site_type_symbol
_atom_site_label
_atom_site_fract_x
_atom_site_fract_y
_atom_site_fract_z
Si Si1 0.817366 0.054533 0.722069
Si Si2 0.430642 0.577240 0.460435
Si Si3 0.051641 0.458792 0.667110
Si Si4 0.732668 0.073681 0.541258
Si Si5 0.166648 0.067777 0.038921
Si Si6 0.277630 0.774270 0.821582
O O1 0.934805 0.292484 0.657245
O O2 0.670528 0.999686 0.738089
O O3 0.736789 0.954370 0.926861
O O4 0.000000 0.000000 0.500000
O O5 0.500000 0.500000 0.500000
O O6 0.650893 0.726196 0.181990
O O7 0.314357 0.687065 0.650586
O O8 0.240778 0.426463 0.536437
O O9 0.172449 0.688901 0.532486
O O10 0.862312 0.395584 0.954566
O O11 0.522129 0.935701 0.648559
O O12 0.936882 0.052532 0.291074
O O13 0.149368 0.891464 0.949804
#
# Coordination Sequence:
#
# PCOD9041891 Si02
#       6
#     2   2   2   2   2   2
#     4   9  22  44  71 100 137 177 227 280 338 407
#     4  12  26  44  69 102 139 182 231 281 337 403
#     4  11  24  45  68 104 139 176 233 275 342 407
#     4  11  23  46  73 102 138 179 224 279 346 402
#     4  10  23  44  68 101 135 182 221 277 338 399
#     4  11  25  44  71 100 142 178 225 279 340 402
#
# _framework density 23.749836999999999
#
# number of rings (size 3 to 8) (size 9 to 14) (size 15 to 20)
#    0.000    1.333    1.667    2.500    7.000    3.333 
#    3.000    1.667    0.000    0.000    0.000    0.000 
#    0.000    0.000    0.000    0.000    0.000    0.000 
#
# Total GULP energy -67162.289304 kJ/mol
# GULP energy per Si atom -5596.857442 kJ/mol
# Density = 2.369578 g / cm^3
# Si number density = 23.749837 Si / 1000 Ang^3
#
#
#
# Elastic Constant Matrix: (Units=GPa)
#
#
# Indices 1 2 3 4 5 6 
#
# 1 82.1701 27.0253 10.1402 -2.4469 7.0708 -10.8513
# 2 27.0253 67.7054 26.5828 -1.2321 -5.5213 3.9328
# 3 10.1402 26.5828 111.7824 3.2739 11.8669 -10.1786
# 4 -2.4469 -1.2321 3.2739 43.5922 -5.8091 4.4006
# 5 7.0708 -5.5213 11.8669 -5.8091 38.2565 -1.9375
# 6 -10.8513 3.9328 -10.1786 4.4006 -1.9375 35.7142
#
#
#
# Elastic Compliance Matrix: (Units=1/GPa)
#
#
# Indices 1 2 3 4 5 6 
#
# 1 0.015545 -0.007413 0.001335 -0.000573 -0.004152 0.005765
# 2 -0.007413 0.020780 -0.005523 0.002005 0.006081 -0.006032
# 3 0.001335 -0.005523 0.011057 -0.001939 -0.004558 0.004157
# 4 -0.000573 0.002005 -0.001939 0.024076 0.004466 -0.003672
# 5 -0.004152 0.006081 -0.004558 0.004466 0.029767 -0.002166
# 6 0.005765 -0.006032 0.004157 -0.003672 -0.002166 0.031936
#
#
# Mechanical properties :
#
#
# Convention : Reuss Voigt Hill
#
# Bulk Modulus (GPa) = 41.35464 43.23940 42.29702
# Shear Modulus (GPa) = 30.40962 36.70656 33.55809
#
# Velocity S-wave (km/s) = 3.58217 3.93561 3.76304
# Velocity P-wave (km/s) = 5.87875 6.23681 6.06042
#
# Compressibility (1/GPa) = 0.02418108
#
# Stress axis : x y z
#
# Youngs Moduli (GPa) = 64.33020 48.12312 90.43795
#
# Poissons Ratio (x) = 0.35674 -0.12076
# Poissons Ratio (y) = 0.47688 0.49947
# Poissons Ratio (z) = -0.08590 0.26577
#
# Static dielectric constant tensor:
#      x y z
#    x 1.938430 -0.038050 0.012610 
#    y -0.038050 1.908110 0.010420 
#    z 0.012610 0.010420 1.890690 
# 
# From -- ./inp_files/264906.got.cif
#   From: 2010.05.17/outbox.cif.g08.bks.cpg/sg2_133_cif.got.tgz:264906.got - 2010.06.03 11:33:40.
