data_PCOD9041557
_publ_section_title
;
Structure prediction by ZEFSAII (Michael W. Deem and Ramdas Pophale) SiO2 
 PCOD9041557
Probable space group: P -1
;
_chemical_formula_sum "Si O2"
_cell_formula_units_Z 16
_cell_length_a 9.333462
_cell_length_b 12.282045
_cell_length_c 13.005014
_cell_angle_alpha 43.749392
_cell_angle_beta 104.587461
_cell_angle_gamma 128.353998
_cell_volume 753.551551
_symmetry_space_group_name_H-M "P -1"
_symmetry_group_IT_number 2
_symmetry_cell_setting 'triclinic'
loop_
_space_group_symop_operation_xyz
x,y,z
-x,-y,-z
loop_
_atom_site_type_symbol
_atom_site_label
_atom_site_fract_x
_atom_site_fract_y
_atom_site_fract_z
Si Si1 0.436751 0.517586 0.788380
Si Si2 0.416760 0.077666 0.361523
Si Si3 0.917554 0.110230 0.706415
Si Si4 0.715828 0.197041 0.946544
Si Si5 0.661836 0.376638 0.012396
Si Si6 0.185332 0.681543 0.339535
Si Si7 0.631589 0.491007 0.454561
Si Si8 0.072137 0.256000 0.037068
O O1 0.574057 0.754531 0.688323
O O2 0.518161 0.417077 0.923705
O O3 0.425429 0.504408 0.673850
O O4 0.220969 0.404305 0.870717
O O5 0.500000 0.000000 0.500000
O O6 0.197591 0.896143 0.406234
O O7 0.552036 0.200935 0.201245
O O8 0.812269 0.128456 0.769885
O O9 0.145604 0.304297 0.621962
O O10 0.898419 0.909880 0.832788
O O11 0.705285 0.304803 0.968684
O O12 0.822840 0.348291 0.763459
O O13 0.851823 0.147014 0.041428
O O14 0.500000 0.000000 0.000000
O O15 0.848430 0.590386 0.955239
O O16 0.363772 0.695748 0.401136
O O17 0.000000 0.500000 0.500000
O O18 0.500000 0.500000 0.500000
#
# Coordination Sequence:
#
# PCOD9041557 Si02
#       8
#     2   2   2   2   2   2   2   2
#     4  11  22  43  71  97 133 182 225 279 340 409
#     4  11  22  43  72 101 132 179 233 281 337 414
#     4  11  22  43  70 100 130 176 239 276 327 425
#     4  12  27  41  70 105 137 179 229 290 345 406
#     4  11  23  45  67 104 142 172 230 290 347 406
#     4  10  23  44  64  96 139 180 226 279 346 412
#     4  11  25  41  65  97 144 180 219 285 354 399
#     4  11  23  43  70  99 131 180 229 279 338 409
#
# _framework density 21.232789
#
# number of rings (size 3 to 8) (size 9 to 14) (size 15 to 20)
#    0.000    1.000    2.500    4.875    3.500    4.000 
#    0.000    1.875    0.000    0.000    0.000    0.000 
#    0.000    0.000    0.000    0.000    0.000    0.000 
#
# Total GULP energy -89388.663992 kJ/mol
# GULP energy per Si atom -5586.791499 kJ/mol
# Density = 2.118446 g / cm^3
# Si number density = 21.232789 Si / 1000 Ang^3
#
#
#
# Elastic Constant Matrix: (Units=GPa)
#
#
# Indices 1 2 3 4 5 6 
#
# 1 133.8700 58.5667 49.7496 24.0284 7.1177 -10.1845
# 2 58.5667 129.4250 50.1241 26.0067 -15.2174 -10.0511
# 3 49.7496 50.1241 111.3613 33.7775 9.3685 -14.1083
# 4 24.0284 26.0067 33.7775 34.8452 -3.3055 4.2935
# 5 7.1177 -15.2174 9.3685 -3.3055 34.1895 7.8513
# 6 -10.1845 -10.0511 -14.1083 4.2935 7.8513 39.7581
#
#
#
# Elastic Compliance Matrix: (Units=1/GPa)
#
#
# Indices 1 2 3 4 5 6 
#
# 1 0.010835 -0.004010 -0.000931 -0.004392 -0.004869 0.002867
# 2 -0.004010 0.012208 -0.003796 -0.001917 0.007240 -0.000511
# 3 -0.000931 -0.003796 0.017880 -0.015890 -0.009959 0.008830
# 4 -0.004392 -0.001917 -0.015890 0.051685 0.012946 -0.015386
# 5 -0.004869 0.007240 -0.009959 0.012946 0.040291 -0.012305
# 6 0.002867 -0.000511 0.008830 -0.015386 -0.012305 0.032982
#
#
# Mechanical properties :
#
#
# Convention : Reuss Voigt Hill
#
# Bulk Modulus (GPa) = 42.64273 76.83744 59.74009
# Shear Modulus (GPa) = 26.15439 36.17296 31.16367
#
# Velocity S-wave (km/s) = 3.51350 4.13199 3.83523
# Velocity P-wave (km/s) = 6.04868 7.68317 6.91440
#
# Compressibility (1/GPa) = 0.02345066
#
# Stress axis : x y z
#
# Youngs Moduli (GPa) = 92.28966 81.91392 55.92736
#
# Poissons Ratio (x) = 0.32847 0.05205
# Poissons Ratio (y) = 0.37008 0.21229
# Poissons Ratio (z) = 0.08590 0.31093
#
# Static dielectric constant tensor:
#      x y z
#    x 1.767490 -0.013330 0.016310 
#    y -0.013330 1.812310 -0.055480 
#    z 0.016310 -0.055480 1.807880 
# 
# From -- ./inp_files/189150.got.cif
#   From: 2010.05.17/outbox.cif.g08.bks.cpg/sg2_95_cif.got.tgz:189150.got - 2010.06.03 11:33:40.
