data_PCOD9041673
_publ_section_title
;
Structure prediction by ZEFSAII (Michael W. Deem and Ramdas Pophale) SiO2 
 PCOD9041673
Probable space group: P -1
;
_chemical_formula_sum "Si O2"
_cell_formula_units_Z 14
_cell_length_a 10.365229
_cell_length_b 5.043922
_cell_length_c 11.775982
_cell_angle_alpha 101.418992
_cell_angle_beta 70.428309
_cell_angle_gamma 117.724850
_cell_volume 512.838481
_symmetry_space_group_name_H-M "P -1"
_symmetry_group_IT_number 2
_symmetry_cell_setting 'triclinic'
loop_
_space_group_symop_operation_xyz
x,y,z
-x,-y,-z
loop_
_atom_site_type_symbol
_atom_site_label
_atom_site_fract_x
_atom_site_fract_y
_atom_site_fract_z
Si Si1 0.252842 0.883130 0.922227
Si Si2 0.963480 0.712925 0.134220
Si Si3 0.359675 0.237472 0.125059
Si Si4 0.280187 0.719068 0.436994
Si Si5 0.840857 0.405583 0.770484
Si Si6 0.522877 0.638662 0.666720
Si Si7 0.239595 0.050734 0.687610
O O1 0.185124 0.520189 0.908735
O O2 0.286380 0.980500 0.791588
O O3 0.100837 0.890442 0.023131
O O4 0.382265 0.106841 0.987043
O O5 0.914986 0.915163 0.245642
O O6 0.014259 0.508474 0.184229
O O7 0.275458 0.451948 0.154028
O O8 0.489824 0.353694 0.191265
O O9 0.241819 0.942492 0.199443
O O10 0.150897 0.596732 0.367874
O O11 0.349579 0.480397 0.403762
O O12 0.415974 0.030988 0.376123
O O13 0.231635 0.813070 0.576148
O O14 0.367821 0.380796 0.644326
#
# Coordination Sequence:
#
# PCOD9041673 Si02
#       7
#     2   2   2   2   2   2   2
#     4  10  24  40  62  90 127 168 205 259 307 369
#     4  10  24  40  62  92 127 166 207 257 311 367
#     4   9  20  40  65  87 121 167 206 251 310 363
#     4  10  23  44  66  92 126 164 206 259 310 367
#     4   9  20  40  65  87 121 167 206 251 310 363
#     4  10  23  44  66  92 126 164 206 259 310 367
#     4  12  25  37  66  95 126 163 209 254 314 374
#
# _framework density 27.299040000000002
#
# number of rings (size 3 to 8) (size 9 to 14) (size 15 to 20)
#    0.000    2.000    0.000    1.286   14.000    1.143 
#    0.000    1.429    0.000    0.000    0.000    0.000 
#    0.000    0.000    0.000    0.000    0.000    0.000 
#
# Total GULP energy -78396.824903 kJ/mol
# GULP energy per Si atom -5599.773207 kJ/mol
# Density = 2.723691 g / cm^3
# Si number density = 27.299040 Si / 1000 Ang^3
#
#
#
# Elastic Constant Matrix: (Units=GPa)
#
#
# Indices 1 2 3 4 5 6 
#
# 1 90.1911 25.5724 59.4835 9.8663 -4.9816 -8.0897
# 2 25.5724 93.1461 20.4413 11.8256 1.0794 -3.8933
# 3 59.4835 20.4413 210.5381 33.3785 22.4982 1.8182
# 4 9.8663 11.8256 33.3785 48.3639 -0.0981 6.7027
# 5 -4.9816 1.0794 22.4982 -0.0981 41.7248 6.2288
# 6 -8.0897 -3.8933 1.8182 6.7027 6.2288 38.0180
#
#
#
# Elastic Compliance Matrix: (Units=1/GPa)
#
#
# Indices 1 2 3 4 5 6 
#
# 1 0.015401 -0.003232 -0.004563 0.000470 0.004022 0.002423
# 2 -0.003232 0.011956 0.000264 -0.002608 -0.001016 0.001150
# 3 -0.004563 0.000264 0.007134 -0.004089 -0.004432 0.000162
# 4 0.000470 -0.002608 -0.004089 0.024717 0.003108 -0.004839
# 5 0.004022 -0.001016 -0.004432 0.003108 0.027480 -0.004087
# 6 0.002423 0.001150 0.000162 -0.004839 -0.004087 0.028451
#
#
# Mechanical properties :
#
#
# Convention : Reuss Voigt Hill
#
# Bulk Modulus (GPa) = 51.46623 67.20774 59.33698
# Shear Modulus (GPa) = 36.58267 44.84655 40.71461
#
# Velocity S-wave (km/s) = 3.66467 4.05753 3.86609
# Velocity P-wave (km/s) = 6.06631 6.82817 6.45848
#
# Compressibility (1/GPa) = 0.01943022
#
# Stress axis : x y z
#
# Youngs Moduli (GPa) = 64.92976 83.63962 140.18255
#
# Poissons Ratio (x) = 0.27032 0.63962
# Poissons Ratio (y) = 0.20985 -0.03706
# Poissons Ratio (z) = 0.29626 -0.02211
#
# Static dielectric constant tensor:
#      x y z
#    x 2.197800 0.080380 0.060760 
#    y 0.080380 2.167790 0.022760 
#    z 0.060760 0.022760 2.141870 
# 
# From -- ./inp_files/72050.got.cif
#   From: 2010.05.17/outbox.cif.g08.bks.cpg/sg2_37_cif.got.tgz:72050.got - 2010.06.03 11:33:40.
