data_PCOD9041747
_publ_section_title
;
Structure prediction by ZEFSAII (Michael W. Deem and Ramdas Pophale) SiO2 
 PCOD9041747
Probable space group: P -1
;
_chemical_formula_sum "Si O2"
_cell_formula_units_Z 12
_cell_length_a 7.531394
_cell_length_b 12.972531
_cell_length_c 6.991122
_cell_angle_alpha 84.794175
_cell_angle_beta 54.373194
_cell_angle_gamma 97.670418
_cell_volume 538.058310
_symmetry_space_group_name_H-M "P -1"
_symmetry_group_IT_number 2
_symmetry_cell_setting 'triclinic'
loop_
_space_group_symop_operation_xyz
x,y,z
-x,-y,-z
loop_
_atom_site_type_symbol
_atom_site_label
_atom_site_fract_x
_atom_site_fract_y
_atom_site_fract_z
Si Si1 0.618649 0.257749 0.637803
Si Si2 0.831035 0.702505 0.003713
Si Si3 0.445552 0.989647 0.261616
Si Si4 0.076345 0.398503 0.388328
Si Si5 0.407847 0.383851 0.487846
Si Si6 0.130128 0.937320 0.784099
O O1 0.552350 0.132707 0.677324
O O2 0.862110 0.299895 0.566972
O O3 0.586717 0.315400 0.445859
O O4 0.425101 0.290382 0.879840
O O5 0.986417 0.818918 0.853827
O O6 0.887905 0.609317 0.858890
O O7 0.813179 0.672665 0.241921
O O8 0.782594 0.003310 0.481970
O O9 0.647191 0.065713 0.234784
O O10 0.500000 0.000000 0.000000
O O11 0.000000 0.500000 0.500000
O O12 0.308490 0.389818 0.341655
O O13 0.500000 0.500000 0.500000
O O14 0.000000 0.000000 0.000000
#
# Coordination Sequence:
#
# PCOD9041747 Si02
#       6
#     2   2   2   2   2   2
#     4  10  23  46  62 102 139 171 236 283 338 418
#     4  10  24  43  66 101 138 177 235 279 347 420
#     4  11  25  43  70 102 135 188 236 284 355 413
#     4  12  23  44  71  95 137 182 229 285 349 414
#     4  10  23  44  67 100 136 178 227 282 350 401
#     4  11  22  45  69  99 141 178 230 298 343 415
#
# _framework density 22.302415
#
# number of rings (size 3 to 8) (size 9 to 14) (size 15 to 20)
#    1.000    0.333    5.000    0.000    2.333    4.000 
#   12.000    0.000    0.000    0.000    0.000    0.000 
#    0.000    0.000    0.000    0.000    0.000    0.000 
#
# Total GULP energy -66820.952387 kJ/mol
# GULP energy per Si atom -5568.412699 kJ/mol
# Density = 2.225165 g / cm^3
# Si number density = 22.302415 Si / 1000 Ang^3
#
#
#
# Elastic Constant Matrix: (Units=GPa)
#
#
# Indices 1 2 3 4 5 6 
#
# 1 76.7371 13.2570 0.8138 -4.1582 10.9610 15.9599
# 2 13.2570 74.5379 6.2467 14.5470 2.9040 -6.8140
# 3 0.8138 6.2467 109.3894 22.7435 -3.0518 -0.0965
# 4 -4.1582 14.5470 22.7435 41.7621 0.0443 -7.1305
# 5 10.9610 2.9040 -3.0518 0.0443 31.6278 0.4548
# 6 15.9599 -6.8140 -0.0965 -7.1305 0.4548 31.6827
#
#
#
# Elastic Compliance Matrix: (Units=1/GPa)
#
#
# Indices 1 2 3 4 5 6 
#
# 1 0.016310 -0.003780 -0.000414 0.001708 -0.005225 -0.008571
# 2 -0.003780 0.015459 0.000224 -0.005189 -0.000139 0.004063
# 3 -0.000414 0.000224 0.010404 -0.005970 0.001151 -0.001072
# 4 0.001708 -0.005189 -0.005970 0.029988 -0.000802 0.004766
# 5 -0.005225 -0.000139 0.001151 -0.000802 0.033525 0.001944
# 6 -0.008571 0.004063 -0.001072 0.004766 0.001944 0.037796
#
#
# Mechanical properties :
#
#
# Convention : Reuss Voigt Hill
#
# Bulk Modulus (GPa) = 29.21037 33.47774 31.34405
# Shear Modulus (GPa) = 30.70617 37.03764 33.87191
#
# Velocity S-wave (km/s) = 3.71456 4.07959 3.90135
# Velocity P-wave (km/s) = 5.61455 6.10198 5.86333
#
# Compressibility (1/GPa) = 0.03423442
#
# Stress axis : x y z
#
# Youngs Moduli (GPa) = 61.31121 64.68704 96.11460
#
# Poissons Ratio (x) = 0.24448 0.03979
# Poissons Ratio (y) = 0.23173 -0.02152
# Poissons Ratio (z) = 0.02538 -0.01448
#
# Static dielectric constant tensor:
#      x y z
#    x 1.893620 -0.033240 -0.024700 
#    y -0.033240 1.781210 0.007560 
#    z -0.024700 0.007560 1.948970 
# 
# From -- ./inp_files/32363.got.cif
#   From: 2010.05.17/outbox.cif.g08.bks.cpg/sg2_17_cif.got.tgz:32363.got - 2010.06.03 11:33:40.
