data_PCOD9041324
_publ_section_title
;
Structure prediction by ZEFSAII (Michael W. Deem and Ramdas Pophale) SiO2 
 PCOD9041324
Probable space group: P -1
;
_chemical_formula_sum "Si O2"
_cell_formula_units_Z 16
_cell_length_a 7.752231
_cell_length_b 6.005489
_cell_length_c 17.618980
_cell_angle_alpha 85.423702
_cell_angle_beta 79.394863
_cell_angle_gamma 54.429962
_cell_volume 655.431985
_symmetry_space_group_name_H-M "P -1"
_symmetry_group_IT_number 2
_symmetry_cell_setting 'triclinic'
loop_
_space_group_symop_operation_xyz
x,y,z
-x,-y,-z
loop_
_atom_site_type_symbol
_atom_site_label
_atom_site_fract_x
_atom_site_fract_y
_atom_site_fract_z
Si Si1 0.242516 0.188780 0.031891
Si Si2 0.258559 0.688026 0.979443
Si Si3 0.903789 0.284900 0.461539
Si Si4 0.482182 0.004558 0.273380
Si Si5 0.904305 0.553915 0.801727
Si Si6 0.726937 0.434692 0.303845
Si Si7 0.182979 0.965441 0.822811
Si Si8 0.642315 0.791222 0.561712
O O1 0.170594 0.252340 0.123910
O O2 0.179037 0.488133 0.000240
O O3 0.500000 0.000000 0.000000
O O4 0.172950 0.992762 0.011798
O O5 0.247128 0.751342 0.889519
O O6 0.500000 0.500000 0.000000
O O7 0.787352 0.350281 0.388136
O O8 0.721957 0.501177 0.528931
O O9 0.122780 0.272077 0.437302
O O10 0.000000 0.000000 0.500000
O O11 0.500564 0.724040 0.294403
O O12 0.271095 0.277876 0.252163
O O13 0.642729 0.964888 0.194511
O O14 0.501181 0.087440 0.354898
O O15 0.110905 0.497469 0.743472
O O16 0.956457 0.263143 0.833202
O O17 0.782417 0.184283 0.254687
O O18 0.500000 0.000000 0.500000
#
# Coordination Sequence:
#
# PCOD9041324 Si02
#       8
#     2   2   2   2   2   2   2   2
#     4  10  23  43  73 102 142 190 251 297 375 439
#     4  10  23  44  71 103 144 192 244 307 367 442
#     4  11  26  43  70 102 144 182 237 296 354 433
#     4  11  24  46  70  98 141 189 236 293 366 433
#     4  11  26  46  71 100 141 189 234 300 371 433
#     4  11  26  45  66 106 140 183 238 297 362 437
#     4  11  28  43  72 104 142 182 244 299 363 443
#     4  11  24  45  69  98 140 185 233 288 354 428
#
# _framework density 24.411380999999999
#
# number of rings (size 3 to 8) (size 9 to 14) (size 15 to 20)
#    0.000    1.250    2.500    1.500   12.250    3.500 
#    0.000    0.000    0.000    0.000    0.000    0.000 
#    0.000    0.000    0.000    0.000    0.000    0.000 
#
# Total GULP energy -89221.501964 kJ/mol
# GULP energy per Si atom -5576.343873 kJ/mol
# Density = 2.435582 g / cm^3
# Si number density = 24.411381 Si / 1000 Ang^3
#
#
#
# Elastic Constant Matrix: (Units=GPa)
#
#
# Indices 1 2 3 4 5 6 
#
# 1 58.9885 18.0025 14.2715 -21.5540 8.6191 13.5460
# 2 18.0025 195.9587 41.8924 -10.8185 12.8153 8.6064
# 3 14.2715 41.8924 124.3117 -6.2591 11.4268 21.0985
# 4 -21.5540 -10.8185 -6.2591 44.3176 4.0331 5.1128
# 5 8.6191 12.8153 11.4268 4.0331 30.7945 3.0809
# 6 13.5460 8.6064 21.0985 5.1128 3.0809 33.6315
#
#
#
# Elastic Compliance Matrix: (Units=1/GPa)
#
#
# Indices 1 2 3 4 5 6 
#
# 1 0.026543 -0.000699 0.000830 0.015049 -0.008159 -0.012573
# 2 -0.000699 0.005682 -0.001602 0.000993 -0.001688 -0.000164
# 3 0.000830 -0.001602 0.009943 0.002407 -0.002944 -0.006258
# 4 0.015049 0.000993 0.002407 0.032632 -0.008592 -0.011999
# 5 -0.008159 -0.001688 -0.002944 -0.008592 0.037332 0.003452
# 6 -0.012573 -0.000164 -0.006258 -0.011999 0.003452 0.040274
#
#
# Mechanical properties :
#
#
# Convention : Reuss Voigt Hill
#
# Bulk Modulus (GPa) = 25.49288 58.62129 42.05709
# Shear Modulus (GPa) = 29.68699 42.08821 35.88760
#
# Velocity S-wave (km/s) = 3.49106 4.15676 3.83837
# Velocity P-wave (km/s) = 5.16873 6.86325 6.07536
#
# Compressibility (1/GPa) = 0.03922663
#
# Stress axis : x y z
#
# Youngs Moduli (GPa) = 37.67428 175.98814 100.57631
#
# Poissons Ratio (x) = 0.12307 -0.08349
# Poissons Ratio (y) = 0.02635 0.16108
# Poissons Ratio (z) = -0.03127 0.28185
#
# Static dielectric constant tensor:
#      x y z
#    x 2.296090 -0.067920 -0.126370 
#    y -0.067920 2.147310 -0.005720 
#    z -0.126370 -0.005720 1.979070 
# 
# From -- ./inp_files/553428.got.cif
#   From: 2010.05.17/outbox.cif.g08.bks.cpg/sg2_277_cif.got.tgz:553428.got - 2010.06.03 11:33:40.
