data_PCOD9041780
_publ_section_title
;
Structure prediction by ZEFSAII (Michael W. Deem and Ramdas Pophale) SiO2 
 PCOD9041780
Probable space group: P -1
;
_chemical_formula_sum "Si O2"
_cell_formula_units_Z 15
_cell_length_a 16.136987
_cell_length_b 19.212091
_cell_length_c 15.619518
_cell_angle_alpha 20.232656
_cell_angle_beta 155.513748
_cell_angle_gamma 154.515438
_cell_volume 652.656083
_symmetry_space_group_name_H-M "P -1"
_symmetry_group_IT_number 2
_symmetry_cell_setting 'triclinic'
loop_
_space_group_symop_operation_xyz
x,y,z
-x,-y,-z
loop_
_atom_site_type_symbol
_atom_site_label
_atom_site_fract_x
_atom_site_fract_y
_atom_site_fract_z
Si Si1 0.853581 0.686214 0.905469
Si Si2 0.800533 0.969639 0.064463
Si Si3 0.170533 0.480975 0.373736
Si Si4 0.576353 0.376928 0.136626
Si Si5 0.000000 0.500000 0.000000
Si Si6 0.550631 0.195788 0.939950
Si Si7 0.794592 0.058515 0.765835
Si Si8 0.362787 0.198498 0.588668
O O1 0.799210 0.747398 0.688788
O O2 0.655989 0.544329 0.940052
O O3 0.989890 0.899872 0.836496
O O4 0.012367 0.555473 0.195311
O O5 0.811568 0.737484 0.324615
O O6 0.587591 0.925811 0.970471
O O7 0.791589 0.082250 0.837781
O O8 0.403108 0.658824 0.386466
O O9 0.086507 0.459668 0.222154
O O10 0.760617 0.274608 0.450171
O O11 0.391674 0.159067 0.186705
O O12 0.500000 0.500000 0.000000
O O13 0.253309 0.597475 0.091165
O O14 0.380693 0.222492 0.680368
O O15 0.667364 0.048820 0.172851
O O16 0.000000 0.000000 0.000000
#
# Coordination Sequence:
#
# PCOD9041780 Si02
#       8
#     2   2   2   2   1   2   2   2
#     4  12  26  44  72 103 140 186 234 292 352 418
#     4  12  26  43  74 102 142 186 236 287 354 418
#     4  11  25  43  65 105 136 186 235 286 344 417
#     4  11  27  47  76 106 139 187 239 294 368 423
#     4  10  24  40  68  98 142 186 236 288 346 410
#     4  10  23  44  67 104 140 190 235 286 347 417
#     4  11  26  50  73 105 147 184 234 303 355 432
#     4  10  23  45  67  96 147 182 236 286 343 416
#
# _framework density 22.983008999999999
#
# number of rings (size 3 to 8) (size 9 to 14) (size 15 to 20)
#    0.000    1.067    1.333    3.200    7.467    5.867 
#    0.000    0.000    0.000    0.000    0.000    0.000 
#    0.000    0.000    0.000    0.000    0.000    0.000 
#
# Total GULP energy -83630.108936 kJ/mol
# GULP energy per Si atom -5575.340596 kJ/mol
# Density = 2.293070 g / cm^3
# Si number density = 22.983009 Si / 1000 Ang^3
#
#
#
# Elastic Constant Matrix: (Units=GPa)
#
#
# Indices 1 2 3 4 5 6 
#
# 1 71.7874 19.3023 7.6533 9.9485 -6.5583 6.5029
# 2 19.3023 37.6045 9.2103 0.0566 -7.8575 -5.3620
# 3 7.6533 9.2103 75.6089 -4.2165 -5.7405 -7.1659
# 4 9.9485 0.0566 -4.2165 29.9050 -4.7027 -1.6683
# 5 -6.5583 -7.8575 -5.7405 -4.7027 39.7295 1.0918
# 6 6.5029 -5.3620 -7.1659 -1.6683 1.0918 34.6963
#
#
#
# Elastic Compliance Matrix: (Units=1/GPa)
#
#
# Indices 1 2 3 4 5 6 
#
# 1 0.018108 -0.009648 -0.001524 -0.006490 0.000244 -0.005520
# 2 -0.009648 0.034042 -0.001917 0.004060 0.005160 0.006706
# 3 -0.001524 -0.001917 0.014191 0.002945 0.001686 0.003009
# 4 -0.006490 0.004060 0.002945 0.036928 0.004416 0.004089
# 5 0.000244 0.005160 0.001686 0.004416 0.026984 0.000463
# 6 -0.005520 0.006706 0.003009 0.004089 0.000463 0.031696
#
#
# Mechanical properties :
#
#
# Convention : Reuss Voigt Hill
#
# Bulk Modulus (GPa) = 24.89755 28.59251 26.74503
# Shear Modulus (GPa) = 24.81191 30.78848 27.80019
#
# Velocity S-wave (km/s) = 3.28926 3.66405 3.48170
# Velocity P-wave (km/s) = 5.02813 5.51072 5.27495
#
# Compressibility (1/GPa) = 0.04016459
#
# Stress axis : x y z
#
# Youngs Moduli (GPa) = 55.22295 29.37510 70.46684
#
# Poissons Ratio (x) = 0.28341 0.10741
# Poissons Ratio (y) = 0.53278 0.13505
# Poissons Ratio (z) = 0.08417 0.05630
#
# Static dielectric constant tensor:
#      x y z
#    x 1.815070 -0.016340 0.010870 
#    y -0.016340 1.824350 -0.015500 
#    z 0.010870 -0.015500 1.889700 
# 
# From -- ./inp_files/576357.got.cif
#   From: 2010.05.17/outbox.cif.g08.bks.cpg/sg2_289_cif.got.tgz:576357.got - 2010.06.03 11:33:40.
