data_PCOD9041266
_publ_section_title
;
Structure prediction by ZEFSAII (Michael W. Deem and Ramdas Pophale) SiO2 
 PCOD9041266
Probable space group: P -1
;
_chemical_formula_sum "Si O2"
_cell_formula_units_Z 12
_cell_length_a 7.113497
_cell_length_b 17.559663
_cell_length_c 10.261885
_cell_angle_alpha 34.281652
_cell_angle_beta 74.877682
_cell_angle_gamma 53.225303
_cell_volume 494.618778
_symmetry_space_group_name_H-M "P -1"
_symmetry_group_IT_number 2
_symmetry_cell_setting 'triclinic'
loop_
_space_group_symop_operation_xyz
x,y,z
-x,-y,-z
loop_
_atom_site_type_symbol
_atom_site_label
_atom_site_fract_x
_atom_site_fract_y
_atom_site_fract_z
Si Si1 0.636096 0.955345 0.681997
Si Si2 0.299163 0.366723 0.190747
Si Si3 0.753393 0.246816 0.076429
Si Si4 0.975678 0.971353 0.895087
Si Si5 0.270500 0.190055 0.858847
Si Si6 0.400286 0.391333 0.405736
O O1 0.528361 0.307429 0.134150
O O2 0.500000 0.000000 0.500000
O O3 0.417084 0.163027 0.495782
O O4 0.942862 0.873637 0.744135
O O5 0.672710 0.826440 0.972900
O O6 0.265184 0.473166 0.173496
O O7 0.000000 0.500000 0.000000
O O8 0.618296 0.451238 0.756304
O O9 0.805368 0.113456 0.139329
O O10 0.701892 0.188501 0.604034
O O11 0.953077 0.819000 0.104679
O O12 0.000000 0.000000 0.000000
O O13 0.254160 0.346553 0.579506
O O14 0.500000 0.000000 0.000000
#
# Coordination Sequence:
#
# PCOD9041266 Si02
#       6
#     2   2   2   2   2   2
#     4  11  23  43  74 108 144 194 248 306 377 443
#     4  12  25  45  70 107 152 199 248 307 374 447
#     4  11  25  47  72 108 151 194 250 314 368 447
#     4  10  23  43  72 105 146 194 239 307 379 435
#     4   9  19  43  68 101 144 185 237 299 368 435
#     4  11  23  45  71 104 148 193 248 306 369 454
#
# _framework density 24.261106999999999
#
# number of rings (size 3 to 8) (size 9 to 14) (size 15 to 20)
#    0.000    1.333    5.000    2.000    0.000    7.333 
#    0.000    1.667    0.000    0.000    0.000    0.000 
#    0.000    0.000    0.000    0.000    0.000    0.000 
#
# Total GULP energy -66902.919427 kJ/mol
# GULP energy per Si atom -5575.243286 kJ/mol
# Density = 2.420589 g / cm^3
# Si number density = 24.261107 Si / 1000 Ang^3
#
#
#
# Elastic Constant Matrix: (Units=GPa)
#
#
# Indices 1 2 3 4 5 6 
#
# 1 90.6114 42.2868 51.7283 19.1982 9.3519 -24.3976
# 2 42.2868 161.7128 49.1540 30.9406 7.2703 -14.3246
# 3 51.7283 49.1540 106.0200 -1.3352 -1.7010 -6.7684
# 4 19.1982 30.9406 -1.3352 52.3630 5.7013 3.3107
# 5 9.3519 7.2703 -1.7010 5.7013 36.8346 5.3507
# 6 -24.3976 -14.3246 -6.7684 3.3107 5.3507 45.1301
#
#
#
# Elastic Compliance Matrix: (Units=1/GPa)
#
#
# Indices 1 2 3 4 5 6 
#
# 1 0.022970 0.000407 -0.010828 -0.008979 -0.006822 0.012391
# 2 0.000407 0.008704 -0.004139 -0.005410 -0.001603 0.002949
# 3 -0.010828 -0.004139 0.016422 0.006747 0.004106 -0.005686
# 4 -0.008979 -0.005410 0.006747 0.026159 0.000708 -0.007562
# 5 -0.006822 -0.001603 0.004106 0.000708 0.030327 -0.007229
# 6 0.012391 0.002949 -0.005686 -0.007562 -0.007229 0.030352
#
#
# Mechanical properties :
#
#
# Convention : Reuss Voigt Hill
#
# Bulk Modulus (GPa) = 52.69862 71.63139 62.16501
# Shear Modulus (GPa) = 29.34617 41.21054 35.27835
#
# Velocity S-wave (km/s) = 3.48170 4.12591 3.81742
# Velocity P-wave (km/s) = 6.15886 7.23096 6.71634
#
# Compressibility (1/GPa) = 0.01897583
#
# Stress axis : x y z
#
# Youngs Moduli (GPa) = 43.53439 114.88995 60.89357
#
# Poissons Ratio (x) = -0.04673 0.65933
# Poissons Ratio (y) = -0.01771 0.25207
# Poissons Ratio (z) = 0.47137 0.47559
#
# Static dielectric constant tensor:
#      x y z
#    x 2.229040 0.148550 0.056690 
#    y 0.148550 2.316810 0.336180 
#    z 0.056690 0.336180 2.206970 
# 
# From -- ./inp_files/236680.got.cif
#   From: 2010.05.17/outbox.cif.g08.bks.cpg/sg2_119_cif.got.tgz:236680.got - 2010.06.03 11:33:40.
