data_PCOD9041197
_publ_section_title
;
Structure prediction by ZEFSAII (Michael W. Deem and Ramdas Pophale) SiO2 
 PCOD9041197
Probable space group: P -1
;
_chemical_formula_sum "Si O2"
_cell_formula_units_Z 16
_cell_length_a 11.906959
_cell_length_b 9.392705
_cell_length_c 15.167882
_cell_angle_alpha 130.764076
_cell_angle_beta 51.214971
_cell_angle_gamma 144.269351
_cell_volume 732.285999
_symmetry_space_group_name_H-M "P -1"
_symmetry_group_IT_number 2
_symmetry_cell_setting 'triclinic'
loop_
_space_group_symop_operation_xyz
x,y,z
-x,-y,-z
loop_
_atom_site_type_symbol
_atom_site_label
_atom_site_fract_x
_atom_site_fract_y
_atom_site_fract_z
Si Si1 0.596634 0.981513 0.666997
Si Si2 0.763811 0.483691 0.434670
Si Si3 0.209652 0.270088 0.295457
Si Si4 0.943701 0.574157 0.973249
Si Si5 0.092238 0.829364 0.276821
Si Si6 0.407205 0.463458 0.889804
Si Si7 0.661745 0.914558 0.091984
Si Si8 0.953719 0.536843 0.634322
O O1 0.722227 0.970662 0.669199
O O2 0.445318 0.985478 0.791704
O O3 0.759282 0.256393 0.650625
O O4 0.462681 0.741943 0.570343
O O5 0.796073 0.627581 0.566524
O O6 0.893390 0.681115 0.370562
O O7 0.865073 0.369244 0.356945
O O8 0.433801 0.450445 0.226914
O O9 0.095880 0.289934 0.285452
O O10 0.110986 0.982744 0.246859
O O11 0.891162 0.371205 0.843112
O O12 0.763546 0.554306 0.068996
O O13 0.128033 0.854332 0.959553
O O14 0.000000 0.500000 0.000000
O O15 0.328108 0.210365 0.878013
O O16 0.528613 0.690009 0.994626
O O17 0.000000 0.500000 0.500000
#
# Coordination Sequence:
#
# PCOD9041197 Si02
#       8
#     2   2   2   2   2   2   2   2
#     4  11  21  43  68  95 125 180 214 266 330 383
#     4  10  23  43  71  94 132 174 221 266 323 392
#     4  11  23  42  66 101 133 173 214 270 332 381
#     4  12  26  44  67 100 130 174 219 268 331 387
#     4  11  24  42  67  93 138 172 218 267 323 392
#     4  11  25  45  68  97 134 167 218 279 319 389
#     4  11  23  44  71  94 128 172 223 263 330 384
#     4   9  21  42  64  96 130 168 217 271 321 376
#
# _framework density 21.849387
#
# number of rings (size 3 to 8) (size 9 to 14) (size 15 to 20)
#    0.000    1.250    3.750    1.500    1.750    3.500 
#    4.500    6.250    0.000    0.000    0.000    0.000 
#    0.000    0.000    0.000    0.000    0.000    0.000 
#
# Total GULP energy -89504.836148 kJ/mol
# GULP energy per Si atom -5594.052259 kJ/mol
# Density = 2.179966 g / cm^3
# Si number density = 21.849387 Si / 1000 Ang^3
#
#
#
# Elastic Constant Matrix: (Units=GPa)
#
#
# Indices 1 2 3 4 5 6 
#
# 1 106.1753 54.5211 4.7433 -14.0801 -14.3376 -9.8687
# 2 54.5211 86.4960 10.7484 -15.3771 -2.3995 -19.9615
# 3 4.7433 10.7484 52.5351 -19.8493 -13.6792 -6.1744
# 4 -14.0801 -15.3771 -19.8493 40.9921 4.1433 7.3177
# 5 -14.3376 -2.3995 -13.6792 4.1433 25.6007 6.0889
# 6 -9.8687 -19.9615 -6.1744 7.3177 6.0889 36.8582
#
#
#
# Elastic Compliance Matrix: (Units=1/GPa)
#
#
# Indices 1 2 3 4 5 6 
#
# 1 0.016254 -0.010633 0.004305 0.003153 0.010626 -0.003067
# 2 -0.010633 0.020835 -0.003866 0.001560 -0.008430 0.008872
# 3 0.004305 -0.003866 0.027878 0.012202 0.015259 -0.001214
# 4 0.003153 0.001560 0.012202 0.032157 0.004016 -0.003315
# 5 0.010626 -0.008430 0.015259 0.004016 0.053832 -0.008855
# 6 -0.003067 0.008872 -0.001214 -0.003315 -0.008855 0.033032
#
#
# Mechanical properties :
#
#
# Convention : Reuss Voigt Hill
#
# Bulk Modulus (GPa) = 22.43140 42.80357 32.61748
# Shear Modulus (GPa) = 22.80665 32.36977 27.58821
#
# Velocity S-wave (km/s) = 3.23431 3.85320 3.55724
# Velocity P-wave (km/s) = 4.92304 6.27925 5.64204
#
# Compressibility (1/GPa) = 0.04458037
#
# Stress axis : x y z
#
# Youngs Moduli (GPa) = 61.52344 47.99674 35.87075
#
# Poissons Ratio (x) = 0.51034 -0.15444
# Poissons Ratio (y) = 0.65417 0.13866
# Poissons Ratio (z) = -0.26488 0.18554
#
# Static dielectric constant tensor:
#      x y z
#    x 1.807170 -0.017020 0.005390 
#    y -0.017020 1.821380 -0.009310 
#    z 0.005390 -0.009310 1.835880 
# 
# From -- ./inp_files/566940.got.cif
#   From: 2010.05.17/outbox.cif.g08.bks.cpg/sg2_284_cif.got.tgz:566940.got - 2010.06.03 11:33:40.
