data_PCOD9041610
_publ_section_title
;
Structure prediction by ZEFSAII (Michael W. Deem and Ramdas Pophale) SiO2 
 PCOD9041610
Probable space group: P -1
;
_chemical_formula_sum "Si O2"
_cell_formula_units_Z 14
_cell_length_a 9.579907
_cell_length_b 13.033595
_cell_length_c 9.067127
_cell_angle_alpha 56.223953
_cell_angle_beta 129.629351
_cell_angle_gamma 115.903284
_cell_volume 718.770976
_symmetry_space_group_name_H-M "P -1"
_symmetry_group_IT_number 2
_symmetry_cell_setting 'triclinic'
loop_
_space_group_symop_operation_xyz
x,y,z
-x,-y,-z
loop_
_atom_site_type_symbol
_atom_site_label
_atom_site_fract_x
_atom_site_fract_y
_atom_site_fract_z
Si Si1 0.412044 0.277949 0.393069
Si Si2 0.667297 0.981992 0.014993
Si Si3 0.124339 0.128572 0.515009
Si Si4 0.806202 0.284408 0.200705
Si Si5 0.891328 0.551868 0.022269
Si Si6 0.486505 0.875091 0.686192
Si Si7 0.754815 0.269281 0.837740
O O1 0.287327 0.163857 0.481633
O O2 0.458998 0.229895 0.302602
O O3 0.592482 0.306673 0.594382
O O4 0.282846 0.385373 0.199123
O O5 0.608241 0.915138 0.877719
O O6 0.762482 0.122255 0.938178
O O7 0.790422 0.895086 0.252307
O O8 0.500000 0.000000 0.000000
O O9 0.002075 0.239499 0.341199
O O10 0.000000 0.000000 0.500000
O O11 0.823275 0.423837 0.163653
O O12 0.703498 0.182734 0.321769
O O13 0.714750 0.282659 0.976464
O O14 0.048100 0.650469 0.122581
O O15 0.000000 0.500000 0.000000
O O16 0.500000 0.000000 0.500000
#
# Coordination Sequence:
#
# PCOD9041610 Si02
#       7
#     2   2   2   2   2   2   2
#     4  12  23  41  69  96 131 174 216 271 330 377
#     4  12  20  38  64  95 129 169 217 263 327 398
#     4  12  20  38  66  96 126 173 217 266 327 387
#     4  11  23  43  65  94 135 170 218 273 311 392
#     4  10  23  44  65  96 130 172 230 265 308 385
#     4  12  24  41  65 100 134 166 212 275 336 387
#     4  11  21  41  70  95 128 172 222 263 318 390
#
# _framework density 19.477692999999999
#
# number of rings (size 3 to 8) (size 9 to 14) (size 15 to 20)
#    0.000    0.571    8.571    0.857    0.000    2.857 
#    5.143    2.857    0.000    0.000    0.000    0.000 
#    0.000    0.000    0.000    0.000    0.000    0.000 
#
# Total GULP energy -78107.726948 kJ/mol
# GULP energy per Si atom -5579.123353 kJ/mol
# Density = 1.943336 g / cm^3
# Si number density = 19.477693 Si / 1000 Ang^3
#
#
#
# Elastic Constant Matrix: (Units=GPa)
#
#
# Indices 1 2 3 4 5 6 
#
# 1 57.8394 24.0613 40.4071 13.4376 -6.8965 -4.0830
# 2 24.0613 81.6961 54.2188 2.0147 5.2149 11.0656
# 3 40.4071 54.2188 142.4243 13.5721 7.8647 -11.1193
# 4 13.4376 2.0147 13.5721 35.6465 -3.0252 -2.5596
# 5 -6.8965 5.2149 7.8647 -3.0252 22.3285 -5.8302
# 6 -4.0830 11.0656 -11.1193 -2.5596 -5.8302 38.4616
#
#
#
# Elastic Compliance Matrix: (Units=1/GPa)
#
#
# Indices 1 2 3 4 5 6 
#
# 1 0.026252 -0.005537 -0.005031 -0.006396 0.011411 0.004230
# 2 -0.005537 0.019738 -0.006525 0.002304 -0.006037 -0.008915
# 3 -0.005031 -0.006525 0.011641 -0.002161 -0.003364 0.004055
# 4 -0.006396 0.002304 -0.002161 0.031419 0.002642 0.000525
# 5 0.011411 -0.006037 -0.003364 0.002642 0.053961 0.010331
# 6 0.004230 -0.008915 0.004055 0.000525 0.010331 0.031787
#
#
# Mechanical properties :
#
#
# Convention : Reuss Voigt Hill
#
# Bulk Modulus (GPa) = 42.65194 57.70380 50.17787
# Shear Modulus (GPa) = 23.06296 30.17215 26.61755
#
# Velocity S-wave (km/s) = 3.44477 3.94008 3.70072
# Velocity P-wave (km/s) = 6.14551 7.09851 6.63913
#
# Compressibility (1/GPa) = 0.02344559
#
# Stress axis : x y z
#
# Youngs Moduli (GPa) = 38.09217 50.66438 85.90439
#
# Poissons Ratio (x) = 0.28051 0.43216
# Poissons Ratio (y) = 0.21091 0.56054
# Poissons Ratio (z) = 0.19163 0.33059
#
# Static dielectric constant tensor:
#      x y z
#    x 1.722820 0.048840 0.019230 
#    y 0.048840 1.725480 0.010760 
#    z 0.019230 0.010760 1.429400 
# 
# From -- ./inp_files/185510.got.cif
#   From: 2010.05.17/outbox.cif.g08.bks.cpg/sg2_93_cif.got.tgz:185510.got - 2010.06.03 11:33:40.
