data_PCOD9041597
_publ_section_title
;
Structure prediction by ZEFSAII (Michael W. Deem and Ramdas Pophale) SiO2 
 PCOD9041597
Probable space group: P -1
;
_chemical_formula_sum "Si O2"
_cell_formula_units_Z 16
_cell_length_a 5.595808
_cell_length_b 20.444567
_cell_length_c 20.624324
_cell_angle_alpha 20.555580
_cell_angle_beta 65.143187
_cell_angle_gamma 74.873976
_cell_volume 683.457462
_symmetry_space_group_name_H-M "P -1"
_symmetry_group_IT_number 2
_symmetry_cell_setting 'triclinic'
loop_
_space_group_symop_operation_xyz
x,y,z
-x,-y,-z
loop_
_atom_site_type_symbol
_atom_site_label
_atom_site_fract_x
_atom_site_fract_y
_atom_site_fract_z
Si Si1 0.180799 0.436722 0.622648
Si Si2 0.235977 0.030956 0.227696
Si Si3 0.373465 0.676689 0.984620
Si Si4 0.619018 0.933615 0.441644
Si Si5 0.660245 0.661887 0.175621
Si Si6 0.730007 0.213754 0.798912
Si Si7 0.714348 0.343239 0.386043
Si Si8 0.657108 0.441167 0.096874
O O1 0.500000 0.500000 0.500000
O O2 0.150920 0.394309 0.741079
O O3 0.132812 0.630575 0.420907
O O4 0.994628 0.227900 0.799679
O O5 0.279833 0.824409 0.407750
O O6 0.953690 0.976312 0.355156
O O7 0.511597 0.198427 0.078036
O O8 0.184142 0.133325 0.073875
O O9 0.582327 0.566502 0.046062
O O10 0.399679 0.850181 0.767462
O O11 0.043079 0.508075 0.181525
O O12 0.436057 0.787509 0.538830
O O13 0.496349 0.798490 0.644739
O O14 0.429094 0.698591 0.212231
O O15 0.551545 0.473434 0.313103
O O16 0.500000 0.000000 0.000000
O O17 0.500000 0.500000 0.000000
O O18 0.000000 0.500000 0.000000
#
# Coordination Sequence:
#
# PCOD9041597 Si02
#       8
#     2   2   2   2   2   2   2   2
#     4   9  22  44  63  93 134 176 220 286 340 402
#     4  11  25  42  71 104 133 186 229 293 362 417
#     4  11  25  47  73  99 152 181 233 301 360 418
#     4  11  25  47  72 102 144 187 234 296 368 411
#     4  11  24  40  69 103 133 177 240 281 353 434
#     4  10  23  44  65  93 137 183 225 285 349 417
#     4  11  24  44  69 102 141 184 228 299 358 421
#     4  12  28  47  75 109 145 199 248 293 357 441
#
# _framework density 23.410381999999998
#
# number of rings (size 3 to 8) (size 9 to 14) (size 15 to 20)
#    0.000    1.250    2.500    1.500    7.000    3.000 
#    4.500    0.000    0.000    0.000    0.000    0.000 
#    0.000    0.000    0.000    0.000    0.000    0.000 
#
# Total GULP energy -89388.448620 kJ/mol
# GULP energy per Si atom -5586.778039 kJ/mol
# Density = 2.335710 g / cm^3
# Si number density = 23.410382 Si / 1000 Ang^3
#
#
#
# Elastic Constant Matrix: (Units=GPa)
#
#
# Indices 1 2 3 4 5 6 
#
# 1 65.2905 22.1504 21.9623 -12.3175 -13.3076 4.8958
# 2 22.1504 66.5827 47.0267 -6.8768 -1.4732 -5.0326
# 3 21.9623 47.0267 142.4286 -12.6944 11.5837 13.6267
# 4 -12.3175 -6.8768 -12.6944 42.0967 8.6699 10.2042
# 5 -13.3076 -1.4732 11.5837 8.6699 57.5486 0.1197
# 6 4.8958 -5.0326 13.6267 10.2042 0.1197 46.6454
#
#
#
# Elastic Compliance Matrix: (Units=1/GPa)
#
#
# Indices 1 2 3 4 5 6 
#
# 1 0.019365 -0.005662 -0.000684 0.004593 0.003786 -0.003458
# 2 -0.005662 0.022273 -0.007239 -0.001731 0.000967 0.005488
# 3 -0.000684 -0.007239 0.010504 0.003497 -0.002975 -0.004535
# 4 0.004593 -0.001731 0.003497 0.028615 -0.003980 -0.007940
# 5 0.003786 0.000967 -0.002975 -0.003980 0.019472 0.001397
# 6 -0.003458 0.005488 -0.004535 -0.007940 0.001397 0.025452
#
#
# Mechanical properties :
#
#
# Convention : Reuss Voigt Hill
#
# Bulk Modulus (GPa) = 40.04580 50.73115 45.38848
# Shear Modulus (GPa) = 31.02218 41.46898 36.24558
#
# Velocity S-wave (km/s) = 3.64421 4.21336 3.93907
# Velocity P-wave (km/s) = 5.90340 6.73701 6.33393
#
# Compressibility (1/GPa) = 0.02497140
#
# Stress axis : x y z
#
# Youngs Moduli (GPa) = 51.64025 44.89791 95.19992
#
# Poissons Ratio (x) = 0.25422 0.06513
# Poissons Ratio (y) = 0.29239 0.68914
# Poissons Ratio (z) = 0.03533 0.32501
#
# Static dielectric constant tensor:
#      x y z
#    x 1.990260 0.029820 0.010620 
#    y 0.029820 1.897030 0.004000 
#    z 0.010620 0.004000 1.864820 
# 
# From -- ./inp_files/584258.got.cif
#   From: 2010.05.17/outbox.cif.g08.bks.cpg/sg2_293_cif.got.tgz:584258.got - 2010.06.03 11:33:40.
