data_PCOD9041478
_publ_section_title
;
Structure prediction by ZEFSAII (Michael W. Deem and Ramdas Pophale) SiO2 
 PCOD9041478
Probable space group: P -1
;
_chemical_formula_sum "Si O2"
_cell_formula_units_Z 16
_cell_length_a 13.586834
_cell_length_b 7.839078
_cell_length_c 7.100651
_cell_angle_alpha 106.054994
_cell_angle_beta 80.126172
_cell_angle_gamma 79.546286
_cell_volume 694.779998
_symmetry_space_group_name_H-M "P -1"
_symmetry_group_IT_number 2
_symmetry_cell_setting 'triclinic'
loop_
_space_group_symop_operation_xyz
x,y,z
-x,-y,-z
loop_
_atom_site_type_symbol
_atom_site_label
_atom_site_fract_x
_atom_site_fract_y
_atom_site_fract_z
Si Si1 0.577702 0.863312 0.296933
Si Si2 0.270967 0.091551 0.030698
Si Si3 0.959218 0.774481 0.916875
Si Si4 0.169225 0.495242 0.160897
Si Si5 0.747780 0.259130 0.514611
Si Si6 0.941391 0.005981 0.326858
Si Si7 0.600985 0.229525 0.877605
Si Si8 0.309346 0.535744 0.794533
O O1 0.658441 0.954825 0.191851
O O2 0.510670 0.799919 0.134124
O O3 0.638665 0.677687 0.321184
O O4 0.500000 0.000000 0.500000
O O5 0.152767 0.083364 0.042079
O O6 0.255086 0.308688 0.132166
O O7 0.325733 0.961188 0.135590
O O8 0.933715 0.579128 0.837289
O O9 0.035341 0.834377 0.765949
O O10 0.981070 0.821351 0.137498
O O11 0.179101 0.640937 0.356582
O O12 0.208500 0.547948 0.962206
O O13 0.819475 0.054827 0.415215
O O14 0.647219 0.277035 0.680024
O O15 0.719249 0.353298 0.352858
O O16 0.000000 0.000000 0.500000
O O17 0.615131 0.374833 0.074817
#
# Coordination Sequence:
#
# PCOD9041478 Si02
#       8
#     2   2   2   2   2   2   2   2
#     4  11  25  39  66  97 119 170 220 256 310 368
#     4   9  20  44  64  87 132 165 205 262 314 365
#     4   9  21  41  64  89 128 164 200 254 318 364
#     4   8  21  41  64  89 122 171 203 252 314 362
#     4  11  24  40  67  95 126 168 210 254 314 373
#     4  11  23  39  64 100 124 160 211 255 310 382
#     4  11  23  40  64  92 129 171 206 258 316 365
#     4  10  23  44  61  89 136 165 206 260 315 371
#
# _framework density 23.028870999999999
#
# number of rings (size 3 to 8) (size 9 to 14) (size 15 to 20)
#    0.750    1.250    0.000    2.250    5.250    5.000 
#    2.250    1.250    0.000    0.000    0.000    0.000 
#    0.000    0.000    0.000    0.000    0.000    0.000 
#
# Total GULP energy -89415.589342 kJ/mol
# GULP energy per Si atom -5588.474334 kJ/mol
# Density = 2.297646 g / cm^3
# Si number density = 23.028871 Si / 1000 Ang^3
#
#
#
# Elastic Constant Matrix: (Units=GPa)
#
#
# Indices 1 2 3 4 5 6 
#
# 1 83.8051 0.4789 19.7046 -0.1063 3.7284 9.8712
# 2 0.4789 76.3869 30.3826 -14.6709 -3.2797 -4.9815
# 3 19.7046 30.3826 104.7481 -6.6045 2.1580 -0.0504
# 4 -0.1063 -14.6709 -6.6045 32.1099 -10.5310 2.1696
# 5 3.7284 -3.2797 2.1580 -10.5310 29.9900 5.5580
# 6 9.8712 -4.9815 -0.0504 2.1696 5.5580 36.7743
#
#
#
# Elastic Compliance Matrix: (Units=1/GPa)
#
#
# Indices 1 2 3 4 5 6 
#
# 1 0.012968 0.000671 -0.002634 -0.000245 -0.000832 -0.003253
# 2 0.000671 0.016746 -0.004563 0.008232 0.004806 0.000870
# 3 -0.002634 -0.004563 0.011380 -0.000128 -0.001087 0.000276
# 4 -0.000245 0.008232 -0.000128 0.040284 0.015748 -0.003576
# 5 -0.000832 0.004806 -0.001087 0.015748 0.040733 -0.006212
# 6 -0.003253 0.000870 0.000276 -0.003576 -0.006212 0.029334
#
#
# Mechanical properties :
#
#
# Convention : Reuss Voigt Hill
#
# Bulk Modulus (GPa) = 35.65998 40.67468 38.16733
# Shear Modulus (GPa) = 28.76134 34.06644 31.41389
#
# Velocity S-wave (km/s) = 3.53785 3.85033 3.69739
# Velocity P-wave (km/s) = 5.67512 6.12107 5.90231
#
# Compressibility (1/GPa) = 0.02804264
#
# Stress axis : x y z
#
# Youngs Moduli (GPa) = 77.11375 59.71518 87.87178
#
# Poissons Ratio (x) = -0.04009 0.23146
# Poissons Ratio (y) = -0.05177 0.40097
# Poissons Ratio (z) = 0.20312 0.27249
#
# Static dielectric constant tensor:
#      x y z
#    x 1.857700 -0.002340 0.003140 
#    y -0.002340 1.856050 0.055590 
#    z 0.003140 0.055590 1.872280 
# 
# From -- ./inp_files/90732.got.cif
#   From: 2010.05.17/outbox.cif.g08.bks.cpg/sg2_46_cif.got.tgz:90732.got - 2010.06.03 11:33:40.
