data_PCOD9041870
_publ_section_title
;
Structure prediction by ZEFSAII (Michael W. Deem and Ramdas Pophale) SiO2 
 PCOD9041870
Probable space group: P -1
;
_chemical_formula_sum "Si O2"
_cell_formula_units_Z 12
_cell_length_a 11.810430
_cell_length_b 6.618512
_cell_length_c 8.208284
_cell_angle_alpha 100.479802
_cell_angle_beta 126.225632
_cell_angle_gamma 90.858731
_cell_volume 502.855691
_symmetry_space_group_name_H-M "P -1"
_symmetry_group_IT_number 2
_symmetry_cell_setting 'triclinic'
loop_
_space_group_symop_operation_xyz
x,y,z
-x,-y,-z
loop_
_atom_site_type_symbol
_atom_site_label
_atom_site_fract_x
_atom_site_fract_y
_atom_site_fract_z
Si Si1 0.936804 0.855626 0.274644
Si Si2 0.302666 0.003534 0.748128
Si Si3 0.351471 0.843279 0.309018
Si Si4 0.417394 0.692472 0.001959
Si Si5 0.846902 0.906523 0.705641
Si Si6 0.890118 0.452894 0.749134
O O1 0.771564 0.858956 0.164121
O O2 0.012392 0.652438 0.310877
O O3 0.000000 0.000000 0.500000
O O4 0.998652 0.962466 0.175712
O O5 0.460485 0.109583 0.863262
O O6 0.231518 0.040454 0.520144
O O7 0.306306 0.771270 0.789842
O O8 0.361085 0.697350 0.139020
O O9 0.258217 0.685977 0.337104
O O10 0.500000 0.000000 0.500000
O O11 0.244276 0.008999 0.219437
O O12 0.500000 0.500000 0.000000
O O13 0.853190 0.667102 0.684856
O O14 0.000000 0.500000 0.000000
#
# Coordination Sequence:
#
# PCOD9041870 Si02
#       6
#     2   2   2   2   2   2
#     4   9  22  42  68  97 138 181 223 287 349 409
#     4  10  23  44  67  99 140 183 228 288 356 399
#     4  11  25  49  70 100 142 189 225 293 354 416
#     4  11  26  42  70 102 135 180 242 289 338 420
#     4  10  23  46  69 100 141 182 234 285 352 421
#     4  11  27  42  74 109 134 182 241 286 346 415
#
# _framework density 23.863706000000001
#
# number of rings (size 3 to 8) (size 9 to 14) (size 15 to 20)
#    0.000    1.667    1.667    0.000    7.000   10.000 
#    0.000    0.000    0.000    0.000    0.000    0.000 
#    0.000    0.000    0.000    0.000    0.000    0.000 
#
# Total GULP energy -66802.308344 kJ/mol
# GULP energy per Si atom -5566.859029 kJ/mol
# Density = 2.380939 g / cm^3
# Si number density = 23.863706 Si / 1000 Ang^3
#
#
#
# Elastic Constant Matrix: (Units=GPa)
#
#
# Indices 1 2 3 4 5 6 
#
# 1 115.6085 28.8927 5.0297 -5.8642 -12.7553 -26.8168
# 2 28.8927 186.9334 26.9085 -10.7164 -23.7022 -40.0515
# 3 5.0297 26.9085 73.1416 -19.1999 -2.5611 -17.7633
# 4 -5.8642 -10.7164 -19.1999 33.8589 -11.2669 -1.9996
# 5 -12.7553 -23.7022 -2.5611 -11.2669 42.9040 21.0853
# 6 -26.8168 -40.0515 -17.7633 -1.9996 21.0853 49.7882
#
#
#
# Elastic Compliance Matrix: (Units=1/GPa)
#
#
# Indices 1 2 3 4 5 6 
#
# 1 0.010225 -0.000305 0.001656 0.003317 0.001136 0.005505
# 2 -0.000305 0.006851 -0.000665 0.002751 0.002287 0.004251
# 3 0.001656 -0.000665 0.018499 0.011211 0.000673 0.007123
# 4 0.003317 0.002751 0.011211 0.041534 0.011784 0.004677
# 5 0.001136 0.002287 0.000673 0.011784 0.033450 -0.011001
# 6 0.005505 0.004251 0.007123 0.004677 -0.011001 0.033858
#
#
# Mechanical properties :
#
#
# Convention : Reuss Voigt Hill
#
# Bulk Modulus (GPa) = 27.06536 55.26058 41.16297
# Shear Modulus (GPa) = 32.18334 46.30040 39.24187
#
# Velocity S-wave (km/s) = 3.67636 4.40955 4.05954
# Velocity P-wave (km/s) = 5.42098 7.00946 6.26576
#
# Compressibility (1/GPa) = 0.03694760
#
# Stress axis : x y z
#
# Youngs Moduli (GPa) = 97.80400 145.96472 54.05654
#
# Poissons Ratio (x) = 0.04455 -0.08954
# Poissons Ratio (y) = 0.02985 0.03594
# Poissons Ratio (z) = -0.16201 0.09704
#
# Static dielectric constant tensor:
#      x y z
#    x 2.141130 -0.054430 0.097040 
#    y -0.054430 1.936670 -0.033250 
#    z 0.097040 -0.033250 2.224100 
# 
# From -- ./inp_files/131890.got.cif
#   From: 2010.05.17/outbox.cif.g08.bks.cpg/sg2_66_cif.got.tgz:131890.got - 2010.06.03 11:33:40.
