data_PCOD9041185
_publ_section_title
;
Structure prediction by ZEFSAII (Michael W. Deem and Ramdas Pophale) SiO2 
 PCOD9041185
Probable space group: P -1
;
_chemical_formula_sum "Si O2"
_cell_formula_units_Z 14
_cell_length_a 12.633546
_cell_length_b 9.118829
_cell_length_c 5.215433
_cell_angle_alpha 116.376956
_cell_angle_beta 101.229353
_cell_angle_gamma 71.818003
_cell_volume 510.293116
_symmetry_space_group_name_H-M "P -1"
_symmetry_group_IT_number 2
_symmetry_cell_setting 'triclinic'
loop_
_space_group_symop_operation_xyz
x,y,z
-x,-y,-z
loop_
_atom_site_type_symbol
_atom_site_label
_atom_site_fract_x
_atom_site_fract_y
_atom_site_fract_z
Si Si1 0.573704 0.192679 0.736038
Si Si2 0.125628 0.527866 0.578587
Si Si3 0.573818 0.689497 0.743889
Si Si4 0.727673 0.326885 0.596391
Si Si5 0.025155 0.847238 0.091760
Si Si6 0.281775 0.172383 0.382093
Si Si7 0.830425 0.984184 0.384099
O O1 0.495050 0.252943 0.501562
O O2 0.679154 0.275668 0.807123
O O3 0.619687 0.989150 0.603873
O O4 0.500656 0.257732 0.001252
O O5 0.170991 0.592892 0.388141
O O6 0.225947 0.368724 0.590469
O O7 0.000000 0.500000 0.500000
O O8 0.103616 0.684088 0.880171
O O9 0.627706 0.489500 0.602237
O O10 0.672442 0.790790 0.848887
O O11 0.738589 0.137527 0.324835
O O12 0.091982 0.895727 0.397531
O O13 0.902445 0.840163 0.123425
O O14 0.000000 0.000000 0.000000
O O15 0.188962 0.098166 0.422030
#
# Coordination Sequence:
#
# PCOD9041185 Si02
#       7
#     2   2   2   2   2   2   2
#     4  11  24  47  73 104 145 191 243 304 365 438
#     4  11  24  45  69 106 150 188 238 300 363 428
#     4  11  24  46  74 107 146 186 241 311 369 425
#     4  10  23  43  71 108 138 188 247 288 364 442
#     4  11  22  42  72  93 145 196 236 298 347 425
#     4  10  24  44  68 107 146 185 242 295 368 439
#     4  10  23  44  67 104 139 190 249 283 359 433
#
# _framework density 27.435213000000001
#
# number of rings (size 3 to 8) (size 9 to 14) (size 15 to 20)
#    0.000    1.429    1.429    2.571    2.000    5.143 
#   12.857    0.000    0.000    0.000    0.000    0.000 
#    0.000    0.000    0.000    0.000    0.000    0.000 
#
# Total GULP energy -77954.131543 kJ/mol
# GULP energy per Si atom -5568.152253 kJ/mol
# Density = 2.737277 g / cm^3
# Si number density = 27.435213 Si / 1000 Ang^3
#
#
#
# Elastic Constant Matrix: (Units=GPa)
#
#
# Indices 1 2 3 4 5 6 
#
# 1 180.2740 61.9931 60.0963 -6.7724 -50.5367 42.1120
# 2 61.9931 226.5400 64.4428 25.4781 -23.7063 7.4339
# 3 60.0963 64.4428 107.0839 -5.2097 -46.9370 -15.9056
# 4 -6.7724 25.4781 -5.2097 50.4120 -0.3298 -20.2033
# 5 -50.5367 -23.7063 -46.9370 -0.3298 47.7556 2.7238
# 6 42.1120 7.4339 -15.9056 -20.2033 2.7238 45.3078
#
#
#
# Elastic Compliance Matrix: (Units=1/GPa)
#
#
# Indices 1 2 3 4 5 6 
#
# 1 0.015676 0.000788 -0.008667 -0.007875 0.009652 -0.021834
# 2 0.000788 0.007051 -0.007174 -0.007214 -0.002339 -0.007484
# 3 -0.008667 -0.007174 0.029816 0.016036 0.015204 0.025937
# 4 -0.007875 -0.007214 0.016036 0.036167 0.002379 0.030117
# 5 0.009652 -0.002339 0.015204 0.002379 0.045233 -0.004909
# 6 -0.021834 -0.007484 0.025937 0.030117 -0.004909 0.066423
#
#
# Mechanical properties :
#
#
# Convention : Reuss Voigt Hill
#
# Bulk Modulus (GPa) = 44.56676 98.55137 71.55906
# Shear Modulus (GPa) = 21.01275 50.51944 35.76610
#
# Velocity S-wave (km/s) = 2.77050 4.29582 3.61454
# Velocity P-wave (km/s) = 5.14916 7.78491 6.59995
#
# Compressibility (1/GPa) = 0.02243825
#
# Stress axis : x y z
#
# Youngs Moduli (GPa) = 63.79275 141.81730 33.53867
#
# Poissons Ratio (x) = -0.11174 0.29068
# Poissons Ratio (y) = -0.05027 0.24059
# Poissons Ratio (z) = 0.55288 1.01735
#
# Static dielectric constant tensor:
#      x y z
#    x 3.319760 -0.766830 -0.110320 
#    y -0.766830 2.661520 0.215010 
#    z -0.110320 0.215010 2.369050 
# 
# From -- ./inp_files/91148.got.cif
#   From: 2010.05.17/outbox.cif.g08.bks.cpg/sg2_46_cif.got.tgz:91148.got - 2010.06.03 11:33:40.
