data_PCOD9041386
_publ_section_title
;
Structure prediction by ZEFSAII (Michael W. Deem and Ramdas Pophale) SiO2 
 PCOD9041386
Probable space group: P -1
;
_chemical_formula_sum "Si O2"
_cell_formula_units_Z 16
_cell_length_a 15.315545
_cell_length_b 12.370339
_cell_length_c 9.240456
_cell_angle_alpha 141.487493
_cell_angle_beta 48.307414
_cell_angle_gamma 134.548322
_cell_volume 749.770106
_symmetry_space_group_name_H-M "P -1"
_symmetry_group_IT_number 2
_symmetry_cell_setting 'triclinic'
loop_
_space_group_symop_operation_xyz
x,y,z
-x,-y,-z
loop_
_atom_site_type_symbol
_atom_site_label
_atom_site_fract_x
_atom_site_fract_y
_atom_site_fract_z
Si Si1 0.959557 0.870646 0.268408
Si Si2 0.148381 0.628097 0.459525
Si Si3 0.269390 0.486548 0.921367
Si Si4 0.502263 0.617189 0.331547
Si Si5 0.614561 0.197787 0.109868
Si Si6 0.872918 0.988272 0.204225
Si Si7 0.633984 0.782662 0.082984
Si Si8 0.226450 0.855366 0.877508
O O1 0.851979 0.660594 0.185824
O O2 0.892383 0.956978 0.316701
O O3 0.000000 0.000000 0.500000
O O4 0.088430 0.866057 0.052642
O O5 0.208009 0.680186 0.608077
O O6 0.000000 0.500000 0.500000
O O7 0.156943 0.827611 0.594506
O O8 0.217024 0.537035 0.180951
O O9 0.372701 0.399288 0.753641
O O10 0.336429 0.675730 0.953200
O O11 0.435412 0.689397 0.602985
O O12 0.537128 0.752296 0.292388
O O13 0.417055 0.409088 0.150923
O O14 0.726604 0.164367 0.036018
O O15 0.500000 0.000000 0.000000
O O16 0.763453 0.821253 0.067044
O O17 0.000000 0.000000 0.000000
O O18 0.670529 0.959653 0.120093
#
# Coordination Sequence:
#
# PCOD9041386 Si02
#       8
#     2   2   2   2   2   2   2   2
#     4  12  27  43  71 105 141 186 227 284 361 427
#     4  11  24  43  72 108 142 174 235 289 348 415
#     4  12  27  48  73 102 143 187 233 291 350 421
#     4  11  26  46  73 101 136 188 243 286 340 414
#     4  12  31  47  69 100 147 190 232 286 352 419
#     4  11  21  44  71 101 139 180 225 289 349 405
#     4  10  23  43  74 102 131 178 241 288 340 402
#     4  11  26  46  70 105 141 178 233 293 354 410
#
# _framework density 21.339873999999998
#
# number of rings (size 3 to 8) (size 9 to 14) (size 15 to 20)
#    0.000    0.750    5.000    1.125   12.250    2.000 
#    0.000    0.000    0.000    0.000    0.000    0.000 
#    0.000    0.000    0.000    0.000    0.000    0.000 
#
# Total GULP energy -89475.057461 kJ/mol
# GULP energy per Si atom -5592.191091 kJ/mol
# Density = 2.129130 g / cm^3
# Si number density = 21.339874 Si / 1000 Ang^3
#
#
#
# Elastic Constant Matrix: (Units=GPa)
#
#
# Indices 1 2 3 4 5 6 
#
# 1 94.6691 12.0832 11.8696 9.9580 11.7642 8.1961
# 2 12.0832 112.5338 7.4673 4.1810 10.9211 8.6379
# 3 11.8696 7.4673 80.0743 -9.3733 16.8601 15.2384
# 4 9.9580 4.1810 -9.3733 19.4854 1.7297 5.0492
# 5 11.7642 10.9211 16.8601 1.7297 40.5259 8.2208
# 6 8.1961 8.6379 15.2384 5.0492 8.2208 41.9912
#
#
#
# Elastic Compliance Matrix: (Units=1/GPa)
#
#
# Indices 1 2 3 4 5 6 
#
# 1 0.011878 -0.000674 -0.001982 -0.006627 -0.002108 -0.000251
# 2 -0.000674 0.009300 -0.000308 -0.001336 -0.001894 -0.001138
# 3 -0.001982 -0.000308 0.016319 0.010893 -0.005436 -0.005717
# 4 -0.006627 -0.001336 0.010893 0.062928 -0.003036 -0.009357
# 5 -0.002108 -0.001894 -0.005436 -0.003036 0.028692 -0.002478
# 6 -0.000251 -0.001138 -0.005717 -0.009357 -0.002478 0.027783
#
#
# Mechanical properties :
#
#
# Convention : Reuss Voigt Hill
#
# Bulk Modulus (GPa) = 31.67714 38.90193 35.28953
# Shear Modulus (GPa) = 28.84324 37.45765 33.15045
#
# Velocity S-wave (km/s) = 3.68042 4.19416 3.94566
# Velocity P-wave (km/s) = 5.73907 6.45941 6.10986
#
# Compressibility (1/GPa) = 0.03156851
#
# Stress axis : x y z
#
# Youngs Moduli (GPa) = 84.18627 107.52818 61.27978
#
# Poissons Ratio (x) = 0.07246 0.12146
# Poissons Ratio (y) = 0.05673 0.01890
# Poissons Ratio (z) = 0.16686 0.03316
#
# Static dielectric constant tensor:
#      x y z
#    x 1.776580 -0.021540 0.001280 
#    y -0.021540 1.810630 0.000990 
#    z 0.001280 0.000990 1.751930 
# 
# From -- ./inp_files/308697.got.cif
#   From: 2010.05.17/outbox.cif.g08.bks.cpg/sg2_155_cif.got.tgz:308697.got - 2010.06.03 11:33:40.
