data_PCOD9041807
_publ_section_title
;
Structure prediction by ZEFSAII (Michael W. Deem and Ramdas Pophale) SiO2 
 PCOD9041807
Probable space group: P -1
;
_chemical_formula_sum "Si O2"
_cell_formula_units_Z 14
_cell_length_a 11.973623
_cell_length_b 9.335236
_cell_length_c 17.860519
_cell_angle_alpha 26.522681
_cell_angle_beta 36.569688
_cell_angle_gamma 43.094577
_cell_volume 530.643858
_symmetry_space_group_name_H-M "P -1"
_symmetry_group_IT_number 2
_symmetry_cell_setting 'triclinic'
loop_
_space_group_symop_operation_xyz
x,y,z
-x,-y,-z
loop_
_atom_site_type_symbol
_atom_site_label
_atom_site_fract_x
_atom_site_fract_y
_atom_site_fract_z
Si Si1 0.702388 0.825202 0.096505
Si Si2 0.056614 0.075065 0.705206
Si Si3 0.592693 0.323489 0.276292
Si Si4 0.545962 0.161365 0.220691
Si Si5 0.342242 0.185218 0.187004
Si Si6 0.131683 0.299337 0.779809
Si Si7 0.059308 0.728437 0.481128
O O1 0.585875 0.601936 0.209145
O O2 0.804138 0.633001 0.200979
O O3 0.549014 0.059716 0.107857
O O4 0.852231 0.008887 0.879999
O O5 0.123339 0.405224 0.551312
O O6 0.065530 0.108428 0.595001
O O7 0.187139 0.776380 0.802427
O O8 0.506253 0.359088 0.225032
O O9 0.500000 0.000000 0.500000
O O10 0.357053 0.092703 0.309938
O O11 0.678861 0.839778 0.300300
O O12 0.667355 0.433223 0.988933
O O13 0.200064 0.003657 0.297796
O O14 0.033836 0.571146 0.651901
O O15 0.000000 0.000000 0.000000
#
# Coordination Sequence:
#
# PCOD9041807 Si02
#       7
#     2   2   2   2   2   2   2
#     4  11  24  41  73  96 137 179 229 269 343 401
#     4  11  24  44  66 102 136 177 218 287 336 397
#     4  12  25  42  67 103 134 175 225 281 331 407
#     4  10  23  44  67  93 142 173 223 276 338 396
#     4  10  24  44  69 100 130 184 223 278 332 396
#     4  11  22  44  69  99 134 182 221 278 338 400
#     4  11  23  41  71  95 138 173 227 274 329 401
#
# _framework density 26.383044000000002
#
# number of rings (size 3 to 8) (size 9 to 14) (size 15 to 20)
#    0.000    1.143    2.857    2.143    2.000    6.857 
#    2.571    1.429    0.000    0.000    0.000    0.000 
#    0.000    0.000    0.000    0.000    0.000    0.000 
#
# Total GULP energy -78210.528811 kJ/mol
# GULP energy per Si atom -5586.466344 kJ/mol
# Density = 2.632299 g / cm^3
# Si number density = 26.383044 Si / 1000 Ang^3
#
#
#
# Elastic Constant Matrix: (Units=GPa)
#
#
# Indices 1 2 3 4 5 6 
#
# 1 178.4062 38.8810 28.5466 -2.7225 -3.3204 45.7456
# 2 38.8810 81.1639 19.3807 -18.3784 -11.3176 30.9010
# 3 28.5466 19.3807 57.5775 -4.4099 -11.0570 18.0575
# 4 -2.7225 -18.3784 -4.4099 28.9636 14.8992 -1.8576
# 5 -3.3204 -11.3176 -11.0570 14.8992 47.6358 -10.7649
# 6 45.7456 30.9010 18.0575 -1.8576 -10.7649 46.5062
#
#
#
# Elastic Compliance Matrix: (Units=1/GPa)
#
#
# Indices 1 2 3 4 5 6 
#
# 1 0.007789 -0.000899 -0.001738 0.000343 -0.001712 -0.006772
# 2 -0.000899 0.020402 -0.002173 0.013047 -0.002486 -0.011882
# 3 -0.001738 -0.002173 0.020897 -0.000369 0.003381 -0.004193
# 4 0.000343 0.013047 -0.000369 0.049762 -0.014857 -0.010315
# 5 -0.001712 -0.002486 0.003381 -0.014857 0.027475 0.007789
# 6 -0.006772 -0.011882 -0.004193 -0.010315 0.007789 0.039078
#
#
# Mechanical properties :
#
#
# Convention : Reuss Voigt Hill
#
# Bulk Modulus (GPa) = 25.33706 54.52936 39.93321
# Shear Modulus (GPa) = 26.57062 39.97706 33.27384
#
# Velocity S-wave (km/s) = 3.17694 3.89685 3.55517
# Velocity P-wave (km/s) = 4.80434 6.40004 5.65872
#
# Compressibility (1/GPa) = 0.03946788
#
# Stress axis : x y z
#
# Youngs Moduli (GPa) = 128.38661 49.01525 47.85404
#
# Poissons Ratio (x) = 0.04406 0.08316
# Poissons Ratio (y) = 0.11542 0.10400
# Poissons Ratio (z) = 0.22310 0.10652
#
# Static dielectric constant tensor:
#      x y z
#    x 1.606790 -0.124010 -0.409900 
#    y -0.124010 2.092800 0.025330 
#    z -0.409900 0.025330 1.660920 
# 
# From -- ./inp_files/157448.got.cif
#   From: 2010.05.17/outbox.cif.g08.bks.cpg/sg2_79_cif.got.tgz:157448.got - 2010.06.03 11:33:40.
