data_PCOD9041410
_publ_section_title
;
Structure prediction by ZEFSAII (Michael W. Deem and Ramdas Pophale) SiO2 
 PCOD9041410
Probable space group: P -1
;
_chemical_formula_sum "Si O2"
_cell_formula_units_Z 12
_cell_length_a 14.635714
_cell_length_b 5.459371
_cell_length_c 9.457773
_cell_angle_alpha 99.920482
_cell_angle_beta 44.512161
_cell_angle_gamma 121.344502
_cell_volume 426.834994
_symmetry_space_group_name_H-M "P -1"
_symmetry_group_IT_number 2
_symmetry_cell_setting 'triclinic'
loop_
_space_group_symop_operation_xyz
x,y,z
-x,-y,-z
loop_
_atom_site_type_symbol
_atom_site_label
_atom_site_fract_x
_atom_site_fract_y
_atom_site_fract_z
Si Si1 0.090499 0.683737 0.058312
Si Si2 0.742750 0.369031 0.813456
Si Si3 0.515252 0.744199 0.112511
Si Si4 0.986952 0.117323 0.320468
Si Si5 0.657023 0.707582 0.505292
Si Si6 0.645436 0.373584 0.222805
O O1 0.032712 0.411257 0.206300
O O2 0.272821 0.796564 0.844371
O O3 0.000000 0.500000 0.000000
O O4 0.046293 0.913690 0.177427
O O5 0.629339 0.247366 0.791075
O O6 0.916668 0.681198 0.625347
O O7 0.688550 0.047753 0.912056
O O8 0.461291 0.608947 0.313657
O O9 0.500000 0.500000 0.000000
O O10 0.312298 0.524717 0.979125
O O11 0.798014 0.905569 0.480907
O O12 0.711698 0.638618 0.292287
O O13 0.544716 0.811446 0.591849
#
# Coordination Sequence:
#
# PCOD9041410 Si02
#       6
#     2   2   2   2   2   2
#     4  11  23  45  72 108 160 198 240 296 395 449
#     4  10  25  45  74 102 145 201 254 291 387 451
#     4  11  24  48  72 102 147 207 245 306 372 466
#     4  11  26  46  75 115 148 197 247 322 366 448
#     4  11  24  46  76 115 153 185 257 314 375 431
#     4  10  23  43  74 112 146 195 242 307 369 451
#
# _framework density 28.113906
#
# number of rings (size 3 to 8) (size 9 to 14) (size 15 to 20)
#    0.000    1.333    3.333    0.500    7.000    2.667 
#    6.000    0.833    0.000    0.000    0.000    0.000 
#    0.000    0.000    0.000    0.000    0.000    0.000 
#
# Total GULP energy -66939.345151 kJ/mol
# GULP energy per Si atom -5578.278763 kJ/mol
# Density = 2.804992 g / cm^3
# Si number density = 28.113906 Si / 1000 Ang^3
#
#
#
# Elastic Constant Matrix: (Units=GPa)
#
#
# Indices 1 2 3 4 5 6 
#
# 1 120.9512 41.8819 45.3068 10.3192 -35.5739 6.2849
# 2 41.8819 191.5006 57.5774 -14.4766 -31.1919 7.4282
# 3 45.3068 57.5774 95.4261 0.8355 -16.9003 -6.1308
# 4 10.3192 -14.4766 0.8355 51.0852 6.0803 -7.8536
# 5 -35.5739 -31.1919 -16.9003 6.0803 68.9179 -2.3737
# 6 6.2849 7.4282 -6.1308 -7.8536 -2.3737 54.8706
#
#
#
# Elastic Compliance Matrix: (Units=1/GPa)
#
#
# Indices 1 2 3 4 5 6 
#
# 1 0.012093 -0.000626 -0.004569 -0.003470 0.005072 -0.002088
# 2 -0.000626 0.006906 -0.003641 0.001794 0.001719 -0.000939
# 3 -0.004569 -0.003641 0.014973 0.000090 -0.000250 0.002691
# 4 -0.003470 0.001794 0.000090 0.021593 -0.002754 0.003136
# 5 0.005072 0.001719 -0.000250 -0.002754 0.018072 -0.000454
# 6 -0.002088 -0.000939 0.002691 0.003136 -0.000454 0.019321
#
#
# Mechanical properties :
#
#
# Convention : Reuss Voigt Hill
#
# Bulk Modulus (GPa) = 61.35244 77.49002 69.42123
# Shear Modulus (GPa) = 43.08011 52.51553 47.79782
#
# Velocity S-wave (km/s) = 3.91876 4.32667 4.12776
# Velocity P-wave (km/s) = 6.50736 7.25140 6.88943
#
# Compressibility (1/GPa) = 0.01629927
#
# Stress axis : x y z
#
# Youngs Moduli (GPa) = 82.69570 144.81112 66.78526
#
# Poissons Ratio (x) = 0.09066 0.30514
# Poissons Ratio (y) = 0.05177 0.24316
# Poissons Ratio (z) = 0.37784 0.52725
#
# Static dielectric constant tensor:
#      x y z
#    x 2.567660 0.024380 -0.203750 
#    y 0.024380 2.203610 -0.020190 
#    z -0.203750 -0.020190 2.408120 
# 
# From -- ./inp_files/441236.got.cif
#   From: 2010.05.17/outbox.cif.g08.bks.cpg/sg2_221_cif.got.tgz:441236.got - 2010.06.03 11:33:40.
