data_PCOD9041869
_publ_section_title
;
Structure prediction by ZEFSAII (Michael W. Deem and Ramdas Pophale) SiO2 
 PCOD9041869
Probable space group: P -1
;
_chemical_formula_sum "Si O2"
_cell_formula_units_Z 14
_cell_length_a 8.593116
_cell_length_b 15.837905
_cell_length_c 5.969363
_cell_angle_alpha 52.992913
_cell_angle_beta 92.455659
_cell_angle_gamma 73.448152
_cell_volume 597.004972
_symmetry_space_group_name_H-M "P -1"
_symmetry_group_IT_number 2
_symmetry_cell_setting 'triclinic'
loop_
_space_group_symop_operation_xyz
x,y,z
-x,-y,-z
loop_
_atom_site_type_symbol
_atom_site_label
_atom_site_fract_x
_atom_site_fract_y
_atom_site_fract_z
Si Si1 0.225479 0.665671 0.852341
Si Si2 0.873551 0.142181 0.095634
Si Si3 0.435115 0.710316 0.446756
Si Si4 0.777295 0.950857 0.590025
Si Si5 0.262070 0.453715 0.518014
Si Si6 0.971204 0.420583 0.314290
Si Si7 0.529660 0.903730 0.346996
O O1 0.187132 0.779312 0.812250
O O2 0.392184 0.641663 0.753373
O O3 0.071057 0.675951 0.660621
O O4 0.241045 0.562470 0.185831
O O5 0.069665 0.121335 0.122632
O O6 0.851890 0.023057 0.321153
O O7 0.746781 0.207718 0.788923
O O8 0.548723 0.634472 0.374700
O O9 0.527106 0.789085 0.423221
O O10 0.695765 0.883431 0.536519
O O11 0.626475 0.041357 0.579576
O O12 0.196707 0.505299 0.673598
O O13 0.131857 0.395186 0.525766
O O14 0.000000 0.500000 0.000000
O O15 0.500000 0.000000 0.000000
#
# Coordination Sequence:
#
# PCOD9041869 Si02
#       7
#     2   2   2   2   2   2   2
#     4  11  23  42  66 100 139 181 225 278 342 404
#     4  11  24  42  67  99 134 177 227 280 343 405
#     4  12  25  41  69 105 135 181 228 280 343 404
#     4  10  24  46  66  94 138 176 227 287 333 410
#     4  10  23  44  67  99 140 177 232 280 330 415
#     4   9  21  44  65  92 136 181 223 278 341 393
#     4  11  23  46  68  99 133 179 230 282 344 401
#
# _framework density 23.450389999999999
#
# number of rings (size 3 to 8) (size 9 to 14) (size 15 to 20)
#    0.000    1.429    2.857    1.286    2.000    6.286 
#    7.714    0.000    0.000    0.000    0.000    0.000 
#    0.000    0.000    0.000    0.000    0.000    0.000 
#
# Total GULP energy -78312.111488 kJ/mol
# GULP energy per Si atom -5593.722249 kJ/mol
# Density = 2.339702 g / cm^3
# Si number density = 23.450390 Si / 1000 Ang^3
#
#
#
# Elastic Constant Matrix: (Units=GPa)
#
#
# Indices 1 2 3 4 5 6 
#
# 1 126.1260 45.3723 31.5871 -4.1192 3.0386 8.9432
# 2 45.3723 74.4588 17.8618 9.6861 4.3932 13.6122
# 3 31.5871 17.8618 53.1031 1.2600 -10.3729 1.6063
# 4 -4.1192 9.6861 1.2600 22.4463 -5.4841 1.3701
# 5 3.0386 4.3932 -10.3729 -5.4841 41.4792 5.4323
# 6 8.9432 13.6122 1.6063 1.3701 5.4323 46.8371
#
#
#
# Elastic Compliance Matrix: (Units=1/GPa)
#
#
# Indices 1 2 3 4 5 6 
#
# 1 0.011737 -0.006517 -0.005045 0.005086 -0.000727 -0.000238
# 2 -0.006517 0.020461 -0.003302 -0.010430 -0.003385 -0.003891
# 3 -0.005045 -0.003302 0.024255 0.000796 0.006854 0.000273
# 4 0.005086 -0.010430 0.000796 0.051880 0.007842 -0.000394
# 5 -0.000727 -0.003385 0.006854 0.007842 0.027604 -0.002543
# 6 -0.000238 -0.003891 0.000273 -0.000394 -0.002543 0.022824
#
#
# Mechanical properties :
#
#
# Convention : Reuss Voigt Hill
#
# Bulk Modulus (GPa) = 37.41793 49.25891 43.33842
# Shear Modulus (GPa) = 25.32959 32.74366 29.03662
#
# Velocity S-wave (km/s) = 3.29011 3.74076 3.52265
# Velocity P-wave (km/s) = 5.51579 6.30150 5.92169
#
# Compressibility (1/GPa) = 0.02672515
#
# Stress axis : x y z
#
# Youngs Moduli (GPa) = 85.20084 48.87257 41.22938
#
# Poissons Ratio (x) = 0.31850 0.20800
# Poissons Ratio (y) = 0.55525 0.13614
# Poissons Ratio (z) = 0.42984 0.16138
#
# Static dielectric constant tensor:
#      x y z
#    x 1.904020 0.001130 0.023030 
#    y 0.001130 1.857030 0.014280 
#    z 0.023030 0.014280 1.883630 
# 
# From -- ./inp_files/36904.got.cif
#   From: 2010.05.17/outbox.cif.g08.bks.cpg/sg2_19_cif.got.tgz:36904.got - 2010.06.03 11:33:40.
