data_PCOD9041831
_publ_section_title
;
Structure prediction by ZEFSAII (Michael W. Deem and Ramdas Pophale) SiO2 
 PCOD9041831
Probable space group: P -1
;
_chemical_formula_sum "Si O2"
_cell_formula_units_Z 16
_cell_length_a 19.838673
_cell_length_b 9.010323
_cell_length_c 15.572083
_cell_angle_alpha 51.188935
_cell_angle_beta 161.433330
_cell_angle_gamma 129.259131
_cell_volume 682.173712
_symmetry_space_group_name_H-M "P -1"
_symmetry_group_IT_number 2
_symmetry_cell_setting 'triclinic'
loop_
_space_group_symop_operation_xyz
x,y,z
-x,-y,-z
loop_
_atom_site_type_symbol
_atom_site_label
_atom_site_fract_x
_atom_site_fract_y
_atom_site_fract_z
Si Si1 0.176749 0.301086 0.533229
Si Si2 0.637291 0.960957 0.463788
Si Si3 0.158954 0.429692 0.648723
Si Si4 0.023334 0.039041 0.696833
Si Si5 0.837296 0.301076 0.693782
Si Si6 0.255424 0.829583 0.181076
Si Si7 0.250275 0.429692 0.240046
Si Si8 0.425464 0.829579 0.851121
O O1 0.078704 0.374343 0.475949
O O2 0.255975 0.500005 0.505973
O O3 0.008139 0.148989 0.333511
O O4 0.375683 0.193772 0.839585
O O5 0.791595 0.148979 0.616974
O O6 0.522102 0.023780 0.217475
O O7 0.476649 0.896685 0.372359
O O8 0.747996 0.777221 0.639242
O O9 0.345822 0.610820 0.802424
O O10 0.000000 0.500000 0.500000
O O11 0.188276 0.222775 0.797025
O O12 0.788539 0.103316 0.392822
O O13 0.107568 0.976228 0.912191
O O14 0.745890 0.193766 0.709795
O O15 0.090128 0.374334 0.987380
O O16 0.178198 0.610824 0.134797
O O17 0.500000 0.500000 0.500000
#
# Coordination Sequence:
#
# PCOD9041831 Si02
#       8
#     2   2   2   2   2   2   2   2
#     4  12  24  42  70 101 139 180 230 281 349 416
#     4  11  24  43  69  98 137 183 233 283 346 409
#     4  10  23  44  67  96 135 180 225 283 343 408
#     4  11  24  43  69  98 137 183 233 283 346 409
#     4  12  24  42  70 101 139 180 230 281 349 416
#     4  11  24  44  68  99 138 183 230 288 344 404
#     4  10  23  44  67  96 135 180 225 283 343 408
#     4  11  24  44  68  99 138 183 230 288 344 404
#
# _framework density 23.454438
#
# number of rings (size 3 to 8) (size 9 to 14) (size 15 to 20)
#    0.000    1.000    2.500    3.750    3.500    0.000 
#    0.000    2.500    0.000    0.000    0.000    0.000 
#    0.000    0.000    0.000    0.000    0.000    0.000 
#
# Total GULP energy -89326.377035 kJ/mol
# GULP energy per Si atom -5582.898565 kJ/mol
# Density = 2.340105 g / cm^3
# Si number density = 23.454438 Si / 1000 Ang^3
#
#
#
# Elastic Constant Matrix: (Units=GPa)
#
#
# Indices 1 2 3 4 5 6 
#
# 1 57.3532 17.6319 5.7546 -10.6102 -13.3425 14.2829
# 2 17.6319 159.6662 31.1311 -18.6187 -19.5631 3.0317
# 3 5.7546 31.1311 85.8724 -29.8085 -14.0008 9.9668
# 4 -10.6102 -18.6187 -29.8085 37.1067 12.8450 -8.6769
# 5 -13.3425 -19.5631 -14.0008 12.8450 31.0887 -10.9726
# 6 14.2829 3.0317 9.9668 -8.6769 -10.9726 30.6182
#
#
#
# Elastic Compliance Matrix: (Units=1/GPa)
#
#
# Indices 1 2 3 4 5 6 
#
# 1 0.021448 -0.001613 0.002050 0.003441 0.004952 -0.007763
# 2 -0.001613 0.007302 -0.001881 0.001019 0.003392 0.002146
# 3 0.002050 -0.001881 0.016930 0.012196 0.001470 -0.002298
# 4 0.003441 0.001019 0.012196 0.041957 -0.008622 0.003124
# 5 0.004952 0.003392 0.001470 -0.008622 0.044286 0.010303
# 6 -0.007763 0.002146 -0.002298 0.003124 0.010303 0.041395
#
#
# Mechanical properties :
#
#
# Convention : Reuss Voigt Hill
#
# Bulk Modulus (GPa) = 23.36930 45.76968 34.56949
# Shear Modulus (GPa) = 26.25093 36.32098 31.28596
#
# Velocity S-wave (km/s) = 3.34912 3.93946 3.65623
# Velocity P-wave (km/s) = 4.99408 6.34422 5.70920
#
# Compressibility (1/GPa) = 0.04279118
#
# Stress axis : x y z
#
# Youngs Moduli (GPa) = 46.62498 136.95581 59.06740
#
# Poissons Ratio (x) = 0.22089 -0.12110
# Poissons Ratio (y) = 0.07520 0.11113
# Poissons Ratio (z) = -0.09559 0.25766
#
# Static dielectric constant tensor:
#      x y z
#    x 1.975590 0.031600 0.071710 
#    y 0.031600 1.913930 -0.028570 
#    z 0.071710 -0.028570 1.934120 
# 
# From -- ./inp_files/540428.got.cif
#   From: 2010.05.17/outbox.cif.g08.bks.cpg/sg2_271_cif.got.tgz:540428.got - 2010.06.03 11:33:40.
