data_PCOD9041186
_publ_section_title
;
Structure prediction by ZEFSAII (Michael W. Deem and Ramdas Pophale) SiO2 
 PCOD9041186
Probable space group: P -1
;
_chemical_formula_sum "Si O2"
_cell_formula_units_Z 16
_cell_length_a 11.697660
_cell_length_b 15.338679
_cell_length_c 9.287484
_cell_angle_alpha 51.561367
_cell_angle_beta 99.681748
_cell_angle_gamma 56.861606
_cell_volume 691.288754
_symmetry_space_group_name_H-M "P -1"
_symmetry_group_IT_number 2
_symmetry_cell_setting 'triclinic'
loop_
_space_group_symop_operation_xyz
x,y,z
-x,-y,-z
loop_
_atom_site_type_symbol
_atom_site_label
_atom_site_fract_x
_atom_site_fract_y
_atom_site_fract_z
Si Si1 0.159072 0.813218 0.608398
Si Si2 0.607284 0.476827 0.778166
Si Si3 0.175541 0.690116 0.448113
Si Si4 0.134416 0.468698 0.667057
Si Si5 0.486006 0.818160 0.489173
Si Si6 0.054843 0.094888 0.092924
Si Si7 0.856359 0.688979 0.666529
Si Si8 0.531552 0.084204 0.322538
O O1 0.112243 0.757423 0.533660
O O2 0.332754 0.618970 0.952114
O O3 0.000000 0.000000 0.500000
O O4 0.179242 0.898752 0.410994
O O5 0.405249 0.564571 0.597513
O O6 0.548550 0.654097 0.592125
O O7 0.823834 0.294188 0.915635
O O8 0.185903 0.552819 0.544981
O O9 0.994444 0.886554 0.102896
O O10 0.000000 0.500000 0.500000
O O11 0.988052 0.598095 0.644836
O O12 0.360290 0.232942 0.007503
O O13 0.642769 0.787031 0.496039
O O14 0.514494 0.784225 0.703878
O O15 0.231387 0.050368 0.180308
O O16 0.771523 0.872855 0.529801
O O17 0.000000 0.500000 0.000000
O O18 0.500000 0.000000 0.500000
#
# Coordination Sequence:
#
# PCOD9041186 Si02
#       8
#     2   2   2   2   2   2   2   2
#     4  10  23  43  71 108 143 185 240 290 359 432
#     4  11  25  45  75 108 140 189 241 299 363 428
#     4  12  26  48  71 104 156 186 238 301 365 431
#     4  12  29  49  70 109 152 190 243 307 359 424
#     4  11  24  41  80 106 141 184 250 290 360 430
#     4  11  26  45  72 105 149 188 234 293 370 433
#     4  11  25  46  77 103 140 195 248 293 357 427
#     4  10  23  45  75 103 139 190 248 293 355 427
#
# _framework density 23.145177
#
# number of rings (size 3 to 8) (size 9 to 14) (size 15 to 20)
#    0.000    1.000    3.750    1.875    8.750    1.500 
#    2.250    0.000    0.000    0.000    0.000    0.000 
#    0.000    0.000    0.000    0.000    0.000    0.000 
#
# Total GULP energy -89268.229100 kJ/mol
# GULP energy per Si atom -5579.264319 kJ/mol
# Density = 2.309250 g / cm^3
# Si number density = 23.145177 Si / 1000 Ang^3
#
#
#
# Elastic Constant Matrix: (Units=GPa)
#
#
# Indices 1 2 3 4 5 6 
#
# 1 99.4062 15.7365 26.7426 -6.8949 14.7222 13.3678
# 2 15.7365 66.1007 4.3500 -9.0459 10.9466 1.4392
# 3 26.7426 4.3500 95.5347 19.9472 10.3865 2.8415
# 4 -6.8949 -9.0459 19.9472 40.8832 1.2373 3.9633
# 5 14.7222 10.9466 10.3865 1.2373 35.1105 -4.1291
# 6 13.3678 1.4392 2.8415 3.9633 -4.1291 42.6357
#
#
#
# Elastic Compliance Matrix: (Units=1/GPa)
#
#
# Indices 1 2 3 4 5 6 
#
# 1 0.012892 -0.001376 -0.003817 0.004314 -0.004538 -0.004582
# 2 -0.001376 0.016862 -0.000690 0.004069 -0.004728 -0.000928
# 3 -0.003817 -0.000690 0.013255 -0.007293 -0.001749 0.000845
# 4 0.004314 0.004069 -0.007293 0.030112 -0.002456 -0.004041
# 5 -0.004538 -0.004728 -0.001749 -0.002456 0.033066 0.005130
# 6 -0.004582 -0.000928 0.000845 -0.004041 0.005130 0.025738
#
#
# Mechanical properties :
#
#
# Convention : Reuss Voigt Hill
#
# Bulk Modulus (GPa) = 32.00929 39.41111 35.71020
# Shear Modulus (GPa) = 32.44525 38.00671 35.22598
#
# Velocity S-wave (km/s) = 3.74814 4.05668 3.90546
# Velocity P-wave (km/s) = 5.70887 6.24555 5.98324
#
# Compressibility (1/GPa) = 0.03124093
#
# Stress axis : x y z
#
# Youngs Moduli (GPa) = 77.56772 59.30665 75.44305
#
# Poissons Ratio (x) = 0.08163 0.28797
# Poissons Ratio (y) = 0.10676 0.05208
# Poissons Ratio (z) = 0.29608 0.04094
#
# Static dielectric constant tensor:
#      x y z
#    x 1.938590 0.040630 0.040000 
#    y 0.040630 1.937160 0.002050 
#    z 0.040000 0.002050 1.843730 
# 
# From -- ./inp_files/272199.got.cif
#   From: 2010.05.17/outbox.cif.g08.bks.cpg/sg2_137_cif.got.tgz:272199.got - 2010.06.03 11:33:40.
