data_PCOD9041353
_publ_section_title
;
Structure prediction by ZEFSAII (Michael W. Deem and Ramdas Pophale) SiO2 
 PCOD9041353
Probable space group: P -1
;
_chemical_formula_sum "Si O2"
_cell_formula_units_Z 15
_cell_length_a 8.569119
_cell_length_b 13.406043
_cell_length_c 7.338418
_cell_angle_alpha 131.385288
_cell_angle_beta 88.471733
_cell_angle_gamma 70.007922
_cell_volume 554.901435
_symmetry_space_group_name_H-M "P -1"
_symmetry_group_IT_number 2
_symmetry_cell_setting 'triclinic'
loop_
_space_group_symop_operation_xyz
x,y,z
-x,-y,-z
loop_
_atom_site_type_symbol
_atom_site_label
_atom_site_fract_x
_atom_site_fract_y
_atom_site_fract_z
Si Si1 0.828051 0.159569 0.669270
Si Si2 0.018889 0.630922 0.018897
Si Si3 0.596532 0.402939 0.705779
Si Si4 0.915552 0.419355 0.617588
Si Si5 0.132095 0.072691 0.053652
Si Si6 0.409236 0.827055 0.006096
Si Si7 0.500000 0.500000 0.500000
Si Si8 0.672320 0.889866 0.243573
O O1 0.881030 0.273460 0.907867
O O2 0.743562 0.241472 0.578181
O O3 0.000000 0.000000 0.500000
O O4 0.781824 0.943196 0.169385
O O5 0.093915 0.567965 0.142557
O O6 0.815124 0.761679 0.214113
O O7 0.006139 0.528059 0.732151
O O8 0.705186 0.463639 0.639618
O O9 0.437744 0.440188 0.619959
O O10 0.500000 0.500000 0.000000
O O11 0.032129 0.249536 0.333954
O O12 0.295202 0.970799 0.058073
O O13 0.000000 0.000000 0.000000
O O14 0.603245 0.806958 0.002297
O O15 0.324302 0.856173 0.243681
O O16 0.394328 0.681668 0.774496
O O17 0.500000 0.000000 0.500000
#
# Coordination Sequence:
#
# PCOD9041353 Si02
#       8
#     2   2   2   2   2   2   1   2
#     4  11  23  45  78 113 156 210 263 319 400 485
#     4  10  23  43  73 107 148 202 250 322 397 482
#     4  11  23  46  74 114 161 210 263 335 396 479
#     4  10  23  47  73 106 147 199 269 318 399 477
#     4  12  27  50  75 106 153 208 264 333 398 481
#     4  12  26  45  72 111 153 197 260 330 395 473
#     4  12  26  44  70 118 158 200 262 322 414 470
#     4  12  27  47  73 111 152 204 261 329 405 474
#
# _framework density 27.031825000000001
#
# number of rings (size 3 to 8) (size 9 to 14) (size 15 to 20)
#    0.000    0.800    1.333    6.000    0.000    5.867 
#    2.400    0.000    0.000    0.000    0.000    0.000 
#    0.000    0.000    0.000    0.000    0.000    0.000 
#
# Total GULP energy -83552.449841 kJ/mol
# GULP energy per Si atom -5570.163323 kJ/mol
# Density = 2.697030 g / cm^3
# Si number density = 27.031825 Si / 1000 Ang^3
#
#
#
# Elastic Constant Matrix: (Units=GPa)
#
#
# Indices 1 2 3 4 5 6 
#
# 1 92.7451 0.9869 46.4585 17.2002 16.2131 8.0515
# 2 0.9869 141.3147 24.4514 6.4877 -11.3385 9.3700
# 3 46.4585 24.4514 155.7037 23.6508 -2.6335 22.1248
# 4 17.2002 6.4877 23.6508 55.4781 4.9428 -9.4146
# 5 16.2131 -11.3385 -2.6335 4.9428 55.1705 -3.4239
# 6 8.0515 9.3700 22.1248 -9.4146 -3.4239 30.5067
#
#
#
# Elastic Compliance Matrix: (Units=1/GPa)
#
#
# Indices 1 2 3 4 5 6 
#
# 1 0.014036 0.000497 -0.003491 -0.003018 -0.004087 -0.002715
# 2 0.000497 0.007513 -0.000845 -0.001135 0.001334 -0.002026
# 3 -0.003491 -0.000845 0.009142 -0.003934 0.001236 -0.006525
# 4 -0.003018 -0.001135 -0.003934 0.022700 -0.000891 0.010904
# 5 -0.004087 0.001334 0.001236 -0.000891 0.019847 0.001725
# 6 -0.002715 -0.002026 -0.006525 0.010904 0.001725 0.042409
#
#
# Mechanical properties :
#
#
# Convention : Reuss Voigt Hill
#
# Bulk Modulus (GPa) = 43.45543 59.28411 51.36977
# Shear Modulus (GPa) = 38.16912 49.42218 43.79565
#
# Velocity S-wave (km/s) = 3.76174 4.28050 4.02948
# Velocity P-wave (km/s) = 5.91424 6.81242 6.37915
#
# Compressibility (1/GPa) = 0.02301208
#
# Stress axis : x y z
#
# Youngs Moduli (GPa) = 71.24773 133.10935 109.38173
#
# Poissons Ratio (x) = -0.06611 0.38182
# Poissons Ratio (y) = -0.03538 0.09244
# Poissons Ratio (z) = 0.24871 0.11249
#
# Static dielectric constant tensor:
#      x y z
#    x 1.851380 0.341500 -0.226370 
#    y 0.341500 2.022730 0.159850 
#    z -0.226370 0.159850 2.025390 
# 
# From -- ./inp_files/278609.got.cif
#   From: 2010.05.17/outbox.cif.g08.bks.cpg/sg2_140_cif.got.tgz:278609.got - 2010.06.03 11:33:40.
