data_PCOD9041907
_publ_section_title
;
Structure prediction by ZEFSAII (Michael W. Deem and Ramdas Pophale) SiO2 
 PCOD9041907
Probable space group: P -1
;
_chemical_formula_sum "Si O2"
_cell_formula_units_Z 15
_cell_length_a 7.251165
_cell_length_b 21.975629
_cell_length_c 7.318350
_cell_angle_alpha 138.574942
_cell_angle_beta 59.784434
_cell_angle_gamma 132.242802
_cell_volume 571.205766
_symmetry_space_group_name_H-M "P -1"
_symmetry_group_IT_number 2
_symmetry_cell_setting 'triclinic'
loop_
_space_group_symop_operation_xyz
x,y,z
-x,-y,-z
loop_
_atom_site_type_symbol
_atom_site_label
_atom_site_fract_x
_atom_site_fract_y
_atom_site_fract_z
Si Si1 0.683629 0.469713 0.950745
Si Si2 0.280011 0.329211 0.114201
Si Si3 0.668852 0.800895 0.743326
Si Si4 0.074909 0.314125 0.563912
Si Si5 0.642863 0.084779 0.281712
Si Si6 0.778625 0.896587 0.286199
Si Si7 0.000000 0.000000 0.000000
Si Si8 0.139477 0.623441 0.641044
O O1 0.763460 0.393902 0.641334
O O2 0.500000 0.500000 0.000000
O O3 0.534529 0.410022 0.071143
O O4 0.927518 0.586663 0.125595
O O5 0.260599 0.358995 0.399756
O O6 0.056722 0.338724 0.160699
O O7 0.239221 0.211556 0.877941
O O8 0.780364 0.727060 0.474771
O O9 0.755215 0.891356 0.755533
O O10 0.404338 0.725014 0.799472
O O11 0.826696 0.894069 0.035378
O O12 0.826003 0.206533 0.387689
O O13 0.462196 0.097290 0.538335
O O14 0.500000 0.000000 0.000000
O O15 0.815713 0.052286 0.232297
O O16 0.000000 0.000000 0.500000
O O17 0.000000 0.500000 0.500000
#
# Coordination Sequence:
#
# PCOD9041907 Si02
#       8
#     2   2   2   2   2   2   1   2
#     4  12  24  45  72 106 147 197 249 308 378 452
#     4  11  26  46  73 104 150 198 247 306 384 443
#     4  10  23  44  68 102 144 183 246 308 370 449
#     4  10  23  46  70 105 145 191 247 308 370 452
#     4  11  25  47  74 106 149 189 253 314 374 455
#     4  11  26  48  71 105 147 194 250 308 376 462
#     4  10  24  44  76 102 140 194 240 312 382 430
#     4  12  26  44  71 107 151 193 247 314 372 450
#
# _framework density 26.26024
#
# number of rings (size 3 to 8) (size 9 to 14) (size 15 to 20)
#    0.000    1.067    2.667    2.800    7.467    3.200 
#    2.400    0.000    0.000    0.000    0.000    0.000 
#    0.000    0.000    0.000    0.000    0.000    0.000 
#
# Total GULP energy -83702.418656 kJ/mol
# GULP energy per Si atom -5580.161244 kJ/mol
# Density = 2.620047 g / cm^3
# Si number density = 26.260240 Si / 1000 Ang^3
#
#
#
# Elastic Constant Matrix: (Units=GPa)
#
#
# Indices 1 2 3 4 5 6 
#
# 1 99.7568 37.4366 42.6627 14.1931 -33.3680 15.2617
# 2 37.4366 163.5302 53.7943 27.1787 -14.0433 10.5829
# 3 42.6627 53.7943 162.3487 11.5507 -14.4439 12.0828
# 4 14.1931 27.1787 11.5507 62.7000 14.5061 -5.3489
# 5 -33.3680 -14.0433 -14.4439 14.5061 43.4528 -2.6705
# 6 15.2617 10.5829 12.0828 -5.3489 -2.6705 40.8569
#
#
#
# Elastic Compliance Matrix: (Units=1/GPa)
#
#
# Indices 1 2 3 4 5 6 
#
# 1 0.018299 -0.000471 -0.002306 -0.007564 0.015288 -0.006022
# 2 -0.000471 0.007770 -0.001832 -0.003678 0.002670 -0.001602
# 3 -0.002306 -0.001832 0.007460 -0.000160 0.000116 -0.000884
# 4 -0.007564 -0.003678 -0.000160 0.023122 -0.014406 0.005911
# 5 0.015288 0.002670 0.000116 -0.014406 0.040114 -0.005701
# 6 -0.006022 -0.001602 -0.000884 0.005911 -0.005701 0.027803
#
#
# Mechanical properties :
#
#
# Convention : Reuss Voigt Hill
#
# Bulk Modulus (GPa) = 41.13480 77.04699 59.09090
# Shear Modulus (GPa) = 35.23871 48.85142 42.04506
#
# Velocity S-wave (km/s) = 3.66717 4.31778 4.00571
# Velocity P-wave (km/s) = 5.79907 7.36621 6.62911
#
# Compressibility (1/GPa) = 0.02431032
#
# Stress axis : x y z
#
# Youngs Moduli (GPa) = 54.64922 128.70160 134.04423
#
# Poissons Ratio (x) = 0.06058 0.30912
# Poissons Ratio (y) = 0.02572 0.24562
# Poissons Ratio (z) = 0.12603 0.23583
#
# Static dielectric constant tensor:
#      x y z
#    x 2.273620 -0.010110 0.122450 
#    y -0.010110 2.270210 0.043950 
#    z 0.122450 0.043950 2.070130 
# 
# From -- ./inp_files/227637.got.cif
#   From: 2010.05.17/outbox.cif.g08.bks.cpg/sg2_114_cif.got.tgz:227637.got - 2010.06.03 11:33:40.
