data_PCOD9041379
_publ_section_title
;
Structure prediction by ZEFSAII (Michael W. Deem and Ramdas Pophale) SiO2 
 PCOD9041379
Probable space group: P -1
;
_chemical_formula_sum "Si O2"
_cell_formula_units_Z 16
_cell_length_a 7.894220
_cell_length_b 5.940127
_cell_length_c 18.886773
_cell_angle_alpha 99.813350
_cell_angle_beta 100.788442
_cell_angle_gamma 122.625877
_cell_volume 692.184725
_symmetry_space_group_name_H-M "P -1"
_symmetry_group_IT_number 2
_symmetry_cell_setting 'triclinic'
loop_
_space_group_symop_operation_xyz
x,y,z
-x,-y,-z
loop_
_atom_site_type_symbol
_atom_site_label
_atom_site_fract_x
_atom_site_fract_y
_atom_site_fract_z
Si Si1 0.398726 0.345944 0.797933
Si Si2 0.384237 0.686669 0.446975
Si Si3 0.222062 0.891911 0.972500
Si Si4 0.276765 0.469791 0.040627
Si Si5 0.102085 0.804496 0.801854
Si Si6 0.792488 0.681455 0.457358
Si Si7 0.342960 0.727278 0.287128
Si Si8 0.646640 0.309961 0.287746
O O1 0.567827 0.397568 0.872168
O O2 0.455792 0.261274 0.724271
O O3 0.420476 0.614367 0.785482
O O4 0.166875 0.113322 0.801117
O O5 0.571760 0.649785 0.446343
O O6 0.217189 0.487106 0.483297
O O7 0.294164 0.668646 0.362195
O O8 0.500000 0.000000 0.500000
O O9 0.217664 0.839916 0.885906
O O10 0.974010 0.714180 0.968725
O O11 0.311240 0.731047 0.010349
O O12 0.306232 0.223878 0.004677
O O13 0.193511 0.745029 0.737972
O O14 0.860751 0.542423 0.779851
O O15 0.771207 0.537457 0.372624
O O16 0.000000 0.000000 0.500000
O O17 0.427223 0.042479 0.290018
#
# Coordination Sequence:
#
# PCOD9041379 Si02
#       8
#     2   2   2   2   2   2   2   2
#     4  11  25  45  67 101 139 181 227 292 345 417
#     4  11  24  44  68  96 130 183 226 273 351 413
#     4  10  23  44  70 106 136 193 241 288 364 433
#     4  10  23  43  73  99 145 186 239 300 356 425
#     4  11  27  42  70 102 133 183 233 280 359 419
#     4  11  26  43  67 101 137 175 229 287 344 417
#     4  11  24  46  68  95 140 178 230 284 344 422
#     4  11  26  44  65 102 139 176 228 289 349 415
#
# _framework density 23.115217000000001
#
# number of rings (size 3 to 8) (size 9 to 14) (size 15 to 20)
#    0.000    1.250    3.750    0.000    8.750    3.500 
#    0.000    0.000    0.000    0.000    0.000    0.000 
#    0.000    0.000    0.000    0.000    0.000    0.000 
#
# Total GULP energy -89175.973764 kJ/mol
# GULP energy per Si atom -5573.498360 kJ/mol
# Density = 2.306261 g / cm^3
# Si number density = 23.115217 Si / 1000 Ang^3
#
#
#
# Elastic Constant Matrix: (Units=GPa)
#
#
# Indices 1 2 3 4 5 6 
#
# 1 58.7850 30.3715 20.2262 -6.9752 -9.6855 1.6049
# 2 30.3715 183.8855 74.5637 -29.7094 15.1574 13.0096
# 3 20.2262 74.5637 137.5220 -24.5089 -7.7688 -2.0465
# 4 -6.9752 -29.7094 -24.5089 23.8913 -7.5600 -2.1514
# 5 -9.6855 15.1574 -7.7688 -7.5600 37.4657 4.6297
# 6 1.6049 13.0096 -2.0465 -2.1514 4.6297 27.9298
#
#
#
# Elastic Compliance Matrix: (Units=1/GPa)
#
#
# Indices 1 2 3 4 5 6 
#
# 1 0.020466 -0.003246 -0.000094 0.004162 0.007498 -0.000593
# 2 -0.003246 0.008772 -0.003713 0.004655 -0.003826 -0.003179
# 3 -0.000094 -0.003713 0.011182 0.008704 0.005262 0.002352
# 4 0.004162 0.004655 0.008704 0.062110 0.013433 0.000788
# 5 0.007498 -0.003826 0.005262 0.013433 0.034340 -0.002921
# 6 -0.000593 -0.003179 0.002352 0.000788 -0.002921 0.038036
#
#
# Mechanical properties :
#
#
# Convention : Reuss Voigt Hill
#
# Bulk Modulus (GPa) = 38.00096 70.05727 54.02911
# Shear Modulus (GPa) = 25.28045 34.85942 30.06993
#
# Velocity S-wave (km/s) = 3.31066 3.88760 3.61067
# Velocity P-wave (km/s) = 5.57579 7.10809 6.38805
#
# Compressibility (1/GPa) = 0.02631513
#
# Stress axis : x y z
#
# Youngs Moduli (GPa) = 48.86224 113.99860 89.43231
#
# Poissons Ratio (x) = 0.37003 0.00838
# Poissons Ratio (y) = 0.15860 0.33202
# Poissons Ratio (z) = 0.00458 0.42322
#
# Static dielectric constant tensor:
#      x y z
#    x 2.020260 -0.116090 -0.040570 
#    y -0.116090 2.079190 0.031310 
#    z -0.040570 0.031310 1.865070 
# 
# From -- ./inp_files/323196.got.cif
#   From: 2010.05.17/outbox.cif.g08.bks.cpg/sg2_162_cif.got.tgz:323196.got - 2010.06.03 11:33:40.
