data_PCOD9041143
_publ_section_title
;
Structure prediction by ZEFSAII (Michael W. Deem and Ramdas Pophale) SiO2 
 PCOD9041143
Probable space group: P -1
;
_chemical_formula_sum "Si O2"
_cell_formula_units_Z 16
_cell_length_a 12.086428
_cell_length_b 9.309558
_cell_length_c 11.750226
_cell_angle_alpha 48.944377
_cell_angle_beta 115.514669
_cell_angle_gamma 76.270682
_cell_volume 580.036167
_symmetry_space_group_name_H-M "P -1"
_symmetry_group_IT_number 2
_symmetry_cell_setting 'triclinic'
loop_
_space_group_symop_operation_xyz
x,y,z
-x,-y,-z
loop_
_atom_site_type_symbol
_atom_site_label
_atom_site_fract_x
_atom_site_fract_y
_atom_site_fract_z
Si Si1 0.147961 0.128268 0.005521
Si Si2 0.385607 0.933090 0.674819
Si Si3 0.946926 0.382679 0.432097
Si Si4 0.156112 0.448289 0.161211
Si Si5 0.875452 0.105567 0.097537
Si Si6 0.699986 0.337487 0.251881
Si Si7 0.360420 0.236944 0.717274
Si Si8 0.319993 0.698060 0.485509
O O1 0.126328 0.352550 0.813037
O O2 0.948966 0.369329 0.861681
O O3 0.169856 0.931538 0.026264
O O4 0.307183 0.895496 0.294918
O O5 0.222374 0.962648 0.590351
O O6 0.337008 0.105967 0.450644
O O7 0.374825 0.092521 0.689552
O O8 0.567493 0.592081 0.966516
O O9 0.138411 0.052980 0.737537
O O10 0.848462 0.321972 0.356455
O O11 0.843212 0.541346 0.427022
O O12 0.000000 0.500000 0.000000
O O13 0.216543 0.583215 0.070460
O O14 0.096236 0.912736 0.290469
O O15 0.603469 0.397302 0.301694
O O16 0.402023 0.407709 0.619034
O O17 0.500000 0.000000 0.000000
#
# Coordination Sequence:
#
# PCOD9041143 Si02
#       8
#     2   2   2   2   2   2   2   2
#     4  11  20  34  56  80 113 147 172 226 283 314
#     4  11  18  33  60  81 103 140 191 224 257 320
#     4  10  20  36  54  80 114 141 176 227 280 318
#     4  11  21  35  58  85 107 142 191 221 260 323
#     4   9  18  34  53  78 109 146 183 215 266 330
#     4   9  20  35  56  79 104 145 183 220 273 320
#     4  10  17  33  57  82 103 135 189 219 256 318
#     4   9  17  33  53  79 107 138 183 223 259 322
#
# _framework density 27.584486999999999
#
# number of rings (size 3 to 8) (size 9 to 14) (size 15 to 20)
#    0.000    2.250    2.500    6.375    0.000    0.000 
#    0.000    4.375    0.000    6.750    0.000    0.000 
#    0.000    0.000    0.000    0.000    0.000    0.000 
#
# Total GULP energy -89295.187803 kJ/mol
# GULP energy per Si atom -5580.949238 kJ/mol
# Density = 2.752170 g / cm^3
# Si number density = 27.584487 Si / 1000 Ang^3
#
#
#
# Elastic Constant Matrix: (Units=GPa)
#
#
# Indices 1 2 3 4 5 6 
#
# 1 63.4011 23.5363 33.3880 2.6662 -23.3226 -6.8629
# 2 23.5363 135.4254 60.7765 9.8879 -20.5797 31.4501
# 3 33.3880 60.7765 245.8912 -1.6104 -35.0768 19.3464
# 4 2.6662 9.8879 -1.6104 48.9263 11.1297 -3.8995
# 5 -23.3226 -20.5797 -35.0768 11.1297 40.4711 3.1344
# 6 -6.8629 31.4501 19.3464 -3.8995 3.1344 31.4409
#
#
#
# Elastic Compliance Matrix: (Units=1/GPa)
#
#
# Indices 1 2 3 4 5 6 
#
# 1 0.022392 -0.003428 -0.001415 -0.002200 0.009926 0.007925
# 2 -0.003428 0.013100 -0.000701 -0.005168 0.006640 -0.014724
# 3 -0.001415 -0.000701 0.005232 -0.000742 0.003823 -0.003301
# 4 -0.002200 -0.005168 -0.000742 0.025104 -0.012176 0.009473
# 5 0.009926 0.006640 0.003823 -0.012176 0.041433 -0.012469
# 6 0.007925 -0.014724 -0.003301 0.009473 -0.012469 0.052713
#
#
# Mechanical properties :
#
#
# Convention : Reuss Voigt Hill
#
# Bulk Modulus (GPa) = 33.74179 75.56880 54.65530
# Shear Modulus (GPa) = 27.63342 45.96878 36.80110
#
# Velocity S-wave (km/s) = 3.16852 4.08667 3.65653
# Velocity P-wave (km/s) = 5.06406 7.05144 6.13871
#
# Compressibility (1/GPa) = 0.02963683
#
# Stress axis : x y z
#
# Youngs Moduli (GPa) = 44.65871 76.33519 191.11937
#
# Poissons Ratio (x) = 0.26168 0.27048
# Poissons Ratio (y) = 0.15309 0.13390
# Poissons Ratio (z) = 0.06320 0.05348
#
# Static dielectric constant tensor:
#      x y z
#    x 2.376220 0.015570 0.016520 
#    y 0.015570 2.265500 -0.030580 
#    z 0.016520 -0.030580 2.231410 
# 
# From -- ./inp_files/461020.got.cif
#   From: 2010.05.17/outbox.cif.g08.bks.cpg/sg2_231_cif.got.tgz:461020.got - 2010.06.03 11:33:40.
