data_PCOD9041401
_publ_section_title
;
Structure prediction by ZEFSAII (Michael W. Deem and Ramdas Pophale) SiO2 
 PCOD9041401
Probable space group: P -1
;
_chemical_formula_sum "Si O2"
_cell_formula_units_Z 14
_cell_length_a 5.207435
_cell_length_b 13.390185
_cell_length_c 8.420061
_cell_angle_alpha 94.626683
_cell_angle_beta 74.202916
_cell_angle_gamma 72.585494
_cell_volume 530.577598
_symmetry_space_group_name_H-M "P -1"
_symmetry_group_IT_number 2
_symmetry_cell_setting 'triclinic'
loop_
_space_group_symop_operation_xyz
x,y,z
-x,-y,-z
loop_
_atom_site_type_symbol
_atom_site_label
_atom_site_fract_x
_atom_site_fract_y
_atom_site_fract_z
Si Si1 0.074088 0.230889 0.753831
Si Si2 0.724350 0.972006 0.606698
Si Si3 0.779144 0.079688 0.929650
Si Si4 0.306173 0.428508 0.497475
Si Si5 0.683458 0.760702 0.739036
Si Si6 0.470217 0.698765 0.271461
Si Si7 0.102417 0.380940 0.035777
O O1 0.412793 0.205871 0.688640
O O2 0.994412 0.309965 0.926389
O O3 0.966208 0.136294 0.807783
O O4 0.854772 0.287112 0.657533
O O5 0.500000 0.000000 0.500000
O O6 0.658325 0.023456 0.803228
O O7 0.000000 0.000000 0.500000
O O8 0.543435 0.163100 0.089451
O O9 0.000000 0.000000 0.000000
O O10 0.500000 0.500000 0.500000
O O11 0.423176 0.318773 0.363033
O O12 0.309430 0.387884 0.669330
O O13 0.000000 0.500000 0.500000
O O14 0.771173 0.847305 0.630418
O O15 0.912464 0.668984 0.795836
O O16 0.564613 0.660667 0.073150
O O17 0.000000 0.500000 0.000000
#
# Coordination Sequence:
#
# PCOD9041401 Si02
#       7
#     2   2   2   2   2   2   2
#     4  10  23  43  74 105 151 204 258 330 412 473
#     4  12  31  53  84 123 168 227 283 348 440 506
#     4  12  26  52  87 121 168 218 293 359 426 505
#     4  12  29  51  80 117 169 219 277 343 427 512
#     4  12  28  52  84 125 169 220 289 356 418 509
#     4  10  23  44  71 103 156 201 261 323 415 472
#     4  10  23  43  74 112 153 203 266 335 411 489
#
# _framework density 26.386339
#
# number of rings (size 3 to 8) (size 9 to 14) (size 15 to 20)
#    0.857    0.000    1.429    3.857    6.000    7.429 
#    0.000    0.000    0.000    0.000    0.000    0.000 
#    0.000    0.000    0.000    0.000    0.000    0.000 
#
# Total GULP energy -77975.822867 kJ/mol
# GULP energy per Si atom -5569.701633 kJ/mol
# Density = 2.632628 g / cm^3
# Si number density = 26.386339 Si / 1000 Ang^3
#
#
#
# Elastic Constant Matrix: (Units=GPa)
#
#
# Indices 1 2 3 4 5 6 
#
# 1 155.3966 42.4283 47.6429 4.7676 30.9764 -4.4296
# 2 42.4283 194.4352 64.7235 -15.5789 28.1311 -1.6730
# 3 47.6429 64.7235 159.3539 23.0648 17.8554 -3.1108
# 4 4.7676 -15.5789 23.0648 62.6531 -5.8609 21.1240
# 5 30.9764 28.1311 17.8554 -5.8609 45.1095 0.7928
# 6 -4.4296 -1.6730 -3.1108 21.1240 0.7928 49.9408
#
#
#
# Elastic Compliance Matrix: (Units=1/GPa)
#
#
# Indices 1 2 3 4 5 6 
#
# 1 0.008063 -0.000679 -0.001429 -0.001079 -0.004707 0.001135
# 2 -0.000679 0.006753 -0.002735 0.002934 -0.002260 -0.001210
# 3 -0.001429 -0.002735 0.008695 -0.004689 -0.001405 0.002329
# 4 -0.001079 0.002934 -0.004689 0.022129 0.003813 -0.009710
# 5 -0.004707 -0.002260 -0.001405 0.003813 0.027908 -0.002637
# 6 0.001135 -0.001210 0.002329 -0.009710 -0.002637 0.024378
#
#
# Mechanical properties :
#
#
# Convention : Reuss Voigt Hill
#
# Bulk Modulus (GPa) = 72.33410 90.97502 81.65456
# Shear Modulus (GPa) = 44.55505 55.16676 49.86091
#
# Velocity S-wave (km/s) = 4.11367 4.57741 4.35172
# Velocity P-wave (km/s) = 7.07362 7.90505 7.50086
#
# Compressibility (1/GPa) = 0.01382474
#
# Stress axis : x y z
#
# Youngs Moduli (GPa) = 124.03095 148.07291 115.01015
#
# Poissons Ratio (x) = 0.10060 0.16431
# Poissons Ratio (y) = 0.08427 0.31455
# Poissons Ratio (z) = 0.17720 0.40497
#
# Static dielectric constant tensor:
#      x y z
#    x 2.162630 -0.104540 -0.038970 
#    y -0.104540 2.574910 0.007570 
#    z -0.038970 0.007570 2.147330 
# 
# From -- ./inp_files/134463.got.cif
#   From: 2010.05.17/outbox.cif.g08.bks.cpg/sg2_68_cif.got.tgz:134463.got - 2010.06.03 11:33:40.
