data_PCOD9041799
_publ_section_title
;
Structure prediction by ZEFSAII (Michael W. Deem and Ramdas Pophale) SiO2 
 PCOD9041799
Probable space group: P -1
;
_chemical_formula_sum "Si O2"
_cell_formula_units_Z 16
_cell_length_a 9.733410
_cell_length_b 6.985374
_cell_length_c 15.909417
_cell_angle_alpha 103.692401
_cell_angle_beta 97.180407
_cell_angle_gamma 45.307085
_cell_volume 745.767001
_symmetry_space_group_name_H-M "P -1"
_symmetry_group_IT_number 2
_symmetry_cell_setting 'triclinic'
loop_
_space_group_symop_operation_xyz
x,y,z
-x,-y,-z
loop_
_atom_site_type_symbol
_atom_site_label
_atom_site_fract_x
_atom_site_fract_y
_atom_site_fract_z
Si Si1 0.324206 0.894300 0.826720
Si Si2 0.211021 0.943458 0.317253
Si Si3 0.630733 0.820089 0.571869
Si Si4 0.660375 0.316393 0.882525
Si Si5 0.118786 0.739325 0.543675
Si Si6 0.456839 0.636281 0.635457
Si Si7 0.571446 0.979784 0.908564
Si Si8 0.922298 0.401558 0.924636
O O1 0.468140 0.621063 0.867334
O O2 0.332127 0.795617 0.725677
O O3 0.413718 0.026300 0.844773
O O4 0.110515 0.121603 0.868953
O O5 0.226674 0.865662 0.212861
O O6 0.343074 0.658637 0.349682
O O7 0.314552 0.048199 0.353761
O O8 0.003797 0.159106 0.369480
O O9 0.826906 0.519132 0.523548
O O10 0.507221 0.790382 0.612988
O O11 0.500000 0.000000 0.500000
O O12 0.794073 0.345361 0.943068
O O13 0.604889 0.175898 0.914750
O O14 0.327635 0.627808 0.566036
O O15 0.000000 0.000000 0.500000
O O16 0.773317 0.662337 0.878722
O O17 0.500000 0.000000 0.000000
O O18 0.000000 0.500000 0.000000
#
# Coordination Sequence:
#
# PCOD9041799 Si02
#       8
#     2   2   2   2   2   2   2   2
#     4  10  23  44  67  92 132 176 219 266 332 393
#     4  11  23  44  64  96 132 172 223 269 325 391
#     4  12  23  41  66  93 130 172 223 269 324 385
#     4  10  25  43  69  94 132 178 218 269 333 391
#     4  12  23  41  68  95 132 175 219 270 328 380
#     4  11  23  43  64  92 135 173 213 278 327 379
#     4  11  23  45  66  99 132 166 218 274 326 389
#     4  11  23  44  66 101 131 165 218 270 323 399
#
# _framework density 21.454422999999998
#
# number of rings (size 3 to 8) (size 9 to 14) (size 15 to 20)
#    0.000    1.000    3.750    3.000    0.000    3.500 
#    4.500    0.000    0.000    0.000    0.000    0.000 
#    0.000    0.000    0.000    0.000    0.000    0.000 
#
# Total GULP energy -89447.076351 kJ/mol
# GULP energy per Si atom -5590.442272 kJ/mol
# Density = 2.140559 g / cm^3
# Si number density = 21.454423 Si / 1000 Ang^3
#
#
#
# Elastic Constant Matrix: (Units=GPa)
#
#
# Indices 1 2 3 4 5 6 
#
# 1 127.8199 35.0088 11.4796 -7.5984 1.1709 21.5179
# 2 35.0088 93.9756 20.3345 14.6438 -18.9742 11.0647
# 3 11.4796 20.3345 64.7295 10.5045 -2.8140 0.3612
# 4 -7.5984 14.6438 10.5045 31.2047 -2.9519 -7.6898
# 5 1.1709 -18.9742 -2.8140 -2.9519 41.7232 9.3532
# 6 21.5179 11.0647 0.3612 -7.6898 9.3532 44.5665
#
#
#
# Elastic Compliance Matrix: (Units=1/GPa)
#
#
# Indices 1 2 3 4 5 6 
#
# 1 0.009691 -0.003859 -0.001152 0.003751 -0.001209 -0.002811
# 2 -0.003859 0.016118 -0.002690 -0.008129 0.007840 -0.005165
# 3 -0.001152 -0.002690 0.017253 -0.004781 -0.000445 0.000353
# 4 0.003751 -0.008129 -0.004781 0.040016 -0.003039 0.007788
# 5 -0.001209 0.007840 -0.000445 -0.003039 0.029113 -0.007994
# 6 -0.002811 -0.005165 0.000353 0.007788 -0.007994 0.028096
#
#
# Mechanical properties :
#
#
# Convention : Reuss Voigt Hill
#
# Bulk Modulus (GPa) = 36.15313 46.68565 41.41939
# Shear Modulus (GPa) = 30.31947 38.14570 34.23258
#
# Velocity S-wave (km/s) = 3.76334 4.22119 3.99882
# Velocity P-wave (km/s) = 5.98091 6.75023 6.37718
#
# Compressibility (1/GPa) = 0.02766013
#
# Stress axis : x y z
#
# Youngs Moduli (GPa) = 103.18754 62.04113 57.96097
#
# Poissons Ratio (x) = 0.23939 0.06678
# Poissons Ratio (y) = 0.39816 0.15593
# Poissons Ratio (z) = 0.11889 0.16691
#
# Static dielectric constant tensor:
#      x y z
#    x 1.799550 -0.079580 0.071810 
#    y -0.079580 2.000160 -0.174590 
#    z 0.071810 -0.174590 1.968410 
# 
# From -- ./inp_files/47299.got.cif
#   From: 2010.05.17/outbox.cif.g08.bks.cpg/sg2_24_cif.got.tgz:47299.got - 2010.06.03 11:33:40.
