data_PCOD9041070
_publ_section_title
;
Structure prediction by ZEFSAII (Michael W. Deem and Ramdas Pophale) SiO2 
 PCOD9041070
Probable space group: P -1
;
_chemical_formula_sum "Si O2"
_cell_formula_units_Z 16
_cell_length_a 12.501882
_cell_length_b 15.663421
_cell_length_c 13.986670
_cell_angle_alpha 28.286581
_cell_angle_beta 127.153108
_cell_angle_gamma 145.766891
_cell_volume 646.241556
_symmetry_space_group_name_H-M "P -1"
_symmetry_group_IT_number 2
_symmetry_cell_setting 'triclinic'
loop_
_space_group_symop_operation_xyz
x,y,z
-x,-y,-z
loop_
_atom_site_type_symbol
_atom_site_label
_atom_site_fract_x
_atom_site_fract_y
_atom_site_fract_z
Si Si1 0.357923 0.717531 0.408496
Si Si2 0.780876 0.958637 0.193456
Si Si3 0.002544 0.138548 0.690564
Si Si4 0.375272 0.336040 0.393446
Si Si5 0.781955 0.368418 0.216238
Si Si6 0.592752 0.266527 0.906907
Si Si7 0.315410 0.947537 0.328861
Si Si8 0.909596 0.145314 0.431628
O O1 0.176286 0.477673 0.470223
O O2 0.441964 0.612087 0.591989
O O3 0.285561 0.782167 0.386299
O O4 0.551182 0.023704 0.159884
O O5 0.860295 0.898992 0.213809
O O6 0.684763 0.761819 0.430327
O O7 0.590345 0.878343 0.125887
O O8 0.996604 0.292329 0.006603
O O9 0.876522 0.018225 0.641138
O O10 0.821057 0.010718 0.793816
O O11 0.436998 0.608911 0.151917
O O12 0.172853 0.067524 0.485836
O O13 0.764854 0.257607 0.420854
O O14 0.788455 0.208016 0.304474
O O15 0.563802 0.244021 0.197630
O O16 0.839065 0.547391 0.736041
#
# Coordination Sequence:
#
# PCOD9041070 Si02
#       8
#     2   2   2   2   2   2   2   2
#     4  12  25  45  72  99 138 181 224 277 342 399
#     4  12  25  44  67 103 138 176 229 275 341 405
#     4  11  24  44  69  95 141 180 222 285 330 393
#     4  12  25  44  70 103 142 172 224 283 335 414
#     4  10  23  43  70  97 133 179 227 280 335 397
#     4  12  25  43  68 105 138 179 219 276 344 406
#     4  10  23  46  67  96 132 180 231 277 331 396
#     4  11  23  43  67 100 136 178 219 279 341 398
#
# _framework density 24.758545000000002
#
# number of rings (size 3 to 8) (size 9 to 14) (size 15 to 20)
#    0.000    0.750    3.750    4.125    1.750    3.000 
#    2.250    1.250    0.000    0.000    0.000    0.000 
#    0.000    0.000    0.000    0.000    0.000    0.000 
#
# Total GULP energy -89489.991215 kJ/mol
# GULP energy per Si atom -5593.124451 kJ/mol
# Density = 2.470219 g / cm^3
# Si number density = 24.758545 Si / 1000 Ang^3
#
#
#
# Elastic Constant Matrix: (Units=GPa)
#
#
# Indices 1 2 3 4 5 6 
#
# 1 125.1350 16.3219 -14.2394 0.2600 18.4028 -4.5299
# 2 16.3219 82.7838 9.4775 -20.6589 -0.7208 -11.8555
# 3 -14.2394 9.4775 46.5150 -13.1680 11.1169 -7.3638
# 4 0.2600 -20.6589 -13.1680 30.5148 -4.5008 2.8636
# 5 18.4028 -0.7208 11.1169 -4.5008 26.4615 -9.5265
# 6 -4.5299 -11.8555 -7.3638 2.8636 -9.5265 41.8756
#
#
#
# Elastic Compliance Matrix: (Units=1/GPa)
#
#
# Indices 1 2 3 4 5 6 
#
# 1 0.010618 -0.003327 0.005932 -0.001241 -0.010563 -0.001068
# 2 -0.003327 0.016445 -0.002294 0.010796 0.007295 0.004814
# 3 0.005932 -0.002294 0.030099 0.009077 -0.014824 0.001292
# 4 -0.001241 0.010796 0.009077 0.044620 0.005948 0.002820
# 5 -0.010563 0.007295 -0.014824 0.005948 0.056445 0.010750
# 6 -0.001068 0.004814 0.001292 0.002820 0.010750 0.027607
#
#
# Mechanical properties :
#
#
# Convention : Reuss Voigt Hill
#
# Bulk Modulus (GPa) = 17.30591 30.83931 24.07261
# Shear Modulus (GPa) = 24.45289 35.96197 30.20743
#
# Velocity S-wave (km/s) = 3.14611 3.81531 3.49676
# Velocity P-wave (km/s) = 4.49470 5.64729 5.10364
#
# Compressibility (1/GPa) = 0.05778372
#
# Stress axis : x y z
#
# Youngs Moduli (GPa) = 94.18258 60.80698 33.22362
#
# Poissons Ratio (x) = 0.20231 -0.19709
# Poissons Ratio (y) = 0.31336 0.07623
# Poissons Ratio (z) = -0.55872 0.13952
#
# Static dielectric constant tensor:
#      x y z
#    x 2.051690 0.023760 -0.014490 
#    y 0.023760 1.943940 0.029340 
#    z -0.014490 0.029340 1.929700 
# 
# From -- ./inp_files/209230.got.cif
#   From: 2010.05.17/outbox.cif.g08.bks.cpg/sg2_105_cif.got.tgz:209230.got - 2010.06.03 11:33:40.
