data_PCOD9041072
_publ_section_title
;
Structure prediction by ZEFSAII (Michael W. Deem and Ramdas Pophale) SiO2 
 PCOD9041072
Probable space group: P -1
;
_chemical_formula_sum "Si O2"
_cell_formula_units_Z 14
_cell_length_a 8.645693
_cell_length_b 13.777098
_cell_length_c 8.069038
_cell_angle_alpha 134.009131
_cell_angle_beta 94.210426
_cell_angle_gamma 59.242164
_cell_volume 528.647195
_symmetry_space_group_name_H-M "P -1"
_symmetry_group_IT_number 2
_symmetry_cell_setting 'triclinic'
loop_
_space_group_symop_operation_xyz
x,y,z
-x,-y,-z
loop_
_atom_site_type_symbol
_atom_site_label
_atom_site_fract_x
_atom_site_fract_y
_atom_site_fract_z
Si Si1 0.237019 0.346612 0.859776
Si Si2 0.521012 0.197038 0.001867
Si Si3 0.220160 0.626784 0.279299
Si Si4 0.812170 0.927356 0.464695
Si Si5 0.966371 0.356392 0.356839
Si Si6 0.556201 0.611747 0.462782
Si Si7 0.371977 0.998936 0.827663
O O1 0.319775 0.296991 0.994715
O O2 0.267888 0.176871 0.603391
O O3 0.306484 0.460706 0.966945
O O4 0.000000 0.500000 0.000000
O O5 0.506204 0.060173 0.925299
O O6 0.704054 0.096735 0.770996
O O7 0.523331 0.318246 0.270952
O O8 0.101694 0.642639 0.458578
O O9 0.404042 0.606348 0.342815
O O10 0.049955 0.798080 0.362652
O O11 0.726961 0.978976 0.335164
O O12 0.783386 0.435670 0.305006
O O13 0.000000 0.500000 0.500000
O O14 0.162514 0.155967 0.093970
O O15 0.520926 0.785813 0.604806
#
# Coordination Sequence:
#
# PCOD9041072 Si02
#       7
#     2   2   2   2   2   2   2
#     4   9  18  37  63  93 127 167 226 272 320 399
#     4  11  21  42  69 100 133 181 230 283 338 410
#     4  11  24  45  68 101 139 178 229 284 342 414
#     4  10  23  43  70  97 134 187 230 277 342 409
#     4  12  24  44  72 102 136 181 229 288 339 408
#     4  12  26  44  70 106 141 177 227 287 352 401
#     4  11  24  44  66 102 141 177 236 283 335 409
#
# _framework density 26.482689000000001
#
# number of rings (size 3 to 8) (size 9 to 14) (size 15 to 20)
#    0.000    1.143    2.857    4.286    2.000    2.857 
#    7.714    0.714    0.000    0.000    0.000    0.000 
#    0.000    0.000    0.000    0.000    0.000    0.000 
#
# Total GULP energy -78128.196400 kJ/mol
# GULP energy per Si atom -5580.585457 kJ/mol
# Density = 2.642241 g / cm^3
# Si number density = 26.482689 Si / 1000 Ang^3
#
#
#
# Elastic Constant Matrix: (Units=GPa)
#
#
# Indices 1 2 3 4 5 6 
#
# 1 93.4248 21.9977 20.0055 -10.6195 14.2888 -29.8516
# 2 21.9977 125.0719 -5.2497 22.6126 -17.1280 -38.3484
# 3 20.0055 -5.2497 84.3072 13.3032 -12.5331 -28.0198
# 4 -10.6195 22.6126 13.3032 31.3683 -10.4497 -2.5697
# 5 14.2888 -17.1280 -12.5331 -10.4497 42.1208 -17.2285
# 6 -29.8516 -38.3484 -28.0198 -2.5697 -17.2285 56.0291
#
#
#
# Elastic Compliance Matrix: (Units=1/GPa)
#
#
# Indices 1 2 3 4 5 6 
#
# 1 0.015934 -0.007489 -0.008525 0.010915 -0.009657 -0.003368
# 2 -0.007489 0.029957 0.024143 -0.020585 0.032150 0.037529
# 3 -0.008525 0.024143 0.037431 -0.021117 0.035196 0.040556
# 4 0.010915 -0.020585 -0.021117 0.053159 -0.013584 -0.020573
# 5 -0.009657 0.032150 0.035196 -0.013584 0.069814 0.055305
# 6 -0.003368 0.037529 0.040556 -0.020573 0.055305 0.078084
#
#
# Mechanical properties :
#
#
# Convention : Reuss Voigt Hill
#
# Bulk Modulus (GPa) = 10.04212 41.81233 25.92722
# Shear Modulus (GPa) = 16.59395 43.64034 30.11714
#
# Velocity S-wave (km/s) = 2.50591 4.06381 3.37596
# Velocity P-wave (km/s) = 3.48897 6.15161 5.00076
#
# Compressibility (1/GPa) = 0.09958061
#
# Stress axis : x y z
#
# Youngs Moduli (GPa) = 62.75854 33.38080 26.71592
#
# Poissons Ratio (x) = 0.24999 0.22775
# Poissons Ratio (y) = 0.47000 -0.64501
# Poissons Ratio (z) = 0.53501 -0.80592
#
# Static dielectric constant tensor:
#      x y z
#    x 2.123990 0.221700 -0.037540 
#    y 0.221700 2.377390 -0.061750 
#    z -0.037540 -0.061750 2.137440 
# 
# From -- ./inp_files/209415.got.cif
#   From: 2010.05.17/outbox.cif.g08.bks.cpg/sg2_105_cif.got.tgz:209415.got - 2010.06.03 11:33:40.
