data_PCOD9041457
_publ_section_title
;
Structure prediction by ZEFSAII (Michael W. Deem and Ramdas Pophale) SiO2 
 PCOD9041457
Probable space group: P -1
;
_chemical_formula_sum "Si O2"
_cell_formula_units_Z 16
_cell_length_a 5.281696
_cell_length_b 15.932966
_cell_length_c 9.235858
_cell_angle_alpha 82.157788
_cell_angle_beta 78.653116
_cell_angle_gamma 116.886032
_cell_volume 656.694850
_symmetry_space_group_name_H-M "P -1"
_symmetry_group_IT_number 2
_symmetry_cell_setting 'triclinic'
loop_
_space_group_symop_operation_xyz
x,y,z
-x,-y,-z
loop_
_atom_site_type_symbol
_atom_site_label
_atom_site_fract_x
_atom_site_fract_y
_atom_site_fract_z
Si Si1 0.543381 0.489619 0.747585
Si Si2 0.226564 0.982884 0.128502
Si Si3 0.205970 0.317325 0.486815
Si Si4 0.231146 0.171752 0.992854
Si Si5 0.922712 0.584208 0.964883
Si Si6 0.322982 0.027883 0.405577
Si Si7 0.637204 0.321231 0.681345
Si Si8 0.128761 0.769287 0.756750
O O1 0.701983 0.550251 0.860082
O O2 0.696706 0.429743 0.686072
O O3 0.567248 0.570774 0.614855
O O4 0.225012 0.411252 0.868303
O O5 0.275464 0.961205 0.288224
O O6 0.240469 0.086959 0.105206
O O7 0.946995 0.895413 0.108186
O O8 0.500000 0.000000 0.000000
O O9 0.927351 0.317649 0.597840
O O10 0.059014 0.259342 0.366178
O O11 0.392053 0.288129 0.584361
O O12 0.508647 0.259213 0.859445
O O13 0.051607 0.207709 0.105372
O O14 0.174004 0.685315 0.848775
O O15 0.000000 0.500000 0.000000
O O16 0.549046 0.140776 0.327231
O O17 0.500000 0.000000 0.500000
O O18 0.000000 0.000000 0.500000
#
# Coordination Sequence:
#
# PCOD9041457 Si02
#       8
#     2   2   2   2   2   2   2   2
#     4  10  23  45  68 107 151 200 250 307 379 440
#     4  11  26  49  75 107 146 191 255 312 382 450
#     4  11  29  44  74 110 159 192 251 313 381 452
#     4  11  26  48  77 106 148 196 254 317 370 456
#     4  10  23  43  76 110 151 198 259 316 365 453
#     4  12  29  49  78 110 156 201 246 318 392 458
#     4  12  27  47  75 111 147 204 250 313 377 450
#     4  11  25  52  73 114 146 204 257 308 385 459
#
# _framework density 24.364433999999999
#
# number of rings (size 3 to 8) (size 9 to 14) (size 15 to 20)
#    0.000    1.000    2.500    1.500   12.250    2.000 
#    4.500    0.000    0.000    0.000    0.000    0.000 
#    0.000    0.000    0.000    0.000    0.000    0.000 
#
# Total GULP energy -89452.703187 kJ/mol
# GULP energy per Si atom -5590.793949 kJ/mol
# Density = 2.430898 g / cm^3
# Si number density = 24.364434 Si / 1000 Ang^3
#
#
#
# Elastic Constant Matrix: (Units=GPa)
#
#
# Indices 1 2 3 4 5 6 
#
# 1 83.3829 2.3238 51.4808 6.1264 -8.4223 6.5665
# 2 2.3238 73.4538 32.4243 -5.7636 -13.6762 9.6651
# 3 51.4808 32.4243 138.3346 10.0072 -8.9819 13.3582
# 4 6.1264 -5.7636 10.0072 36.7495 19.3808 -9.3490
# 5 -8.4223 -13.6762 -8.9819 19.3808 40.2512 5.9258
# 6 6.5665 9.6651 13.3582 -9.3490 5.9258 33.9604
#
#
#
# Elastic Compliance Matrix: (Units=1/GPa)
#
#
# Indices 1 2 3 4 5 6 
#
# 1 0.016944 0.003478 -0.005850 -0.005395 0.006699 -0.004619
# 2 0.003478 0.017361 -0.004119 -0.002318 0.007703 -0.005976
# 3 -0.005850 -0.004119 0.011396 -0.005563 0.003227 -0.004274
# 4 -0.005395 -0.002318 -0.005563 0.052021 -0.031701 0.023744
# 5 0.006699 0.007703 0.003227 -0.031701 0.048067 -0.021872
# 6 -0.004619 -0.005976 -0.004274 0.023744 -0.021872 0.044074
#
#
# Mechanical properties :
#
#
# Convention : Reuss Voigt Hill
#
# Bulk Modulus (GPa) = 30.56204 51.95880 41.26042
# Shear Modulus (GPa) = 23.39178 36.12171 29.75675
#
# Velocity S-wave (km/s) = 3.10188 3.85458 3.49853
# Velocity P-wave (km/s) = 5.03982 6.41735 5.76984
#
# Compressibility (1/GPa) = 0.03272033
#
# Stress axis : x y z
#
# Youngs Moduli (GPa) = 59.01652 57.60148 87.75087
#
# Poissons Ratio (x) = -0.20034 0.51332
# Poissons Ratio (y) = -0.20526 0.36141
# Poissons Ratio (z) = 0.34523 0.23724
#
# Static dielectric constant tensor:
#      x y z
#    x 1.928900 -0.016190 0.071540 
#    y -0.016190 1.812690 0.048870 
#    z 0.071540 0.048870 1.867750 
# 
# From -- ./inp_files/135128.got.cif
#   From: 2010.05.17/outbox.cif.g08.bks.cpg/sg2_68_cif.got.tgz:135128.got - 2010.06.03 11:33:40.
