data_PCOD9041904
_publ_section_title
;
Structure prediction by ZEFSAII (Michael W. Deem and Ramdas Pophale) SiO2 
 PCOD9041904
Probable space group: P -1
;
_chemical_formula_sum "Si O2"
_cell_formula_units_Z 14
_cell_length_a 18.697932
_cell_length_b 9.815554
_cell_length_c 8.313422
_cell_angle_alpha 131.767800
_cell_angle_beta 145.449351
_cell_angle_gamma 51.477562
_cell_volume 635.390443
_symmetry_space_group_name_H-M "P -1"
_symmetry_group_IT_number 2
_symmetry_cell_setting 'triclinic'
loop_
_space_group_symop_operation_xyz
x,y,z
-x,-y,-z
loop_
_atom_site_type_symbol
_atom_site_label
_atom_site_fract_x
_atom_site_fract_y
_atom_site_fract_z
Si Si1 0.726335 0.391407 0.210402
Si Si2 0.652271 0.986923 0.750751
Si Si3 0.892042 0.407901 0.814443
Si Si4 0.668462 0.970224 0.134928
Si Si5 0.008937 0.385790 0.587994
Si Si6 0.386877 0.219228 0.799243
Si Si7 0.927300 0.030042 0.721512
O O1 0.761913 0.411098 0.479384
O O2 0.625350 0.564300 0.095223
O O3 0.863664 0.410962 0.404552
O O4 0.689346 0.190505 0.955485
O O5 0.684297 0.866109 0.551070
O O6 0.500000 0.000000 0.500000
O O7 0.701844 0.919545 0.968967
O O8 0.960646 0.198082 0.812861
O O9 0.882508 0.527310 0.050284
O O10 0.000000 0.500000 0.000000
O O11 0.664737 0.814206 0.143181
O O12 0.774253 0.079440 0.490530
O O13 0.530869 0.104101 0.978263
O O14 0.000000 0.500000 0.500000
O O15 0.047101 0.166986 0.470975
O O16 0.000000 0.000000 0.000000
#
# Coordination Sequence:
#
# PCOD9041904 Si02
#       7
#     2   2   2   2   2   2   2
#     4  11  24  43  68  99 136 177 231 281 348 408
#     4  10  23  44  68 102 134 178 233 277 347 409
#     4  10  24  41  60  99 131 176 223 268 342 404
#     4  10  23  46  67 103 134 181 233 275 350 405
#     4  11  24  41  67 102 134 177 235 276 342 418
#     4  10  24  45  72  95 142 179 226 292 334 412
#     4  12  24  42  70  95 141 180 221 288 344 404
#
# _framework density 22.033697
#
# number of rings (size 3 to 8) (size 9 to 14) (size 15 to 20)
#    0.000    1.429    2.857    0.857    6.000    4.571 
#    0.000    6.429    0.000    0.000    0.000    0.000 
#    0.000    0.000    0.000    0.000    0.000    0.000 
#
# Total GULP energy -78051.291730 kJ/mol
# GULP energy per Si atom -5575.092266 kJ/mol
# Density = 2.198355 g / cm^3
# Si number density = 22.033697 Si / 1000 Ang^3
#
#
#
# Elastic Constant Matrix: (Units=GPa)
#
#
# Indices 1 2 3 4 5 6 
#
# 1 58.2224 30.5987 23.0836 -6.3881 -18.5360 23.6301
# 2 30.5987 146.2559 29.0152 3.7516 -21.0138 24.0810
# 3 23.0836 29.0152 111.0699 -6.5936 -14.5354 9.3229
# 4 -6.3881 3.7516 -6.5936 39.1814 3.9940 -6.2409
# 5 -18.5360 -21.0138 -14.5354 3.9940 31.0435 -0.3255
# 6 23.6301 24.0810 9.3229 -6.2409 -0.3255 31.1043
#
#
#
# Elastic Compliance Matrix: (Units=1/GPa)
#
#
# Indices 1 2 3 4 5 6 
#
# 1 0.034590 0.000349 -0.002621 -0.000925 0.019512 -0.025745
# 2 0.000349 0.009203 -0.001207 -0.002856 0.006161 -0.007537
# 3 -0.002621 -0.001207 0.010218 0.001199 0.002250 0.000127
# 4 -0.000925 -0.002856 0.001199 0.027680 -0.005401 0.008051
# 5 0.019512 0.006161 0.002250 -0.005401 0.049564 -0.020833
# 6 -0.025745 -0.007537 0.000127 0.008051 -0.020833 0.058903
#
#
# Mechanical properties :
#
#
# Convention : Reuss Voigt Hill
#
# Bulk Modulus (GPa) = 21.25201 53.43814 37.34507
# Shear Modulus (GPa) = 23.49613 35.78921 29.64267
#
# Velocity S-wave (km/s) = 3.26908 4.03463 3.67186
# Velocity P-wave (km/s) = 4.89033 6.78306 5.91292
#
# Compressibility (1/GPa) = 0.04705438
#
# Stress axis : x y z
#
# Youngs Moduli (GPa) = 28.90986 108.65625 97.86386
#
# Poissons Ratio (x) = -0.03794 0.25646
# Poissons Ratio (y) = -0.01009 0.11816
# Poissons Ratio (z) = 0.07576 0.13119
#
# Static dielectric constant tensor:
#      x y z
#    x 2.829090 -0.447350 -0.596790 
#    y -0.447350 2.007800 0.282740 
#    z -0.596790 0.282740 2.163510 
# 
# From -- ./inp_files/241406.got.cif
#   From: 2010.05.17/outbox.cif.g08.bks.cpg/sg2_121_cif.got.tgz:241406.got - 2010.06.03 11:33:40.
