data_PCOD9041892
_publ_section_title
;
Structure prediction by ZEFSAII (Michael W. Deem and Ramdas Pophale) SiO2 
 PCOD9041892
Probable space group: P -1
;
_chemical_formula_sum "Si O2"
_cell_formula_units_Z 14
_cell_length_a 5.742254
_cell_length_b 8.690579
_cell_length_c 11.467390
_cell_angle_alpha 92.793708
_cell_angle_beta 82.356525
_cell_angle_gamma 103.783673
_cell_volume 550.758518
_symmetry_space_group_name_H-M "P -1"
_symmetry_group_IT_number 2
_symmetry_cell_setting 'triclinic'
loop_
_space_group_symop_operation_xyz
x,y,z
-x,-y,-z
loop_
_atom_site_type_symbol
_atom_site_label
_atom_site_fract_x
_atom_site_fract_y
_atom_site_fract_z
Si Si1 0.009963 0.225269 0.918118
Si Si2 0.633209 0.629260 0.905471
Si Si3 0.962734 0.487548 0.748271
Si Si4 0.020470 0.804299 0.658976
Si Si5 0.343118 0.058083 0.154028
Si Si6 0.358663 0.106929 0.704486
Si Si7 0.714188 0.646276 0.453927
O O1 0.971371 0.381325 0.858398
O O2 0.194838 0.163278 0.817439
O O3 0.787246 0.071238 0.936148
O O4 0.129076 0.281901 0.035013
O O5 0.502129 0.771497 0.894534
O O6 0.703208 0.533900 0.786126
O O7 0.500000 0.500000 0.000000
O O8 0.114365 0.665166 0.712744
O O9 0.063555 0.393513 0.636848
O O10 0.855540 0.874897 0.760736
O O11 0.854663 0.735962 0.558625
O O12 0.232690 0.956293 0.628585
O O13 0.446832 0.953638 0.235359
O O14 0.417164 0.249314 0.615565
O O15 0.500000 0.500000 0.500000
#
# Coordination Sequence:
#
# PCOD9041892 Si02
#       7
#     2   2   2   2   2   2   2
#     4  10  23  44  68 101 138 183 226 284 346 404
#     4  11  25  44  73 103 135 185 230 279 351 406
#     4  10  24  44  70 100 144 172 230 290 334 408
#     4  10  23  44  68 101 138 183 226 284 346 404
#     4  10  24  44  70  99 140 181 231 283 341 413
#     4  10  24  44  70  99 140 181 231 283 341 413
#     4  11  25  44  73 103 135 185 230 279 351 406
#
# _framework density 25.41949
#
# number of rings (size 3 to 8) (size 9 to 14) (size 15 to 20)
#    0.000    1.714    0.000    1.714    8.000    3.429 
#    5.143    0.000    0.000    0.000    0.000    0.000 
#    0.000    0.000    0.000    0.000    0.000    0.000 
#
# Total GULP energy -78175.960431 kJ/mol
# GULP energy per Si atom -5583.997174 kJ/mol
# Density = 2.536163 g / cm^3
# Si number density = 25.419490 Si / 1000 Ang^3
#
#
#
# Elastic Constant Matrix: (Units=GPa)
#
#
# Indices 1 2 3 4 5 6 
#
# 1 55.6857 56.1094 34.7759 8.8758 21.4505 -7.1699
# 2 56.1094 184.8242 67.9079 -25.6105 19.3852 -20.8689
# 3 34.7759 67.9079 116.6951 1.7202 4.8158 -3.8904
# 4 8.8758 -25.6105 1.7202 55.3293 -1.4346 4.3240
# 5 21.4505 19.3852 4.8158 -1.4346 33.5034 2.1971
# 6 -7.1699 -20.8689 -3.8904 4.3240 2.1971 46.5927
#
#
#
# Elastic Compliance Matrix: (Units=1/GPa)
#
#
# Indices 1 2 3 4 5 6 
#
# 1 0.041552 -0.009531 -0.005672 -0.011738 -0.021021 0.003732
# 2 -0.009531 0.010651 -0.003394 0.006391 0.000544 0.002402
# 3 -0.005672 -0.003394 0.012035 -0.000817 0.003929 -0.001498
# 4 -0.011738 0.006391 -0.000817 0.023180 0.005019 -0.001400
# 5 -0.021021 0.000544 0.003929 0.005019 0.042980 -0.005156
# 6 0.003732 0.002402 -0.001498 -0.001400 -0.005156 0.023361
#
#
# Mechanical properties :
#
#
# Convention : Reuss Voigt Hill
#
# Bulk Modulus (GPa) = 36.97650 74.97683 55.97666
# Shear Modulus (GPa) = 25.00416 40.31254 32.65835
#
# Velocity S-wave (km/s) = 3.13974 3.98664 3.58827
# Velocity P-wave (km/s) = 5.26517 7.12397 6.26390
#
# Compressibility (1/GPa) = 0.02704420
#
# Stress axis : x y z
#
# Youngs Moduli (GPa) = 24.06608 93.88952 83.09284
#
# Poissons Ratio (x) = 0.89485 0.47127
# Poissons Ratio (y) = 0.22937 0.28204
# Poissons Ratio (z) = 0.13649 0.31869
#
# Static dielectric constant tensor:
#      x y z
#    x 2.062260 0.059170 -0.022300 
#    y 0.059170 2.094360 -0.077660 
#    z -0.022300 -0.077660 2.005320 
# 
# From -- ./inp_files/287637.got.cif
#   From: 2010.05.17/outbox.cif.g08.bks.cpg/sg2_144_cif.got.tgz:287637.got - 2010.06.03 11:33:40.
