data_PCOD9041936
_publ_section_title
;
Structure prediction by ZEFSAII (Michael W. Deem and Ramdas Pophale) SiO2 
 PCOD9041936
Probable space group: P -1
;
_chemical_formula_sum "Si O2"
_cell_formula_units_Z 16
_cell_length_a 9.193312
_cell_length_b 11.623945
_cell_length_c 12.224239
_cell_angle_alpha 130.365718
_cell_angle_beta 127.671841
_cell_angle_gamma 61.572278
_cell_volume 780.811224
_symmetry_space_group_name_H-M "P -1"
_symmetry_group_IT_number 2
_symmetry_cell_setting 'triclinic'
loop_
_space_group_symop_operation_xyz
x,y,z
-x,-y,-z
loop_
_atom_site_type_symbol
_atom_site_label
_atom_site_fract_x
_atom_site_fract_y
_atom_site_fract_z
Si Si1 0.385839 0.621985 0.805708
Si Si2 0.787241 0.068750 0.451974
Si Si3 0.151886 0.100937 0.171162
Si Si4 0.688983 0.389306 0.486623
Si Si5 0.043978 0.564665 0.755002
Si Si6 0.515263 0.046184 0.906449
Si Si7 0.646709 0.416453 0.927237
Si Si8 0.318969 0.926932 0.344747
O O1 0.341660 0.650355 0.677475
O O2 0.215234 0.546676 0.735541
O O3 0.574418 0.507024 0.841126
O O4 0.418729 0.786348 0.969827
O O5 0.722086 0.235929 0.476988
O O6 0.762487 0.084919 0.580496
O O7 0.665896 0.963603 0.258350
O O8 0.000000 0.000000 0.500000
O O9 0.065240 0.273433 0.228266
O O10 0.327519 0.069105 0.152484
O O11 0.203667 0.043294 0.280869
O O12 0.000000 0.000000 0.000000
O O13 0.500000 0.500000 0.500000
O O14 0.884159 0.458058 0.621814
O O15 0.152117 0.566785 0.921583
O O16 0.500000 0.000000 0.000000
O O17 0.640316 0.237806 0.795864
O O18 0.500000 0.500000 0.000000
O O19 0.500000 0.000000 0.500000
#
# Coordination Sequence:
#
# PCOD9041936 Si02
#       8
#     2   2   2   2   2   2   2   2
#     4  11  24  44  73 101 139 190 245 297 367 434
#     4  12  30  47  71 111 153 196 248 306 382 436
#     4  12  23  45  73 106 137 184 249 296 364 435
#     4  12  27  50  67 104 149 193 242 300 376 449
#     4  11  25  43  75 102 140 184 246 298 360 444
#     4  12  25  47  72 105 147 194 238 307 370 444
#     4  10  23  44  68 109 140 184 244 303 369 429
#     4  12  26  46  76 105 150 193 249 311 360 443
#
# _framework density 20.491510999999999
#
# number of rings (size 3 to 8) (size 9 to 14) (size 15 to 20)
#    0.000    0.500    5.000    2.625    7.000    1.000 
#    0.000    1.250    0.000    0.000    0.000    0.000 
#    0.000    0.000    0.000    0.000    0.000    0.000 
#
# Total GULP energy -89322.569338 kJ/mol
# GULP energy per Si atom -5582.660584 kJ/mol
# Density = 2.044487 g / cm^3
# Si number density = 20.491511 Si / 1000 Ang^3
#
#
#
# Elastic Constant Matrix: (Units=GPa)
#
#
# Indices 1 2 3 4 5 6 
#
# 1 109.4471 45.2311 55.1696 -15.8040 -4.7400 0.2658
# 2 45.2311 116.3564 48.8866 -29.0274 8.5003 -9.7956
# 3 55.1696 48.8866 149.7670 -22.9484 10.9007 -6.0714
# 4 -15.8040 -29.0274 -22.9484 47.8600 3.8501 -0.6120
# 5 -4.7400 8.5003 10.9007 3.8501 27.8961 -5.4120
# 6 0.2658 -9.7956 -6.0714 -0.6120 -5.4120 30.9442
#
#
#
# Elastic Compliance Matrix: (Units=1/GPa)
#
#
# Indices 1 2 3 4 5 6 
#
# 1 0.012882 -0.003912 -0.003926 -0.000397 0.004717 -0.001302
# 2 -0.003912 0.012815 -0.001348 0.006220 -0.004280 0.003200
# 3 -0.003926 -0.001348 0.009306 0.002689 -0.004115 0.000766
# 4 -0.000397 0.006220 0.002689 0.026354 -0.006278 0.001923
# 5 0.004717 -0.004280 -0.004115 -0.006278 0.041380 0.004910
# 6 -0.001302 0.003200 0.000766 0.001923 0.004910 0.034388
#
#
# Mechanical properties :
#
#
# Convention : Reuss Voigt Hill
#
# Bulk Modulus (GPa) = 60.12185 74.90499 67.51342
# Shear Modulus (GPa) = 31.04836 36.42562 33.73699
#
# Velocity S-wave (km/s) = 3.89676 4.22073 4.06197
# Velocity P-wave (km/s) = 7.04627 7.77086 7.41741
#
# Compressibility (1/GPa) = 0.01663289
#
# Stress axis : x y z
#
# Youngs Moduli (GPa) = 77.62592 78.03458 107.46170
#
# Poissons Ratio (x) = 0.30524 0.42184
# Poissons Ratio (y) = 0.30364 0.14483
# Poissons Ratio (z) = 0.30472 0.10517
#
# Static dielectric constant tensor:
#      x y z
#    x 1.751110 0.001090 0.012460 
#    y 0.001090 1.694210 -0.011330 
#    z 0.012460 -0.011330 1.729360 
# 
# From -- ./inp_files/226489.got.cif
#   From: 2010.05.17/outbox.cif.g08.bks.cpg/sg2_114_cif.got.tgz:226489.got - 2010.06.03 11:33:40.
