data_PCOD9041440
_publ_section_title
;
Structure prediction by ZEFSAII (Michael W. Deem and Ramdas Pophale) SiO2 
 PCOD9041440
Probable space group: P -1
;
_chemical_formula_sum "Si O2"
_cell_formula_units_Z 14
_cell_length_a 23.250804
_cell_length_b 11.257177
_cell_length_c 5.707501
_cell_angle_alpha 57.826851
_cell_angle_beta 120.000917
_cell_angle_gamma 152.167255
_cell_volume 588.768053
_symmetry_space_group_name_H-M "P -1"
_symmetry_group_IT_number 2
_symmetry_cell_setting 'triclinic'
loop_
_space_group_symop_operation_xyz
x,y,z
-x,-y,-z
loop_
_atom_site_type_symbol
_atom_site_label
_atom_site_fract_x
_atom_site_fract_y
_atom_site_fract_z
Si Si1 0.490420 0.872942 0.319990
Si Si2 0.056605 0.153945 0.703253
Si Si3 0.485639 0.594714 0.065070
Si Si4 0.932727 0.224895 0.387051
Si Si5 0.331258 0.600625 0.647043
Si Si6 0.127731 0.807773 0.200549
Si Si7 0.362524 0.128744 0.529805
O O1 0.348111 0.620935 0.379403
O O2 0.537733 0.803049 0.435072
O O3 0.595598 0.125739 0.437386
O O4 0.500000 0.000000 0.000000
O O5 0.030407 0.273568 0.517528
O O6 0.200307 0.370250 0.742372
O O7 0.000000 0.000000 0.500000
O O8 0.000000 0.000000 0.000000
O O9 0.399922 0.355850 0.321583
O O10 0.621256 0.864197 0.167340
O O11 0.500000 0.500000 0.000000
O O12 0.415904 0.616126 0.863358
O O13 0.998543 0.494437 0.248843
O O14 0.872789 0.103497 0.651855
O O15 0.855635 0.087493 0.128501
O O16 0.234059 0.884391 0.394651
#
# Coordination Sequence:
#
# PCOD9041440 Si02
#       7
#     2   2   2   2   2   2   2
#     4  11  23  46  71 103 137 181 238 288 360 422
#     4  12  29  47  73 103 146 195 239 288 356 427
#     4  11  24  42  64 102 139 174 232 282 362 431
#     4  10  23  47  65 107 131 184 244 286 346 414
#     4  11  26  45  71 102 142 187 233 300 347 429
#     4  10  23  43  75  95 140 177 236 301 344 412
#     4  11  24  40  69 101 132 187 222 292 356 425
#
# _framework density 23.778462999999999
#
# number of rings (size 3 to 8) (size 9 to 14) (size 15 to 20)
#    0.000    1.143    2.857    1.714    8.000    0.000 
#    7.714    0.000    0.000    0.000    0.000    0.000 
#    0.000    0.000    0.000    0.000    0.000    0.000 
#
# Total GULP energy -77959.689238 kJ/mol
# GULP energy per Si atom -5568.549231 kJ/mol
# Density = 2.372434 g / cm^3
# Si number density = 23.778463 Si / 1000 Ang^3
#
#
#
# Elastic Constant Matrix: (Units=GPa)
#
#
# Indices 1 2 3 4 5 6 
#
# 1 154.4372 37.7408 63.1640 2.9303 -6.2678 10.3478
# 2 37.7408 70.5242 39.2383 3.5814 -16.3769 17.3374
# 3 63.1640 39.2383 136.6479 10.1761 -14.3238 15.2266
# 4 2.9303 3.5814 10.1761 34.5095 -7.6069 -0.2079
# 5 -6.2678 -16.3769 -14.3238 -7.6069 44.0990 -5.9627
# 6 10.3478 17.3374 15.2266 -0.2079 -5.9627 41.0137
#
#
#
# Elastic Compliance Matrix: (Units=1/GPa)
#
#
# Indices 1 2 3 4 5 6 
#
# 1 0.008460 -0.003026 -0.003181 0.000343 -0.000868 0.000201
# 2 -0.003026 0.020244 -0.003228 0.000240 0.005293 -0.005825
# 3 -0.003181 -0.003228 0.010151 -0.002160 0.001077 -0.001456
# 4 0.000343 0.000240 -0.002160 0.030655 0.004925 0.001485
# 5 -0.000868 0.005293 0.001077 0.004925 0.025903 0.001373
# 6 0.000201 -0.005825 -0.001456 0.001485 0.001373 0.027541
#
#
# Mechanical properties :
#
#
# Convention : Reuss Voigt Hill
#
# Bulk Modulus (GPa) = 50.03660 71.32174 60.67917
# Shear Modulus (GPa) = 33.67292 38.68886 36.18089
#
# Velocity S-wave (km/s) = 3.76721 4.03805 3.90498
# Velocity P-wave (km/s) = 6.32542 7.19726 6.77538
#
# Compressibility (1/GPa) = 0.01998537
#
# Stress axis : x y z
#
# Youngs Moduli (GPa) = 118.19847 49.39721 98.51033
#
# Poissons Ratio (x) = 0.14949 0.31333
# Poissons Ratio (y) = 0.35771 0.31800
# Poissons Ratio (z) = 0.37595 0.15946
#
# Static dielectric constant tensor:
#      x y z
#    x 2.201490 -0.185640 -0.459180 
#    y -0.185640 2.158400 0.271060 
#    z -0.459180 0.271060 2.466580 
# 
# From -- ./inp_files/76600.got.cif
#   From: 2010.05.17/outbox.cif.g08.bks.cpg/sg2_39_cif.got.tgz:76600.got - 2010.06.03 11:33:40.
