data_PCOD9041299
_publ_section_title
;
Structure prediction by ZEFSAII (Michael W. Deem and Ramdas Pophale) SiO2 
 PCOD9041299
Probable space group: P -1
;
_chemical_formula_sum "Si O2"
_cell_formula_units_Z 16
_cell_length_a 9.666147
_cell_length_b 8.379977
_cell_length_c 20.989393
_cell_angle_alpha 55.761032
_cell_angle_beta 141.908134
_cell_angle_gamma 136.677263
_cell_volume 719.450041
_symmetry_space_group_name_H-M "P -1"
_symmetry_group_IT_number 2
_symmetry_cell_setting 'triclinic'
loop_
_space_group_symop_operation_xyz
x,y,z
-x,-y,-z
loop_
_atom_site_type_symbol
_atom_site_label
_atom_site_fract_x
_atom_site_fract_y
_atom_site_fract_z
Si Si1 0.295124 0.060689 0.935764
Si Si2 0.944260 0.215314 0.616664
Si Si3 0.787006 0.206792 0.906694
Si Si4 0.615013 0.584276 0.952474
Si Si5 0.298490 0.691171 0.717688
Si Si6 0.847970 0.105133 0.278794
Si Si7 0.153765 0.339164 0.211753
Si Si8 0.474577 0.812557 0.620771
O O1 0.464112 0.331393 0.922177
O O2 0.022540 0.907610 0.832412
O O3 0.500000 0.000000 0.000000
O O4 0.225817 0.955374 0.004733
O O5 0.799609 0.264308 0.497090
O O6 0.142109 0.443663 0.679430
O O7 0.705563 0.040777 0.617227
O O8 0.054630 0.067716 0.659236
O O9 0.840599 0.465326 0.872921
O O10 0.477777 0.060682 0.804616
O O11 0.062946 0.275073 0.956869
O O12 0.503377 0.704227 0.842169
O O13 0.500000 0.500000 0.000000
O O14 0.107711 0.752115 0.672181
O O15 0.458647 0.859436 0.678737
O O16 0.993576 0.291318 0.231214
O O17 0.441505 0.373148 0.316231
#
# Coordination Sequence:
#
# PCOD9041299 Si02
#       8
#     2   2   2   2   2   2   2   2
#     4  12  23  38  63  93 128 176 225 269 326 396
#     4  10  24  49  69  97 139 169 221 290 341 394
#     4  12  23  39  64  92 133 179 221 273 334 392
#     4  12  27  43  60  97 141 176 220 277 330 400
#     4  12  25  43  70  99 132 179 225 274 339 401
#     4  11  25  43  66  99 133 174 223 278 333 409
#     4  11  22  40  65  98 133 174 228 276 334 400
#     4  10  23  43  72  99 131 177 223 281 342 402
#
# _framework density 22.239208999999999
#
# number of rings (size 3 to 8) (size 9 to 14) (size 15 to 20)
#    0.000    0.750    2.500    5.250    1.750    5.500 
#    0.000    5.625    0.000    0.000    0.000    0.000 
#    0.000    0.000    0.000    0.000    0.000    0.000 
#
# Total GULP energy -89215.798805 kJ/mol
# GULP energy per Si atom -5575.987425 kJ/mol
# Density = 2.218859 g / cm^3
# Si number density = 22.239209 Si / 1000 Ang^3
#
#
#
# Elastic Constant Matrix: (Units=GPa)
#
#
# Indices 1 2 3 4 5 6 
#
# 1 143.3976 47.1173 51.9998 -1.7944 6.0385 13.8594
# 2 47.1173 80.6569 20.3400 -7.9299 16.6038 2.0486
# 3 51.9998 20.3400 134.9351 -5.0696 9.8162 1.5969
# 4 -1.7944 -7.9299 -5.0696 18.2737 -0.0317 -2.0208
# 5 6.0385 16.6038 9.8162 -0.0317 25.7442 -4.9829
# 6 13.8594 2.0486 1.5969 -2.0208 -4.9829 41.5920
#
#
#
# Elastic Compliance Matrix: (Units=1/GPa)
#
#
# Indices 1 2 3 4 5 6 
#
# 1 0.010212 -0.005743 -0.003283 -0.002716 0.001998 -0.002886
# 2 -0.005743 0.018607 0.000481 0.007631 -0.010818 0.000053
# 3 -0.003283 0.000481 0.008894 0.002405 -0.002831 0.000507
# 4 -0.002716 0.007631 0.002405 0.058731 -0.004599 0.002739
# 5 0.001998 -0.010818 -0.002831 -0.004599 0.047478 0.005440
# 6 -0.002886 0.000053 0.000507 0.002739 0.005440 0.025768
#
#
# Mechanical properties :
#
#
# Convention : Reuss Voigt Hill
#
# Bulk Modulus (GPa) = 48.48630 66.43376 57.46003
# Shear Modulus (GPa) = 25.81936 33.09082 29.45509
#
# Velocity S-wave (km/s) = 3.41102 3.86158 3.64327
# Velocity P-wave (km/s) = 6.11252 7.05830 6.60237
#
# Compressibility (1/GPa) = 0.02062438
#
# Stress axis : x y z
#
# Youngs Moduli (GPa) = 97.92551 53.74226 112.43734
#
# Poissons Ratio (x) = 0.30862 0.36912
# Poissons Ratio (y) = 0.56235 -0.05411
# Poissons Ratio (z) = 0.32148 -0.02586
#
# Static dielectric constant tensor:
#      x y z
#    x 1.903100 -0.008870 -0.027120 
#    y -0.008870 1.673660 -0.022980 
#    z -0.027120 -0.022980 1.864900 
# 
# From -- ./inp_files/587942.got.cif
#   From: 2010.05.17/outbox.cif.g08.bks.cpg/sg2_294_cif.got.tgz:587942.got - 2010.06.03 11:33:40.
