data_PCOD9041667
_publ_section_title
;
Structure prediction by ZEFSAII (Michael W. Deem and Ramdas Pophale) SiO2 
 PCOD9041667
Probable space group: P -1
;
_chemical_formula_sum "Si O2"
_cell_formula_units_Z 16
_cell_length_a 15.121760
_cell_length_b 11.915822
_cell_length_c 9.397178
_cell_angle_alpha 35.284083
_cell_angle_beta 90.654593
_cell_angle_gamma 110.253078
_cell_volume 794.483222
_symmetry_space_group_name_H-M "P -1"
_symmetry_group_IT_number 2
_symmetry_cell_setting 'triclinic'
loop_
_space_group_symop_operation_xyz
x,y,z
-x,-y,-z
loop_
_atom_site_type_symbol
_atom_site_label
_atom_site_fract_x
_atom_site_fract_y
_atom_site_fract_z
Si Si1 0.570679 0.561603 0.797103
Si Si2 0.602104 0.932526 0.196429
Si Si3 0.945325 0.147307 0.046517
Si Si4 0.423391 0.651826 0.246165
Si Si5 0.194424 0.308789 0.275923
Si Si6 0.129199 0.110894 0.163287
Si Si7 0.041680 0.449715 0.197227
Si Si8 0.238749 0.127530 0.885877
O O1 0.601672 0.806696 0.470655
O O2 0.602165 0.160065 0.985916
O O3 0.679879 0.580822 0.813838
O O4 0.500000 0.500000 0.000000
O O5 0.496888 0.744956 0.292390
O O6 0.517092 0.373842 0.859499
O O7 0.702354 0.993403 0.036944
O O8 0.063611 0.201182 0.992369
O O9 0.875518 0.935163 0.380727
O O10 0.881052 0.035206 0.015398
O O11 0.947758 0.371211 0.868854
O O12 0.314073 0.389910 0.544934
O O13 0.164913 0.234790 0.188201
O O14 0.152281 0.468764 0.153134
O O15 0.226633 0.159683 0.017045
O O16 0.046894 0.826185 0.478304
O O17 0.000000 0.500000 0.000000
#
# Coordination Sequence:
#
# PCOD9041667 Si02
#       8
#     2   2   2   2   2   2   2   2
#     4  11  24  40  67  97 126 157 202 263 310 368
#     4  10  23  44  66  89 123 166 204 251 314 370
#     4  11  21  41  61  87 123 163 206 251 309 361
#     4  10  23  45  65  87 124 164 206 255 310 368
#     4  11  22  39  63  90 121 168 203 245 317 369
#     4  11  24  37  60  94 123 161 209 250 304 373
#     4  11  21  40  62  87 126 166 206 254 302 364
#     4  11  23  39  64  90 123 161 204 256 306 362
#
# _framework density 20.138877000000001
#
# number of rings (size 3 to 8) (size 9 to 14) (size 15 to 20)
#    0.000    1.250    5.000    2.625    5.250    2.000 
#    0.000    0.000    0.000    0.000    0.000    0.000 
#    0.000    0.000    0.000    0.000    0.000    0.000 
#
# Total GULP energy -89391.160076 kJ/mol
# GULP energy per Si atom -5586.947505 kJ/mol
# Density = 2.009304 g / cm^3
# Si number density = 20.138877 Si / 1000 Ang^3
#
#
#
# Elastic Constant Matrix: (Units=GPa)
#
#
# Indices 1 2 3 4 5 6 
#
# 1 107.7052 11.4598 41.2315 6.1265 13.2641 -15.9934
# 2 11.4598 63.3200 17.4982 -7.3325 6.5210 -18.9786
# 3 41.2315 17.4982 40.0082 4.8341 4.8892 -20.9855
# 4 6.1265 -7.3325 4.8341 20.4736 -10.7878 -6.6680
# 5 13.2641 6.5210 4.8892 -10.7878 31.8294 1.9292
# 6 -15.9934 -18.9786 -20.9855 -6.6680 1.9292 41.9219
#
#
#
# Elastic Compliance Matrix: (Units=1/GPa)
#
#
# Indices 1 2 3 4 5 6 
#
# 1 0.016448 0.001295 -0.017547 -0.004046 -0.005656 -0.002306
# 2 0.001295 0.021573 -0.007845 0.011717 -0.000281 0.008210
# 3 -0.017547 -0.007845 0.056784 -0.007072 -0.003242 0.017204
# 4 -0.004046 0.011717 -0.007072 0.072099 0.024167 0.010576
# 5 -0.005656 -0.000281 -0.003242 0.024167 0.042644 -0.002027
# 6 -0.002306 0.008210 0.017204 0.010576 -0.002027 0.037079
#
#
# Mechanical properties :
#
#
# Convention : Reuss Voigt Hill
#
# Bulk Modulus (GPa) = 21.45386 39.04582 30.24984
# Shear Modulus (GPa) = 16.11044 28.23458 22.17251
#
# Velocity S-wave (km/s) = 2.83144 3.74838 3.32170
# Velocity P-wave (km/s) = 4.62228 6.17772 5.45572
#
# Compressibility (1/GPa) = 0.04661166
#
# Stress axis : x y z
#
# Youngs Moduli (GPa) = 60.79583 46.35484 17.61050
#
# Poissons Ratio (x) = -0.06003 0.30901
# Poissons Ratio (y) = -0.07873 0.13815
# Poissons Ratio (z) = 1.06679 0.36365
#
# Static dielectric constant tensor:
#      x y z
#    x 1.737380 0.024240 0.001650 
#    y 0.024240 1.719740 0.010440 
#    z 0.001650 0.010440 1.689880 
# 
# From -- ./inp_files/306259.got.cif
#   From: 2010.05.17/outbox.cif.g08.bks.cpg/sg2_154_cif.got.tgz:306259.got - 2010.06.03 11:33:40.
