data_PCOD9041850
_publ_section_title
;
Structure prediction by ZEFSAII (Michael W. Deem and Ramdas Pophale) SiO2 
 PCOD9041850
Probable space group: P -1
;
_chemical_formula_sum "Si O2"
_cell_formula_units_Z 14
_cell_length_a 9.820907
_cell_length_b 17.177111
_cell_length_c 10.050785
_cell_angle_alpha 129.745482
_cell_angle_beta 71.161150
_cell_angle_gamma 147.132155
_cell_volume 607.256168
_symmetry_space_group_name_H-M "P -1"
_symmetry_group_IT_number 2
_symmetry_cell_setting 'triclinic'
loop_
_space_group_symop_operation_xyz
x,y,z
-x,-y,-z
loop_
_atom_site_type_symbol
_atom_site_label
_atom_site_fract_x
_atom_site_fract_y
_atom_site_fract_z
Si Si1 0.781037 0.520899 0.529788
Si Si2 0.348770 0.223827 0.102443
Si Si3 0.753102 0.334721 0.546882
Si Si4 0.814567 0.341611 0.011161
Si Si5 0.702571 0.068169 0.615135
Si Si6 0.726481 0.639274 0.907194
Si Si7 0.125171 0.188991 0.681175
O O1 0.532776 0.380018 0.341782
O O2 0.695775 0.368301 0.474782
O O3 0.833929 0.644728 0.749586
O O4 0.091504 0.677661 0.543623
O O5 0.522976 0.228446 0.009361
O O6 0.382051 0.321081 0.075518
O O7 0.000000 0.000000 0.000000
O O8 0.983004 0.529164 0.782456
O O9 0.466575 0.131908 0.494141
O O10 0.757991 0.190801 0.834830
O O11 0.000000 0.500000 0.000000
O O12 0.000229 0.194101 0.618978
O O13 0.500000 0.000000 0.500000
O O14 0.473422 0.410713 0.794346
O O15 0.926938 0.795230 0.138141
O O16 0.000000 0.000000 0.500000
#
# Coordination Sequence:
#
# PCOD9041850 Si02
#       7
#     2   2   2   2   2   2   2
#     4  10  23  46  67  94 141 180 227 288 342 418
#     4  11  27  42  70 105 143 189 233 288 349 428
#     4  10  23  44  67  98 134 175 229 290 344 405
#     4  11  23  45  67 100 139 177 237 289 345 407
#     4  12  25  39  72  99 131 179 230 281 348 411
#     4  11  25  46  71  96 141 184 231 285 362 410
#     4  11  27  46  72 104 138 179 235 298 353 418
#
# _framework density 23.05452
#
# number of rings (size 3 to 8) (size 9 to 14) (size 15 to 20)
#    0.000    1.143    1.429    3.000   10.000    2.286 
#    0.000    2.857    0.000    0.000    0.000    0.000 
#    0.000    0.000    0.000    0.000    0.000    0.000 
#
# Total GULP energy -78187.192827 kJ/mol
# GULP energy per Si atom -5584.799488 kJ/mol
# Density = 2.300205 g / cm^3
# Si number density = 23.054520 Si / 1000 Ang^3
#
#
#
# Elastic Constant Matrix: (Units=GPa)
#
#
# Indices 1 2 3 4 5 6 
#
# 1 129.5107 14.6172 57.9930 -0.5302 5.7994 3.0952
# 2 14.6172 52.6479 11.8111 9.2682 3.3554 5.0387
# 3 57.9930 11.8111 124.5790 -10.3486 -14.8115 10.4596
# 4 -0.5302 9.2682 -10.3486 38.6213 -4.3727 -4.8090
# 5 5.7994 3.3554 -14.8115 -4.3727 37.9387 -11.2027
# 6 3.0952 5.0387 10.4596 -4.8090 -11.2027 39.3389
#
#
#
# Elastic Compliance Matrix: (Units=1/GPa)
#
#
# Indices 1 2 3 4 5 6 
#
# 1 0.010390 -0.001136 -0.005269 -0.001506 -0.003884 -0.000561
# 2 -0.001136 0.021755 -0.002310 -0.006920 -0.004711 -0.004270
# 3 -0.005269 -0.002310 0.011791 0.004306 0.006058 -0.000173
# 4 -0.001506 -0.006920 0.004306 0.030276 0.007713 0.005758
# 5 -0.003884 -0.004711 0.006058 0.007713 0.033512 0.009784
# 6 -0.000561 -0.004270 -0.000173 0.005758 0.009784 0.029547
#
#
# Mechanical properties :
#
#
# Convention : Reuss Voigt Hill
#
# Bulk Modulus (GPa) = 37.72704 52.84223 45.28463
# Shear Modulus (GPa) = 30.57401 38.00086 34.28744
#
# Velocity S-wave (km/s) = 3.64560 4.06434 3.86065
# Velocity P-wave (km/s) = 5.84126 6.70786 6.28950
#
# Compressibility (1/GPa) = 0.02650619
#
# Stress axis : x y z
#
# Youngs Moduli (GPa) = 96.24599 45.96643 84.80914
#
# Poissons Ratio (x) = 0.05223 0.44684
# Poissons Ratio (y) = 0.10937 0.19591
# Poissons Ratio (z) = 0.50709 0.10618
#
# Static dielectric constant tensor:
#      x y z
#    x 1.916220 0.077230 0.048860 
#    y 0.077230 1.941980 0.022860 
#    z 0.048860 0.022860 1.902290 
# 
# From -- ./inp_files/403352.got.cif
#   From: 2010.05.17/outbox.cif.g08.bks.cpg/sg2_202_cif.got.tgz:403352.got - 2010.06.03 11:33:40.
