data_PCOD9041156
_publ_section_title
;
Structure prediction by ZEFSAII (Michael W. Deem and Ramdas Pophale) SiO2 
 PCOD9041156
Probable space group: P -1
;
_chemical_formula_sum "Si O2"
_cell_formula_units_Z 8
_cell_length_a 10.390282
_cell_length_b 5.909786
_cell_length_c 13.013280
_cell_angle_alpha 129.107544
_cell_angle_beta 143.923968
_cell_angle_gamma 63.052941
_cell_volume 362.304869
_symmetry_space_group_name_H-M "P -1"
_symmetry_group_IT_number 2
_symmetry_cell_setting 'triclinic'
loop_
_space_group_symop_operation_xyz
x,y,z
-x,-y,-z
loop_
_atom_site_type_symbol
_atom_site_label
_atom_site_fract_x
_atom_site_fract_y
_atom_site_fract_z
Si Si1 0.326599 0.725716 0.838475
Si Si2 0.312828 0.640350 0.046919
Si Si3 0.495056 0.849028 0.568620
Si Si4 0.020321 0.934376 0.372181
O O1 0.452971 0.467915 0.800923
O O2 0.326665 0.702196 0.953270
O O3 0.090479 0.798722 0.672412
O O4 0.500000 0.000000 0.000000
O O5 0.304379 0.943960 0.187346
O O6 0.123641 0.363915 0.849076
O O7 0.500000 0.500000 0.500000
O O8 0.265368 0.901895 0.488386
O O9 0.500000 0.000000 0.500000
O O10 0.000000 0.000000 0.500000
#
# Coordination Sequence:
#
# PCOD9041156 Si02
#       4
#     2   2   2   2
#     4   9  19  39  72 105 135 175 243 304 357 410
#     4  10  23  43  71 103 144 184 242 305 354 428
#     4  12  31  49  70 107 153 197 241 294 366 436
#     4  11  25  44  79 106 138 191 246 300 364 430
#
# _framework density 22.080852
#
# number of rings (size 3 to 8) (size 9 to 14) (size 15 to 20)
#    0.000    1.500    0.000    4.500   14.000    4.000 
#    0.000    0.000    0.000    0.000    0.000    0.000 
#    0.000    0.000    0.000    0.000    0.000    0.000 
#
# Total GULP energy -44539.919556 kJ/mol
# GULP energy per Si atom -5567.489944 kJ/mol
# Density = 2.203060 g / cm^3
# Si number density = 22.080852 Si / 1000 Ang^3
#
#
#
# Elastic Constant Matrix: (Units=GPa)
#
#
# Indices 1 2 3 4 5 6 
#
# 1 90.9447 34.4233 21.8789 4.7902 13.4380 -4.3452
# 2 34.4233 160.2590 72.5428 21.0723 13.5361 5.7730
# 3 21.8789 72.5428 122.2904 45.1067 9.8811 -10.9848
# 4 4.7902 21.0723 45.1067 61.1213 -2.2944 10.8752
# 5 13.4380 13.5361 9.8811 -2.2944 25.3933 -3.9571
# 6 -4.3452 5.7730 -10.9848 10.8752 -3.9571 27.6300
#
#
#
# Elastic Compliance Matrix: (Units=1/GPa)
#
#
# Indices 1 2 3 4 5 6 
#
# 1 0.012776 -0.002230 -0.000099 -0.000706 -0.005293 0.001955
# 2 -0.002230 0.009937 -0.007069 0.003088 -0.002141 -0.006759
# 3 -0.000099 -0.007069 0.019205 -0.014387 -0.002713 0.014371
# 4 -0.000706 0.003088 -0.014387 0.029219 0.004259 -0.017366
# 5 -0.005293 -0.002141 -0.002713 0.004259 0.045284 0.003345
# 6 0.001955 -0.006759 0.014371 -0.017366 0.003345 0.050940
#
#
# Mechanical properties :
#
#
# Convention : Reuss Voigt Hill
#
# Bulk Modulus (GPa) = 43.24889 70.13158 56.69024
# Shear Modulus (GPa) = 25.79115 39.13886 32.46501
#
# Velocity S-wave (km/s) = 3.42136 4.21470 3.83858
# Velocity P-wave (km/s) = 5.93605 7.45085 6.73617
#
# Compressibility (1/GPa) = 0.02312198
#
# Stress axis : x y z
#
# Youngs Moduli (GPa) = 78.26981 100.63509 52.07016
#
# Poissons Ratio (x) = 0.22441 0.00517
# Poissons Ratio (y) = 0.17454 0.36807
# Poissons Ratio (z) = 0.00778 0.71136
#
# Static dielectric constant tensor:
#      x y z
#    x 1.750520 -0.020880 -0.034900 
#    y -0.020880 1.903150 -0.012550 
#    z -0.034900 -0.012550 1.752220 
# 
# From -- ./inp_files/16752.got.cif
#   From: 2010.05.17/outbox.cif.g08.bks.cpg/sg2_9_cif.got.tgz:16752.got - 2010.06.03 11:33:40.
