data_PCOD9041963
_publ_section_title
;
Structure prediction by ZEFSAII (Michael W. Deem and Ramdas Pophale) SiO2 
 PCOD9041963
Probable space group: P -1
;
_chemical_formula_sum "Si O2"
_cell_formula_units_Z 12
_cell_length_a 15.634525
_cell_length_b 24.535794
_cell_length_c 6.586195
_cell_angle_alpha 46.494333
_cell_angle_beta 121.018767
_cell_angle_gamma 158.841636
_cell_volume 578.812928
_symmetry_space_group_name_H-M "P -1"
_symmetry_group_IT_number 2
_symmetry_cell_setting 'triclinic'
loop_
_space_group_symop_operation_xyz
x,y,z
-x,-y,-z
loop_
_atom_site_type_symbol
_atom_site_label
_atom_site_fract_x
_atom_site_fract_y
_atom_site_fract_z
Si Si1 0.942855 0.907471 0.860225
Si Si2 0.315094 0.706831 0.886191
Si Si3 0.558185 0.717393 0.192065
Si Si4 0.566768 0.099942 0.134535
Si Si5 0.253785 0.368963 0.921950
Si Si6 0.243327 0.898325 0.859007
O O1 0.701078 0.775886 0.029115
O O2 0.865020 0.771429 0.029550
O O3 0.000000 0.000000 0.500000
O O4 0.202695 0.089514 0.857796
O O5 0.370421 0.777016 0.000731
O O6 0.505461 0.886006 0.502021
O O7 0.391453 0.673826 0.040421
O O8 0.000000 0.500000 0.000000
O O9 0.370329 0.525413 0.563673
O O10 0.791911 0.208545 0.011352
O O11 0.500000 0.000000 0.500000
O O12 0.329609 0.944845 0.078187
O O13 0.500000 0.500000 0.000000
O O14 0.013973 0.227564 0.140566
#
# Coordination Sequence:
#
# PCOD9041963 Si02
#       6
#     2   2   2   2   2   2
#     4  11  23  47  69  98 138 176 224 282 335 397
#     4  11  25  43  67 100 135 175 224 276 337 398
#     4  11  26  43  70  99 136 179 226 277 337 399
#     4   9  21  43  69  94 128 177 219 274 334 389
#     4  12  25  44  71 101 134 180 227 274 341 400
#     4  10  23  44  68  95 138 173 223 279 331 397
#
# _framework density 20.732087
#
# number of rings (size 3 to 8) (size 9 to 14) (size 15 to 20)
#    0.000    1.333    1.667    2.500    9.333    2.000 
#    6.000    0.000    0.000    0.000    0.000    0.000 
#    0.000    0.000    0.000    0.000    0.000    0.000 
#
# Total GULP energy -67064.142821 kJ/mol
# GULP energy per Si atom -5588.678568 kJ/mol
# Density = 2.068490 g / cm^3
# Si number density = 20.732087 Si / 1000 Ang^3
#
#
#
# Elastic Constant Matrix: (Units=GPa)
#
#
# Indices 1 2 3 4 5 6 
#
# 1 116.4489 37.7025 19.1372 -17.8396 -1.0336 11.9922
# 2 37.7025 55.7161 24.8832 -9.9047 -16.2600 21.2955
# 3 19.1372 24.8832 86.7937 -9.9912 1.7676 9.6758
# 4 -17.8396 -9.9047 -9.9912 32.7203 0.9262 -1.9711
# 5 -1.0336 -16.2600 1.7676 0.9262 39.8931 0.1063
# 6 11.9922 21.2955 9.6758 -1.9711 0.1063 48.6568
#
#
#
# Elastic Compliance Matrix: (Units=1/GPa)
#
#
# Indices 1 2 3 4 5 6 
#
# 1 0.011889 -0.008882 0.000344 0.004059 -0.003424 0.001061
# 2 -0.008882 0.036832 -0.007186 0.002938 0.015065 -0.012416
# 3 0.000344 -0.007186 0.013803 0.002354 -0.003587 0.000418
# 4 0.004059 0.002938 0.002354 0.034290 0.000406 -0.001366
# 5 -0.003424 0.015065 -0.003587 0.000406 0.031282 -0.005088
# 6 0.001061 -0.012416 0.000418 -0.001366 -0.005088 0.025597
#
#
# Mechanical properties :
#
#
# Convention : Reuss Voigt Hill
#
# Bulk Modulus (GPa) = 32.17816 46.93382 39.55599
# Shear Modulus (GPa) = 25.57559 36.06976 30.82268
#
# Velocity S-wave (km/s) = 3.51611 4.17562 3.85998
# Velocity P-wave (km/s) = 5.66027 6.77755 6.24395
#
# Compressibility (1/GPa) = 0.03107698
#
# Stress axis : x y z
#
# Youngs Moduli (GPa) = 84.11274 27.15030 72.44690
#
# Poissons Ratio (x) = 0.24114 -0.02490
# Poissons Ratio (y) = 0.74706 0.52057
# Poissons Ratio (z) = -0.02891 0.19509
#
# Static dielectric constant tensor:
#      x y z
#    x 1.755130 -0.005040 -0.011960 
#    y -0.005040 1.730450 -0.001390 
#    z -0.011960 -0.001390 1.729130 
# 
# From -- ./inp_files/26397.got.cif
#   From: 2010.05.17/outbox.cif.g08.bks.cpg/sg2_14_cif.got.tgz:26397.got - 2010.06.03 11:33:40.
