data_PCOD9041066
_publ_section_title
;
Structure prediction by ZEFSAII (Michael W. Deem and Ramdas Pophale) SiO2 
 PCOD9041066
Probable space group: P -1
;
_chemical_formula_sum "Si O2"
_cell_formula_units_Z 16
_cell_length_a 7.592322
_cell_length_b 12.386579
_cell_length_c 12.644525
_cell_angle_alpha 110.093492
_cell_angle_beta 139.953749
_cell_angle_gamma 85.197990
_cell_volume 686.166041
_symmetry_space_group_name_H-M "P -1"
_symmetry_group_IT_number 2
_symmetry_cell_setting 'triclinic'
loop_
_space_group_symop_operation_xyz
x,y,z
-x,-y,-z
loop_
_atom_site_type_symbol
_atom_site_label
_atom_site_fract_x
_atom_site_fract_y
_atom_site_fract_z
Si Si1 0.091551 0.246923 0.966439
Si Si2 0.856565 0.231287 0.086636
Si Si3 0.205170 0.043169 0.507230
Si Si4 0.618050 0.615382 0.518626
Si Si5 0.810167 0.999637 0.104018
Si Si6 0.349972 0.273957 0.775777
Si Si7 0.665109 0.491892 0.863714
Si Si8 0.262460 0.798762 0.424382
O O1 0.975395 0.267332 0.035271
O O2 0.324883 0.369750 0.080152
O O3 0.852934 0.219316 0.755050
O O4 0.199498 0.130978 0.984653
O O5 0.046082 0.327100 0.287457
O O6 0.890212 0.102524 0.087339
O O7 0.526777 0.228710 0.931983
O O8 0.349641 0.181890 0.648286
O O9 0.026018 0.032102 0.313783
O O10 0.000000 0.000000 0.500000
O O11 0.375766 0.943143 0.545242
O O12 0.500000 0.500000 0.500000
O O13 0.522095 0.571186 0.342766
O O14 0.475580 0.720932 0.516285
O O15 0.500000 0.000000 0.000000
O O16 0.525988 0.408819 0.870312
O O17 0.025652 0.254845 0.656284
O O18 0.000000 0.500000 0.000000
#
# Coordination Sequence:
#
# PCOD9041066 Si02
#       8
#     2   2   2   2   2   2   2   2
#     4  11  23  42  66  95 133 182 219 263 337 403
#     4  12  24  42  70  99 138 175 217 278 345 384
#     4   9  20  41  66  96 131 171 220 269 330 393
#     4  12  24  44  64  98 135 173 220 280 333 390
#     4  11  24  43  67 104 139 168 224 289 330 386
#     4  11  23  44  72  99 130 185 223 273 333 400
#     4  12  22  46  67  94 136 178 226 269 328 417
#     4  10  23  43  70  97 131 176 231 276 321 405
#
# _framework density 23.317972000000001
#
# number of rings (size 3 to 8) (size 9 to 14) (size 15 to 20)
#    0.000    1.000    3.750    3.375    0.000    4.500 
#    2.250    5.000    0.000    0.000    0.000    0.000 
#    0.000    0.000    0.000    0.000    0.000    0.000 
#
# Total GULP energy -89578.238614 kJ/mol
# GULP energy per Si atom -5598.639913 kJ/mol
# Density = 2.326490 g / cm^3
# Si number density = 23.317972 Si / 1000 Ang^3
#
#
#
# Elastic Constant Matrix: (Units=GPa)
#
#
# Indices 1 2 3 4 5 6 
#
# 1 66.6735 20.5436 8.1803 4.7448 -2.4606 7.2027
# 2 20.5436 143.1836 13.3034 6.2155 -2.6506 20.7085
# 3 8.1803 13.3034 84.3025 5.6844 -4.8619 -15.0159
# 4 4.7448 6.2155 5.6844 38.3062 1.3616 -0.3500
# 5 -2.4606 -2.6506 -4.8619 1.3616 30.8648 3.3896
# 6 7.2027 20.7085 -15.0159 -0.3500 3.3896 37.3029
#
#
#
# Elastic Compliance Matrix: (Units=1/GPa)
#
#
# Indices 1 2 3 4 5 6 
#
# 1 0.016194 -0.001639 -0.001671 -0.001565 0.001288 -0.003021
# 2 -0.001639 0.008191 -0.001929 -0.000917 0.000869 -0.005095
# 3 -0.001671 -0.001929 0.013707 -0.001494 0.001181 0.006790
# 4 -0.001565 -0.000917 -0.001494 0.026735 -0.001686 0.000614
# 5 0.001288 0.000869 0.001181 -0.001686 0.033198 -0.003288
# 6 -0.003021 -0.005095 0.006790 0.000614 -0.003288 0.033257
#
#
# Mechanical properties :
#
#
# Convention : Reuss Voigt Hill
#
# Bulk Modulus (GPa) = 36.21487 42.02378 39.11932
# Shear Modulus (GPa) = 33.12010 38.10361 35.61185
#
# Velocity S-wave (km/s) = 3.77287 4.04677 3.91222
# Velocity P-wave (km/s) = 5.87741 6.31635 6.10083
#
# Compressibility (1/GPa) = 0.02761297
#
# Stress axis : x y z
#
# Youngs Moduli (GPa) = 61.75160 122.08129 72.95643
#
# Poissons Ratio (x) = 0.20015 0.12191
# Poissons Ratio (y) = 0.10124 0.14074
# Poissons Ratio (z) = 0.10318 0.23550
#
# Static dielectric constant tensor:
#      x y z
#    x 1.894190 0.009760 0.018620 
#    y 0.009760 1.897580 0.026070 
#    z 0.018620 0.026070 1.888120 
# 
# From -- ./inp_files/495688.got.cif
#   From: 2010.05.17/outbox.cif.g08.bks.cpg/sg2_248_cif.got.tgz:495688.got - 2010.06.03 11:33:40.
