data_PCOD9041835
_publ_section_title
;
Structure prediction by ZEFSAII (Michael W. Deem and Ramdas Pophale) SiO2 
 PCOD9041835
Probable space group: P -1
;
_chemical_formula_sum "Si O2"
_cell_formula_units_Z 14
_cell_length_a 8.786331
_cell_length_b 4.836506
_cell_length_c 15.122474
_cell_angle_alpha 90.955691
_cell_angle_beta 56.921309
_cell_angle_gamma 100.682716
_cell_volume 526.349308
_symmetry_space_group_name_H-M "P -1"
_symmetry_group_IT_number 2
_symmetry_cell_setting 'triclinic'
loop_
_space_group_symop_operation_xyz
x,y,z
-x,-y,-z
loop_
_atom_site_type_symbol
_atom_site_label
_atom_site_fract_x
_atom_site_fract_y
_atom_site_fract_z
Si Si1 0.101294 0.830264 0.635778
Si Si2 0.434337 0.494857 0.729770
Si Si3 0.225067 0.040737 0.039584
Si Si4 0.023328 0.566788 0.852406
Si Si5 0.393569 0.953964 0.416797
Si Si6 0.564741 0.858544 0.851592
Si Si7 0.118274 0.743346 0.351533
O O1 0.060496 0.735841 0.748823
O O2 0.313510 0.855684 0.538029
O O3 0.951065 0.589903 0.632463
O O4 0.053862 0.128687 0.627237
O O5 0.223644 0.514286 0.812900
O O6 0.460712 0.202143 0.678522
O O7 0.534996 0.602325 0.790472
O O8 0.534179 0.720132 0.626345
O O9 0.109307 0.741674 0.110140
O O10 0.352646 0.201744 0.080096
O O11 0.372460 0.962379 0.924278
O O12 0.084582 0.236197 0.054907
O O13 0.203787 0.847833 0.419067
O O14 0.716666 0.112590 0.764562
#
# Coordination Sequence:
#
# PCOD9041835 Si02
#       7
#     2   2   2   2   2   2   2
#     4  12  22  39  64  94 133 166 214 261 319 378
#     4  11  26  43  66  95 136 166 215 264 324 379
#     4  11  25  42  70  93 129 171 219 260 324 378
#     4  12  25  44  64  99 132 173 208 266 321 386
#     4  11  24  40  65  95 128 174 213 261 320 381
#     4  10  23  44  67  97 126 171 213 273 312 384
#     4  11  21  39  64  95 128 165 209 276 311 374
#
# _framework density 26.598306999999998
#
# number of rings (size 3 to 8) (size 9 to 14) (size 15 to 20)
#    0.000    0.857    2.857    4.286    0.000    8.000 
#    0.000    0.000    0.000    0.000    0.000    0.000 
#    0.000    0.000    0.000    0.000    0.000    0.000 
#
# Total GULP energy -78500.130733 kJ/mol
# GULP energy per Si atom -5607.152195 kJ/mol
# Density = 2.653777 g / cm^3
# Si number density = 26.598307 Si / 1000 Ang^3
#
#
#
# Elastic Constant Matrix: (Units=GPa)
#
#
# Indices 1 2 3 4 5 6 
#
# 1 55.6282 7.3570 19.4290 10.3620 -29.4296 -10.9658
# 2 7.3570 75.1886 12.1421 8.5910 -12.5938 -9.5519
# 3 19.4290 12.1421 132.8241 7.9767 -27.1723 3.5913
# 4 10.3620 8.5910 7.9767 23.5503 -10.1856 -21.0017
# 5 -29.4296 -12.5938 -27.1723 -10.1856 45.9041 1.2720
# 6 -10.9658 -9.5519 3.5913 -21.0017 1.2720 29.5459
#
#
#
# Elastic Compliance Matrix: (Units=1/GPa)
#
#
# Indices 1 2 3 4 5 6 
#
# 1 0.032214 0.002144 -0.001828 0.017307 0.023329 0.024169
# 2 0.002144 0.014759 -0.000971 0.003223 0.005349 0.007746
# 3 -0.001828 -0.000971 0.009050 -0.007697 0.002423 -0.007668
# 4 0.017307 0.003223 -0.007697 0.162778 0.040152 0.122377
# 5 0.023329 0.005349 0.002423 0.040152 0.047538 0.036587
# 6 0.024169 0.007746 -0.007668 0.122377 0.036587 0.131664
#
#
# Mechanical properties :
#
#
# Convention : Reuss Voigt Hill
#
# Bulk Modulus (GPa) = 18.27785 37.94410 28.11097
# Shear Modulus (GPa) = 11.97452 34.78091 23.37771
#
# Velocity S-wave (km/s) = 2.12409 3.62005 2.96787
# Velocity P-wave (km/s) = 3.59199 5.63645 4.72610
#
# Compressibility (1/GPa) = 0.05471104
#
# Stress axis : x y z
#
# Youngs Moduli (GPa) = 31.04203 67.75666 110.49416
#
# Poissons Ratio (x) = -0.14525 0.20203
# Poissons Ratio (y) = -0.06655 0.10734
# Poissons Ratio (z) = 0.05676 0.06582
#
# Static dielectric constant tensor:
#      x y z
#    x 2.166850 -0.001380 0.046960 
#    y -0.001380 1.970510 0.056880 
#    z 0.046960 0.056880 2.081540 
# 
# From -- ./inp_files/552653.got.cif
#   From: 2010.05.17/outbox.cif.g08.bks.cpg/sg2_277_cif.got.tgz:552653.got - 2010.06.03 11:33:40.
