data_PCOD9041338
_publ_section_title
;
Structure prediction by ZEFSAII (Michael W. Deem and Ramdas Pophale) SiO2 
 PCOD9041338
Probable space group: P -1
;
_chemical_formula_sum "Si O2"
_cell_formula_units_Z 16
_cell_length_a 14.918657
_cell_length_b 15.537168
_cell_length_c 12.016041
_cell_angle_alpha 151.565880
_cell_angle_beta 150.727180
_cell_angle_gamma 35.432492
_cell_volume 634.692451
_symmetry_space_group_name_H-M "P -1"
_symmetry_group_IT_number 2
_symmetry_cell_setting 'triclinic'
loop_
_space_group_symop_operation_xyz
x,y,z
-x,-y,-z
loop_
_atom_site_type_symbol
_atom_site_label
_atom_site_fract_x
_atom_site_fract_y
_atom_site_fract_z
Si Si1 0.335569 0.731297 0.800249
Si Si2 0.289112 0.111979 0.917659
Si Si3 0.637343 0.689892 0.570029
Si Si4 0.283399 0.476815 0.749975
Si Si5 0.217346 0.656519 0.105941
Si Si6 0.920600 0.164119 0.182239
Si Si7 0.654747 0.582554 0.830161
Si Si8 0.019970 0.036666 0.367406
O O1 0.316913 0.522134 0.573488
O O2 0.532609 0.719420 0.943535
O O3 0.177043 0.836314 0.664982
O O4 0.277485 0.844027 0.979183
O O5 0.278303 0.177498 0.107217
O O6 0.252789 0.303488 0.026344
O O7 0.152715 0.009531 0.586676
O O8 0.500000 0.000000 0.000000
O O9 0.708277 0.685329 0.514962
O O10 0.410568 0.732467 0.382811
O O11 0.500000 0.500000 0.000000
O O12 0.234026 0.495945 0.848236
O O13 0.134818 0.648733 0.733737
O O14 0.218527 0.570108 0.131020
O O15 0.051115 0.832425 0.116705
O O16 0.050914 0.154833 0.423180
O O17 0.000000 0.000000 0.000000
O O18 0.500000 0.500000 0.500000
#
# Coordination Sequence:
#
# PCOD9041338 Si02
#       8
#     2   2   2   2   2   2   2   2
#     4   8  18  33  55  83 106 143 191 228 274 321
#     4  12  22  37  58  80 117 153 190 230 287 344
#     4   9  17  32  53  81 107 145 188 230 271 328
#     4   9  16  28  54  85 104 138 191 239 258 331
#     4  10  17  33  57  85 106 145 193 228 282 330
#     4   9  16  31  55  87 114 141 183 246 271 328
#     4  11  20  38  57  77 117 155 190 230 276 345
#     4  10  20  33  57  89 114 140 189 236 286 329
#
# _framework density 25.209060000000001
#
# number of rings (size 3 to 8) (size 9 to 14) (size 15 to 20)
#    0.750    1.500    5.000    0.750    0.000    0.500 
#    0.000    2.500    0.000    3.750    0.000    0.000 
#    0.000    0.000    0.000    0.000    0.000    0.000 
#
# Total GULP energy -89222.281527 kJ/mol
# GULP energy per Si atom -5576.392595 kJ/mol
# Density = 2.515168 g / cm^3
# Si number density = 25.209060 Si / 1000 Ang^3
#
#
#
# Elastic Constant Matrix: (Units=GPa)
#
#
# Indices 1 2 3 4 5 6 
#
# 1 59.6382 10.2276 43.5311 3.2873 -25.0309 -2.4292
# 2 10.2276 114.0339 17.5008 -17.8496 0.2796 -10.0653
# 3 43.5311 17.5008 107.1753 -7.2246 -31.0200 -3.9902
# 4 3.2873 -17.8496 -7.2246 31.3034 -0.5458 -12.7272
# 5 -25.0309 0.2796 -31.0200 -0.5458 40.0084 -4.0142
# 6 -2.4292 -10.0653 -3.9902 -12.7272 -4.0142 42.1570
#
#
#
# Elastic Compliance Matrix: (Units=1/GPa)
#
#
# Indices 1 2 3 4 5 6 
#
# 1 0.028198 -0.002301 -0.008310 -0.006214 0.011076 -0.000532
# 2 -0.002301 0.010746 -0.000468 0.008161 -0.001291 0.004730
# 3 -0.008310 -0.000468 0.015330 0.005576 0.007089 0.003219
# 4 -0.006214 0.008161 0.005576 0.045079 0.002596 0.015975
# 5 0.011076 -0.001291 0.007089 0.002596 0.038007 0.005404
# 6 -0.000532 0.004730 0.003219 0.015975 0.005404 0.030461
#
#
# Mechanical properties :
#
#
# Convention : Reuss Voigt Hill
#
# Bulk Modulus (GPa) = 31.13699 47.04070 39.08884
# Shear Modulus (GPa) = 24.91489 36.66628 30.79059
#
# Velocity S-wave (km/s) = 3.14718 3.81791 3.49866
# Velocity P-wave (km/s) = 5.05813 6.17544 5.64450
#
# Compressibility (1/GPa) = 0.03211614
#
# Stress axis : x y z
#
# Youngs Moduli (GPa) = 35.46373 93.06172 65.23293
#
# Poissons Ratio (x) = 0.21409 0.54210
# Poissons Ratio (y) = 0.08159 0.03051
# Poissons Ratio (z) = 0.29471 0.04353
#
# Static dielectric constant tensor:
#      x y z
#    x 2.063070 0.007380 0.005360 
#    y 0.007380 1.972050 -0.037250 
#    z 0.005360 -0.037250 2.085720 
# 
# From -- ./inp_files/466678.got.cif
#   From: 2010.05.17/outbox.cif.g08.bks.cpg/sg2_234_cif.got.tgz:466678.got - 2010.06.03 11:33:40.
