data_PCOD9041902
_publ_section_title
;
Structure prediction by ZEFSAII (Michael W. Deem and Ramdas Pophale) SiO2 
 PCOD9041902
Probable space group: P -1
;
_chemical_formula_sum "Si O2"
_cell_formula_units_Z 15
_cell_length_a 7.042097
_cell_length_b 14.208499
_cell_length_c 14.509570
_cell_angle_alpha 28.583792
_cell_angle_beta 81.673031
_cell_angle_gamma 89.728410
_cell_volume 663.896456
_symmetry_space_group_name_H-M "P -1"
_symmetry_group_IT_number 2
_symmetry_cell_setting 'triclinic'
loop_
_space_group_symop_operation_xyz
x,y,z
-x,-y,-z
loop_
_atom_site_type_symbol
_atom_site_label
_atom_site_fract_x
_atom_site_fract_y
_atom_site_fract_z
Si Si1 0.065026 0.788714 0.658161
Si Si2 0.500000 0.500000 0.500000
Si Si3 0.901035 0.752150 0.326772
Si Si4 0.887260 0.212867 0.904025
Si Si5 0.311751 0.594520 0.949484
Si Si6 0.199550 0.826042 0.404831
Si Si7 0.482992 0.751484 0.991329
Si Si8 0.695515 0.560205 0.262584
O O1 0.233321 0.731983 0.760950
O O2 0.140295 0.799098 0.538790
O O3 0.000000 0.000000 0.500000
O O4 0.872539 0.599125 0.848907
O O5 0.695603 0.585111 0.477584
O O6 0.613604 0.656219 0.273321
O O7 0.049595 0.722597 0.260311
O O8 0.008494 0.763902 0.407035
O O9 0.870503 0.975295 0.120578
O O10 0.685732 0.248193 0.923921
O O11 0.071144 0.335288 0.849081
O O12 0.500000 0.500000 0.000000
O O13 0.381484 0.731098 0.917287
O O14 0.329302 0.669312 0.503771
O O15 0.333950 0.050236 0.184821
O O16 0.582244 0.571076 0.167446
#
# Coordination Sequence:
#
# PCOD9041902 Si02
#       8
#     2   1   2   2   2   2   2   2
#     4  11  27  48  74 106 143 183 237 301 356 421
#     4  10  24  40  68 100 138 186 236 280 344 412
#     4  10  23  44  68 101 144 184 233 286 343 414
#     4  10  23  45  66  97 145 186 227 287 342 410
#     4  11  26  49  74 103 143 186 233 299 361 424
#     4  12  26  44  72 104 141 183 234 291 348 416
#     4  12  26  43  74 101 140 188 235 282 353 415
#     4  11  25  43  64 105 138 181 237 284 339 417
#
# _framework density 22.593885
#
# number of rings (size 3 to 8) (size 9 to 14) (size 15 to 20)
#    0.000    1.067    1.333    3.200    7.467    6.933 
#    0.000    0.000    0.000    0.000    0.000    0.000 
#    0.000    0.000    0.000    0.000    0.000    0.000 
#
# Total GULP energy -83646.289481 kJ/mol
# GULP energy per Si atom -5576.419299 kJ/mol
# Density = 2.254246 g / cm^3
# Si number density = 22.593885 Si / 1000 Ang^3
#
#
#
# Elastic Constant Matrix: (Units=GPa)
#
#
# Indices 1 2 3 4 5 6 
#
# 1 137.2201 58.4743 67.2016 8.7989 6.4488 24.8044
# 2 58.4743 81.6535 19.8111 13.0339 7.2638 28.8087
# 3 67.2016 19.8111 85.4227 7.1927 3.2665 13.8433
# 4 8.7989 13.0339 7.1927 36.0624 -0.3799 4.7523
# 5 6.4488 7.2638 3.2665 -0.3799 38.5056 5.9429
# 6 24.8044 28.8087 13.8433 4.7523 5.9429 41.8292
#
#
#
# Elastic Compliance Matrix: (Units=1/GPa)
#
#
# Indices 1 2 3 4 5 6 
#
# 1 0.016618 -0.009539 -0.011022 0.001565 -0.000063 0.000194
# 2 -0.009539 0.022751 0.004468 -0.005396 -0.001480 -0.010668
# 3 -0.011022 0.004468 0.020027 -0.002549 -0.000283 -0.002839
# 4 0.001565 -0.005396 -0.002549 0.029811 0.001256 0.000067
# 5 -0.000063 -0.001480 -0.000283 0.001256 0.026727 -0.002790
# 6 0.000194 -0.010668 -0.002839 0.000067 -0.002790 0.032467
#
#
# Mechanical properties :
#
#
# Convention : Reuss Voigt Hill
#
# Bulk Modulus (GPa) = 36.75240 66.14114 51.44677
# Shear Modulus (GPa) = 26.36362 33.86673 30.11518
#
# Velocity S-wave (km/s) = 3.41962 3.87581 3.65484
# Velocity P-wave (km/s) = 5.64744 7.02614 6.37418
#
# Compressibility (1/GPa) = 0.02720911
#
# Stress axis : x y z
#
# Youngs Moduli (GPa) = 60.17708 43.95451 49.93377
#
# Poissons Ratio (x) = 0.41928 0.55035
# Poissons Ratio (y) = 0.57403 -0.22309
# Poissons Ratio (z) = 0.66325 -0.19638
#
# Static dielectric constant tensor:
#      x y z
#    x 1.877450 -0.061550 0.031810 
#    y -0.061550 1.819680 0.095130 
#    z 0.031810 0.095130 1.760940 
# 
# From -- ./inp_files/484099.got.cif
#   From: 2010.05.17/outbox.cif.g08.bks.cpg/sg2_243_cif.got.tgz:484099.got - 2010.06.03 11:33:40.
