data_PCOD9041912
_publ_section_title
;
Structure prediction by ZEFSAII (Michael W. Deem and Ramdas Pophale) SiO2 
 PCOD9041912
Probable space group: P -1
;
_chemical_formula_sum "Si O2"
_cell_formula_units_Z 14
_cell_length_a 21.774133
_cell_length_b 4.876461
_cell_length_c 14.972150
_cell_angle_alpha 78.761979
_cell_angle_beta 18.649764
_cell_angle_gamma 80.626269
_cell_volume 497.424130
_symmetry_space_group_name_H-M "P -1"
_symmetry_group_IT_number 2
_symmetry_cell_setting 'triclinic'
loop_
_space_group_symop_operation_xyz
x,y,z
-x,-y,-z
loop_
_atom_site_type_symbol
_atom_site_label
_atom_site_fract_x
_atom_site_fract_y
_atom_site_fract_z
Si Si1 0.234323 0.886224 0.439993
Si Si2 0.716821 0.627875 0.210025
Si Si3 0.224069 0.328353 0.071503
Si Si4 0.383469 0.291640 0.468867
Si Si5 0.400550 0.937882 0.965907
Si Si6 0.174599 0.443381 0.402089
Si Si7 0.032418 0.198391 0.856285
O O1 0.449016 0.930029 0.178876
O O2 0.208227 0.119880 0.384623
O O3 0.097350 0.998600 0.699391
O O4 0.203022 0.590344 0.451883
O O5 0.500000 0.500000 0.500000
O O6 0.693267 0.801468 0.322262
O O7 0.783909 0.770704 0.015144
O O8 0.862153 0.390401 0.050451
O O9 0.044992 0.513411 0.321309
O O10 0.428048 0.503721 0.789325
O O11 0.224026 0.099549 0.163087
O O12 0.467386 0.060832 0.305538
O O13 0.213024 0.399131 0.635457
O O14 0.322337 0.630284 0.125149
O O15 0.000000 0.000000 0.000000
#
# Coordination Sequence:
#
# PCOD9041912 Si02
#       7
#     2   2   2   2   2   2   2
#     4  11  28  48  78 110 151 194 255 312 375 441
#     4  10  23  44  68 103 145 188 240 307 373 441
#     4  11  26  45  71 107 153 194 247 311 377 444
#     4  10  26  44  73 100 151 188 254 297 376 438
#     4  11  27  45  75 107 144 205 247 314 366 453
#     4  12  27  50  77 111 149 200 254 312 370 441
#     4  11  25  44  75 110 142 199 246 312 369 456
#
# _framework density 28.144991999999998
#
# number of rings (size 3 to 8) (size 9 to 14) (size 15 to 20)
#    0.000    1.143    1.429    1.714   18.000    1.143 
#    0.000    0.000    0.000    0.000    0.000    0.000 
#    0.000    0.000    0.000    0.000    0.000    0.000 
#
# Total GULP energy -78540.045846 kJ/mol
# GULP energy per Si atom -5610.003275 kJ/mol
# Density = 2.808093 g / cm^3
# Si number density = 28.144992 Si / 1000 Ang^3
#
#
#
# Elastic Constant Matrix: (Units=GPa)
#
#
# Indices 1 2 3 4 5 6 
#
# 1 183.2279 21.2219 53.0650 10.9740 -7.5274 -11.7313
# 2 21.2219 72.6215 22.1800 -1.6844 -15.6567 -10.0245
# 3 53.0650 22.1800 157.7720 11.0767 -11.6243 -10.7235
# 4 10.9740 -1.6844 11.0767 35.4028 -1.0108 -4.8238
# 5 -7.5274 -15.6567 -11.6243 -1.0108 66.7497 5.6745
# 6 -11.7313 -10.0245 -10.7235 -4.8238 5.6745 47.1617
#
#
#
# Elastic Compliance Matrix: (Units=1/GPa)
#
#
# Indices 1 2 3 4 5 6 
#
# 1 0.006242 -0.001200 -0.001784 -0.001331 0.000028 0.000753
# 2 -0.001200 0.015650 -0.001541 0.002029 0.003084 0.002514
# 3 -0.001784 -0.001541 0.007367 -0.001718 0.000639 0.000651
# 4 -0.001331 0.002029 -0.001718 0.029670 0.000245 0.002715
# 5 0.000028 0.003084 0.000639 0.000245 0.015915 -0.001082
# 6 0.000753 0.002514 0.000651 0.002715 -0.001082 0.022481
#
#
# Mechanical properties :
#
#
# Convention : Reuss Voigt Hill
#
# Bulk Modulus (GPa) = 49.48262 67.39501 58.43881
# Shear Modulus (GPa) = 44.20365 51.00648 47.60507
#
# Velocity S-wave (km/s) = 3.96734 4.26170 4.11715
# Velocity P-wave (km/s) = 6.21336 6.94361 6.58861
#
# Compressibility (1/GPa) = 0.02020912
#
# Stress axis : x y z
#
# Youngs Moduli (GPa) = 160.19351 63.89590 135.74137
#
# Poissons Ratio (x) = 0.07669 0.24220
# Poissons Ratio (y) = 0.19228 0.20915
# Poissons Ratio (z) = 0.28583 0.09845
#
# Static dielectric constant tensor:
#      x y z
#    x 2.216670 0.006630 0.043300 
#    y 0.006630 2.171920 -0.042320 
#    z 0.043300 -0.042320 2.231270 
# 
# From -- ./inp_files/27254.got.cif
#   From: 2010.05.17/outbox.cif.g08.bks.cpg/sg2_14_cif.got.tgz:27254.got - 2010.06.03 11:33:40.
