data_PCOD9041280
_publ_section_title
;
Structure prediction by ZEFSAII (Michael W. Deem and Ramdas Pophale) SiO2 
 PCOD9041280
Probable space group: P -1
;
_chemical_formula_sum "Si O2"
_cell_formula_units_Z 16
_cell_length_a 11.806198
_cell_length_b 11.558805
_cell_length_c 5.941791
_cell_angle_alpha 120.251530
_cell_angle_beta 108.076063
_cell_angle_gamma 72.197647
_cell_volume 654.745572
_symmetry_space_group_name_H-M "P -1"
_symmetry_group_IT_number 2
_symmetry_cell_setting 'triclinic'
loop_
_space_group_symop_operation_xyz
x,y,z
-x,-y,-z
loop_
_atom_site_type_symbol
_atom_site_label
_atom_site_fract_x
_atom_site_fract_y
_atom_site_fract_z
Si Si1 0.891416 0.045102 0.304562
Si Si2 0.685638 0.227460 0.650568
Si Si3 0.755263 0.809078 0.841858
Si Si4 0.679316 0.426007 0.518828
Si Si5 0.455539 0.284773 0.171492
Si Si6 0.556125 0.842034 0.426799
Si Si7 0.023071 0.425163 0.190363
Si Si8 0.144247 0.740548 0.854624
O O1 0.778119 0.135559 0.451793
O O2 0.929833 0.140734 0.226946
O O3 0.000000 0.000000 0.500000
O O4 0.834869 0.921578 0.051885
O O5 0.693357 0.383752 0.747916
O O6 0.549151 0.200521 0.520308
O O7 0.746468 0.200158 0.903895
O O8 0.626503 0.827520 0.913834
O O9 0.695042 0.824759 0.574185
O O10 0.842996 0.666999 0.812453
O O11 0.589046 0.323773 0.295575
O O12 0.617388 0.580589 0.617745
O O13 0.797318 0.379384 0.397673
O O14 0.442485 0.263138 0.876920
O O15 0.500000 0.000000 0.500000
O O16 0.000000 0.500000 0.500000
O O17 0.932766 0.316640 0.057832
O O18 0.000000 0.500000 0.000000
#
# Coordination Sequence:
#
# PCOD9041280 Si02
#       8
#     2   2   2   2   2   2   2   2
#     4  11  27  48  78 111 152 210 277 336 404 490
#     4  11  23  43  72 107 152 199 257 326 405 481
#     4  12  28  48  77 114 159 212 269 335 416 489
#     4  10  23  43  72 111 149 207 253 325 392 489
#     4  11  24  43  70 109 159 198 264 316 403 480
#     4  12  26  43  72 113 160 209 258 330 407 497
#     4  12  32  54  82 115 161 214 280 349 418 490
#     4  11  25  48  78 109 153 204 266 334 415 480
#
# _framework density 24.436976000000001
#
# number of rings (size 3 to 8) (size 9 to 14) (size 15 to 20)
#    0.000    0.750    2.500    3.000   10.500    5.500 
#    0.000    0.000    0.000    0.000    0.000    0.000 
#    0.000    0.000    0.000    0.000    0.000    0.000 
#
# Total GULP energy -89185.469980 kJ/mol
# GULP energy per Si atom -5574.091874 kJ/mol
# Density = 2.438136 g / cm^3
# Si number density = 24.436976 Si / 1000 Ang^3
#
#
#
# Elastic Constant Matrix: (Units=GPa)
#
#
# Indices 1 2 3 4 5 6 
#
# 1 138.3691 29.9961 11.8609 -6.6082 14.8860 10.8128
# 2 29.9961 101.4848 7.8919 -8.8279 4.6768 1.4384
# 3 11.8609 7.8919 63.7573 2.8107 13.1869 1.1809
# 4 -6.6082 -8.8279 2.8107 24.3432 -8.4588 3.8999
# 5 14.8860 4.6768 13.1869 -8.4588 48.3210 -6.6764
# 6 10.8128 1.4384 1.1809 3.8999 -6.6764 49.7359
#
#
#
# Elastic Compliance Matrix: (Units=1/GPa)
#
#
# Indices 1 2 3 4 5 6 
#
# 1 0.008213 -0.002135 -0.000821 0.001123 -0.002191 -0.002086
# 2 -0.002135 0.010878 -0.001234 0.003717 0.000588 -0.000034
# 3 -0.000821 -0.001234 0.017265 -0.004376 -0.005181 -0.000548
# 4 0.001123 0.003717 -0.004376 0.046552 0.008252 -0.002790
# 5 -0.002191 0.000588 -0.005181 0.008252 0.024619 0.003240
# 6 -0.002086 -0.000034 -0.000548 -0.002790 0.003240 0.021227
#
#
# Mechanical properties :
#
#
# Convention : Reuss Voigt Hill
#
# Bulk Modulus (GPa) = 35.74783 44.78989 40.26886
# Shear Modulus (GPa) = 34.13918 41.40416 37.77167
#
# Velocity S-wave (km/s) = 3.74174 4.12068 3.93577
# Velocity P-wave (km/s) = 5.77303 6.40379 6.09657
#
# Compressibility (1/GPa) = 0.02797372
#
# Stress axis : x y z
#
# Youngs Moduli (GPa) = 121.76219 91.93249 57.92184
#
# Poissons Ratio (x) = 0.19631 0.04757
# Poissons Ratio (y) = 0.26001 0.07148
# Poissons Ratio (z) = 0.09999 0.11345
#
# Static dielectric constant tensor:
#      x y z
#    x 1.947040 0.036770 -0.021900 
#    y 0.036770 2.197160 -0.108480 
#    z -0.021900 -0.108480 2.110370 
# 
# From -- ./inp_files/72370.got.cif
#   From: 2010.05.17/outbox.cif.g08.bks.cpg/sg2_37_cif.got.tgz:72370.got - 2010.06.03 11:33:40.
