data_PCOD9041867
_publ_section_title
;
Structure prediction by ZEFSAII (Michael W. Deem and Ramdas Pophale) SiO2 
 PCOD9041867
Probable space group: P -1
;
_chemical_formula_sum "Si O2"
_cell_formula_units_Z 16
_cell_length_a 6.863757
_cell_length_b 8.415570
_cell_length_c 16.004199
_cell_angle_alpha 54.030505
_cell_angle_beta 74.062186
_cell_angle_gamma 86.699905
_cell_volume 713.000247
_symmetry_space_group_name_H-M "P -1"
_symmetry_group_IT_number 2
_symmetry_cell_setting 'triclinic'
loop_
_space_group_symop_operation_xyz
x,y,z
-x,-y,-z
loop_
_atom_site_type_symbol
_atom_site_label
_atom_site_fract_x
_atom_site_fract_y
_atom_site_fract_z
Si Si1 0.872863 0.867112 0.782228
Si Si2 0.439261 0.865470 0.251435
Si Si3 0.638065 0.713320 0.423780
Si Si4 0.607271 0.813935 0.077967
Si Si5 0.017745 0.722809 0.968055
Si Si6 0.216633 0.573831 0.140677
Si Si7 0.963580 0.420181 0.661923
Si Si8 0.064016 0.141468 0.526864
O O1 0.828616 0.648832 0.817550
O O2 0.662975 0.938197 0.816305
O O3 0.030388 0.860959 0.842257
O O4 0.951160 0.017874 0.654007
O O5 0.523799 0.859437 0.336274
O O6 0.606353 0.832343 0.172571
O O7 0.249965 0.689599 0.315734
O O8 0.500000 0.500000 0.500000
O O9 0.705658 0.798851 0.481013
O O10 0.847242 0.677855 0.363965
O O11 0.818745 0.780716 0.021583
O O12 0.444772 0.624585 0.131557
O O13 0.500000 0.000000 0.000000
O O14 0.181918 0.718457 0.023247
O O15 0.000000 0.500000 0.000000
O O16 0.067590 0.595681 0.229800
O O17 0.997304 0.645802 0.556381
O O18 0.000000 0.000000 0.500000
#
# Coordination Sequence:
#
# PCOD9041867 Si02
#       8
#     2   2   2   2   2   2   2   2
#     4  11  22  44  66  99 138 186 222 291 358 410
#     4  11  23  43  69 103 138 176 237 286 350 427
#     4  12  24  41  70 100 131 187 236 284 351 421
#     4  11  23  43  68 103 135 178 233 293 344 414
#     4  10  23  44  67  99 139 180 230 279 355 423
#     4  10  24  43  70  97 139 183 229 287 355 421
#     4  11  22  45  70  96 142 182 228 295 349 418
#     4  12  24  44  70  96 144 181 230 292 357 417
#
# _framework density 22.440384000000002
#
# number of rings (size 3 to 8) (size 9 to 14) (size 15 to 20)
#    0.000    1.000    5.000    1.875    0.000    3.500 
#    4.500    3.750    0.000    0.000    0.000    0.000 
#    0.000    0.000    0.000    0.000    0.000    0.000 
#
# Total GULP energy -89381.686162 kJ/mol
# GULP energy per Si atom -5586.355385 kJ/mol
# Density = 2.238931 g / cm^3
# Si number density = 22.440384 Si / 1000 Ang^3
#
#
#
# Elastic Constant Matrix: (Units=GPa)
#
#
# Indices 1 2 3 4 5 6 
#
# 1 57.9066 47.0922 17.6988 0.1409 16.3324 13.4639
# 2 47.0922 119.7924 38.1408 4.0665 2.3703 17.3219
# 3 17.6988 38.1408 94.4339 10.8188 15.1155 11.7926
# 4 0.1409 4.0665 10.8188 34.0197 6.4262 6.9528
# 5 16.3324 2.3703 15.1155 6.4262 48.3621 6.2822
# 6 13.4639 17.3219 11.7926 6.9528 6.2822 37.2418
#
#
#
# Elastic Compliance Matrix: (Units=1/GPa)
#
#
# Indices 1 2 3 4 5 6 
#
# 1 0.030103 -0.011261 0.000630 0.003858 -0.009683 -0.004932
# 2 -0.011261 0.014287 -0.004080 -0.000867 0.004742 -0.001920
# 3 0.000630 -0.004080 0.013181 -0.002746 -0.003588 -0.001386
# 4 0.003858 -0.000867 -0.002746 0.032224 -0.003974 -0.005468
# 5 -0.009683 0.004742 -0.003588 -0.003974 0.025511 -0.001131
# 6 -0.004932 -0.001920 -0.001386 -0.005468 -0.001131 0.031178
#
#
# Mechanical properties :
#
#
# Convention : Reuss Voigt Hill
#
# Bulk Modulus (GPa) = 35.52452 53.11072 44.31762
# Shear Modulus (GPa) = 26.98516 35.20480 31.09498
#
# Velocity S-wave (km/s) = 3.47151 3.96512 3.72650
# Velocity P-wave (km/s) = 5.65097 6.68444 6.18932
#
# Compressibility (1/GPa) = 0.02814957
#
# Stress axis : x y z
#
# Youngs Moduli (GPa) = 33.21975 69.99517 75.86671
#
# Poissons Ratio (x) = 0.78819 -0.04779
# Poissons Ratio (y) = 0.37407 0.30952
# Poissons Ratio (z) = -0.02093 0.28556
#
# Static dielectric constant tensor:
#      x y z
#    x 1.846060 0.027870 -0.010440 
#    y 0.027870 1.861770 0.010130 
#    z -0.010440 0.010130 1.866610 
# 
# From -- ./inp_files/547752.got.cif
#   From: 2010.05.17/outbox.cif.g08.bks.cpg/sg2_274_cif.got.tgz:547752.got - 2010.06.03 11:33:40.
