data_PCOD9041000
_publ_section_title
;
Structure prediction by ZEFSAII (Michael W. Deem and Ramdas Pophale) SiO2 
 PCOD9041000
Probable space group: P -1
;
_chemical_formula_sum "Si O2"
_cell_formula_units_Z 16
_cell_length_a 5.121851
_cell_length_b 8.522596
_cell_length_c 21.485386
_cell_angle_alpha 57.209057
_cell_angle_beta 94.442767
_cell_angle_gamma 61.917606
_cell_volume 621.829885
_symmetry_space_group_name_H-M "P -1"
_symmetry_group_IT_number 2
_symmetry_cell_setting 'triclinic'
loop_
_space_group_symop_operation_xyz
x,y,z
-x,-y,-z
loop_
_atom_site_type_symbol
_atom_site_label
_atom_site_fract_x
_atom_site_fract_y
_atom_site_fract_z
Si Si1 0.499391 0.388624 0.326954
Si Si2 0.116320 0.461854 0.871190
Si Si3 0.641683 0.232632 0.170832
Si Si4 0.691279 0.767073 0.953114
Si Si5 0.534696 0.223352 0.809137
Si Si6 0.393666 0.414698 0.459442
Si Si7 0.696451 0.828569 0.316468
Si Si8 0.746201 0.919881 0.629480
O O1 0.323598 0.633509 0.233869
O O2 0.523974 0.426352 0.392352
O O3 0.267433 0.422505 0.150229
O O4 0.328021 0.263378 0.346462
O O5 0.166689 0.658284 0.845503
O O6 0.256042 0.368958 0.825388
O O7 0.342963 0.252961 0.970152
O O8 0.589493 0.184127 0.109581
O O9 0.795675 0.996834 0.263569
O O10 0.867610 0.211095 0.344340
O O11 0.746732 0.958343 0.895879
O O12 0.000000 0.500000 0.000000
O O13 0.396837 0.221570 0.739953
O O14 0.500000 0.500000 0.500000
O O15 0.540891 0.146656 0.532207
O O16 0.999254 0.594816 0.405690
O O17 0.396731 0.974305 0.327748
#
# Coordination Sequence:
#
# PCOD9041000 Si02
#       8
#     2   2   2   2   2   2   2   2
#     4  12  27  48  72 104 140 186 237 294 355 425
#     4  11  22  44  69 105 141 188 237 292 354 424
#     4  10  23  43  70 102 144 190 237 291 356 426
#     4   9  21  43  71 102 142 187 235 291 356 426
#     4  11  24  43  70 104 142 185 239 298 356 426
#     4  12  27  48  76 110 146 190 241 302 365 431
#     4  11  25  46  71 106 145 191 242 300 362 428
#     4  12  26  49  73 101 142 189 238 294 356 426
#
# _framework density 25.730511
#
# number of rings (size 3 to 8) (size 9 to 14) (size 15 to 20)
#    0.000    1.000    0.000    5.625    0.000    7.000 
#    0.000   13.125    0.000    0.000    0.000    0.000 
#    0.000    0.000    0.000    0.000    0.000    0.000 
#
# Total GULP energy -89794.650128 kJ/mol
# GULP energy per Si atom -5612.165633 kJ/mol
# Density = 2.567195 g / cm^3
# Si number density = 25.730511 Si / 1000 Ang^3
#
#
#
# Elastic Constant Matrix: (Units=GPa)
#
#
# Indices 1 2 3 4 5 6 
#
# 1 94.3491 34.4355 33.3324 -4.8881 -12.2374 6.0234
# 2 34.4355 118.4467 57.6496 -0.8022 -19.1789 3.8204
# 3 33.3324 57.6496 166.7525 -15.2555 -35.4899 9.9133
# 4 -4.8881 -0.8022 -15.2555 73.0640 -1.6272 -18.1014
# 5 -12.2374 -19.1789 -35.4899 -1.6272 32.5210 -3.2189
# 6 6.0234 3.8204 9.9133 -18.1014 -3.2189 46.4697
#
#
#
# Elastic Compliance Matrix: (Units=1/GPa)
#
#
# Indices 1 2 3 4 5 6 
#
# 1 0.012275 -0.002743 -0.001032 0.000402 0.001810 -0.000863
# 2 -0.002743 0.010981 -0.002800 -0.000600 0.002356 -0.000020
# 3 -0.001032 -0.002800 0.009041 0.001894 0.007894 -0.000280
# 4 0.000402 -0.000600 0.001894 0.015638 0.003232 0.005909
# 5 0.001810 0.002356 0.007894 0.003232 0.041798 0.002042
# 6 -0.000863 -0.000020 -0.000280 0.005909 0.002042 0.024136
#
#
# Mechanical properties :
#
#
# Convention : Reuss Voigt Hill
#
# Bulk Modulus (GPa) = 52.22746 70.04259 61.13503
# Shear Modulus (GPa) = 37.48037 47.35299 42.41668
#
# Velocity S-wave (km/s) = 3.82075 4.29458 4.06457
# Velocity P-wave (km/s) = 6.30921 7.20221 6.77045
#
# Compressibility (1/GPa) = 0.01914701
#
# Stress axis : x y z
#
# Youngs Moduli (GPa) = 81.46410 91.06595 110.60172
#
# Poissons Ratio (x) = 0.24977 0.11417
# Poissons Ratio (y) = 0.22344 0.30973
# Poissons Ratio (z) = 0.08409 0.25502
#
# Static dielectric constant tensor:
#      x y z
#    x 2.002880 -0.011960 -0.007380 
#    y -0.011960 2.036400 0.006680 
#    z -0.007380 0.006680 2.023830 
# 
# From -- ./inp_files/582353.got.cif
#   From: 2010.05.17/outbox.cif.g08.bks.cpg/sg2_292_cif.got.tgz:582353.got - 2010.06.03 11:33:40.
