data_PCOD9041416
_publ_section_title
;
Structure prediction by ZEFSAII (Michael W. Deem and Ramdas Pophale) SiO2 
 PCOD9041416
Probable space group: P -1
;
_chemical_formula_sum "Si O2"
_cell_formula_units_Z 13
_cell_length_a 16.012584
_cell_length_b 7.640854
_cell_length_c 9.277403
_cell_angle_alpha 143.889956
_cell_angle_beta 45.178567
_cell_angle_gamma 128.158536
_cell_volume 471.305564
_symmetry_space_group_name_H-M "P -1"
_symmetry_group_IT_number 2
_symmetry_cell_setting 'triclinic'
loop_
_space_group_symop_operation_xyz
x,y,z
-x,-y,-z
loop_
_atom_site_type_symbol
_atom_site_label
_atom_site_fract_x
_atom_site_fract_y
_atom_site_fract_z
Si Si1 0.395524 0.301407 0.074430
Si Si2 0.553810 0.792992 0.547407
Si Si3 0.733499 0.765282 0.072749
Si Si4 0.030810 0.365330 0.218250
Si Si5 0.123508 0.701433 0.889305
Si Si6 0.000000 0.000000 0.500000
Si Si7 0.253962 0.195155 0.457568
O O1 0.284640 0.355827 0.146601
O O2 0.446063 0.985016 0.790668
O O3 0.500000 0.500000 0.000000
O O4 0.351619 0.307074 0.292837
O O5 0.500000 0.500000 0.500000
O O6 0.611459 0.741307 0.289579
O O7 0.669055 0.931866 0.594123
O O8 0.787472 0.103795 0.196540
O O9 0.828211 0.606646 0.939082
O O10 0.000000 0.500000 0.500000
O O11 0.964520 0.503949 0.254691
O O12 0.000000 0.000000 0.000000
O O13 0.194949 0.496225 0.764857
O O14 0.047740 0.902006 0.210983
O O15 0.859455 0.995877 0.602157
#
# Coordination Sequence:
#
# PCOD9041416 Si02
#       7
#     2   2   2   2   2   1   2
#     4  12  25  49  78 113 154 213 277 337 409 496
#     4  12  27  48  75 117 157 211 274 346 415 489
#     4  11  23  47  74 109 153 210 269 334 409 494
#     4  10  23  43  74 116 156 204 269 335 411 499
#     4  11  24  48  76 114 160 216 271 331 419 512
#     4  12  26  46  76 116 166 208 274 336 428 494
#     4  12  26  48  75 115 159 209 266 343 424 491
#
# _framework density 27.582954000000001
#
# number of rings (size 3 to 8) (size 9 to 14) (size 15 to 20)
#    0.000    0.615    1.538    6.000    2.154    1.231 
#    2.769    0.000    0.000    0.000    0.000    0.000 
#    0.000    0.000    0.000    0.000    0.000    0.000 
#
# Total GULP energy -72611.483754 kJ/mol
# GULP energy per Si atom -5585.498750 kJ/mol
# Density = 2.752017 g / cm^3
# Si number density = 27.582954 Si / 1000 Ang^3
#
#
#
# Elastic Constant Matrix: (Units=GPa)
#
#
# Indices 1 2 3 4 5 6 
#
# 1 172.5261 9.5639 21.5545 3.0779 18.3904 0.3506
# 2 9.5639 120.0947 31.3380 -19.6397 -5.0214 -1.9941
# 3 21.5545 31.3380 188.8365 -19.6608 10.7809 -2.3808
# 4 3.0779 -19.6397 -19.6608 36.1487 -3.5725 -2.5838
# 5 18.3904 -5.0214 10.7809 -3.5725 49.9537 0.3504
# 6 0.3506 -1.9941 -2.3808 -2.5838 0.3504 54.0982
#
#
#
# Elastic Compliance Matrix: (Units=1/GPa)
#
#
# Indices 1 2 3 4 5 6 
#
# 1 0.006184 -0.000670 -0.000617 -0.001465 -0.002315 -0.000147
# 2 -0.000670 0.009545 -0.001097 0.004861 0.001787 0.000528
# 3 -0.000617 -0.001097 0.005877 0.002582 -0.000969 0.000352
# 4 -0.001465 0.004861 0.002582 0.032237 0.002763 0.001824
# 5 -0.002315 0.001787 -0.000969 0.002763 0.021457 0.000031
# 6 -0.000147 0.000528 0.000352 0.001824 0.000031 0.018608
#
#
# Mechanical properties :
#
#
# Convention : Reuss Voigt Hill
#
# Bulk Modulus (GPa) = 59.39284 67.37443 63.38363
# Shear Modulus (GPa) = 47.94472 55.97351 51.95912
#
# Velocity S-wave (km/s) = 4.17370 4.50964 4.34492
# Velocity P-wave (km/s) = 6.69369 7.18296 6.94264
#
# Compressibility (1/GPa) = 0.01683705
#
# Stress axis : x y z
#
# Youngs Moduli (GPa) = 161.71775 104.77022 170.16573
#
# Poissons Ratio (x) = 0.07023 0.10497
# Poissons Ratio (y) = 0.10841 0.18663
# Poissons Ratio (z) = 0.09976 0.11491
#
# Static dielectric constant tensor:
#      x y z
#    x 2.152210 0.121120 0.053400 
#    y 0.121120 1.893530 -0.041370 
#    z 0.053400 -0.041370 1.987620 
# 
# From -- ./inp_files/328192.got.cif
#   From: 2010.05.17/outbox.cif.g08.bks.cpg/sg2_165_cif.got.tgz:328192.got - 2010.06.03 11:33:40.
