data_PCOD9041562
_publ_section_title
;
Structure prediction by ZEFSAII (Michael W. Deem and Ramdas Pophale) SiO2 
 PCOD9041562
Probable space group: P -1
;
_chemical_formula_sum "Si O2"
_cell_formula_units_Z 16
_cell_length_a 9.795165
_cell_length_b 9.537628
_cell_length_c 15.571500
_cell_angle_alpha 110.826026
_cell_angle_beta 79.708914
_cell_angle_gamma 46.284945
_cell_volume 764.686616
_symmetry_space_group_name_H-M "P -1"
_symmetry_group_IT_number 2
_symmetry_cell_setting 'triclinic'
loop_
_space_group_symop_operation_xyz
x,y,z
-x,-y,-z
loop_
_atom_site_type_symbol
_atom_site_label
_atom_site_fract_x
_atom_site_fract_y
_atom_site_fract_z
Si Si1 0.911270 0.133451 0.629989
Si Si2 0.529377 0.245303 0.683691
Si Si3 0.429040 0.351201 0.151926
Si Si4 0.146866 0.547885 0.066081
Si Si5 0.293568 0.243682 0.410594
Si Si6 0.221958 0.705835 0.946376
Si Si7 0.444308 0.712494 0.512457
Si Si8 0.375983 0.071638 0.853023
O O1 0.762070 0.120706 0.676063
O O2 0.708328 0.441325 0.711021
O O3 0.000000 0.000000 0.500000
O O4 0.151072 0.982082 0.616153
O O5 0.306614 0.502458 0.823686
O O6 0.503887 0.322815 0.604185
O O7 0.589813 0.015490 0.623379
O O8 0.221660 0.479233 0.140668
O O9 0.566288 0.359260 0.086754
O O10 0.602676 0.068907 0.104561
O O11 0.873278 0.734168 0.127274
O O12 0.163390 0.685458 0.039942
O O13 0.342462 0.264727 0.937801
O O14 0.406373 0.287465 0.457174
O O15 0.000000 0.500000 0.500000
O O16 0.394830 0.154058 0.282614
O O17 0.000000 0.000000 0.000000
O O18 0.500000 0.500000 0.500000
#
# Coordination Sequence:
#
# PCOD9041562 Si02
#       8
#     2   2   2   2   2   2   2   2
#     4   9  21  40  67  91 131 169 222 273 336 398
#     4  10  23  44  64  97 137 176 218 286 344 402
#     4  11  23  40  70  98 129 174 225 279 336 405
#     4  11  23  46  66 100 130 176 232 276 341 400
#     4  12  26  44  66  97 141 181 220 277 351 407
#     4  11  22  43  68  95 136 175 221 285 344 394
#     4  11  24  41  69 101 127 177 235 273 337 419
#     4  11  25  43  70  94 137 176 223 284 336 401
#
# _framework density 20.923601999999999
#
# number of rings (size 3 to 8) (size 9 to 14) (size 15 to 20)
#    0.000    1.250    2.500    2.625    8.750    1.000 
#    4.500    0.000    0.000    0.000    0.000    0.000 
#    0.000    0.000    0.000    0.000    0.000    0.000 
#
# Total GULP energy -89226.990592 kJ/mol
# GULP energy per Si atom -5576.686912 kJ/mol
# Density = 2.087598 g / cm^3
# Si number density = 20.923602 Si / 1000 Ang^3
#
#
#
# Elastic Constant Matrix: (Units=GPa)
#
#
# Indices 1 2 3 4 5 6 
#
# 1 94.4079 44.7049 17.8547 11.2529 8.2654 0.7326
# 2 44.7049 48.2228 1.9828 14.4397 28.8556 18.1098
# 3 17.8547 1.9828 67.3190 12.9068 -0.0980 -4.4768
# 4 11.2529 14.4397 12.9068 32.4041 -3.3141 -4.9676
# 5 8.2654 28.8556 -0.0980 -3.3141 19.8576 -0.9216
# 6 0.7326 18.1098 -4.4768 -4.9676 -0.9216 35.8298
#
#
#
# Elastic Compliance Matrix: (Units=1/GPa)
#
#
# Indices 1 2 3 4 5 6 
#
# 1 0.008988 0.010652 -0.001179 -0.010775 -0.021384 -0.007759
# 2 0.010652 -0.036980 -0.004692 0.023659 0.054276 0.022564
# 3 -0.001179 -0.004692 0.016081 -0.002522 0.007165 0.004240
# 4 -0.010775 0.023659 -0.002522 0.020802 -0.026893 -0.009861
# 5 -0.021384 0.054276 0.007165 -0.026893 -0.025478 -0.030485
# 6 -0.007759 0.022564 0.004240 -0.009861 -0.030485 0.015042
#
#
# Mechanical properties :
#
#
# Convention : Reuss Voigt Hill
#
# Bulk Modulus (GPa) = -425.51457 37.67048 -193.92205
# Shear Modulus (GPa) = -420.53609 27.31214 -196.61197
#
# Velocity S-wave (km/s) = -14.19235 3.61685 -9.70415
# Velocity P-wave (km/s) = 21.73410 5.95693 14.77982
#
# Compressibility (1/GPa) = -0.00235010
#
# Stress axis : x y z
#
# Youngs Moduli (GPa) = 111.25999 -27.04133 62.18337
#
# Poissons Ratio (x) = 0.28804 0.07331
# Poissons Ratio (y) = -1.18512 0.29179
# Poissons Ratio (z) = 0.13116 -0.12689
#
# Static dielectric constant tensor:
#      x y z
#    x 1.011170 -0.802420 0.292140 
#    y -0.802420 0.974880 0.293880 
#    z 0.292140 0.293880 1.702210 
# 
# From -- ./inp_files/495429.got.cif
#   From: 2010.05.17/outbox.cif.g08.bks.cpg/sg2_248_cif.got.tgz:495429.got - 2010.06.03 11:33:40.
