data_PCOD9041569
_publ_section_title
;
Structure prediction by ZEFSAII (Michael W. Deem and Ramdas Pophale) SiO2 
 PCOD9041569
Probable space group: P -1
;
_chemical_formula_sum "Si O2"
_cell_formula_units_Z 12
_cell_length_a 5.090765
_cell_length_b 7.813503
_cell_length_c 13.957953
_cell_angle_alpha 106.214176
_cell_angle_beta 66.771942
_cell_angle_gamma 116.002159
_cell_volume 454.738954
_symmetry_space_group_name_H-M "P -1"
_symmetry_group_IT_number 2
_symmetry_cell_setting 'triclinic'
loop_
_space_group_symop_operation_xyz
x,y,z
-x,-y,-z
loop_
_atom_site_type_symbol
_atom_site_label
_atom_site_fract_x
_atom_site_fract_y
_atom_site_fract_z
Si Si1 0.742686 0.365193 0.247561
Si Si2 0.721451 0.955419 0.107273
Si Si3 0.280995 0.143848 0.698742
Si Si4 0.761731 0.412323 0.936575
Si Si5 0.074497 0.303425 0.360983
Si Si6 0.986589 0.202969 0.567640
O O1 0.417985 0.386628 0.282254
O O2 0.036106 0.509674 0.173863
O O3 0.839618 0.368904 0.345023
O O4 0.700349 0.152682 0.179267
O O5 0.752278 0.836484 0.179268
O O6 0.412916 0.815916 0.078241
O O7 0.000000 0.000000 0.000000
O O8 0.634286 0.171412 0.634873
O O9 0.182518 0.254545 0.645157
O O10 0.058452 0.924510 0.675883
O O11 0.500000 0.500000 0.000000
O O12 0.000000 0.500000 0.000000
O O13 0.086805 0.328569 0.476840
O O14 0.000000 0.000000 0.500000
#
# Coordination Sequence:
#
# PCOD9041569 Si02
#       6
#     2   2   2   2   2   2
#     4  11  23  41  65  97 129 165 218 256 323 381
#     4  11  24  44  68  94 131 174 215 268 319 384
#     4  10  20  33  57  93 126 162 213 258 313 375
#     4  12  27  45  65  94 131 172 216 270 321 376
#     4  10  19  36  64  93 128 169 207 264 316 382
#     4  10  17  33  57  92 128 159 210 262 310 375
#
# _framework density 26.388767000000001
#
# number of rings (size 3 to 8) (size 9 to 14) (size 15 to 20)
#    0.000    1.333    1.667    8.000    2.333    4.667 
#    0.000    0.000    0.000    6.000    0.000    0.000 
#    0.000    0.000    0.000    0.000    0.000    0.000 
#
# Total GULP energy -67330.698089 kJ/mol
# GULP energy per Si atom -5610.891507 kJ/mol
# Density = 2.632871 g / cm^3
# Si number density = 26.388767 Si / 1000 Ang^3
#
#
#
# Elastic Constant Matrix: (Units=GPa)
#
#
# Indices 1 2 3 4 5 6 
#
# 1 188.0250 37.6164 65.0221 3.9767 -2.3425 24.9162
# 2 37.6164 122.3376 37.9592 11.9656 -8.3298 25.1825
# 3 65.0221 37.9592 172.6112 2.6801 5.3046 15.0996
# 4 3.9767 11.9656 2.6801 51.5771 7.9430 -0.5966
# 5 -2.3425 -8.3298 5.3046 7.9430 50.6237 -8.2430
# 6 24.9162 25.1825 15.0996 -0.5966 -8.2430 49.6246
#
#
#
# Elastic Compliance Matrix: (Units=1/GPa)
#
#
# Indices 1 2 3 4 5 6 
#
# 1 0.006503 -0.000885 -0.002062 -0.000222 0.000051 -0.002183
# 2 -0.000885 0.010091 -0.001546 -0.002473 0.001521 -0.003983
# 3 -0.002062 -0.001546 0.006986 0.000336 -0.001217 -0.000504
# 4 -0.000222 -0.002473 0.000336 0.020515 -0.003520 0.000926
# 5 0.000051 0.001521 -0.001217 -0.003520 0.021183 0.003049
# 6 -0.002183 -0.003983 -0.000504 0.000926 0.003049 0.023940
#
#
# Mechanical properties :
#
#
# Convention : Reuss Voigt Hill
#
# Bulk Modulus (GPa) = 68.51843 84.90770 76.71307
# Shear Modulus (GPa) = 48.51133 53.19016 50.85074
#
# Velocity S-wave (km/s) = 4.29223 4.49445 4.39451
# Velocity P-wave (km/s) = 7.11236 7.69279 7.40826
#
# Compressibility (1/GPa) = 0.01459461
#
# Stress axis : x y z
#
# Youngs Moduli (GPa) = 153.76835 99.09610 143.13581
#
# Poissons Ratio (x) = 0.08773 0.29518
# Poissons Ratio (y) = 0.13613 0.22123
# Poissons Ratio (z) = 0.31711 0.15316
#
# Static dielectric constant tensor:
#      x y z
#    x 2.008870 -0.117630 0.017680 
#    y -0.117630 2.140260 -0.001680 
#    z 0.017680 -0.001680 1.997320 
# 
# From -- ./inp_files/479902.got.cif
#   From: 2010.05.17/outbox.cif.g08.bks.cpg/sg2_240_cif.got.tgz:479902.got - 2010.06.03 11:33:40.
