data_PCOD9041178
_publ_section_title
;
Structure prediction by ZEFSAII (Michael W. Deem and Ramdas Pophale) SiO2 
 PCOD9041178
Probable space group: P -1
;
_chemical_formula_sum "Si O2"
_cell_formula_units_Z 16
_cell_length_a 10.939540
_cell_length_b 11.895093
_cell_length_c 13.984445
_cell_angle_alpha 130.114768
_cell_angle_beta 151.308761
_cell_angle_gamma 65.003834
_cell_volume 615.630005
_symmetry_space_group_name_H-M "P -1"
_symmetry_group_IT_number 2
_symmetry_cell_setting 'triclinic'
loop_
_space_group_symop_operation_xyz
x,y,z
-x,-y,-z
loop_
_atom_site_type_symbol
_atom_site_label
_atom_site_fract_x
_atom_site_fract_y
_atom_site_fract_z
Si Si1 0.378695 0.912606 0.468896
Si Si2 0.916327 0.564410 0.573166
Si Si3 0.669882 0.493736 0.888521
Si Si4 0.284469 0.574712 0.312760
Si Si5 0.387434 0.721469 0.650862
Si Si6 0.609173 0.130122 0.921523
Si Si7 0.883243 0.782252 0.331193
Si Si8 0.875225 0.013118 0.206497
O O1 0.336490 0.730815 0.364924
O O2 0.500000 0.000000 0.500000
O O3 0.564274 0.019194 0.739129
O O4 0.091807 0.933248 0.293890
O O5 0.659590 0.616504 0.398330
O O6 0.802740 0.420893 0.491404
O O7 0.000000 0.500000 0.500000
O O8 0.194793 0.692607 0.878669
O O9 0.687757 0.544156 0.814952
O O10 0.697519 0.614746 0.061480
O O11 0.976731 0.488211 0.099026
O O12 0.478813 0.652549 0.579992
O O13 0.181171 0.798335 0.502671
O O14 0.591356 0.856285 0.934548
O O15 0.326680 0.127447 0.774393
O O16 0.798527 0.091532 0.106143
O O17 0.990172 0.848247 0.547260
#
# Coordination Sequence:
#
# PCOD9041178 Si02
#       8
#     2   2   2   2   2   2   2   2
#     4  11  26  46  74 107 144 194 250 309 370 439
#     4  12  25  44  71 112 150 193 244 304 376 438
#     4  10  23  44  73  99 152 190 243 308 359 442
#     4  10  23  48  72 105 143 200 251 301 369 435
#     4  11  24  45  74 107 148 198 246 303 364 448
#     4  11  25  46  70 108 152 187 243 308 372 443
#     4  10  23  43  71 107 144 189 241 301 369 429
#     4  11  24  47  76 107 146 195 247 298 382 439
#
# _framework density 25.989635
#
# number of rings (size 3 to 8) (size 9 to 14) (size 15 to 20)
#    0.000    1.250    2.500    1.875    1.750    6.000 
#    6.750    0.000    0.000    0.000    0.000    0.000 
#    0.000    0.000    0.000    0.000    0.000    0.000 
#
# Total GULP energy -89083.314144 kJ/mol
# GULP energy per Si atom -5567.707134 kJ/mol
# Density = 2.593048 g / cm^3
# Si number density = 25.989635 Si / 1000 Ang^3
#
#
#
# Elastic Constant Matrix: (Units=GPa)
#
#
# Indices 1 2 3 4 5 6 
#
# 1 102.2731 22.5494 39.9932 4.8219 -19.9826 8.5559
# 2 22.5494 53.1439 29.2606 9.8440 0.3927 14.0944
# 3 39.9932 29.2606 154.7924 -8.9393 -34.5005 4.6634
# 4 4.8219 9.8440 -8.9393 46.1036 -2.9154 -0.0280
# 5 -19.9826 0.3927 -34.5005 -2.9154 44.7014 -8.0017
# 6 8.5559 14.0944 4.6634 -0.0280 -8.0017 43.9511
#
#
#
# Elastic Compliance Matrix: (Units=1/GPa)
#
#
# Indices 1 2 3 4 5 6 
#
# 1 0.012148 -0.004384 -0.001345 -0.000317 0.004407 -0.000014
# 2 -0.004384 0.028048 -0.006380 -0.007358 -0.009248 -0.009153
# 3 -0.001345 -0.006380 0.009906 0.003921 0.007837 0.002686
# 4 -0.000317 -0.007358 0.003921 0.024377 0.005066 0.002943
# 5 0.004407 -0.009248 0.007837 0.005066 0.032075 0.007119
# 6 -0.000014 -0.009153 0.002686 0.002943 0.007119 0.026703
#
#
# Mechanical properties :
#
#
# Convention : Reuss Voigt Hill
#
# Bulk Modulus (GPa) = 38.63417 54.86843 46.75130
# Shear Modulus (GPa) = 30.10180 41.51164 35.80672
#
# Velocity S-wave (km/s) = 3.40696 4.00088 3.71581
# Velocity P-wave (km/s) = 5.51126 6.51922 6.03632
#
# Compressibility (1/GPa) = 0.02588383
#
# Stress axis : x y z
#
# Youngs Moduli (GPa) = 82.32067 35.65292 100.94870
#
# Poissons Ratio (x) = 0.15629 0.13582
# Poissons Ratio (y) = 0.36087 0.64404
# Poissons Ratio (z) = 0.11076 0.22746
#
# Static dielectric constant tensor:
#      x y z
#    x 2.056950 -0.028890 0.033400 
#    y -0.028890 2.241280 0.012090 
#    z 0.033400 0.012090 2.114760 
# 
# From -- ./inp_files/522457.got.cif
#   From: 2010.05.17/outbox.cif.g08.bks.cpg/sg2_262_cif.got.tgz:522457.got - 2010.06.03 11:33:40.
