data_PCOD9041211
_publ_section_title
;
Structure prediction by ZEFSAII (Michael W. Deem and Ramdas Pophale) SiO2 
 PCOD9041211
Probable space group: P -1
;
_chemical_formula_sum "Si O2"
_cell_formula_units_Z 16
_cell_length_a 19.897659
_cell_length_b 9.174032
_cell_length_c 11.251777
_cell_angle_alpha 55.578974
_cell_angle_beta 44.960239
_cell_angle_gamma 31.779369
_cell_volume 760.709399
_symmetry_space_group_name_H-M "P -1"
_symmetry_group_IT_number 2
_symmetry_cell_setting 'triclinic'
loop_
_space_group_symop_operation_xyz
x,y,z
-x,-y,-z
loop_
_atom_site_type_symbol
_atom_site_label
_atom_site_fract_x
_atom_site_fract_y
_atom_site_fract_z
Si Si1 0.126863 0.834299 0.102035
Si Si2 0.165322 0.387038 0.505143
Si Si3 0.285273 0.887933 0.732268
Si Si4 0.829118 0.896746 0.655517
Si Si5 0.675605 0.778030 0.870142
Si Si6 0.549802 0.726266 0.584138
Si Si7 0.220204 0.777093 0.640607
Si Si8 0.231860 0.668950 0.319263
O O1 0.225994 0.529255 0.067330
O O2 0.186056 0.758086 0.198804
O O3 0.168294 0.958179 0.931558
O O4 0.951674 0.038948 0.213639
O O5 0.271075 0.266261 0.313402
O O6 0.154966 0.593757 0.485773
O O7 0.997360 0.585879 0.585764
O O8 0.223505 0.152670 0.625754
O O9 0.429486 0.750503 0.685194
O O10 0.304822 0.714560 0.683059
O O11 0.721670 0.891341 0.826236
O O12 0.788946 0.032514 0.514791
O O13 0.815791 0.085295 0.668900
O O14 0.500000 0.000000 0.000000
O O15 0.688033 0.492558 0.429031
O O16 0.602285 0.609612 0.707379
O O17 0.500000 0.000000 0.500000
#
# Coordination Sequence:
#
# PCOD9041211 Si02
#       8
#     2   2   2   2   2   2   2   2
#     4  11  26  46  67 102 139 175 228 285 335 399
#     4  11  21  43  72  98 134 178 231 273 333 410
#     4  12  25  43  67 102 142 180 222 278 342 398
#     4  11  21  41  76 102 126 180 232 278 337 403
#     4  11  24  41  65 103 136 171 225 281 334 395
#     4  11  25  43  69 101 135 181 229 274 342 412
#     4  11  23  43  74  96 134 179 229 279 337 401
#     4  10  23  43  71  97 134 175 230 277 337 400
#
# _framework density 21.032997999999999
#
# number of rings (size 3 to 8) (size 9 to 14) (size 15 to 20)
#    0.000    1.000    5.000    2.250    5.250    1.500 
#    2.250    2.500    0.000    0.000    0.000    0.000 
#    0.000    0.000    0.000    0.000    0.000    0.000 
#
# Total GULP energy -89300.549879 kJ/mol
# GULP energy per Si atom -5581.284367 kJ/mol
# Density = 2.098513 g / cm^3
# Si number density = 21.032998 Si / 1000 Ang^3
#
#
#
# Elastic Constant Matrix: (Units=GPa)
#
#
# Indices 1 2 3 4 5 6 
#
# 1 92.0579 2.5712 1.7863 0.4606 -9.9063 9.5867
# 2 2.5712 74.0040 24.8545 9.5148 -22.2018 5.3532
# 3 1.7863 24.8545 73.1447 -7.8162 -23.5845 9.1097
# 4 0.4606 9.5148 -7.8162 31.1366 -11.1487 -3.7140
# 5 -9.9063 -22.2018 -23.5845 -11.1487 24.7927 -4.3497
# 6 9.5867 5.3532 9.1097 -3.7140 -4.3497 31.1530
#
#
#
# Elastic Compliance Matrix: (Units=1/GPa)
#
#
# Indices 1 2 3 4 5 6 
#
# 1 0.012169 0.001300 0.003335 0.003566 0.010262 -0.003086
# 2 0.001300 0.018743 -0.001302 -0.000630 0.015582 -0.001140
# 3 0.003335 -0.001302 0.027596 0.019587 0.034935 -0.001659
# 4 0.003566 -0.000630 0.019587 0.053921 0.044787 0.005965
# 5 0.010262 0.015582 0.034935 0.044787 0.112641 0.005016
# 6 -0.003086 -0.001140 -0.001659 0.005965 0.005016 0.035142
#
#
# Mechanical properties :
#
#
# Convention : Reuss Voigt Hill
#
# Bulk Modulus (GPa) = 15.34298 33.07009 24.20653
# Shear Modulus (GPa) = 18.16395 31.41610 24.79002
#
# Velocity S-wave (km/s) = 2.94188 3.86898 3.43684
# Velocity P-wave (km/s) = 4.34167 5.97627 5.22331
#
# Compressibility (1/GPa) = 0.06517640
#
# Stress axis : x y z
#
# Youngs Moduli (GPa) = 82.17309 53.35297 36.23659
#
# Poissons Ratio (x) = -0.06938 -0.12085
# Poissons Ratio (y) = -0.10686 0.04717
# Poissons Ratio (z) = -0.27405 0.06945
#
# Static dielectric constant tensor:
#      x y z
#    x 1.865520 0.008480 0.013710 
#    y 0.008480 1.764810 0.014610 
#    z 0.013710 0.014610 1.756740 
# 
# From -- ./inp_files/469827.got.cif
#   From: 2010.05.17/outbox.cif.g08.bks.cpg/sg2_235_cif.got.tgz:469827.got - 2010.06.03 11:33:40.
