data_PCOD9041527
_publ_section_title
;
Structure prediction by ZEFSAII (Michael W. Deem and Ramdas Pophale) SiO2 
 PCOD9041527
Probable space group: P -1
;
_chemical_formula_sum "Si O2"
_cell_formula_units_Z 16
_cell_length_a 12.435979
_cell_length_b 5.203237
_cell_length_c 25.481953
_cell_angle_alpha 65.082450
_cell_angle_beta 32.401558
_cell_angle_gamma 57.126439
_cell_volume 739.556584
_symmetry_space_group_name_H-M "P -1"
_symmetry_group_IT_number 2
_symmetry_cell_setting 'triclinic'
loop_
_space_group_symop_operation_xyz
x,y,z
-x,-y,-z
loop_
_atom_site_type_symbol
_atom_site_label
_atom_site_fract_x
_atom_site_fract_y
_atom_site_fract_z
Si Si1 0.361136 0.510041 0.710725
Si Si2 0.874495 0.060795 0.711934
Si Si3 0.627814 0.228323 0.431178
Si Si4 0.201873 0.943570 0.829144
Si Si5 0.796917 0.093379 0.614081
Si Si6 0.493479 0.036013 0.937328
Si Si7 0.562079 0.698690 0.772520
Si Si8 0.714923 0.233387 0.032802
O O1 0.371270 0.624396 0.638441
O O2 0.278280 0.229726 0.769272
O O3 0.602042 0.398706 0.647441
O O4 0.201105 0.793479 0.786288
O O5 0.849245 0.069071 0.657452
O O6 0.725113 0.928588 0.819709
O O7 0.749744 0.418126 0.746171
O O8 0.123967 0.931922 0.636908
O O9 0.500000 0.500000 0.500000
O O10 0.500000 0.000000 0.500000
O O11 0.377880 0.668576 0.813868
O O12 0.971168 0.067100 0.941527
O O13 0.692149 0.843644 0.671164
O O14 0.000000 0.000000 0.500000
O O15 0.364011 0.406031 0.951311
O O16 0.368271 0.835158 0.982538
O O17 0.500000 0.000000 0.000000
O O18 0.409092 0.906225 0.863180
#
# Coordination Sequence:
#
# PCOD9041527 Si02
#       8
#     2   2   2   2   2   2   2   2
#     4  11  25  46  67 107 136 180 238 287 346 422
#     4  11  25  45  73  99 144 180 233 296 344 417
#     4  12  29  49  71 100 139 185 236 289 358 415
#     4  11  23  42  71 101 145 175 230 280 352 411
#     4  11  23  43  73  96 138 181 236 296 349 408
#     4  11  25  44  67 104 139 189 233 276 348 421
#     4  10  23  44  64 109 133 184 229 285 347 418
#     4  11  23  41  71  98 143 179 230 279 349 409
#
# _framework density 21.634582999999999
#
# number of rings (size 3 to 8) (size 9 to 14) (size 15 to 20)
#    0.000    1.000    2.500    3.000    7.000    1.500 
#    0.000    3.750    0.000    0.000    0.000    0.000 
#    0.000    0.000    0.000    0.000    0.000    0.000 
#
# Total GULP energy -89234.652153 kJ/mol
# GULP energy per Si atom -5577.165760 kJ/mol
# Density = 2.158534 g / cm^3
# Si number density = 21.634583 Si / 1000 Ang^3
#
#
#
# Elastic Constant Matrix: (Units=GPa)
#
#
# Indices 1 2 3 4 5 6 
#
# 1 120.3496 38.5807 58.6317 7.1420 6.5393 -16.8815
# 2 38.5807 84.3666 61.0019 12.0393 -10.5427 2.1694
# 3 58.6317 61.0019 178.0034 18.4485 -3.4605 -24.1717
# 4 7.1420 12.0393 18.4485 36.3475 -4.1115 1.0143
# 5 6.5393 -10.5427 -3.4605 -4.1115 47.8770 6.2454
# 6 -16.8815 2.1694 -24.1717 1.0143 6.2454 40.6967
#
#
#
# Elastic Compliance Matrix: (Units=1/GPa)
#
#
# Indices 1 2 3 4 5 6 
#
# 1 0.011375 -0.004504 -0.001610 -0.000424 -0.003288 0.004518
# 2 -0.004504 0.019156 -0.005757 -0.001754 0.005188 -0.007062
# 3 -0.001610 -0.005757 0.009095 -0.002690 -0.001314 0.005310
# 4 -0.000424 -0.001754 -0.002690 0.029892 0.002409 -0.002795
# 5 -0.003288 0.005188 -0.001314 0.002409 0.023382 -0.006069
# 6 0.004518 -0.007062 0.005310 -0.002795 -0.006069 0.030977
#
#
# Mechanical properties :
#
#
# Convention : Reuss Voigt Hill
#
# Bulk Modulus (GPa) = 62.95810 77.68312 70.32061
# Shear Modulus (GPa) = 32.69798 39.95126 36.32462
#
# Velocity S-wave (km/s) = 3.89186 4.30192 4.10201
# Velocity P-wave (km/s) = 7.02562 7.78846 7.41685
#
# Compressibility (1/GPa) = 0.01588358
#
# Stress axis : x y z
#
# Youngs Moduli (GPa) = 87.91449 52.20313 109.94527
#
# Poissons Ratio (x) = 0.23514 0.17696
# Poissons Ratio (y) = 0.39600 0.63300
# Poissons Ratio (z) = 0.14150 0.30055
#
# Static dielectric constant tensor:
#      x y z
#    x 1.867960 -0.005300 0.069860 
#    y -0.005300 1.862410 -0.043360 
#    z 0.069860 -0.043360 1.812790 
# 
# From -- ./inp_files/68474.got.cif
#   From: 2010.05.17/outbox.cif.g08.bks.cpg/sg2_35_cif.got.tgz:68474.got - 2010.06.03 11:33:40.
