data_PCOD9041948
_publ_section_title
;
Structure prediction by ZEFSAII (Michael W. Deem and Ramdas Pophale) SiO2 
 PCOD9041948
Probable space group: P -1
;
_chemical_formula_sum "Si O2"
_cell_formula_units_Z 16
_cell_length_a 12.356109
_cell_length_b 9.712577
_cell_length_c 19.059284
_cell_angle_alpha 47.848606
_cell_angle_beta 156.694107
_cell_angle_gamma 127.012711
_cell_volume 670.101492
_symmetry_space_group_name_H-M "P -1"
_symmetry_group_IT_number 2
_symmetry_cell_setting 'triclinic'
loop_
_space_group_symop_operation_xyz
x,y,z
-x,-y,-z
loop_
_atom_site_type_symbol
_atom_site_label
_atom_site_fract_x
_atom_site_fract_y
_atom_site_fract_z
Si Si1 0.063694 0.819584 0.649342
Si Si2 0.208018 0.095612 0.744180
Si Si3 0.591321 0.406993 0.877149
Si Si4 0.148813 0.433987 0.284898
Si Si5 0.598777 0.697109 0.657320
Si Si6 0.694350 0.314387 0.292107
Si Si7 0.958538 0.053116 0.759518
Si Si8 0.103308 0.170340 0.958776
O O1 0.830099 0.717277 0.587946
O O2 0.203147 0.667586 0.732698
O O3 0.247950 0.906050 0.789293
O O4 0.000000 0.000000 0.500000
O O5 0.456599 0.223639 0.833582
O O6 0.927633 0.195904 0.513151
O O7 0.145414 0.067036 0.797788
O O8 0.630286 0.542823 0.788603
O O9 0.368184 0.498794 0.766708
O O10 0.871651 0.394498 0.090580
O O11 0.088902 0.643108 0.205325
O O12 0.372823 0.394106 0.371841
O O13 0.305434 0.803980 0.454429
O O14 0.827083 0.850488 0.752135
O O15 0.408285 0.213982 0.150863
O O16 0.099444 0.107985 0.896972
O O17 0.000000 0.000000 0.000000
#
# Coordination Sequence:
#
# PCOD9041948 Si02
#       8
#     2   2   2   2   2   2   2   2
#     4  10  24  42  67  97 140 182 227 286 349 408
#     4  11  23  43  70 101 132 183 238 282 348 410
#     4  11  24  40  72 101 135 179 236 291 343 413
#     4  11  25  44  68 103 143 184 229 289 356 410
#     4  11  24  45  69 100 144 181 232 290 349 416
#     4  10  23  44  68  93 145 176 226 287 357 397
#     4  11  24  41  74  98 137 187 235 283 347 418
#     4  11  27  44  69 104 140 185 236 286 354 420
#
# _framework density 23.876981000000001
#
# number of rings (size 3 to 8) (size 9 to 14) (size 15 to 20)
#    0.000    1.250    2.500    2.250    5.250    5.000 
#    0.000    0.000    0.000    0.000    0.000    0.000 
#    0.000    0.000    0.000    0.000    0.000    0.000 
#
# Total GULP energy -89573.158187 kJ/mol
# GULP energy per Si atom -5598.322387 kJ/mol
# Density = 2.382264 g / cm^3
# Si number density = 23.876981 Si / 1000 Ang^3
#
#
#
# Elastic Constant Matrix: (Units=GPa)
#
#
# Indices 1 2 3 4 5 6 
#
# 1 134.8479 40.0740 13.7428 -22.4563 -27.6411 -6.5807
# 2 40.0740 100.3285 37.7577 -5.3913 -22.8857 13.9324
# 3 13.7428 37.7577 100.8171 2.6010 -7.5389 4.2024
# 4 -22.4563 -5.3913 2.6010 31.3152 -4.7575 -0.6130
# 5 -27.6411 -22.8857 -7.5389 -4.7575 25.1448 -2.9658
# 6 -6.5807 13.9324 4.2024 -0.6130 -2.9658 41.8444
#
#
#
# Elastic Compliance Matrix: (Units=1/GPa)
#
#
# Indices 1 2 3 4 5 6 
#
# 1 0.013308 -0.001376 -0.000578 0.011847 0.015906 0.003910
# 2 -0.001376 0.015732 -0.004763 0.003801 0.011614 -0.004097
# 3 -0.000578 -0.004763 0.011696 -0.002494 -0.001918 0.000148
# 4 0.011847 0.003801 -0.002494 0.045100 0.024652 0.003256
# 5 0.015906 0.011614 -0.001918 0.024652 0.072424 0.004322
# 6 0.003910 -0.004097 0.000148 0.003256 0.004322 0.026216
#
#
# Mechanical properties :
#
#
# Convention : Reuss Voigt Hill
#
# Bulk Modulus (GPa) = 36.62768 57.68251 47.15509
# Shear Modulus (GPa) = 24.15339 35.95549 30.05444
#
# Velocity S-wave (km/s) = 3.18398 3.88476 3.55169
# Velocity P-wave (km/s) = 5.37498 6.65826 6.05074
#
# Compressibility (1/GPa) = 0.02730176
#
# Stress axis : x y z
#
# Youngs Moduli (GPa) = 75.14460 63.56513 85.49684
#
# Poissons Ratio (x) = 0.08747 0.04941
# Poissons Ratio (y) = 0.10341 0.40723
# Poissons Ratio (z) = 0.04342 0.30277
#
# Static dielectric constant tensor:
#      x y z
#    x 1.909750 -0.035470 0.014000 
#    y -0.035470 1.895830 -0.026340 
#    z 0.014000 -0.026340 1.946890 
# 
# From -- ./inp_files/566597.got.cif
#   From: 2010.05.17/outbox.cif.g08.bks.cpg/sg2_284_cif.got.tgz:566597.got - 2010.06.03 11:33:40.
