data_PCOD9041409
_publ_section_title
;
Structure prediction by ZEFSAII (Michael W. Deem and Ramdas Pophale) SiO2 
 PCOD9041409
Probable space group: P -1
;
_chemical_formula_sum "Si O2"
_cell_formula_units_Z 14
_cell_length_a 23.134948
_cell_length_b 14.052478
_cell_length_c 5.461228
_cell_angle_alpha 81.579317
_cell_angle_beta 88.700852
_cell_angle_gamma 19.235302
_cell_volume 540.998443
_symmetry_space_group_name_H-M "P -1"
_symmetry_group_IT_number 2
_symmetry_cell_setting 'triclinic'
loop_
_space_group_symop_operation_xyz
x,y,z
-x,-y,-z
loop_
_atom_site_type_symbol
_atom_site_label
_atom_site_fract_x
_atom_site_fract_y
_atom_site_fract_z
Si Si1 0.134330 0.828675 0.259008
Si Si2 0.084259 0.659898 0.672221
Si Si3 0.560773 0.625656 0.934253
Si Si4 0.950118 0.770800 0.146922
Si Si5 0.588098 0.741144 0.258539
Si Si6 0.403771 0.729369 0.249937
Si Si7 0.738830 0.864192 0.612926
O O1 0.291067 0.643990 0.176559
O O2 0.263941 0.540498 0.462127
O O3 0.020970 0.072082 0.368095
O O4 0.000000 0.000000 0.000000
O O5 0.009612 0.735919 0.395486
O O6 0.312519 0.312313 0.765994
O O7 0.027182 0.692124 0.910998
O O8 0.360554 0.959846 0.703040
O O9 0.613815 0.643708 0.039107
O O10 0.555599 0.557533 0.175286
O O11 0.054826 0.503632 0.275985
O O12 0.729501 0.105144 0.004909
O O13 0.391016 0.013666 0.285698
O O14 0.500000 0.500000 0.500000
O O15 0.277889 0.006980 0.301310
#
# Coordination Sequence:
#
# PCOD9041409 Si02
#       7
#     2   2   2   2   2   2   2
#     4  11  22  42  73 110 155 201 252 317 389 447
#     4  12  28  45  74 118 161 200 259 312 381 467
#     4  10  24  45  79 105 153 200 261 313 394 445
#     4  12  31  49  77 114 161 208 256 314 387 465
#     4  10  23  43  74 111 151 203 254 317 384 453
#     4  11  28  50  80 115 149 198 267 330 384 456
#     4  10  26  51  77 108 151 212 255 316 388 464
#
# _framework density 25.878076
#
# number of rings (size 3 to 8) (size 9 to 14) (size 15 to 20)
#    0.000    1.143    1.429    1.714   16.000    2.286 
#    0.000    0.714    0.000    0.000    0.000    0.000 
#    0.000    0.000    0.000    0.000    0.000    0.000 
#
# Total GULP energy -78404.307562 kJ/mol
# GULP energy per Si atom -5600.307683 kJ/mol
# Density = 2.581918 g / cm^3
# Si number density = 25.878076 Si / 1000 Ang^3
#
#
#
# Elastic Constant Matrix: (Units=GPa)
#
#
# Indices 1 2 3 4 5 6 
#
# 1 86.8332 13.7513 30.1558 6.3355 9.8861 3.8082
# 2 13.7513 74.2386 26.0754 -12.0557 1.9351 6.3849
# 3 30.1558 26.0754 126.7027 9.5221 32.3925 3.0315
# 4 6.3355 -12.0557 9.5221 42.8286 -5.2736 2.4478
# 5 9.8861 1.9351 32.3925 -5.2736 50.6467 6.5253
# 6 3.8082 6.3849 3.0315 2.4478 6.5253 29.1375
#
#
#
# Elastic Compliance Matrix: (Units=1/GPa)
#
#
# Indices 1 2 3 4 5 6 
#
# 1 0.012890 -0.001856 -0.002222 -0.002042 -0.001157 -0.000616
# 2 -0.001856 0.016701 -0.004354 0.006657 0.003764 -0.004367
# 3 -0.002222 -0.004354 0.011526 -0.004505 -0.007512 0.002106
# 4 -0.002042 0.006657 -0.004505 0.027580 0.006476 -0.004490
# 5 -0.001157 0.003764 -0.007512 0.006476 0.026115 -0.006285
# 6 -0.000616 -0.004367 0.002106 -0.004490 -0.006285 0.036923
#
#
# Mechanical properties :
#
#
# Convention : Reuss Voigt Hill
#
# Bulk Modulus (GPa) = 41.22906 47.52661 44.37784
# Shear Modulus (GPa) = 31.91166 39.04203 35.47684
#
# Velocity S-wave (km/s) = 3.51544 3.88840 3.70661
# Velocity P-wave (km/s) = 5.69600 6.21007 5.95858
#
# Compressibility (1/GPa) = 0.02425474
#
# Stress axis : x y z
#
# Youngs Moduli (GPa) = 77.58196 59.87524 86.76091
#
# Poissons Ratio (x) = 0.11111 0.19276
# Poissons Ratio (y) = 0.14397 0.37773
# Poissons Ratio (z) = 0.17237 0.26068
#
# Static dielectric constant tensor:
#      x y z
#    x 2.153260 -0.047520 -0.079170 
#    y -0.047520 2.089190 0.020090 
#    z -0.079170 0.020090 2.039070 
# 
# From -- ./inp_files/124185.got.cif
#   From: 2010.05.17/outbox.cif.g08.bks.cpg/sg2_63_cif.got.tgz:124185.got - 2010.06.03 11:33:40.
