data_PCOD9041482
_publ_section_title
;
Structure prediction by ZEFSAII (Michael W. Deem and Ramdas Pophale) SiO2 
 PCOD9041482
Probable space group: P -1
;
_chemical_formula_sum "Si O2"
_cell_formula_units_Z 16
_cell_length_a 8.822501
_cell_length_b 9.100027
_cell_length_c 15.953129
_cell_angle_alpha 49.393187
_cell_angle_beta 63.179782
_cell_angle_gamma 94.445367
_cell_volume 725.964587
_symmetry_space_group_name_H-M "P -1"
_symmetry_group_IT_number 2
_symmetry_cell_setting 'triclinic'
loop_
_space_group_symop_operation_xyz
x,y,z
-x,-y,-z
loop_
_atom_site_type_symbol
_atom_site_label
_atom_site_fract_x
_atom_site_fract_y
_atom_site_fract_z
Si Si1 0.602310 0.972089 0.348187
Si Si2 0.323440 0.153710 0.054904
Si Si3 0.533102 0.080395 0.782393
Si Si4 0.298699 0.528728 0.272703
Si Si5 0.047810 0.328371 0.098885
Si Si6 0.587444 0.831917 0.579773
Si Si7 0.045126 0.632543 0.708759
Si Si8 0.097185 0.864410 0.060973
O O1 0.478495 0.891453 0.323879
O O2 0.534459 0.795472 0.507812
O O3 0.584372 0.178152 0.315781
O O4 0.837938 0.078821 0.232216
O O5 0.231864 0.310101 0.030110
O O6 0.365136 0.059220 0.163898
O O7 0.173360 0.946313 0.106421
O O8 0.535370 0.292891 0.901417
O O9 0.658747 0.323814 0.709015
O O10 0.301307 0.943616 0.927114
O O11 0.342599 0.331803 0.348962
O O12 0.083458 0.422105 0.322965
O O13 0.072753 0.377837 0.173456
O O14 0.000000 0.500000 0.000000
O O15 0.767713 0.103211 0.441261
O O16 0.061047 0.411279 0.799912
O O17 0.000000 0.000000 0.000000
#
# Coordination Sequence:
#
# PCOD9041482 Si02
#       8
#     2   2   2   2   2   2   2   2
#     4  10  23  44  61  91 126 162 221 262 307 378
#     4  11  22  39  65  98 130 163 204 267 330 369
#     4  11  22  41  66  95 128 162 212 269 320 373
#     4  11  22  41  64  94 130 167 210 255 317 385
#     4  11  23  38  63  98 127 162 210 264 322 378
#     4  10  24  42  66  87 126 178 211 256 313 371
#     4  11  22  41  62  93 131 164 215 258 312 383
#     4  11  21  39  67  97 130 166 206 264 324 376
#
# _framework density 22.039643000000002
#
# number of rings (size 3 to 8) (size 9 to 14) (size 15 to 20)
#    0.000    1.250    2.500    4.125    1.750    6.000 
#    0.000    3.125    0.000    0.000    0.000    0.000 
#    0.000    0.000    0.000    0.000    0.000    0.000 
#
# Total GULP energy -89415.818785 kJ/mol
# GULP energy per Si atom -5588.488674 kJ/mol
# Density = 2.198948 g / cm^3
# Si number density = 22.039643 Si / 1000 Ang^3
#
#
#
# Elastic Constant Matrix: (Units=GPa)
#
#
# Indices 1 2 3 4 5 6 
#
# 1 109.1268 36.9928 19.0808 1.6163 25.6996 6.0207
# 2 36.9928 69.2165 27.2780 -2.8884 10.2335 21.8072
# 3 19.0808 27.2780 43.7774 -9.2657 7.3256 12.3393
# 4 1.6163 -2.8884 -9.2657 34.1469 -5.3558 9.0640
# 5 25.6996 10.2335 7.3256 -5.3558 29.8871 -0.2209
# 6 6.0207 21.8072 12.3393 9.0640 -0.2209 49.4865
#
#
#
# Elastic Compliance Matrix: (Units=1/GPa)
#
#
# Indices 1 2 3 4 5 6 
#
# 1 0.013837 -0.005917 -0.002071 -0.003850 -0.010039 0.002101
# 2 -0.005917 0.024052 -0.009796 0.001630 -0.000511 -0.007737
# 3 -0.002071 -0.009796 0.033725 0.009687 -0.001437 -0.005621
# 4 -0.003850 0.001630 0.009687 0.035723 0.006711 -0.009178
# 5 -0.010039 -0.000511 -0.001437 0.006711 0.043827 0.000771
# 6 0.002101 -0.007737 -0.005621 -0.009178 0.000771 0.026448
#
#
# Mechanical properties :
#
#
# Convention : Reuss Voigt Hill
#
# Bulk Modulus (GPa) = 27.74361 43.20266 35.47314
# Shear Modulus (GPa) = 22.20297 31.95539 27.07918
#
# Velocity S-wave (km/s) = 3.17742 3.81189 3.50902
# Velocity P-wave (km/s) = 5.10653 6.24651 5.70506
#
# Compressibility (1/GPa) = 0.03604433
#
# Stress axis : x y z
#
# Youngs Moduli (GPa) = 72.27039 41.57676 29.65183
#
# Poissons Ratio (x) = 0.24602 0.06141
# Poissons Ratio (y) = 0.42765 0.29048
# Poissons Ratio (z) = 0.14966 0.40730
#
# Static dielectric constant tensor:
#      x y z
#    x 1.816330 0.013040 -0.017810 
#    y 0.013040 1.816980 0.005730 
#    z -0.017810 0.005730 1.807140 
# 
# From -- ./inp_files/239210.got.cif
#   From: 2010.05.17/outbox.cif.g08.bks.cpg/sg2_120_cif.got.tgz:239210.got - 2010.06.03 11:33:40.
