data_PCOD9041994
_publ_section_title
;
Structure prediction by ZEFSAII (Michael W. Deem and Ramdas Pophale) SiO2 
 PCOD9041994
Probable space group: P -1
;
_chemical_formula_sum "Si O2"
_cell_formula_units_Z 12
_cell_length_a 9.217094
_cell_length_b 5.314710
_cell_length_c 12.243252
_cell_angle_alpha 98.256605
_cell_angle_beta 117.100983
_cell_angle_gamma 99.696631
_cell_volume 509.411714
_symmetry_space_group_name_H-M "P -1"
_symmetry_group_IT_number 2
_symmetry_cell_setting 'triclinic'
loop_
_space_group_symop_operation_xyz
x,y,z
-x,-y,-z
loop_
_atom_site_type_symbol
_atom_site_label
_atom_site_fract_x
_atom_site_fract_y
_atom_site_fract_z
Si Si1 0.893674 0.125961 0.588571
Si Si2 0.782596 0.629750 0.377361
Si Si3 0.228917 0.877387 0.057781
Si Si4 0.675427 0.432174 0.566015
Si Si5 0.551630 0.535499 0.893020
Si Si6 0.059083 0.130537 0.198902
O O1 0.721247 0.159517 0.587596
O O2 0.044884 0.379949 0.623767
O O3 0.827797 0.933190 0.452857
O O4 0.983728 0.996749 0.705009
O O5 0.745617 0.475375 0.468660
O O6 0.618496 0.550342 0.241942
O O7 0.352260 0.161829 0.083570
O O8 0.121281 0.932378 0.127609
O O9 0.329458 0.660071 0.100326
O O10 0.094589 0.792536 0.908073
O O11 0.500000 0.500000 0.500000
O O12 0.784183 0.623247 0.705273
O O13 0.500000 0.500000 0.000000
#
# Coordination Sequence:
#
# PCOD9041994 Si02
#       6
#     2   2   2   2   2   2
#     4  10  23  44  68  97 139 180 232 287 353 412
#     4  10  24  42  67 101 136 183 230 291 347 410
#     4  11  27  46  70 106 139 186 233 287 345 414
#     4  11  24  40  70 101 134 181 232 292 347 413
#     4  12  27  46  73 102 141 185 236 284 344 418
#     4  10  25  42  70  99 138 183 228 291 350 415
#
# _framework density 23.556584000000001
#
# number of rings (size 3 to 8) (size 9 to 14) (size 15 to 20)
#    0.000    1.333    0.000    3.000   14.000    2.667 
#    0.000    0.000    0.000    0.000    0.000    0.000 
#    0.000    0.000    0.000    0.000    0.000    0.000 
#
# Total GULP energy -67054.444031 kJ/mol
# GULP energy per Si atom -5587.870336 kJ/mol
# Density = 2.350297 g / cm^3
# Si number density = 23.556584 Si / 1000 Ang^3
#
#
#
# Elastic Constant Matrix: (Units=GPa)
#
#
# Indices 1 2 3 4 5 6 
#
# 1 74.5917 14.4111 44.4559 -12.8814 26.8831 -16.1548
# 2 14.4111 62.0746 21.1003 -0.8514 13.6333 -7.5871
# 3 44.4559 21.1003 202.4415 0.3862 38.4124 -5.8684
# 4 -12.8814 -0.8514 0.3862 25.7249 2.6723 1.3833
# 5 26.8831 13.6333 38.4124 2.6723 53.6920 -9.3818
# 6 -16.1548 -7.5871 -5.8684 1.3833 -9.3818 38.2301
#
#
#
# Elastic Compliance Matrix: (Units=1/GPa)
#
#
# Indices 1 2 3 4 5 6 
#
# 1 0.021489 -0.001383 -0.002939 0.011246 -0.007811 0.006031
# 2 -0.001383 0.017612 -0.000952 0.000077 -0.002737 0.002090
# 3 -0.002939 -0.000952 0.006196 -0.001239 -0.002856 -0.001136
# 4 0.011246 0.000077 -0.001239 0.045162 -0.006789 0.001277
# 5 -0.007811 -0.002737 -0.002856 -0.006789 0.026022 0.002349
# 6 0.006031 0.002090 -0.001136 0.001277 0.002349 0.029477
#
#
# Mechanical properties :
#
#
# Convention : Reuss Voigt Hill
#
# Bulk Modulus (GPa) = 28.77872 55.44915 42.11394
# Shear Modulus (GPa) = 29.74634 40.80544 35.27589
#
# Velocity S-wave (km/s) = 3.55739 4.16652 3.87395
# Velocity P-wave (km/s) = 5.39599 6.83640 6.15845
#
# Compressibility (1/GPa) = 0.03474789
#
# Stress axis : x y z
#
# Youngs Moduli (GPa) = 46.53638 56.77947 161.40107
#
# Poissons Ratio (x) = 0.07851 0.47440
# Poissons Ratio (y) = 0.06435 0.15370
# Poissons Ratio (z) = 0.13678 0.05407
#
# Static dielectric constant tensor:
#      x y z
#    x 2.007400 -0.045380 -0.020290 
#    y -0.045380 2.049910 -0.020600 
#    z -0.020290 -0.020600 1.825760 
# 
# From -- ./inp_files/20954.got.cif
#   From: 2010.05.17/outbox.cif.g08.bks.cpg/sg2_11_cif.got.tgz:20954.got - 2010.06.03 11:33:40.
