data_PCOD9041908
_publ_section_title
;
Structure prediction by ZEFSAII (Michael W. Deem and Ramdas Pophale) SiO2 
 PCOD9041908
Probable space group: P -1
;
_chemical_formula_sum "Si O2"
_cell_formula_units_Z 14
_cell_length_a 9.255645
_cell_length_b 9.221498
_cell_length_c 11.029142
_cell_angle_alpha 106.927792
_cell_angle_beta 80.172327
_cell_angle_gamma 146.080765
_cell_volume 498.078765
_symmetry_space_group_name_H-M "P -1"
_symmetry_group_IT_number 2
_symmetry_cell_setting 'triclinic'
loop_
_space_group_symop_operation_xyz
x,y,z
-x,-y,-z
loop_
_atom_site_type_symbol
_atom_site_label
_atom_site_fract_x
_atom_site_fract_y
_atom_site_fract_z
Si Si1 0.302013 0.656578 0.327096
Si Si2 0.567959 0.810502 0.739467
Si Si3 0.289765 0.389327 0.856054
Si Si4 0.597960 0.819971 0.113908
Si Si5 0.866707 0.229748 0.992400
Si Si6 0.770507 0.094195 0.534813
Si Si7 0.226690 0.298312 0.415879
O O1 0.343191 0.663368 0.181219
O O2 0.123943 0.648296 0.384113
O O3 0.244027 0.453201 0.357282
O O4 0.590896 0.948557 0.406667
O O5 0.324664 0.507031 0.752989
O O6 0.788053 0.867182 0.701701
O O7 0.630889 0.992696 0.873698
O O8 0.576361 0.889773 0.624924
O O9 0.293802 0.212549 0.816042
O O10 0.060887 0.262429 0.935474
O O11 0.538554 0.667450 0.965916
O O12 0.771134 0.106391 0.110892
O O13 0.000000 0.500000 0.000000
O O14 0.985448 0.148090 0.495943
O O15 0.500000 0.500000 0.500000
#
# Coordination Sequence:
#
# PCOD9041908 Si02
#       7
#     2   2   2   2   2   2   2
#     4  11  25  46  71 103 148 189 231 298 357 423
#     4  11  25  43  73 101 139 187 241 291 354 428
#     4  10  23  44  68 103 134 181 236 294 355 422
#     4  10  23  44  70  99 138 182 234 289 357 427
#     4  11  27  43  69 103 138 184 236 294 359 421
#     4  11  27  44  69 108 147 186 238 289 362 427
#     4  12  25  46  73 105 143 192 243 294 351 428
#
# _framework density 28.108004000000001
#
# number of rings (size 3 to 8) (size 9 to 14) (size 15 to 20)
#    0.000    1.143    2.857    1.286    8.000    2.286 
#    2.571    0.000    0.000    0.000    0.000    0.000 
#    0.000    0.000    0.000    0.000    0.000    0.000 
#
# Total GULP energy -78357.560426 kJ/mol
# GULP energy per Si atom -5596.968602 kJ/mol
# Density = 2.804403 g / cm^3
# Si number density = 28.108004 Si / 1000 Ang^3
#
#
#
# Elastic Constant Matrix: (Units=GPa)
#
#
# Indices 1 2 3 4 5 6 
#
# 1 138.4358 37.7279 8.8554 -4.0361 -10.0288 -29.5365
# 2 37.7279 128.0090 48.4536 -28.3284 4.8901 -34.2198
# 3 8.8554 48.4536 121.1114 -14.1067 -5.5696 -20.3819
# 4 -4.0361 -28.3284 -14.1067 57.8034 -5.8193 -4.8617
# 5 -10.0288 4.8901 -5.5696 -5.8193 41.3234 -0.5752
# 6 -29.5365 -34.2198 -20.3819 -4.8617 -0.5752 59.0538
#
#
#
# Elastic Compliance Matrix: (Units=1/GPa)
#
#
# Indices 1 2 3 4 5 6 
#
# 1 0.008657 -0.001942 0.000915 0.000435 0.002565 0.003581
# 2 -0.001942 0.012364 -0.003323 0.005418 -0.001543 0.005478
# 3 0.000915 -0.003323 0.010137 0.001312 0.002196 0.002160
# 4 0.000435 0.005418 0.001312 0.021045 0.002682 0.005569
# 5 0.002565 -0.001543 0.002196 0.002682 0.025701 0.001618
# 6 0.003581 0.005478 0.002160 0.005569 0.001618 0.023119
#
#
# Mechanical properties :
#
#
# Convention : Reuss Voigt Hill
#
# Bulk Modulus (GPa) = 44.52539 64.18110 54.35324
# Shear Modulus (GPa) = 42.65926 51.13740 46.89833
#
# Velocity S-wave (km/s) = 3.89998 4.26997 4.08916
# Velocity P-wave (km/s) = 6.01290 6.86976 6.45556
#
# Compressibility (1/GPa) = 0.02245910
#
# Stress axis : x y z
#
# Youngs Moduli (GPa) = 115.51409 80.87716 98.65163
#
# Poissons Ratio (x) = 0.15708 -0.09031
# Poissons Ratio (y) = 0.22436 0.32779
# Poissons Ratio (z) = -0.10575 0.26873
#
# Static dielectric constant tensor:
#      x y z
#    x 2.154260 0.037740 0.052370 
#    y 0.037740 2.283340 0.125400 
#    z 0.052370 0.125400 2.259900 
# 
# From -- ./inp_files/382626.got.cif
#   From: 2010.05.17/outbox.cif.g08.bks.cpg/sg2_192_cif.got.tgz:382626.got - 2010.06.03 11:33:40.
