data_PCOD9041453
_publ_section_title
;
Structure prediction by ZEFSAII (Michael W. Deem and Ramdas Pophale) SiO2 
 PCOD9041453
Probable space group: P -1
;
_chemical_formula_sum "Si O2"
_cell_formula_units_Z 14
_cell_length_a 10.905008
_cell_length_b 6.893335
_cell_length_c 9.353277
_cell_angle_alpha 75.190544
_cell_angle_beta 106.409448
_cell_angle_gamma 126.113793
_cell_volume 541.250886
_symmetry_space_group_name_H-M "P -1"
_symmetry_group_IT_number 2
_symmetry_cell_setting 'triclinic'
loop_
_space_group_symop_operation_xyz
x,y,z
-x,-y,-z
loop_
_atom_site_type_symbol
_atom_site_label
_atom_site_fract_x
_atom_site_fract_y
_atom_site_fract_z
Si Si1 0.566866 0.933865 0.899286
Si Si2 0.090903 0.817928 0.671921
Si Si3 0.093728 0.901314 0.977377
Si Si4 0.961599 0.311517 0.721520
Si Si5 0.265292 0.163993 0.431986
Si Si6 0.396619 0.695515 0.400010
Si Si7 0.712013 0.378612 0.296091
O O1 0.720162 0.944113 0.985700
O O2 0.432544 0.678944 0.833999
O O3 0.604742 0.125915 0.747551
O O4 0.500000 0.000000 0.000000
O O5 0.237170 0.792156 0.721896
O O6 0.966626 0.546578 0.624411
O O7 0.048106 0.843423 0.809951
O O8 0.148512 0.045870 0.548572
O O9 0.045461 0.681844 0.111257
O O10 0.000000 0.000000 0.000000
O O11 0.127502 0.365602 0.721869
O O12 0.822749 0.053846 0.668904
O O13 0.304512 0.425175 0.355947
O O14 0.428211 0.218905 0.526729
O O15 0.336331 0.683024 0.543731
#
# Coordination Sequence:
#
# PCOD9041453 Si02
#       7
#     2   2   2   2   2   2   2
#     4  12  23  49  79 110 148 206 254 305 387 453
#     4  10  23  44  76 105 151 192 253 304 376 453
#     4  12  27  48  75 107 154 200 255 320 375 449
#     4  10  24  46  71 109 151 201 248 306 383 454
#     4  11  23  45  72 118 151 190 254 318 378 442
#     4  11  24  42  76 112 154 193 251 322 373 452
#     4  10  23  43  76 109 145 201 251 304 376 457
#
# _framework density 25.866008999999998
#
# number of rings (size 3 to 8) (size 9 to 14) (size 15 to 20)
#    0.857    0.286    2.857    2.143    4.000    0.571 
#    7.714    0.714    0.000    0.000    0.000    0.000 
#    0.000    0.000    0.000    0.000    0.000    0.000 
#
# Total GULP energy -78302.512210 kJ/mol
# GULP energy per Si atom -5593.036586 kJ/mol
# Density = 2.580714 g / cm^3
# Si number density = 25.866009 Si / 1000 Ang^3
#
#
#
# Elastic Constant Matrix: (Units=GPa)
#
#
# Indices 1 2 3 4 5 6 
#
# 1 188.6166 45.3113 48.2877 20.0024 -3.4257 8.4704
# 2 45.3113 146.9156 36.6414 10.6803 -2.1850 32.1505
# 3 48.2877 36.6414 162.2628 25.3588 -37.8381 22.1469
# 4 20.0024 10.6803 25.3588 34.9502 -0.0945 -1.8338
# 5 -3.4257 -2.1850 -37.8381 -0.0945 49.9165 7.9359
# 6 8.4704 32.1505 22.1469 -1.8338 7.9359 30.9896
#
#
#
# Elastic Compliance Matrix: (Units=1/GPa)
#
#
# Indices 1 2 3 4 5 6 
#
# 1 0.006240 -0.001715 -0.001653 -0.001776 -0.001132 0.001440
# 2 -0.001715 0.009877 0.001069 -0.003408 0.002947 -0.011498
# 3 -0.001653 0.001069 0.012111 -0.008804 0.011113 -0.012680
# 4 -0.001776 -0.003408 -0.008804 0.037815 -0.009245 0.014917
# 5 -0.001132 0.002947 0.011113 -0.009245 0.031563 -0.019320
# 6 0.001440 -0.011498 -0.012680 0.014917 -0.019320 0.058696
#
#
# Mechanical properties :
#
#
# Convention : Reuss Voigt Hill
#
# Bulk Modulus (GPa) = 42.31762 84.25286 63.28524
# Shear Modulus (GPa) = 29.62505 47.67489 38.64997
#
# Velocity S-wave (km/s) = 3.38794 4.29785 3.86973
# Velocity P-wave (km/s) = 5.63028 7.56784 6.66979
#
# Compressibility (1/GPa) = 0.02363082
#
# Stress axis : x y z
#
# Youngs Moduli (GPa) = 160.25781 101.24799 82.56833
#
# Poissons Ratio (x) = 0.17365 0.13645
# Poissons Ratio (y) = 0.27486 -0.08828
# Poissons Ratio (z) = 0.26483 -0.10825
#
# Static dielectric constant tensor:
#      x y z
#    x 2.138310 0.008180 0.026140 
#    y 0.008180 2.066250 -0.011170 
#    z 0.026140 -0.011170 2.013780 
# 
# From -- ./inp_files/234673.got.cif
#   From: 2010.05.17/outbox.cif.g08.bks.cpg/sg2_118_cif.got.tgz:234673.got - 2010.06.03 11:33:40.
