data_PCOD9041919
_publ_section_title
;
Structure prediction by ZEFSAII (Michael W. Deem and Ramdas Pophale) SiO2 
 PCOD9041919
Probable space group: P -1
;
_chemical_formula_sum "Si O2"
_cell_formula_units_Z 12
_cell_length_a 13.954484
_cell_length_b 13.413677
_cell_length_c 10.309815
_cell_angle_alpha 32.556986
_cell_angle_beta 151.151410
_cell_angle_gamma 151.480778
_cell_volume 421.500046
_symmetry_space_group_name_H-M "P -1"
_symmetry_group_IT_number 2
_symmetry_cell_setting 'triclinic'
loop_
_space_group_symop_operation_xyz
x,y,z
-x,-y,-z
loop_
_atom_site_type_symbol
_atom_site_label
_atom_site_fract_x
_atom_site_fract_y
_atom_site_fract_z
Si Si1 0.260092 0.158941 0.028758
Si Si2 0.273796 0.193454 0.600036
Si Si3 0.796637 0.547087 0.170571
Si Si4 0.194405 0.926936 0.558078
Si Si5 0.365525 0.944743 0.189727
Si Si6 0.112270 0.465870 0.003730
O O1 0.174675 0.235811 0.968147
O O2 0.065267 0.140970 0.715494
O O3 0.536438 0.353563 0.122507
O O4 0.276099 0.957793 0.210933
O O5 0.387682 0.139218 0.911993
O O6 0.000000 0.000000 0.500000
O O7 0.327087 0.122196 0.604600
O O8 0.257183 0.406593 0.337396
O O9 0.000000 0.500000 0.500000
O O10 0.802005 0.555486 0.013324
O O11 0.155841 0.702743 0.815764
O O12 0.373052 0.006359 0.560288
O O13 0.166908 0.718969 0.133968
#
# Coordination Sequence:
#
# PCOD9041919 Si02
#       6
#     2   2   2   2   2   2
#     4  11  22  44  72  92 147 174 220 303 324 393
#     4  10  23  44  68 104 142 173 233 282 328 420
#     4  11  23  44  70 103 135 181 234 284 341 406
#     4  12  23  46  70 101 144 176 225 290 334 408
#     4  11  24  46  66 106 140 177 233 280 335 418
#     4  11  24  43  74 100 133 192 226 269 365 392
#
# _framework density 28.469746000000001
#
# number of rings (size 3 to 8) (size 9 to 14) (size 15 to 20)
#    0.000    1.000    6.667    0.500    0.000    5.333 
#    0.000    1.667    0.000    0.000    0.000    0.000 
#    0.000    0.000    0.000    0.000    0.000    0.000 
#
# Total GULP energy -67209.853281 kJ/mol
# GULP energy per Si atom -5600.821107 kJ/mol
# Density = 2.840495 g / cm^3
# Si number density = 28.469746 Si / 1000 Ang^3
#
#
#
# Elastic Constant Matrix: (Units=GPa)
#
#
# Indices 1 2 3 4 5 6 
#
# 1 169.7907 8.9952 37.9257 8.1587 31.2400 -5.0508
# 2 8.9952 150.9964 73.4076 3.6274 25.9457 -11.5378
# 3 37.9257 73.4076 172.0633 -1.3013 30.9455 8.9154
# 4 8.1587 3.6274 -1.3013 62.4408 9.4653 17.6552
# 5 31.2400 25.9457 30.9455 9.4653 45.9140 8.5584
# 6 -5.0508 -11.5378 8.9154 17.6552 8.5584 45.9457
#
#
#
# Elastic Compliance Matrix: (Units=1/GPa)
#
#
# Indices 1 2 3 4 5 6 
#
# 1 0.007185 0.001352 -0.001413 -0.001066 -0.004992 0.002743
# 2 0.001352 0.009541 -0.003852 -0.001479 -0.004279 0.004657
# 3 -0.001413 -0.003852 0.008348 0.001778 -0.002297 -0.002998
# 4 -0.001066 -0.001479 0.001778 0.018757 -0.002077 -0.007654
# 5 -0.004992 -0.004279 -0.002297 -0.002077 0.030707 -0.006099
# 6 0.002743 0.004657 -0.002998 -0.007654 -0.006099 0.027895
#
#
# Mechanical properties :
#
#
# Convention : Reuss Voigt Hill
#
# Bulk Modulus (GPa) = 57.97395 81.50081 69.73738
# Shear Modulus (GPa) = 43.10063 55.69491 49.39777
#
# Velocity S-wave (km/s) = 3.89512 4.42779 4.16997
# Velocity P-wave (km/s) = 6.37470 7.40471 6.90893
#
# Compressibility (1/GPa) = 0.01724913
#
# Stress axis : x y z
#
# Youngs Moduli (GPa) = 139.18307 104.80869 119.78622
#
# Poissons Ratio (x) = -0.14167 0.16922
# Poissons Ratio (y) = -0.18813 0.46136
# Poissons Ratio (z) = 0.19663 0.40367
#
# Static dielectric constant tensor:
#      x y z
#    x 2.336660 0.035990 -0.025380 
#    y 0.035990 2.282990 -0.038690 
#    z -0.025380 -0.038690 2.188240 
# 
# From -- ./inp_files/454427.got.cif
#   From: 2010.05.17/outbox.cif.g08.bks.cpg/sg2_228_cif.got.tgz:454427.got - 2010.06.03 11:33:40.
