data_PCOD9041395
_publ_section_title
;
Structure prediction by ZEFSAII (Michael W. Deem and Ramdas Pophale) SiO2 
 PCOD9041395
Probable space group: P -1
;
_chemical_formula_sum "Si O2"
_cell_formula_units_Z 14
_cell_length_a 11.331565
_cell_length_b 9.441874
_cell_length_c 12.707657
_cell_angle_alpha 71.178110
_cell_angle_beta 34.859698
_cell_angle_gamma 96.187485
_cell_volume 533.407299
_symmetry_space_group_name_H-M "P -1"
_symmetry_group_IT_number 2
_symmetry_cell_setting 'triclinic'
loop_
_space_group_symop_operation_xyz
x,y,z
-x,-y,-z
loop_
_atom_site_type_symbol
_atom_site_label
_atom_site_fract_x
_atom_site_fract_y
_atom_site_fract_z
Si Si1 0.130014 0.370462 0.898263
Si Si2 0.548389 0.311151 0.595018
Si Si3 0.078757 0.225708 0.178203
Si Si4 0.437943 0.911468 0.731227
Si Si5 0.374777 0.675566 0.235283
Si Si6 0.480371 0.260536 0.112244
Si Si7 0.005136 0.775554 0.520265
O O1 0.273560 0.280935 0.790567
O O2 0.272490 0.559586 0.670831
O O3 0.178028 0.400036 0.980694
O O4 0.798094 0.206378 0.156181
O O5 0.707175 0.426712 0.562950
O O6 0.471743 0.098053 0.704451
O O7 0.081927 0.292538 0.277047
O O8 0.754889 0.021973 0.439277
O O9 0.286691 0.186963 0.029841
O O10 0.351279 0.754374 0.924459
O O11 0.200876 0.742383 0.337672
O O12 0.347665 0.603635 0.150941
O O13 0.273970 0.281980 0.310446
O O14 0.246222 0.025961 0.295551
#
# Coordination Sequence:
#
# PCOD9041395 Si02
#       7
#     2   2   2   2   2   2   2
#     4  10  22  38  57  81 121 146 188 242 274 336
#     4  10  21  37  59  85 108 155 194 222 290 342
#     4   9  19  33  56  87 111 147 193 230 282 338
#     4  11  20  37  56  87 116 146 188 238 280 337
#     4  10  17  33  57  85 114 147 190 234 277 339
#     4   9  18  28  53  85 111 145 189 228 282 337
#     4   9  16  30  51  86 111 144 192 229 277 342
#
# _framework density 26.246359000000002
#
# number of rings (size 3 to 8) (size 9 to 14) (size 15 to 20)
#    0.000    2.286    2.857    2.143    0.000    0.571 
#    0.000    0.714    0.000    0.857    0.000    0.000 
#    0.000    0.000    0.000    0.000    0.000    0.000 
#
# Total GULP energy -78148.322010 kJ/mol
# GULP energy per Si atom -5582.023001 kJ/mol
# Density = 2.618662 g / cm^3
# Si number density = 26.246359 Si / 1000 Ang^3
#
#
#
# Elastic Constant Matrix: (Units=GPa)
#
#
# Indices 1 2 3 4 5 6 
#
# 1 172.2690 39.6323 49.5876 -4.4210 21.0457 -25.1028
# 2 39.6323 123.8026 60.4827 30.7655 -7.7740 -35.1897
# 3 49.5876 60.4827 130.6126 39.1943 -14.6834 -10.4219
# 4 -4.4210 30.7655 39.1943 30.3430 -17.9688 -7.9821
# 5 21.0457 -7.7740 -14.6834 -17.9688 64.4108 4.4081
# 6 -25.1028 -35.1897 -10.4219 -7.9821 4.4081 36.0177
#
#
#
# Elastic Compliance Matrix: (Units=1/GPa)
#
#
# Indices 1 2 3 4 5 6 
#
# 1 0.009128 -0.000994 -0.005834 0.010346 -0.001973 0.006237
# 2 -0.000994 0.015631 -0.003123 -0.010147 -0.002131 0.011687
# 3 -0.005834 -0.003123 0.017356 -0.022044 -0.000188 -0.006957
# 4 0.010346 -0.010147 -0.022044 0.082942 0.012980 0.007711
# 5 -0.001973 -0.002131 -0.000188 0.012980 0.019700 -0.003046
# 6 0.006237 0.011687 -0.006957 0.007711 -0.003046 0.043598
#
#
# Mechanical properties :
#
#
# Convention : Reuss Voigt Hill
#
# Bulk Modulus (GPa) = 45.01837 80.67660 62.84749
# Shear Modulus (GPa) = 23.18446 44.61976 33.90211
#
# Velocity S-wave (km/s) = 2.97533 4.12762 3.59791
# Velocity P-wave (km/s) = 5.38451 7.31582 6.42317
#
# Compressibility (1/GPa) = 0.02221315
#
# Stress axis : x y z
#
# Youngs Moduli (GPa) = 109.54868 63.97507 57.61719
#
# Poissons Ratio (x) = 0.06360 0.33614
# Poissons Ratio (y) = 0.10891 0.17993
# Poissons Ratio (z) = 0.63912 0.19978
#
# Static dielectric constant tensor:
#      x y z
#    x 2.047540 0.032810 0.047570 
#    y 0.032810 2.163360 -0.111620 
#    z 0.047570 -0.111620 2.144950 
# 
# From -- ./inp_files/519563.got.cif
#   From: 2010.05.17/outbox.cif.g08.bks.cpg/sg2_260_cif.got.tgz:519563.got - 2010.06.03 11:33:40.
