data_PCOD9041668
_publ_section_title
;
Structure prediction by ZEFSAII (Michael W. Deem and Ramdas Pophale) SiO2 
 PCOD9041668
Probable space group: P -1
;
_chemical_formula_sum "Si O2"
_cell_formula_units_Z 16
_cell_length_a 9.820405
_cell_length_b 9.763742
_cell_length_c 11.532977
_cell_angle_alpha 124.130626
_cell_angle_beta 102.973193
_cell_angle_gamma 56.766818
_cell_volume 760.128177
_symmetry_space_group_name_H-M "P -1"
_symmetry_group_IT_number 2
_symmetry_cell_setting 'triclinic'
loop_
_space_group_symop_operation_xyz
x,y,z
-x,-y,-z
loop_
_atom_site_type_symbol
_atom_site_label
_atom_site_fract_x
_atom_site_fract_y
_atom_site_fract_z
Si Si1 0.352976 0.067519 0.599651
Si Si2 0.693217 0.294896 0.015899
Si Si3 0.244435 0.628870 0.702868
Si Si4 0.127376 0.148920 0.179165
Si Si5 0.351994 0.356426 0.927837
Si Si6 0.575969 0.273644 0.377958
Si Si7 0.176440 0.317126 0.484504
Si Si8 0.362906 0.216993 0.115985
O O1 0.344540 0.208480 0.767913
O O2 0.194047 0.207518 0.555931
O O3 0.500000 0.000000 0.500000
O O4 0.374719 0.879869 0.581317
O O5 0.639777 0.391887 0.178653
O O6 0.755730 0.419889 0.024039
O O7 0.537835 0.308844 0.931682
O O8 0.820756 0.068446 0.942375
O O9 0.261703 0.765121 0.679109
O O10 0.280134 0.422693 0.564516
O O11 0.064476 0.727601 0.771731
O O12 0.218398 0.161821 0.318274
O O13 0.200540 0.224878 0.132930
O O14 0.322603 0.335324 0.045976
O O15 0.500000 0.500000 0.500000
O O16 0.449792 0.263630 0.259306
O O17 0.000000 0.500000 0.500000
O O18 0.500000 0.000000 0.000000
#
# Coordination Sequence:
#
# PCOD9041668 Si02
#       8
#     2   2   2   2   2   2   2   2
#     4  12  23  41  67  99 131 173 227 280 336 397
#     4  11  21  38  61  96 128 166 213 274 323 386
#     4  11  22  43  64  96 131 173 218 268 334 400
#     4  11  23  41  66  90 130 180 213 261 341 398
#     4  11  23  37  66  95 134 165 222 279 332 386
#     4  12  25  39  69 104 134 168 228 284 328 389
#     4  10  23  44  66  89 132 182 218 264 341 408
#     4  12  21  41  61  96 133 171 216 272 328 394
#
# _framework density 21.04908
#
# number of rings (size 3 to 8) (size 9 to 14) (size 15 to 20)
#    0.000    0.750    5.000    3.375    0.000    1.000 
#    0.000    5.625    0.000    0.000    0.000    0.000 
#    0.000    0.000    0.000    0.000    0.000    0.000 
#
# Total GULP energy -89241.955849 kJ/mol
# GULP energy per Si atom -5577.622241 kJ/mol
# Density = 2.100117 g / cm^3
# Si number density = 21.049080 Si / 1000 Ang^3
#
#
#
# Elastic Constant Matrix: (Units=GPa)
#
#
# Indices 1 2 3 4 5 6 
#
# 1 92.6929 51.2453 20.6436 -0.2437 -14.8205 22.5003
# 2 51.2453 173.9068 55.3375 -20.1509 2.2764 45.8940
# 3 20.6436 55.3375 120.6327 -1.7878 25.6725 14.4430
# 4 -0.2437 -20.1509 -1.7878 36.7867 9.5089 -2.0254
# 5 -14.8205 2.2764 25.6725 9.5089 27.2728 -6.0399
# 6 22.5003 45.8940 14.4430 -2.0254 -6.0399 36.8113
#
#
#
# Elastic Compliance Matrix: (Units=1/GPa)
#
#
# Indices 1 2 3 4 5 6 
#
# 1 0.016801 -0.004286 -0.004148 -0.006481 0.015402 -0.001128
# 2 -0.004286 0.011637 -0.001538 0.007448 -0.007116 -0.012043
# 3 -0.004148 -0.001538 0.013923 0.004123 -0.017477 -0.003650
# 4 -0.006481 0.007448 0.004123 0.036834 -0.022784 -0.008653
# 5 0.015402 -0.007116 -0.017477 -0.022784 0.073829 0.017175
# 6 -0.001128 -0.012043 -0.003650 -0.008653 0.017175 0.046643
#
#
# Mechanical properties :
#
#
# Convention : Reuss Voigt Hill
#
# Bulk Modulus (GPa) = 44.60945 71.29836 57.95391
# Shear Modulus (GPa) = 22.01850 37.50790 29.76320
#
# Velocity S-wave (km/s) = 3.23779 4.22587 3.76439
# Velocity P-wave (km/s) = 5.93437 7.59977 6.81811
#
# Compressibility (1/GPa) = 0.02241677
#
# Stress axis : x y z
#
# Youngs Moduli (GPa) = 59.52079 85.93526 71.82573
#
# Poissons Ratio (x) = 0.36830 0.29792
# Poissons Ratio (y) = 0.25509 0.11047
# Poissons Ratio (z) = 0.24688 0.13217
#
# Static dielectric constant tensor:
#      x y z
#    x 1.857090 -0.047710 -0.001390 
#    y -0.047710 1.897230 -0.013280 
#    z -0.001390 -0.013280 1.814070 
# 
# From -- ./inp_files/418163.got.cif
#   From: 2010.05.17/outbox.cif.g08.bks.cpg/sg2_210_cif.got.tgz:418163.got - 2010.06.03 11:33:40.
