data_PCOD9041652
_publ_section_title
;
Structure prediction by ZEFSAII (Michael W. Deem and Ramdas Pophale) SiO2 
 PCOD9041652
Probable space group: P -1
;
_chemical_formula_sum "Si O2"
_cell_formula_units_Z 14
_cell_length_a 9.053115
_cell_length_b 8.891637
_cell_length_c 17.416843
_cell_angle_alpha 116.932259
_cell_angle_beta 146.653257
_cell_angle_gamma 51.406509
_cell_volume 594.736279
_symmetry_space_group_name_H-M "P -1"
_symmetry_group_IT_number 2
_symmetry_cell_setting 'triclinic'
loop_
_space_group_symop_operation_xyz
x,y,z
-x,-y,-z
loop_
_atom_site_type_symbol
_atom_site_label
_atom_site_fract_x
_atom_site_fract_y
_atom_site_fract_z
Si Si1 0.129624 0.237245 0.573149
Si Si2 0.741225 0.162888 0.093471
Si Si3 0.232302 0.083210 0.823127
Si Si4 0.160397 0.622033 0.672054
Si Si5 0.303603 0.349924 0.142895
Si Si6 0.328797 0.726745 0.492572
Si Si7 0.729882 0.853010 0.769789
O O1 0.098418 0.446735 0.620082
O O2 0.099411 0.225035 0.464725
O O3 0.855567 0.225167 0.495311
O O4 0.449420 0.072737 0.711304
O O5 0.775824 0.299340 0.203220
O O6 0.958952 0.146917 0.115004
O O7 0.858517 0.959475 0.142687
O O8 0.398099 0.212644 0.930841
O O9 0.937265 0.170314 0.661683
O O10 0.487426 0.867205 0.853480
O O11 0.471163 0.558445 0.741872
O O12 0.220419 0.298119 0.176780
O O13 0.000000 0.500000 0.000000
O O14 0.500000 0.500000 0.500000
O O15 0.585318 0.791228 0.622333
#
# Coordination Sequence:
#
# PCOD9041652 Si02
#       7
#     2   2   2   2   2   2   2
#     4  11  23  43  73 103 144 184 236 298 344 414
#     4  10  24  44  70 103 143 191 225 290 354 421
#     4  10  24  47  69 100 150 181 232 292 354 417
#     4  10  23  44  66 102 143 184 233 283 348 420
#     4  11  24  43  71 100 139 186 235 290 351 420
#     4  12  25  43  74 107 141 183 236 294 353 416
#     4  12  24  43  75 105 138 186 244 287 354 416
#
# _framework density 23.539843999999999
#
# number of rings (size 3 to 8) (size 9 to 14) (size 15 to 20)
#    0.000    1.143    2.857    3.000    2.000    9.714 
#    0.000    4.286    0.000    0.000    0.000    0.000 
#    0.000    0.000    0.000    0.000    0.000    0.000 
#
# Total GULP energy -78267.044297 kJ/mol
# GULP energy per Si atom -5590.503164 kJ/mol
# Density = 2.348627 g / cm^3
# Si number density = 23.539844 Si / 1000 Ang^3
#
#
#
# Elastic Constant Matrix: (Units=GPa)
#
#
# Indices 1 2 3 4 5 6 
#
# 1 72.1549 5.7791 20.7926 -4.0367 21.7702 22.4744
# 2 5.7791 85.4716 41.8608 -6.5458 4.5111 2.7686
# 3 20.7926 41.8608 119.0543 -9.7328 -5.8409 25.8979
# 4 -4.0367 -6.5458 -9.7328 48.6017 13.0248 -2.1945
# 5 21.7702 4.5111 -5.8409 13.0248 34.6947 12.4655
# 6 22.4744 2.7686 25.8979 -2.1945 12.4655 26.3106
#
#
#
# Elastic Compliance Matrix: (Units=1/GPa)
#
#
# Indices 1 2 3 4 5 6 
#
# 1 0.021382 0.000765 -0.001922 0.004113 -0.011564 -0.010631
# 2 0.000765 0.016035 -0.008136 0.003430 -0.008871 0.010156
# 3 -0.001922 -0.008136 0.016414 -0.002398 0.013144 -0.020086
# 4 0.004113 0.003430 -0.002398 0.025545 -0.015958 0.008177
# 5 -0.011564 -0.008871 0.013144 -0.015958 0.056255 -0.030110
# 6 -0.010631 0.010156 -0.020086 0.008177 -0.030110 0.080739
#
#
# Mechanical properties :
#
#
# Convention : Reuss Voigt Hill
#
# Bulk Modulus (GPa) = 28.37198 45.94953 37.16075
# Shear Modulus (GPa) = 20.26733 35.80461 28.03597
#
# Velocity S-wave (km/s) = 2.93743 3.90426 3.45483
# Velocity P-wave (km/s) = 4.85629 6.31558 5.63339
#
# Compressibility (1/GPa) = 0.03524604
#
# Stress axis : x y z
#
# Youngs Moduli (GPa) = 46.76772 62.36540 60.92365
#
# Poissons Ratio (x) = -0.04773 0.11709
# Poissons Ratio (y) = -0.03579 0.49566
# Poissons Ratio (z) = 0.08988 0.50739
#
# Static dielectric constant tensor:
#      x y z
#    x 1.951630 -0.051680 -0.040190 
#    y -0.051680 1.902370 0.022590 
#    z -0.040190 0.022590 1.909780 
# 
# From -- ./inp_files/184782.got.cif
#   From: 2010.05.17/outbox.cif.g08.bks.cpg/sg2_93_cif.got.tgz:184782.got - 2010.06.03 11:33:40.
