data_PCOD9041560
_publ_section_title
;
Structure prediction by ZEFSAII (Michael W. Deem and Ramdas Pophale) SiO2 
 PCOD9041560
Probable space group: P -1
;
_chemical_formula_sum "Si O2"
_cell_formula_units_Z 14
_cell_length_a 9.479745
_cell_length_b 11.987540
_cell_length_c 9.372657
_cell_angle_alpha 59.472778
_cell_angle_beta 109.192052
_cell_angle_gamma 64.493534
_cell_volume 587.917129
_symmetry_space_group_name_H-M "P -1"
_symmetry_group_IT_number 2
_symmetry_cell_setting 'triclinic'
loop_
_space_group_symop_operation_xyz
x,y,z
-x,-y,-z
loop_
_atom_site_type_symbol
_atom_site_label
_atom_site_fract_x
_atom_site_fract_y
_atom_site_fract_z
Si Si1 0.785038 0.078371 0.297743
Si Si2 0.537558 0.892371 0.939837
Si Si3 0.149605 0.416925 0.241026
Si Si4 0.920209 0.810442 0.969945
Si Si5 0.055559 0.854118 0.269559
Si Si6 0.888744 0.469024 0.376517
Si Si7 0.627302 0.162996 0.477848
O O1 0.613247 0.228881 0.270275
O O2 0.680591 0.001143 0.290037
O O3 0.000000 0.000000 0.500000
O O4 0.866135 0.043710 0.181695
O O5 0.642076 0.683445 0.140999
O O6 0.721157 0.851113 0.939762
O O7 0.500000 0.000000 0.000000
O O8 0.403827 0.239123 0.404683
O O9 0.029012 0.404110 0.323497
O O10 0.000000 0.500000 0.000000
O O11 0.122288 0.584732 0.168567
O O12 0.822958 0.932361 0.713389
O O13 0.979713 0.876332 0.068792
O O14 0.092906 0.686829 0.457864
O O15 0.283352 0.783832 0.419970
O O16 0.000000 0.500000 0.500000
#
# Coordination Sequence:
#
# PCOD9041560 Si02
#       7
#     2   2   2   2   2   2   2
#     4  10  23  44  64  97 134 174 226 273 337 403
#     4  11  21  39  71  99 126 176 229 271 335 403
#     4  11  26  45  65 100 136 171 227 281 334 403
#     4  11  24  42  69 100 131 176 230 275 336 404
#     4  11  23  46  66  99 135 173 230 274 336 411
#     4  11  22  42  69  98 131 173 226 283 323 401
#     4  11  26  44  68  97 140 182 212 284 351 390
#
# _framework density 23.81288
#
# number of rings (size 3 to 8) (size 9 to 14) (size 15 to 20)
#    0.000    1.143    4.286    2.143    6.000    1.714 
#    5.143    2.143    0.000    0.000    0.000    0.000 
#    0.000    0.000    0.000    0.000    0.000    0.000 
#
# Total GULP energy -77979.713178 kJ/mol
# GULP energy per Si atom -5569.979513 kJ/mol
# Density = 2.375868 g / cm^3
# Si number density = 23.812880 Si / 1000 Ang^3
#
#
#
# Elastic Constant Matrix: (Units=GPa)
#
#
# Indices 1 2 3 4 5 6 
#
# 1 73.0344 5.0739 22.0441 3.5099 15.0423 1.4390
# 2 5.0739 72.7974 42.8749 15.3379 7.3028 -8.5542
# 3 22.0441 42.8749 95.0483 12.4312 0.4962 4.1132
# 4 3.5099 15.3379 12.4312 57.3447 10.7899 4.1708
# 5 15.0423 7.3028 0.4962 10.7899 37.3941 9.6232
# 6 1.4390 -8.5542 4.1132 4.1708 9.6232 41.8019
#
#
#
# Elastic Compliance Matrix: (Units=1/GPa)
#
#
# Indices 1 2 3 4 5 6 
#
# 1 0.016665 0.002902 -0.005323 0.000694 -0.007996 0.002315
# 2 0.002902 0.021741 -0.010350 -0.003097 -0.006211 0.007106
# 3 -0.005323 -0.010350 0.016761 -0.001233 0.005513 -0.004730
# 4 0.000694 -0.003097 -0.001233 0.019520 -0.004944 -0.001346
# 5 -0.007996 -0.006211 0.005513 -0.004944 0.034859 -0.009070
# 6 0.002315 0.007106 -0.004730 -0.001346 -0.009070 0.027985
#
#
# Mechanical properties :
#
#
# Convention : Reuss Voigt Hill
#
# Bulk Modulus (GPa) = 33.75595 42.31843 38.03719
# Shear Modulus (GPa) = 28.91030 38.70061 33.80545
#
# Velocity S-wave (km/s) = 3.48812 4.03575 3.77188
# Velocity P-wave (km/s) = 5.51624 6.28698 5.91418
#
# Compressibility (1/GPa) = 0.02962441
#
# Stress axis : x y z
#
# Youngs Moduli (GPa) = 60.00532 45.99623 59.66083
#
# Poissons Ratio (x) = -0.13346 0.31758
# Poissons Ratio (y) = -0.17411 0.61749
# Poissons Ratio (z) = 0.31942 0.47606
#
# Static dielectric constant tensor:
#      x y z
#    x 1.904080 0.021510 -0.042490 
#    y 0.021510 2.066420 -0.102150 
#    z -0.042490 -0.102150 2.079800 
# 
# From -- ./inp_files/186001.got.cif
#   From: 2010.05.17/outbox.cif.g08.bks.cpg/sg2_94_cif.got.tgz:186001.got - 2010.06.03 11:33:40.
