data_PCOD9041274
_publ_section_title
;
Structure prediction by ZEFSAII (Michael W. Deem and Ramdas Pophale) SiO2 
 PCOD9041274
Probable space group: P -1
;
_chemical_formula_sum "Si O2"
_cell_formula_units_Z 16
_cell_length_a 10.997701
_cell_length_b 12.101082
_cell_length_c 15.739293
_cell_angle_alpha 152.706088
_cell_angle_beta 73.433425
_cell_angle_gamma 123.337418
_cell_volume 680.206591
_symmetry_space_group_name_H-M "P -1"
_symmetry_group_IT_number 2
_symmetry_cell_setting 'triclinic'
loop_
_space_group_symop_operation_xyz
x,y,z
-x,-y,-z
loop_
_atom_site_type_symbol
_atom_site_label
_atom_site_fract_x
_atom_site_fract_y
_atom_site_fract_z
Si Si1 0.774440 0.607428 0.683290
Si Si2 0.472880 0.837630 0.723895
Si Si3 0.171188 0.116035 0.587734
Si Si4 0.304749 0.082181 0.973248
Si Si5 0.922303 0.662493 0.106221
Si Si6 0.925406 0.367925 0.580664
Si Si7 0.140925 0.127431 0.885968
Si Si8 0.702272 0.770478 0.543067
O O1 0.672226 0.370466 0.462571
O O2 0.807932 0.447806 0.638125
O O3 0.964081 0.929573 0.837202
O O4 0.679889 0.716049 0.814280
O O5 0.452892 0.077786 0.928809
O O6 0.639058 0.939163 0.713879
O O7 0.421671 0.590727 0.641031
O O8 0.288383 0.210927 0.547968
O O9 0.202268 0.368812 0.822581
O O10 0.126091 0.823709 0.452276
O O11 0.000000 0.000000 0.500000
O O12 0.123783 0.706431 0.766239
O O13 0.281876 0.217127 0.985707
O O14 0.838733 0.607752 0.994143
O O15 0.105542 0.042073 0.332953
O O16 0.000000 0.500000 0.000000
O O17 0.886948 0.128151 0.349251
#
# Coordination Sequence:
#
# PCOD9041274 Si02
#       8
#     2   2   2   2   2   2   2   2
#     4  11  20  33  57  89 111 149 192 235 287 327
#     4  11  21  42  57  80 125 149 192 230 275 357
#     4   9  19  35  57  80 105 153 190 220 292 327
#     4  11  20  32  59  90 111 148 187 240 292 326
#     4  10  20  35  60  87 114 141 192 245 276 335
#     4  10  17  33  58  82 118 144 189 244 280 336
#     4  10  17  33  57  83 119 145 186 239 295 319
#     4  10  22  40  59  78 114 164 181 227 295 331
#
# _framework density 23.522266999999999
#
# number of rings (size 3 to 8) (size 9 to 14) (size 15 to 20)
#    0.000    1.750    3.750    3.750    0.000    5.000 
#    2.250    1.875    0.000    1.500    0.000    0.000 
#    0.000    0.000    0.000    0.000    0.000    0.000 
#
# Total GULP energy -89427.914040 kJ/mol
# GULP energy per Si atom -5589.244628 kJ/mol
# Density = 2.346873 g / cm^3
# Si number density = 23.522267 Si / 1000 Ang^3
#
#
#
# Elastic Constant Matrix: (Units=GPa)
#
#
# Indices 1 2 3 4 5 6 
#
# 1 90.4878 63.6405 23.5590 -1.8699 -34.5596 -4.6671
# 2 63.6405 158.8306 42.3626 -23.0257 -27.0215 -15.8322
# 3 23.5590 42.3626 74.5305 -17.7762 -38.6445 0.8904
# 4 -1.8699 -23.0257 -17.7762 25.1221 11.7834 -8.9512
# 5 -34.5596 -27.0215 -38.6445 11.7834 39.4931 -3.4960
# 6 -4.6671 -15.8322 0.8904 -8.9512 -3.4960 56.1786
#
#
#
# Elastic Compliance Matrix: (Units=1/GPa)
#
#
# Indices 1 2 3 4 5 6 
#
# 1 0.027445 -0.010815 0.009522 -0.016035 0.030579 -0.001571
# 2 -0.010815 0.012824 -0.006097 0.012895 -0.010128 0.004237
# 3 0.009522 -0.006097 0.032954 0.001987 0.035911 0.001102
# 4 -0.016035 0.012895 0.001987 0.066245 -0.022016 0.011455
# 5 0.030579 -0.010128 0.035911 -0.022016 0.086949 0.001020
# 6 -0.001571 0.004237 0.001102 0.011455 0.001020 0.020735
#
#
# Mechanical properties :
#
#
# Convention : Reuss Voigt Hill
#
# Bulk Modulus (GPa) = 17.11101 64.77479 40.94290
# Shear Modulus (GPa) = 17.76740 37.11123 27.43932
#
# Velocity S-wave (km/s) = 2.75133 3.97634 3.41915
# Velocity P-wave (km/s) = 4.16933 6.97705 5.74728
#
# Compressibility (1/GPa) = 0.05844192
#
# Stress axis : x y z
#
# Youngs Moduli (GPa) = 36.43628 77.97735 30.34543
#
# Poissons Ratio (x) = 0.84334 -0.28894
# Poissons Ratio (y) = 0.39406 0.18502
# Poissons Ratio (z) = -0.34693 0.47544
#
# Static dielectric constant tensor:
#      x y z
#    x 1.868320 0.000130 -0.006560 
#    y 0.000130 1.937470 0.003430 
#    z -0.006560 0.003430 1.990180 
# 
# From -- ./inp_files/256803.got.cif
#   From: 2010.05.17/outbox.cif.g08.bks.cpg/sg2_129_cif.got.tgz:256803.got - 2010.06.03 11:33:40.
