data_PCOD9041474
_publ_section_title
;
Structure prediction by ZEFSAII (Michael W. Deem and Ramdas Pophale) SiO2 
 PCOD9041474
Probable space group: P -1
;
_chemical_formula_sum "Si O2"
_cell_formula_units_Z 12
_cell_length_a 7.605343
_cell_length_b 13.154040
_cell_length_c 9.754740
_cell_angle_alpha 44.408371
_cell_angle_beta 46.879148
_cell_angle_gamma 77.937208
_cell_volume 417.313624
_symmetry_space_group_name_H-M "P -1"
_symmetry_group_IT_number 2
_symmetry_cell_setting 'triclinic'
loop_
_space_group_symop_operation_xyz
x,y,z
-x,-y,-z
loop_
_atom_site_type_symbol
_atom_site_label
_atom_site_fract_x
_atom_site_fract_y
_atom_site_fract_z
Si Si1 0.554643 0.163802 0.896450
Si Si2 0.461121 0.064120 0.660197
Si Si3 0.332661 0.232082 0.357947
Si Si4 0.991083 0.461693 0.703081
Si Si5 0.635532 0.656483 0.477266
Si Si6 0.863663 0.738446 0.860574
O O1 0.290386 0.183857 0.047787
O O2 0.629112 0.117163 0.051536
O O3 0.802487 0.347715 0.527600
O O4 0.500000 0.000000 0.000000
O O5 0.381508 0.176018 0.692307
O O6 0.806105 0.177048 0.361658
O O7 0.686414 0.935015 0.403946
O O8 0.738047 0.688279 0.552020
O O9 0.672696 0.360843 0.026043
O O10 0.167736 0.217065 0.323560
O O11 0.157444 0.362856 0.714879
O O12 0.000000 0.500000 0.500000
O O13 0.333470 0.470438 0.818421
#
# Coordination Sequence:
#
# PCOD9041474 Si02
#       6
#     2   2   2   2   2   2
#     4  11  26  43  68 107 151 186 232 303 367 417
#     4  10  25  43  68 110 142 182 239 302 362 416
#     4  10  23  43  79 101 137 188 247 290 350 428
#     4  11  22  45  76 102 142 195 243 283 361 440
#     4   9  22  40  72 105 136 184 240 291 350 422
#     4  11  21  45  73  99 143 194 233 287 368 426
#
# _framework density 28.755354000000001
#
# number of rings (size 3 to 8) (size 9 to 14) (size 15 to 20)
#    1.000    0.667    3.333    1.500    2.333    2.000 
#    0.000    4.167    0.000    0.000    0.000    0.000 
#    0.000    0.000    0.000    0.000    0.000    0.000 
#
# Total GULP energy -67381.229863 kJ/mol
# GULP energy per Si atom -5615.102489 kJ/mol
# Density = 2.868991 g / cm^3
# Si number density = 28.755354 Si / 1000 Ang^3
#
#
#
# Elastic Constant Matrix: (Units=GPa)
#
#
# Indices 1 2 3 4 5 6 
#
# 1 157.6536 27.6531 15.1869 -5.3805 10.8276 -12.1305
# 2 27.6531 183.4302 32.6817 -1.6927 -13.1390 -27.0069
# 3 15.1869 32.6817 119.1988 4.3194 -9.8181 -30.0397
# 4 -5.3805 -1.6927 4.3194 56.6083 -10.1486 2.1267
# 5 10.8276 -13.1390 -9.8181 -10.1486 42.7571 -17.4361
# 6 -12.1305 -27.0069 -30.0397 2.1267 -17.4361 53.8016
#
#
#
# Elastic Compliance Matrix: (Units=1/GPa)
#
#
# Indices 1 2 3 4 5 6 
#
# 1 0.006755 -0.001061 -0.000815 0.000279 -0.002240 -0.000201
# 2 -0.001061 0.006583 -0.000299 0.000696 0.004101 0.004200
# 3 -0.000815 -0.000299 0.010982 -0.000188 0.005715 0.007658
# 4 0.000279 0.000696 -0.000188 0.018578 0.004996 0.001192
# 5 -0.002240 0.004101 0.005715 0.004996 0.034070 0.015588
# 6 -0.000201 0.004200 0.007658 0.001192 0.015588 0.029930
#
#
# Mechanical properties :
#
#
# Convention : Reuss Voigt Hill
#
# Bulk Modulus (GPa) = 50.07031 67.92510 58.99771
# Shear Modulus (GPa) = 42.40655 56.28414 49.34535
#
# Velocity S-wave (km/s) = 3.84440 4.42899 4.14701
# Velocity P-wave (km/s) = 6.09558 7.05887 6.59484
#
# Compressibility (1/GPa) = 0.01997192
#
# Stress axis : x y z
#
# Youngs Moduli (GPa) = 148.02876 151.89685 91.05435
#
# Poissons Ratio (x) = 0.16112 0.07423
# Poissons Ratio (y) = 0.15701 0.02721
# Poissons Ratio (z) = 0.12068 0.04538
#
# Static dielectric constant tensor:
#      x y z
#    x 2.408970 0.043030 -0.008030 
#    y 0.043030 2.189450 -0.018620 
#    z -0.008030 -0.018620 2.179850 
# 
# From -- ./inp_files/191359.got.cif
#   From: 2010.05.17/outbox.cif.g08.bks.cpg/sg2_96_cif.got.tgz:191359.got - 2010.06.03 11:33:40.
