data_PCOD9041110
_publ_section_title
;
Structure prediction by ZEFSAII (Michael W. Deem and Ramdas Pophale) SiO2 
 PCOD9041110
Probable space group: P -1
;
_chemical_formula_sum "Si O2"
_cell_formula_units_Z 16
_cell_length_a 19.213290
_cell_length_b 9.015129
_cell_length_c 5.580849
_cell_angle_alpha 75.563744
_cell_angle_beta 121.163130
_cell_angle_gamma 121.670413
_cell_volume 703.656071
_symmetry_space_group_name_H-M "P -1"
_symmetry_group_IT_number 2
_symmetry_cell_setting 'triclinic'
loop_
_space_group_symop_operation_xyz
x,y,z
-x,-y,-z
loop_
_atom_site_type_symbol
_atom_site_label
_atom_site_fract_x
_atom_site_fract_y
_atom_site_fract_z
Si Si1 0.514257 0.385894 0.766754
Si Si2 0.814802 0.610395 0.497835
Si Si3 0.340684 0.311602 0.765941
Si Si4 0.264798 0.931415 0.934114
Si Si5 0.986141 0.223500 0.956800
Si Si6 0.182777 0.743170 0.370302
Si Si7 0.073522 0.127889 0.768562
Si Si8 0.450382 0.912023 0.198594
O O1 0.500000 0.500000 0.500000
O O2 0.411170 0.278813 0.736725
O O3 0.553188 0.272638 0.753193
O O4 0.588989 0.513470 0.038624
O O5 0.739517 0.646239 0.489072
O O6 0.788983 0.409912 0.497198
O O7 0.834010 0.722170 0.242665
O O8 0.916603 0.695216 0.763093
O O9 0.292812 0.134616 0.904852
O O10 0.203244 0.845257 0.620210
O O11 0.228277 0.850152 0.164094
O O12 0.353169 0.906944 0.044988
O O13 0.925598 0.318982 0.838889
O O14 0.021383 0.224412 0.753445
O O15 0.922212 0.016181 0.991459
O O16 0.000000 0.000000 0.500000
O O17 0.500000 0.000000 0.500000
O O18 0.500000 0.000000 0.000000
#
# Coordination Sequence:
#
# PCOD9041110 Si02
#       8
#     2   2   2   2   2   2   2   2
#     4  11  26  45  75 104 142 188 243 298 366 433
#     4  11  25  44  70 102 143 186 240 299 356 422
#     4  11  26  46  71 106 142 190 241 303 357 434
#     4  12  28  48  71 108 146 193 239 294 360 431
#     4  10  23  43  71 100 139 193 236 291 356 425
#     4  12  29  45  72 106 150 189 241 296 357 428
#     4   9  21  40  68 100 132 182 237 291 353 420
#     4  12  25  48  77 106 146 190 237 294 367 427
#
# _framework density 22.738379999999999
#
# number of rings (size 3 to 8) (size 9 to 14) (size 15 to 20)
#    0.000    1.000    1.250    3.375   15.750    1.500 
#    0.000    0.000    0.000    0.000    0.000    0.000 
#    0.000    0.000    0.000    0.000    0.000    0.000 
#
# Total GULP energy -89296.711614 kJ/mol
# GULP energy per Si atom -5581.044476 kJ/mol
# Density = 2.268663 g / cm^3
# Si number density = 22.738380 Si / 1000 Ang^3
#
#
#
# Elastic Constant Matrix: (Units=GPa)
#
#
# Indices 1 2 3 4 5 6 
#
# 1 120.7899 32.5557 33.7139 -6.8982 21.4875 -16.4711
# 2 32.5557 83.8029 15.7487 -17.4313 2.6983 -7.5313
# 3 33.7139 15.7487 76.4766 -1.9024 8.1064 9.7006
# 4 -6.8982 -17.4313 -1.9024 24.4206 -2.6380 6.3464
# 5 21.4875 2.6983 8.1064 -2.6380 53.8915 -12.4169
# 6 -16.4711 -7.5313 9.7006 6.3464 -12.4169 35.8747
#
#
#
# Elastic Compliance Matrix: (Units=1/GPa)
#
#
# Indices 1 2 3 4 5 6 
#
# 1 0.011639 -0.003272 -0.004880 -0.001077 -0.002581 0.005274
# 2 -0.003272 0.015675 -0.001830 0.010017 0.001525 0.001039
# 3 -0.004880 -0.001830 0.016890 0.000480 -0.002343 -0.008088
# 4 -0.001077 0.010017 0.000480 0.049747 0.000656 -0.007095
# 5 -0.002581 0.001525 -0.002343 0.000656 0.021530 0.007105
# 6 0.005274 0.001039 -0.008088 -0.007095 0.007105 0.036415
#
#
# Mechanical properties :
#
#
# Convention : Reuss Voigt Hill
#
# Bulk Modulus (GPa) = 41.24991 49.45621 45.35306
# Shear Modulus (GPa) = 27.78702 36.10743 31.94723
#
# Velocity S-wave (km/s) = 3.49955 3.98923 3.75239
# Velocity P-wave (km/s) = 5.87449 6.55866 6.22598
#
# Compressibility (1/GPa) = 0.02424248
#
# Stress axis : x y z
#
# Youngs Moduli (GPa) = 85.91618 63.79395 59.20650
#
# Poissons Ratio (x) = 0.20871 0.28890
# Poissons Ratio (y) = 0.28108 0.10835
# Poissons Ratio (z) = 0.41923 0.11674
#
# Static dielectric constant tensor:
#      x y z
#    x 1.897820 0.053760 -0.040030 
#    y 0.053760 1.889120 0.056070 
#    z -0.040030 0.056070 1.962050 
# 
# From -- ./inp_files/106560.got.cif
#   From: 2010.05.17/outbox.cif.g08.bks.cpg/sg2_54_cif.got.tgz:106560.got - 2010.06.03 11:33:40.
