data_PCOD9041445
_publ_section_title
;
Structure prediction by ZEFSAII (Michael W. Deem and Ramdas Pophale) SiO2 
 PCOD9041445
Probable space group: P -1
;
_chemical_formula_sum "Si O2"
_cell_formula_units_Z 14
_cell_length_a 10.137446
_cell_length_b 23.244960
_cell_length_c 18.667965
_cell_angle_alpha 17.484805
_cell_angle_beta 152.703593
_cell_angle_gamma 144.841356
_cell_volume 591.552731
_symmetry_space_group_name_H-M "P -1"
_symmetry_group_IT_number 2
_symmetry_cell_setting 'triclinic'
loop_
_space_group_symop_operation_xyz
x,y,z
-x,-y,-z
loop_
_atom_site_type_symbol
_atom_site_label
_atom_site_fract_x
_atom_site_fract_y
_atom_site_fract_z
Si Si1 0.709328 0.112801 0.422873
Si Si2 0.659936 0.529688 0.275518
Si Si3 0.323601 0.947520 0.853144
Si Si4 0.318782 0.566520 0.215207
Si Si5 0.130257 0.232831 0.601038
Si Si6 0.213409 0.153100 0.422624
Si Si7 0.797017 0.178948 0.646522
O O1 0.894117 0.213357 0.449748
O O2 0.500000 0.000000 0.500000
O O3 0.516595 0.270191 0.087586
O O4 0.991551 0.961964 0.703182
O O5 0.498584 0.512744 0.293200
O O6 0.681355 0.361068 0.426652
O O7 0.000000 0.500000 0.500000
O O8 0.305281 0.134095 0.571963
O O9 0.411705 0.749769 0.082344
O O10 0.592370 0.946779 0.036871
O O11 0.300206 0.398686 0.461539
O O12 0.983508 0.643873 0.936107
O O13 0.953760 0.250608 0.569365
O O14 0.504045 0.102274 0.575575
O O15 0.000000 0.000000 0.500000
O O16 0.000000 0.000000 0.000000
#
# Coordination Sequence:
#
# PCOD9041445 Si02
#       7
#     2   2   2   2   2   2   2
#     4  12  31  47  76 116 158 197 254 314 379 449
#     4  12  30  49  78 114 154 199 256 316 378 448
#     4  11  24  48  78 107 153 203 245 306 382 449
#     4  11  26  47  78 110 153 198 255 307 376 454
#     4  12  28  47  76 112 153 200 255 309 378 449
#     4  10  23  43  76 102 145 195 249 296 375 440
#     4  12  28  48  78 111 151 200 256 314 379 449
#
# _framework density 23.666530000000002
#
# number of rings (size 3 to 8) (size 9 to 14) (size 15 to 20)
#    0.000    0.571    2.857    2.571   14.000    2.286 
#    0.000    0.000    0.000    0.000    0.000    0.000 
#    0.000    0.000    0.000    0.000    0.000    0.000 
#
# Total GULP energy -78205.050543 kJ/mol
# GULP energy per Si atom -5586.075039 kJ/mol
# Density = 2.361266 g / cm^3
# Si number density = 23.666530 Si / 1000 Ang^3
#
#
#
# Elastic Constant Matrix: (Units=GPa)
#
#
# Indices 1 2 3 4 5 6 
#
# 1 191.0592 48.5207 51.7729 2.4394 3.7224 8.6751
# 2 48.5207 98.1376 32.4481 20.3065 6.2401 1.8124
# 3 51.7729 32.4481 122.8191 34.0692 -3.4365 6.9644
# 4 2.4394 20.3065 34.0692 45.1326 1.3144 14.3646
# 5 3.7224 6.2401 -3.4365 1.3144 42.1085 -4.2247
# 6 8.6751 1.8124 6.9644 14.3646 -4.2247 38.9817
#
#
#
# Elastic Compliance Matrix: (Units=1/GPa)
#
#
# Indices 1 2 3 4 5 6 
#
# 1 0.006974 -0.003189 -0.003159 0.004259 -0.000785 -0.002494
# 2 -0.003189 0.013266 -0.000669 -0.005976 -0.001324 0.002271
# 3 -0.003159 -0.000669 0.012218 -0.009529 0.001901 0.002269
# 4 0.004259 -0.005976 -0.009529 0.035853 -0.002638 -0.012465
# 5 -0.000785 -0.001324 0.001901 -0.002638 0.024606 0.003536
# 6 -0.002494 0.002271 0.002269 -0.012465 0.003536 0.030674
#
#
# Mechanical properties :
#
#
# Convention : Reuss Voigt Hill
#
# Bulk Modulus (GPa) = 54.27526 75.27771 64.77649
# Shear Modulus (GPa) = 34.77848 43.86285 39.32066
#
# Velocity S-wave (km/s) = 3.83759 4.30975 4.08051
# Velocity P-wave (km/s) = 6.52834 7.52609 7.04490
#
# Compressibility (1/GPa) = 0.01842460
#
# Stress axis : x y z
#
# Youngs Moduli (GPa) = 143.38771 75.37883 81.84382
#
# Poissons Ratio (x) = 0.24037 0.25858
# Poissons Ratio (y) = 0.45724 0.05474
# Poissons Ratio (z) = 0.45303 0.05041
#
# Static dielectric constant tensor:
#      x y z
#    x 1.387980 0.046620 0.357830 
#    y 0.046620 2.058590 -0.002840 
#    z 0.357830 -0.002840 1.665200 
# 
# From -- ./inp_files/563289.got.cif
#   From: 2010.05.17/outbox.cif.g08.bks.cpg/sg2_282_cif.got.tgz:563289.got - 2010.06.03 11:33:40.
