data_PCOD9041996
_publ_section_title
;
Structure prediction by ZEFSAII (Michael W. Deem and Ramdas Pophale) SiO2 
 PCOD9041996
Probable space group: P -1
;
_chemical_formula_sum "Si O2"
_cell_formula_units_Z 12
_cell_length_a 12.261351
_cell_length_b 9.841072
_cell_length_c 18.228862
_cell_angle_alpha 24.846978
_cell_angle_beta 144.242560
_cell_angle_gamma 141.051460
_cell_volume 532.387831
_symmetry_space_group_name_H-M "P -1"
_symmetry_group_IT_number 2
_symmetry_cell_setting 'triclinic'
loop_
_space_group_symop_operation_xyz
x,y,z
-x,-y,-z
loop_
_atom_site_type_symbol
_atom_site_label
_atom_site_fract_x
_atom_site_fract_y
_atom_site_fract_z
Si Si1 0.413829 0.693897 0.693698
Si Si2 0.832338 0.630398 0.940784
Si Si3 0.873628 0.258258 0.279337
Si Si4 0.477331 0.818072 0.284570
Si Si5 0.147918 0.181828 0.900151
Si Si6 0.410054 0.414817 0.303293
O O1 0.631635 0.691100 0.836558
O O2 0.274057 0.431114 0.791179
O O3 0.424132 0.605475 0.655893
O O4 0.371597 0.061697 0.494701
O O5 0.770349 0.547110 0.864228
O O6 0.894744 0.342854 0.163470
O O7 0.985697 0.951105 0.879972
O O8 0.925971 0.592927 0.189360
O O9 0.657251 0.099125 0.255833
O O10 0.000000 0.000000 0.500000
O O11 0.500000 0.500000 0.500000
O O12 0.466485 0.699647 0.252095
O O13 0.286433 0.962078 0.121326
#
# Coordination Sequence:
#
# PCOD9041996 Si02
#       6
#     2   2   2   2   2   2
#     4   9  21  43  67 100 135 178 219 282 336 397
#     4  10  23  44  68  97 140 174 227 283 331 401
#     4  12  27  43  67 102 140 181 228 283 336 398
#     4  12  25  42  72 100 137 180 228 279 340 413
#     4  12  25  43  71  99 133 185 227 279 340 400
#     4   9  22  43  67 100 137 177 222 282 344 389
#
# _framework density 22.539959
#
# number of rings (size 3 to 8) (size 9 to 14) (size 15 to 20)
#    1.000    0.333    1.667    3.000    4.667    4.000 
#    0.000    1.667    0.000    0.000    0.000    0.000 
#    0.000    0.000    0.000    0.000    0.000    0.000 
#
# Total GULP energy -67134.412934 kJ/mol
# GULP energy per Si atom -5594.534411 kJ/mol
# Density = 2.248866 g / cm^3
# Si number density = 22.539959 Si / 1000 Ang^3
#
#
#
# Elastic Constant Matrix: (Units=GPa)
#
#
# Indices 1 2 3 4 5 6 
#
# 1 52.0703 29.0355 19.7237 -3.7225 -5.4102 -0.7621
# 2 29.0355 93.6075 1.6652 5.0733 -21.4257 7.6656
# 3 19.7237 1.6652 131.4150 3.4053 -15.4723 1.7655
# 4 -3.7225 5.0733 3.4053 28.6267 1.8469 -5.5900
# 5 -5.4102 -21.4257 -15.4723 1.8469 33.8548 -8.7743
# 6 -0.7621 7.6656 1.7655 -5.5900 -8.7743 46.7733
#
#
#
# Elastic Compliance Matrix: (Units=1/GPa)
#
#
# Indices 1 2 3 4 5 6 
#
# 1 0.026229 -0.009388 -0.004427 0.006262 -0.003540 0.002217
# 2 -0.009388 0.016215 0.002514 -0.005358 0.009758 -0.001715
# 3 -0.004427 0.002514 0.008901 -0.002438 0.005042 -0.000166
# 4 0.006262 -0.005358 -0.002438 0.038208 -0.004338 0.004825
# 5 -0.003540 0.009758 0.005042 -0.004338 0.038970 0.004945
# 6 0.002217 -0.001715 -0.000166 0.004825 0.004945 0.023207
#
#
# Mechanical properties :
#
#
# Convention : Reuss Voigt Hill
#
# Bulk Modulus (GPa) = 34.79007 41.99352 38.39180
# Shear Modulus (GPa) = 27.18680 36.96220 32.07450
#
# Velocity S-wave (km/s) = 3.47675 4.05390 3.77637
# Velocity P-wave (km/s) = 5.62009 6.37050 6.00703
#
# Compressibility (1/GPa) = 0.02874383
#
# Stress axis : x y z
#
# Youngs Moduli (GPa) = 38.12582 61.67258 112.34717
#
# Poissons Ratio (x) = 0.57900 0.49730
# Poissons Ratio (y) = 0.35794 -0.28248
# Poissons Ratio (z) = 0.16876 -0.15507
#
# Static dielectric constant tensor:
#      x y z
#    x 1.871380 0.014780 -0.014180 
#    y 0.014780 1.790910 0.022460 
#    z -0.014180 0.022460 1.827530 
# 
# From -- ./inp_files/377017.got.cif
#   From: 2010.05.17/outbox.cif.g08.bks.cpg/sg2_189_cif.got.tgz:377017.got - 2010.06.03 11:33:40.
