data_PCOD9041822
_publ_section_title
;
Structure prediction by ZEFSAII (Michael W. Deem and Ramdas Pophale) SiO2 
 PCOD9041822
Probable space group: P -1
;
_chemical_formula_sum "Si O2"
_cell_formula_units_Z 16
_cell_length_a 21.810973
_cell_length_b 18.352354
_cell_length_c 12.374102
_cell_angle_alpha 26.882034
_cell_angle_beta 151.121199
_cell_angle_gamma 160.708882
_cell_volume 720.716300
_symmetry_space_group_name_H-M "P -1"
_symmetry_group_IT_number 2
_symmetry_cell_setting 'triclinic'
loop_
_space_group_symop_operation_xyz
x,y,z
-x,-y,-z
loop_
_atom_site_type_symbol
_atom_site_label
_atom_site_fract_x
_atom_site_fract_y
_atom_site_fract_z
Si Si1 0.198061 0.751247 0.522039
Si Si2 0.622631 0.322077 0.760194
Si Si3 0.090558 0.233458 0.763619
Si Si4 0.515057 0.345457 0.788339
Si Si5 0.647366 0.392211 0.148631
Si Si6 0.770267 0.165407 0.291079
Si Si7 0.820520 0.855377 0.341066
Si Si8 0.276232 0.164488 0.999707
O O1 0.360988 0.801265 0.646336
O O2 0.206226 0.739897 0.677839
O O3 0.000000 0.500000 0.500000
O O4 0.230704 0.968789 0.260994
O O5 0.548418 0.260771 0.851451
O O6 0.714565 0.581271 0.530858
O O7 0.438196 0.112473 0.679584
O O8 0.767755 0.308077 0.010416
O O9 0.184764 0.431577 0.739268
O O10 0.936006 0.186666 0.517351
O O11 0.252247 0.305125 0.843479
O O12 0.000000 0.000000 0.000000
O O13 0.500000 0.500000 0.500000
O O14 0.316447 0.144669 0.811434
O O15 0.666161 0.491162 0.927455
O O16 0.472480 0.312633 0.044658
O O17 0.871482 0.963360 0.158157
O O18 0.000000 0.000000 0.500000
#
# Coordination Sequence:
#
# PCOD9041822 Si02
#       8
#     2   2   2   2   2   2   2   2
#     4  12  23  43  68  98 131 177 231 277 326 409
#     4  10  23  44  67  95 133 177 229 272 331 405
#     4  12  25  40  67  99 132 178 226 278 333 411
#     4   9  20  36  65  89 126 171 219 269 319 397
#     4  11  23  42  64  98 135 178 219 282 343 391
#     4  11  24  41  70  96 130 177 233 275 328 392
#     4  10  24  40  65  97 130 174 217 279 338 397
#     4  11  26  42  63 100 138 170 218 285 351 397
#
# _framework density 22.200136000000001
#
# number of rings (size 3 to 8) (size 9 to 14) (size 15 to 20)
#    0.000    1.250    3.750    0.750    8.750    2.000 
#    0.000    0.625    0.000    0.000    0.000    0.000 
#    0.000    0.000    0.000    0.000    0.000    0.000 
#
# Total GULP energy -89242.302641 kJ/mol
# GULP energy per Si atom -5577.643915 kJ/mol
# Density = 2.214961 g / cm^3
# Si number density = 22.200136 Si / 1000 Ang^3
#
#
#
# Elastic Constant Matrix: (Units=GPa)
#
#
# Indices 1 2 3 4 5 6 
#
# 1 102.2177 15.4585 16.0781 14.6857 21.5882 -4.6749
# 2 15.4585 59.5443 19.6857 24.4008 3.2850 -16.1016
# 3 16.0781 19.6857 112.6001 30.2071 18.3866 -4.6310
# 4 14.6857 24.4008 30.2071 31.7398 -6.8615 -5.6492
# 5 21.5882 3.2850 18.3866 -6.8615 41.9982 6.1417
# 6 -4.6749 -16.1016 -4.6310 -5.6492 6.1417 27.6501
#
#
#
# Elastic Compliance Matrix: (Units=1/GPa)
#
#
# Indices 1 2 3 4 5 6 
#
# 1 0.013222 0.002338 0.002966 -0.012381 -0.010883 0.003981
# 2 0.002338 0.032415 0.005171 -0.030846 -0.013502 0.016835
# 3 0.002966 0.005171 0.015975 -0.022618 -0.013278 0.004517
# 4 -0.012381 -0.030846 -0.022618 0.087598 0.034997 -0.013721
# 5 -0.010883 -0.013502 -0.013278 0.034997 0.044123 -0.014577
# 6 0.003981 0.016835 0.004517 -0.013721 -0.014577 0.047834
#
#
# Mechanical properties :
#
#
# Convention : Reuss Voigt Hill
#
# Bulk Modulus (GPa) = 12.11211 41.86743 26.98977
# Shear Modulus (GPa) = 20.18245 35.15360 27.66802
#
# Velocity S-wave (km/s) = 3.01842 3.98362 3.53413
# Velocity P-wave (km/s) = 4.19709 6.32922 5.37004
#
# Compressibility (1/GPa) = 0.08256201
#
# Stress axis : x y z
#
# Youngs Moduli (GPa) = 75.62916 30.84952 62.59710
#
# Poissons Ratio (x) = -0.07211 -0.18564
# Poissons Ratio (y) = -0.17679 -0.32370
# Poissons Ratio (z) = -0.22429 -0.15953
#
# Static dielectric constant tensor:
#      x y z
#    x 1.878980 0.027120 0.057550 
#    y 0.027120 1.821990 0.045410 
#    z 0.057550 0.045410 1.868610 
# 
# From -- ./inp_files/382575.got.cif
#   From: 2010.05.17/outbox.cif.g08.bks.cpg/sg2_192_cif.got.tgz:382575.got - 2010.06.03 11:33:40.
