data_PCOD9041087
_publ_section_title
;
Structure prediction by ZEFSAII (Michael W. Deem and Ramdas Pophale) SiO2 
 PCOD9041087
Probable space group: P -1
;
_chemical_formula_sum "Si O2"
_cell_formula_units_Z 12
_cell_length_a 14.991072
_cell_length_b 10.355406
_cell_length_c 8.792473
_cell_angle_alpha 111.395169
_cell_angle_beta 30.012160
_cell_angle_gamma 120.535957
_cell_volume 579.013720
_symmetry_space_group_name_H-M "P -1"
_symmetry_group_IT_number 2
_symmetry_cell_setting 'triclinic'
loop_
_space_group_symop_operation_xyz
x,y,z
-x,-y,-z
loop_
_atom_site_type_symbol
_atom_site_label
_atom_site_fract_x
_atom_site_fract_y
_atom_site_fract_z
Si Si1 0.498072 0.938680 0.144226
Si Si2 0.450121 0.632090 0.557515
Si Si3 0.110470 0.917511 0.205901
Si Si4 0.590149 0.385937 0.761365
Si Si5 0.211793 0.037019 0.771639
Si Si6 0.015597 0.575862 0.174789
O O1 0.505931 0.776095 0.083307
O O2 0.306783 0.931429 0.511259
O O3 0.500000 0.000000 0.000000
O O4 0.691225 0.057713 0.990300
O O5 0.500000 0.500000 0.500000
O O6 0.439167 0.631325 0.387123
O O7 0.624312 0.791812 0.417316
O O8 0.232560 0.605826 0.923273
O O9 0.998070 0.737411 0.265424
O O10 0.000000 0.000000 0.500000
O O11 0.176457 0.001563 0.985352
O O12 0.821026 0.459083 0.493447
O O13 0.500000 0.500000 0.000000
O O14 0.000000 0.000000 0.000000
O O15 0.000000 0.500000 0.000000
#
# Coordination Sequence:
#
# PCOD9041087 Si02
#       6
#     2   2   2   2   2   2
#     4  12  26  47  72 104 141 187 240 297 352 425
#     4  11  25  44  69 101 139 183 234 288 357 424
#     4  12  24  46  73 104 139 184 239 299 357 424
#     4  11  25  45  71 103 142 181 231 291 358 424
#     4  12  26  44  71 102 142 185 240 291 355 422
#     4  10  23  43  70  98 137 185 228 286 359 420
#
# _framework density 20.724896999999999
#
# number of rings (size 3 to 8) (size 9 to 14) (size 15 to 20)
#    0.000    0.667    3.333    4.500    9.333    0.000 
#    0.000    1.667    0.000    0.000    0.000    0.000 
#    0.000    0.000    0.000    0.000    0.000    0.000 
#
# Total GULP energy -67063.775799 kJ/mol
# GULP energy per Si atom -5588.647983 kJ/mol
# Density = 2.067773 g / cm^3
# Si number density = 20.724897 Si / 1000 Ang^3
#
#
#
# Elastic Constant Matrix: (Units=GPa)
#
#
# Indices 1 2 3 4 5 6 
#
# 1 123.4247 28.3210 40.8903 -3.8886 -9.7988 -9.8523
# 2 28.3210 154.2813 23.5950 1.1356 -3.4368 -3.1696
# 3 40.8903 23.5950 104.5784 17.8576 -11.5541 6.3030
# 4 -3.8886 1.1356 17.8576 47.6674 3.1903 -4.2278
# 5 -9.7988 -3.4368 -11.5541 3.1903 43.4528 -11.0976
# 6 -9.8523 -3.1696 6.3030 -4.2278 -11.0976 32.7634
#
#
#
# Elastic Compliance Matrix: (Units=1/GPa)
#
#
# Indices 1 2 3 4 5 6 
#
# 1 0.010471 -0.001122 -0.004383 0.002819 0.002173 0.004983
# 2 -0.001122 0.006882 -0.001178 0.000233 0.000121 0.000626
# 3 -0.004383 -0.001178 0.012944 -0.005655 0.001738 -0.004063
# 4 0.002819 0.000233 -0.005655 0.023821 -0.001438 0.004545
# 5 0.002173 0.000121 0.001738 -0.001438 0.026402 0.009088
# 6 0.004983 0.000626 -0.004063 0.004545 0.009088 0.036527
#
#
# Mechanical properties :
#
#
# Convention : Reuss Voigt Hill
#
# Bulk Modulus (GPa) = 59.06276 63.09968 61.08122
# Shear Modulus (GPa) = 36.74971 44.07526 40.41248
#
# Velocity S-wave (km/s) = 4.21552 4.61660 4.42061
# Velocity P-wave (km/s) = 7.22873 7.67657 7.45601
#
# Compressibility (1/GPa) = 0.01693114
#
# Stress axis : x y z
#
# Youngs Moduli (GPa) = 95.50615 145.31460 77.25434
#
# Poissons Ratio (x) = 0.16301 0.33857
# Poissons Ratio (y) = 0.10714 0.09103
# Poissons Ratio (z) = 0.41856 0.17122
#
# Static dielectric constant tensor:
#      x y z
#    x 1.795660 0.064130 -0.018140 
#    y 0.064130 1.772300 -0.001520 
#    z -0.018140 -0.001520 1.742940 
# 
# From -- ./inp_files/148880.got.cif
#   From: 2010.05.17/outbox.cif.g08.bks.cpg/sg2_75_cif.got.tgz:148880.got - 2010.06.03 11:33:40.
