data_PCOD9041694
_publ_section_title
;
Structure prediction by ZEFSAII (Michael W. Deem and Ramdas Pophale) SiO2 
 PCOD9041694
Probable space group: P -1
;
_chemical_formula_sum "Si O2"
_cell_formula_units_Z 16
_cell_length_a 15.275838
_cell_length_b 8.840504
_cell_length_c 19.137310
_cell_angle_alpha 142.231287
_cell_angle_beta 151.367458
_cell_angle_gamma 37.345836
_cell_volume 712.020448
_symmetry_space_group_name_H-M "P -1"
_symmetry_group_IT_number 2
_symmetry_cell_setting 'triclinic'
loop_
_space_group_symop_operation_xyz
x,y,z
-x,-y,-z
loop_
_atom_site_type_symbol
_atom_site_label
_atom_site_fract_x
_atom_site_fract_y
_atom_site_fract_z
Si Si1 0.503969 0.647601 0.448426
Si Si2 0.075500 0.439530 0.951264
Si Si3 0.543721 0.749237 0.151929
Si Si4 0.590307 0.364668 0.770360
Si Si5 0.204001 0.931395 0.578937
Si Si6 0.150883 0.886745 0.361585
Si Si7 0.777788 0.617855 0.410164
Si Si8 0.737234 0.896345 0.808368
O O1 0.416416 0.774080 0.359032
O O2 0.651933 0.366684 0.425277
O O3 0.324107 0.629065 0.361925
O O4 0.616495 0.772843 0.626672
O O5 0.044813 0.165344 0.811458
O O6 0.937377 0.668617 0.886561
O O7 0.292103 0.440431 0.092274
O O8 0.000000 0.500000 0.000000
O O9 0.668751 0.648686 0.272058
O O10 0.676906 0.876400 0.247341
O O11 0.361840 0.984354 0.143192
O O12 0.500000 0.500000 0.000000
O O13 0.364345 0.483977 0.680091
O O14 0.714307 0.156471 0.840049
O O15 0.157690 0.950513 0.470519
O O16 0.000000 0.000000 0.500000
O O17 0.214576 0.112229 0.452130
O O18 0.000000 0.500000 0.500000
#
# Coordination Sequence:
#
# PCOD9041694 Si02
#       8
#     2   2   2   2   2   2   2   2
#     4  12  21  43  77  98 138 184 245 294 344 426
#     4  12  25  41  68 109 144 179 233 303 362 416
#     4  10  23  44  66  95 137 183 234 284 361 415
#     4  11  25  42  68 108 140 180 239 293 361 420
#     4  11  24  40  69 104 136 185 237 290 357 423
#     4  11  22  44  68 100 138 186 239 291 355 417
#     4  10  24  46  68  94 142 188 238 288 352 429
#     4  11  23  46  72 100 140 190 238 294 350 427
#
# _framework density 22.471263
#
# number of rings (size 3 to 8) (size 9 to 14) (size 15 to 20)
#    0.000    1.000    6.250    1.875    3.500    3.000 
#    2.250    0.625    0.000    0.000    0.000    0.000 
#    0.000    0.000    0.000    0.000    0.000    0.000 
#
# Total GULP energy -89114.794065 kJ/mol
# GULP energy per Si atom -5569.674629 kJ/mol
# Density = 2.242012 g / cm^3
# Si number density = 22.471263 Si / 1000 Ang^3
#
#
#
# Elastic Constant Matrix: (Units=GPa)
#
#
# Indices 1 2 3 4 5 6 
#
# 1 136.4421 25.8975 49.6771 3.1063 32.1686 -15.7756
# 2 25.8975 42.0342 29.6538 10.7263 9.1514 -18.6681
# 3 49.6771 29.6538 152.4841 31.7781 33.7938 -6.6906
# 4 3.1063 10.7263 31.7781 22.8897 3.9467 2.7164
# 5 32.1686 9.1514 33.7938 3.9467 47.3260 -3.1528
# 6 -15.7756 -18.6681 -6.6906 2.7164 -3.1528 31.9878
#
#
#
# Elastic Compliance Matrix: (Units=1/GPa)
#
#
# Indices 1 2 3 4 5 6 
#
# 1 0.010113 -0.004163 -0.002319 0.004463 -0.004704 0.001230
# 2 -0.004163 0.044091 -0.001535 -0.020724 -0.001206 0.024998
# 3 -0.002319 -0.001535 0.011913 -0.014727 -0.005327 0.001178
# 4 0.004463 -0.020724 -0.014727 0.074798 0.003991 -0.018932
# 5 -0.004704 -0.001206 -0.005327 0.003991 0.027917 -0.001725
# 6 0.001230 0.024998 0.001178 -0.018932 -0.001725 0.048142
#
#
# Mechanical properties :
#
#
# Convention : Reuss Voigt Hill
#
# Bulk Modulus (GPa) = 19.96649 60.15747 40.06198
# Shear Modulus (GPa) = 20.02379 35.48950 27.75664
#
# Velocity S-wave (km/s) = 2.98834 3.97839 3.51836
# Velocity P-wave (km/s) = 4.56197 6.92332 5.86276
#
# Compressibility (1/GPa) = 0.05008392
#
# Stress axis : x y z
#
# Youngs Moduli (GPa) = 98.88105 22.68022 83.93870
#
# Poissons Ratio (x) = 0.09443 0.19463
# Poissons Ratio (y) = 0.41168 0.12884
# Poissons Ratio (z) = 0.22927 0.03481
#
# Static dielectric constant tensor:
#      x y z
#    x 1.888990 0.002620 0.046200 
#    y 0.002620 2.087400 0.005020 
#    z 0.046200 0.005020 1.852400 
# 
# From -- ./inp_files/572952.got.cif
#   From: 2010.05.17/outbox.cif.g08.bks.cpg/sg2_287_cif.got.tgz:572952.got - 2010.06.03 11:33:40.
