data_PCOD9041887
_publ_section_title
;
Structure prediction by ZEFSAII (Michael W. Deem and Ramdas Pophale) SiO2 
 PCOD9041887
Probable space group: P -1
;
_chemical_formula_sum "Si O2"
_cell_formula_units_Z 16
_cell_length_a 18.204673
_cell_length_b 25.742186
_cell_length_c 5.240577
_cell_angle_alpha 101.367834
_cell_angle_beta 69.769380
_cell_angle_gamma 162.507828
_cell_volume 611.176313
_symmetry_space_group_name_H-M "P -1"
_symmetry_group_IT_number 2
_symmetry_cell_setting 'triclinic'
loop_
_space_group_symop_operation_xyz
x,y,z
-x,-y,-z
loop_
_atom_site_type_symbol
_atom_site_label
_atom_site_fract_x
_atom_site_fract_y
_atom_site_fract_z
Si Si1 0.770497 0.307089 0.001368
Si Si2 0.140440 0.797717 0.988639
Si Si3 0.219727 0.245255 0.634574
Si Si4 0.790068 0.000613 0.542634
Si Si5 0.687473 0.493093 0.623145
Si Si6 0.767496 0.237926 0.464854
Si Si7 0.257116 0.126213 0.869325
Si Si8 0.864783 0.706116 0.950293
O O1 0.470515 0.141895 0.129220
O O2 0.721309 0.237470 0.244363
O O3 0.887719 0.354812 0.651479
O O4 0.000000 0.500000 0.000000
O O5 0.063995 0.704397 0.776954
O O6 0.989732 0.755795 0.087934
O O7 0.475722 0.027043 0.754823
O O8 0.000733 0.686836 0.310041
O O9 0.466025 0.363844 0.525839
O O10 0.293467 0.345611 0.804344
O O11 0.115075 0.197949 0.442110
O O12 0.903834 0.015447 0.868929
O O13 0.676939 0.872183 0.432799
O O14 0.866799 0.095182 0.333505
O O15 0.529541 0.340788 0.798211
O O16 0.708274 0.558774 0.835374
O O17 0.000000 0.000000 0.000000
#
# Coordination Sequence:
#
# PCOD9041887 Si02
#       8
#     2   2   2   2   2   2   2   2
#     4  12  27  49  77 109 142 191 251 302 368 442
#     4  11  26  42  72 101 144 188 237 304 367 435
#     4  10  23  44  68 100 142 191 235 293 363 435
#     4  11  24  44  73  95 144 188 234 296 367 432
#     4  11  24  41  68 105 141 186 243 293 359 438
#     4  11  27  50  74 107 149 189 242 310 377 420
#     4   9  23  43  65  98 139 184 232 294 362 423
#     4  11  22  41  66 101 139 185 234 294 354 433
#
# _framework density 26.179029
#
# number of rings (size 3 to 8) (size 9 to 14) (size 15 to 20)
#    0.000    1.250    1.250    3.000    5.250    9.000 
#    0.000    0.000    0.000    0.000    0.000    0.000 
#    0.000    0.000    0.000    0.000    0.000    0.000 
#
# Total GULP energy -89389.128215 kJ/mol
# GULP energy per Si atom -5586.820513 kJ/mol
# Density = 2.611944 g / cm^3
# Si number density = 26.179029 Si / 1000 Ang^3
#
#
#
# Elastic Constant Matrix: (Units=GPa)
#
#
# Indices 1 2 3 4 5 6 
#
# 1 90.5186 28.8218 26.6367 -0.3960 -12.8057 -11.2820
# 2 28.8218 148.9448 28.6423 3.4377 3.6222 -36.7445
# 3 26.6367 28.6423 93.0032 -5.1810 4.6299 -16.9781
# 4 -0.3960 3.4377 -5.1810 42.4068 -3.0846 -2.4726
# 5 -12.8057 3.6222 4.6299 -3.0846 25.1255 3.9864
# 6 -11.2820 -36.7445 -16.9781 -2.4726 3.9864 48.3742
#
#
#
# Elastic Compliance Matrix: (Units=1/GPa)
#
#
# Indices 1 2 3 4 5 6 
#
# 1 0.014013 -0.002315 -0.003777 0.000433 0.008300 -0.000478
# 2 -0.002315 0.008954 -0.000833 -0.000734 -0.003393 0.006211
# 3 -0.003777 -0.000833 0.013044 0.001498 -0.004583 0.003519
# 4 0.000433 -0.000734 0.001498 0.024096 0.002839 0.001067
# 5 0.008300 -0.003393 -0.004583 0.002839 0.046657 -0.005950
# 6 -0.000478 0.006211 0.003519 0.001067 -0.005950 0.027059
#
#
# Mechanical properties :
#
#
# Convention : Reuss Voigt Hill
#
# Bulk Modulus (GPa) = 45.12179 55.62980 50.37580
# Shear Modulus (GPa) = 32.24593 39.73900 35.99247
#
# Velocity S-wave (km/s) = 3.51343 3.90034 3.71193
# Velocity P-wave (km/s) = 5.80794 6.44821 6.13643
#
# Compressibility (1/GPa) = 0.02216224
#
# Stress axis : x y z
#
# Youngs Moduli (GPa) = 71.36485 111.68592 76.66108
#
# Poissons Ratio (x) = 0.25855 0.28952
# Poissons Ratio (y) = 0.16521 0.06383
# Poissons Ratio (z) = 0.26952 0.09299
#
# Static dielectric constant tensor:
#      x y z
#    x 2.102460 0.089460 0.050110 
#    y 0.089460 2.095860 0.026400 
#    z 0.050110 0.026400 2.094150 
# 
# From -- ./inp_files/112883.got.cif
#   From: 2010.05.17/outbox.cif.g08.bks.cpg/sg2_57_cif.got.tgz:112883.got - 2010.06.03 11:33:40.
