data_PCOD9041613
_publ_section_title
;
Structure prediction by ZEFSAII (Michael W. Deem and Ramdas Pophale) SiO2 
 PCOD9041613
Probable space group: P -1
;
_chemical_formula_sum "Si O2"
_cell_formula_units_Z 16
_cell_length_a 13.405718
_cell_length_b 9.296583
_cell_length_c 13.594690
_cell_angle_alpha 80.872941
_cell_angle_beta 37.793643
_cell_angle_gamma 109.800215
_cell_volume 657.757992
_symmetry_space_group_name_H-M "P -1"
_symmetry_group_IT_number 2
_symmetry_cell_setting 'triclinic'
loop_
_space_group_symop_operation_xyz
x,y,z
-x,-y,-z
loop_
_atom_site_type_symbol
_atom_site_label
_atom_site_fract_x
_atom_site_fract_y
_atom_site_fract_z
Si Si1 0.676123 0.933947 0.516956
Si Si2 0.548805 0.419035 0.559280
Si Si3 0.110547 0.755808 0.158914
Si Si4 0.339023 0.955491 0.748055
Si Si5 0.944658 0.615910 0.698553
Si Si6 0.591897 0.696364 0.794162
Si Si7 0.039224 0.132652 0.048399
Si Si8 0.092411 0.858235 0.370716
O O1 0.480234 0.903759 0.617142
O O2 0.860369 0.973328 0.296175
O O3 0.858070 0.170610 0.406891
O O4 0.547441 0.747076 0.719376
O O5 0.500000 0.500000 0.500000
O O6 0.829024 0.611307 0.362303
O O7 0.490422 0.212406 0.593337
O O8 0.335680 0.320197 0.815997
O O9 0.105269 0.581439 0.207156
O O10 0.189330 0.887388 0.184168
O O11 0.281833 0.903837 0.914815
O O12 0.075549 0.794978 0.911042
O O13 0.060382 0.704574 0.489620
O O14 0.682124 0.526403 0.923338
O O15 0.807649 0.726862 0.600201
O O16 0.727964 0.902398 0.740880
O O17 0.000000 0.000000 0.000000
#
# Coordination Sequence:
#
# PCOD9041613 Si02
#       8
#     2   2   2   2   2   2   2   2
#     4  11  23  43  68 100 133 178 221 274 337 401
#     4  11  24  43  65  99 136 169 228 275 328 400
#     4  12  24  42  70 100 134 181 221 277 332 392
#     4  11  23  44  65  97 138 177 223 270 334 402
#     4  11  23  45  65 100 135 176 224 274 336 401
#     4  10  23  44  65  96 137 172 224 275 337 399
#     4  10  24  43  68  96 135 175 222 280 328 394
#     4  10  25  41  68  99 133 174 228 276 332 396
#
# _framework density 24.325056
#
# number of rings (size 3 to 8) (size 9 to 14) (size 15 to 20)
#    0.000    1.250    3.750    1.125    5.250    1.500 
#    0.000    1.250    0.000    0.000    0.000    0.000 
#    0.000    0.000    0.000    0.000    0.000    0.000 
#
# Total GULP energy -89565.543913 kJ/mol
# GULP energy per Si atom -5597.846495 kJ/mol
# Density = 2.426969 g / cm^3
# Si number density = 24.325056 Si / 1000 Ang^3
#
#
#
# Elastic Constant Matrix: (Units=GPa)
#
#
# Indices 1 2 3 4 5 6 
#
# 1 79.1027 19.3062 10.0989 4.4217 5.0553 -8.5687
# 2 19.3062 76.2676 8.4752 8.3008 9.6440 -3.9619
# 3 10.0989 8.4752 96.9043 22.5076 4.3827 4.4514
# 4 4.4217 8.3008 22.5076 27.4891 -2.1740 7.4807
# 5 5.0553 9.6440 4.3827 -2.1740 53.2916 5.9468
# 6 -8.5687 -3.9619 4.4514 7.4807 5.9468 33.1825
#
#
#
# Elastic Compliance Matrix: (Units=1/GPa)
#
#
# Indices 1 2 3 4 5 6 
#
# 1 0.014089 -0.002893 -0.000915 -0.001848 -0.001266 0.004059
# 2 -0.002893 0.014897 0.000209 -0.005172 -0.002951 0.002698
# 3 -0.000915 0.000209 0.012952 -0.010854 -0.001545 0.000775
# 4 -0.001848 -0.005172 -0.010854 0.050838 0.005425 -0.012072
# 5 -0.001266 -0.002951 -0.001545 0.005425 0.020364 -0.005344
# 6 0.004059 0.002698 0.000775 -0.012072 -0.005344 0.035082
#
#
# Mechanical properties :
#
#
# Convention : Reuss Voigt Hill
#
# Bulk Modulus (GPa) = 28.78478 36.44837 32.61658
# Shear Modulus (GPa) = 29.94042 37.08557 33.51299
#
# Velocity S-wave (km/s) = 3.51215 3.90883 3.71579
# Velocity P-wave (km/s) = 5.32034 5.94881 5.64333
#
# Compressibility (1/GPa) = 0.03474058
#
# Stress axis : x y z
#
# Youngs Moduli (GPa) = 70.97973 67.12795 77.20929
#
# Poissons Ratio (x) = 0.19417 0.07066
# Poissons Ratio (y) = 0.20531 -0.01617
# Poissons Ratio (z) = 0.06496 -0.01406
#
# Static dielectric constant tensor:
#      x y z
#    x 1.965380 -0.019800 -0.010320 
#    y -0.019800 1.928020 0.005170 
#    z -0.010320 0.005170 1.956160 
# 
# From -- ./inp_files/529613.got.cif
#   From: 2010.05.17/outbox.cif.g08.bks.cpg/sg2_265_cif.got.tgz:529613.got - 2010.06.03 11:33:40.
