data_PCOD9041231
_publ_section_title
;
Structure prediction by ZEFSAII (Michael W. Deem and Ramdas Pophale) SiO2 
 PCOD9041231
Probable space group: P -1
;
_chemical_formula_sum "Si O2"
_cell_formula_units_Z 16
_cell_length_a 14.963416
_cell_length_b 11.417915
_cell_length_c 14.501140
_cell_angle_alpha 119.621010
_cell_angle_beta 150.034676
_cell_angle_gamma 42.165300
_cell_volume 745.525678
_symmetry_space_group_name_H-M "P -1"
_symmetry_group_IT_number 2
_symmetry_cell_setting 'triclinic'
loop_
_space_group_symop_operation_xyz
x,y,z
-x,-y,-z
loop_
_atom_site_type_symbol
_atom_site_label
_atom_site_fract_x
_atom_site_fract_y
_atom_site_fract_z
Si Si1 0.598317 0.952970 0.674551
Si Si2 0.815475 0.728852 0.442321
Si Si3 0.132086 0.181716 0.818128
Si Si4 0.730796 0.410094 0.103357
Si Si5 0.860585 0.219244 0.952071
Si Si6 0.647957 0.762644 0.111317
Si Si7 0.285612 0.291361 0.157196
Si Si8 0.457369 0.569968 0.594184
O O1 0.580690 0.830112 0.675592
O O2 0.500000 0.000000 0.500000
O O3 0.422559 0.155725 0.653937
O O4 0.901497 0.817944 0.884364
O O5 0.714422 0.810355 0.281688
O O6 0.000000 0.500000 0.500000
O O7 0.003075 0.736312 0.658426
O O8 0.159479 0.291780 0.815832
O O9 0.846724 0.278798 0.600200
O O10 0.223205 0.194571 0.001607
O O11 0.353106 0.956433 0.897867
O O12 0.684985 0.586776 0.096220
O O13 0.500000 0.500000 0.000000
O O14 0.760429 0.306522 0.998668
O O15 0.625829 0.379391 0.735547
O O16 0.000000 0.000000 0.000000
O O17 0.444976 0.328282 0.269522
O O18 0.000000 0.500000 0.000000
O O19 0.500000 0.500000 0.500000
#
# Coordination Sequence:
#
# PCOD9041231 Si02
#       8
#     2   2   2   2   2   2   2   2
#     4  12  25  46  72 105 143 190 241 301 366 436
#     4  10  23  43  71  99 137 189 236 289 364 426
#     4  11  24  47  75 102 144 191 246 302 359 444
#     4  11  26  45  70 106 149 187 238 304 365 442
#     4  12  29  45  71 110 146 192 247 300 369 436
#     4  10  24  46  72 102 142 190 243 299 366 433
#     4  12  24  45  72 104 151 188 240 301 372 437
#     4  12  27  45  73 109 144 195 244 307 371 437
#
# _framework density 21.461366000000002
#
# number of rings (size 3 to 8) (size 9 to 14) (size 15 to 20)
#    0.000    0.750    5.000    0.750    7.000    2.000 
#    0.000    1.875    0.000    0.000    0.000    0.000 
#    0.000    0.000    0.000    0.000    0.000    0.000 
#
# Total GULP energy -89351.144261 kJ/mol
# GULP energy per Si atom -5584.446516 kJ/mol
# Density = 2.141252 g / cm^3
# Si number density = 21.461366 Si / 1000 Ang^3
#
#
#
# Elastic Constant Matrix: (Units=GPa)
#
#
# Indices 1 2 3 4 5 6 
#
# 1 121.8763 33.8842 52.0228 -8.9577 -1.1160 -6.1161
# 2 33.8842 76.6182 29.3014 -12.4141 -2.5113 2.5925
# 3 52.0228 29.3014 137.2334 -17.4277 8.4265 2.0072
# 4 -8.9577 -12.4141 -17.4277 28.7084 -6.9956 -1.1089
# 5 -1.1160 -2.5113 8.4265 -6.9956 52.8638 -1.1149
# 6 -6.1161 2.5925 2.0072 -1.1089 -1.1149 46.9927
#
#
#
# Elastic Compliance Matrix: (Units=1/GPa)
#
#
# Indices 1 2 3 4 5 6 
#
# 1 0.010710 -0.003481 -0.003380 0.000007 0.000637 0.001746
# 2 -0.003481 0.016128 -0.001533 0.005308 0.001616 -0.001114
# 3 -0.003380 -0.001533 0.009448 0.003705 -0.001175 -0.000699
# 4 0.000007 0.005308 0.003705 0.040635 0.005052 0.000629
# 5 0.000637 0.001616 -0.001175 0.005052 0.019876 0.000635
# 6 0.001746 -0.001114 -0.000699 0.000629 0.000635 0.021628
#
#
# Mechanical properties :
#
#
# Convention : Reuss Voigt Hill
#
# Bulk Modulus (GPa) = 51.28686 62.90497 57.09592
# Shear Modulus (GPa) = 35.28265 40.41428 37.84847
#
# Velocity S-wave (km/s) = 4.05904 4.34420 4.20404
# Velocity P-wave (km/s) = 6.77620 7.38493 7.08710
#
# Compressibility (1/GPa) = 0.01949817
#
# Stress axis : x y z
#
# Youngs Moduli (GPa) = 93.37425 62.00419 105.83710
#
# Poissons Ratio (x) = 0.21581 0.35777
# Poissons Ratio (y) = 0.32499 0.16225
# Poissons Ratio (z) = 0.31564 0.09505
#
# Static dielectric constant tensor:
#      x y z
#    x 1.799210 0.064230 -0.003340 
#    y 0.064230 2.160190 0.140180 
#    z -0.003340 0.140180 1.845270 
# 
# From -- ./inp_files/532639.got.cif
#   From: 2010.05.17/outbox.cif.g08.bks.cpg/sg2_267_cif.got.tgz:532639.got - 2010.06.03 11:33:40.
