data_PCOD9041273
_publ_section_title
;
Structure prediction by ZEFSAII (Michael W. Deem and Ramdas Pophale) SiO2 
 PCOD9041273
Probable space group: P -1
;
_chemical_formula_sum "Si O2"
_cell_formula_units_Z 14
_cell_length_a 21.686989
_cell_length_b 22.100964
_cell_length_c 9.183453
_cell_angle_alpha 26.605719
_cell_angle_beta 154.151009
_cell_angle_gamma 161.518805
_cell_volume 581.543333
_symmetry_space_group_name_H-M "P -1"
_symmetry_group_IT_number 2
_symmetry_cell_setting 'triclinic'
loop_
_space_group_symop_operation_xyz
x,y,z
-x,-y,-z
loop_
_atom_site_type_symbol
_atom_site_label
_atom_site_fract_x
_atom_site_fract_y
_atom_site_fract_z
Si Si1 0.027085 0.388989 0.696520
Si Si2 0.171561 0.152944 0.847394
Si Si3 0.312389 0.476166 0.634246
Si Si4 0.345460 0.065833 0.617874
Si Si5 0.504166 0.658123 0.120386
Si Si6 0.070640 0.687413 0.671093
Si Si7 0.194689 0.993369 0.764775
O O1 0.000000 0.500000 0.500000
O O2 0.907816 0.314503 0.450335
O O3 0.271096 0.544245 0.846551
O O4 0.940813 0.200823 0.006492
O O5 0.202212 0.333404 0.565320
O O6 0.358286 0.236447 0.959915
O O7 0.958588 0.995855 0.641993
O O8 0.198902 0.081955 0.202001
O O9 0.429886 0.702772 0.392382
O O10 0.129583 0.356913 0.621354
O O11 0.500000 0.500000 0.000000
O O12 0.277580 0.895333 0.736964
O O13 0.280438 0.986324 0.814977
O O14 0.500000 0.500000 0.500000
O O15 0.617949 0.818914 0.144538
O O16 0.000000 0.500000 0.000000
#
# Coordination Sequence:
#
# PCOD9041273 Si02
#       7
#     2   2   2   2   2   2   2
#     4  12  29  50  71 101 148 190 235 291 355 425
#     4  11  22  44  72 109 145 182 236 295 352 414
#     4  10  23  43  72 107 141 175 236 291 350 410
#     4  11  24  41  73 106 143 184 232 294 352 412
#     4  12  26  45  73 107 146 186 236 291 355 421
#     4  12  27  48  74 100 141 188 239 289 350 421
#     4  12  25  43  72 108 145 187 232 291 358 418
#
# _framework density 24.073875000000001
#
# number of rings (size 3 to 8) (size 9 to 14) (size 15 to 20)
#    0.000    0.571    2.857    5.143    4.000    1.143 
#    0.000    1.429    0.000    0.000    0.000    0.000 
#    0.000    0.000    0.000    0.000    0.000    0.000 
#
# Total GULP energy -78385.272118 kJ/mol
# GULP energy per Si atom -5598.948008 kJ/mol
# Density = 2.401908 g / cm^3
# Si number density = 24.073875 Si / 1000 Ang^3
#
#
#
# Elastic Constant Matrix: (Units=GPa)
#
#
# Indices 1 2 3 4 5 6 
#
# 1 149.0431 42.4722 20.7588 4.5712 -19.1718 -34.4406
# 2 42.4722 149.7669 17.9010 -1.9031 -6.0120 -35.8945
# 3 20.7588 17.9010 60.5819 -8.8905 -10.2062 -13.7533
# 4 4.5712 -1.9031 -8.8905 29.7255 1.9655 6.9311
# 5 -19.1718 -6.0120 -10.2062 1.9655 43.9381 3.4694
# 6 -34.4406 -35.8945 -13.7533 6.9311 3.4694 45.2142
#
#
#
# Elastic Compliance Matrix: (Units=1/GPa)
#
#
# Indices 1 2 3 4 5 6 
#
# 1 0.009081 -0.000859 -0.001456 -0.003517 0.003183 0.006087
# 2 -0.000859 0.008443 -0.000988 -0.001005 0.000130 0.005892
# 3 -0.001456 -0.000988 0.019248 0.005017 0.003244 0.002944
# 4 -0.003517 -0.001005 0.005017 0.037489 -0.001585 -0.007576
# 5 0.003183 0.000130 0.003244 -0.001585 0.024844 0.001852
# 6 0.006087 0.005892 0.002944 -0.007576 0.001852 0.033346
#
#
# Mechanical properties :
#
#
# Convention : Reuss Voigt Hill
#
# Bulk Modulus (GPa) = 33.14982 57.96174 45.55578
# Shear Modulus (GPa) = 33.53132 42.32625 37.92878
#
# Velocity S-wave (km/s) = 3.73614 4.19762 3.97358
# Velocity P-wave (km/s) = 5.69312 6.90088 6.32589
#
# Compressibility (1/GPa) = 0.03016608
#
# Stress axis : x y z
#
# Youngs Moduli (GPa) = 110.12000 118.43493 51.95246
#
# Poissons Ratio (x) = 0.10177 0.07562
# Poissons Ratio (y) = 0.09463 0.05135
# Poissons Ratio (z) = 0.16030 0.11706
#
# Static dielectric constant tensor:
#      x y z
#    x 1.946790 0.003340 0.045210 
#    y 0.003340 1.957200 -0.003620 
#    z 0.045210 -0.003620 1.922760 
# 
# From -- ./inp_files/349668.got.cif
#   From: 2010.05.17/outbox.cif.g08.bks.cpg/sg2_175_cif.got.tgz:349668.got - 2010.06.03 11:33:40.
