data_PCOD9041574
_publ_section_title
;
Structure prediction by ZEFSAII (Michael W. Deem and Ramdas Pophale) SiO2 
 PCOD9041574
Probable space group: P -1
;
_chemical_formula_sum "Si O2"
_cell_formula_units_Z 16
_cell_length_a 6.954388
_cell_length_b 16.235639
_cell_length_c 14.587903
_cell_angle_alpha 154.030669
_cell_angle_beta 108.541030
_cell_angle_gamma 69.292815
_cell_volume 674.657563
_symmetry_space_group_name_H-M "P -1"
_symmetry_group_IT_number 2
_symmetry_cell_setting 'triclinic'
loop_
_space_group_symop_operation_xyz
x,y,z
-x,-y,-z
loop_
_atom_site_type_symbol
_atom_site_label
_atom_site_fract_x
_atom_site_fract_y
_atom_site_fract_z
Si Si1 0.570272 0.851030 0.060894
Si Si2 0.508154 0.792975 0.336916
Si Si3 0.866620 0.126884 0.983652
Si Si4 0.908881 0.643465 0.356978
Si Si5 0.249879 0.415858 0.544620
Si Si6 0.297109 0.157596 0.117911
Si Si7 0.324753 0.758057 0.469647
Si Si8 0.322954 0.713976 0.043922
O O1 0.513863 0.726944 0.014808
O O2 0.682817 0.022705 0.280882
O O3 0.338389 0.946059 0.087947
O O4 0.682382 0.751649 0.889996
O O5 0.734334 0.756194 0.378004
O O6 0.366515 0.762446 0.371654
O O7 0.426566 0.691604 0.135613
O O8 0.500000 0.000000 0.500000
O O9 0.818172 0.354078 0.233706
O O10 0.094476 0.057577 0.981088
O O11 0.834824 0.113020 0.854180
O O12 0.893183 0.677640 0.498719
O O13 0.127169 0.670185 0.379316
O O14 0.827212 0.441586 0.137485
O O15 0.262955 0.322609 0.353560
O O16 0.474657 0.357841 0.566219
O O17 0.500000 0.000000 0.000000
#
# Coordination Sequence:
#
# PCOD9041574 Si02
#       8
#     2   2   2   2   2   2   2   2
#     4  10  23  44  65 100 141 179 232 285 347 411
#     4  11  21  41  69 100 144 178 232 286 352 407
#     4   9  23  44  68  97 139 185 222 289 355 395
#     4  10  24  43  68 100 139 186 231 284 352 405
#     4  10  23  46  68 100 145 179 228 298 339 412
#     4  12  24  42  72 108 135 183 239 287 346 423
#     4  11  23  43  69 107 133 184 237 285 341 420
#     4   9  21  47  64  96 145 183 222 294 342 411
#
# _framework density 23.715733
#
# number of rings (size 3 to 8) (size 9 to 14) (size 15 to 20)
#    0.750    1.000    2.500    0.750    0.000    8.000 
#    2.250    0.000    0.000    0.000    0.000    0.000 
#    0.000    0.000    0.000    0.000    0.000    0.000 
#
# Total GULP energy -89167.032959 kJ/mol
# GULP energy per Si atom -5572.939560 kJ/mol
# Density = 2.366176 g / cm^3
# Si number density = 23.715733 Si / 1000 Ang^3
#
#
#
# Elastic Constant Matrix: (Units=GPa)
#
#
# Indices 1 2 3 4 5 6 
#
# 1 196.1843 61.4279 52.2266 -20.2986 13.8462 29.3190
# 2 61.4279 89.2891 45.7405 -26.3877 -6.9855 20.4198
# 3 52.2266 45.7405 98.2153 -33.7089 6.6872 14.4574
# 4 -20.2986 -26.3877 -33.7089 42.8971 12.6188 -6.9892
# 5 13.8462 -6.9855 6.6872 12.6188 32.0075 0.6651
# 6 29.3190 20.4198 14.4574 -6.9892 0.6651 35.8525
#
#
#
# Elastic Compliance Matrix: (Units=1/GPa)
#
#
# Indices 1 2 3 4 5 6 
#
# 1 0.007479 -0.003902 -0.001049 0.001032 -0.004209 -0.003191
# 2 -0.003902 0.019224 -0.005461 0.003130 0.005896 -0.005055
# 3 -0.001049 -0.005461 0.018802 0.013762 -0.010076 -0.000744
# 4 0.001032 0.003130 0.013762 0.042292 -0.019321 0.000427
# 5 -0.004209 0.005896 -0.010076 -0.019321 0.044081 -0.000437
# 6 -0.003191 -0.005055 -0.000744 0.000427 -0.000437 0.033772
#
#
# Mechanical properties :
#
#
# Convention : Reuss Voigt Hill
#
# Bulk Modulus (GPa) = 40.51904 78.05317 59.28611
# Shear Modulus (GPa) = 25.68023 37.10432 31.39227
#
# Velocity S-wave (km/s) = 3.29422 3.95972 3.64220
# Velocity P-wave (km/s) = 5.62063 7.34093 6.53762
#
# Compressibility (1/GPa) = 0.02467975
#
# Stress axis : x y z
#
# Youngs Moduli (GPa) = 133.70455 52.01832 53.18701
#
# Poissons Ratio (x) = 0.20299 0.05580
# Poissons Ratio (y) = 0.52176 0.29046
# Poissons Ratio (z) = 0.14027 0.28407
#
# Static dielectric constant tensor:
#      x y z
#    x 1.878500 -0.036500 0.010400 
#    y -0.036500 1.552400 0.388860 
#    z 0.010400 0.388860 1.799000 
# 
# From -- ./inp_files/485339.got.cif
#   From: 2010.05.17/outbox.cif.g08.bks.cpg/sg2_243_cif.got.tgz:485339.got - 2010.06.03 11:33:40.
