data_PCOD9041308
_publ_section_title
;
Structure prediction by ZEFSAII (Michael W. Deem and Ramdas Pophale) SiO2 
 PCOD9041308
Probable space group: P -1
;
_chemical_formula_sum "Si O2"
_cell_formula_units_Z 16
_cell_length_a 14.939446
_cell_length_b 13.742134
_cell_length_c 14.917348
_cell_angle_alpha 151.216450
_cell_angle_beta 27.958585
_cell_angle_gamma 141.561909
_cell_volume 690.782747
_symmetry_space_group_name_H-M "P -1"
_symmetry_group_IT_number 2
_symmetry_cell_setting 'triclinic'
loop_
_space_group_symop_operation_xyz
x,y,z
-x,-y,-z
loop_
_atom_site_type_symbol
_atom_site_label
_atom_site_fract_x
_atom_site_fract_y
_atom_site_fract_z
Si Si1 0.696490 0.814626 0.482487
Si Si2 0.985596 0.765303 0.650960
Si Si3 0.852847 0.604045 0.448077
Si Si4 0.323705 0.535003 0.248784
Si Si5 0.515161 0.558651 0.286514
Si Si6 0.412545 0.812124 0.870663
Si Si7 0.925296 0.181650 0.953815
Si Si8 0.797436 0.254134 0.823061
O O1 0.569375 0.747573 0.454567
O O2 0.586310 0.713199 0.583418
O O3 0.908917 0.768648 0.225505
O O4 0.714010 0.049904 0.685745
O O5 0.179522 0.695824 0.467561
O O6 0.953440 0.658503 0.496798
O O7 0.806612 0.672079 0.790666
O O8 0.984956 0.001244 0.819734
O O9 0.627120 0.601400 0.663120
O O10 0.972974 0.745979 0.387289
O O11 0.885248 0.379336 0.204744
O O12 0.405831 0.602670 0.327701
O O13 0.500000 0.500000 0.000000
O O14 0.706535 0.440610 0.001985
O O15 0.268250 0.884243 0.979974
O O16 0.273756 0.705746 0.980729
O O17 0.500000 0.000000 0.000000
#
# Coordination Sequence:
#
# PCOD9041308 Si02
#       8
#     2   2   2   2   2   2   2   2
#     4  11  24  43  67 100 136 178 230 270 341 397
#     4  10  24  45  69  99 133 179 215 279 342 394
#     4  11  23  42  70  97 134 180 227 269 338 395
#     4  10  23  43  73 100 132 172 228 272 337 407
#     4  11  24  43  70  97 135 175 224 282 329 404
#     4  10  26  42  65 104 134 179 236 270 332 403
#     4  12  24  44  69  97 140 176 222 283 332 399
#     4  11  24  43  67  96 136 181 224 280 333 389
#
# _framework density 23.162130000000001
#
# number of rings (size 3 to 8) (size 9 to 14) (size 15 to 20)
#    0.000    1.250    3.750    0.750    7.000    4.000 
#    0.000    7.500    0.000    0.000    0.000    0.000 
#    0.000    0.000    0.000    0.000    0.000    0.000 
#
# Total GULP energy -89425.099782 kJ/mol
# GULP energy per Si atom -5589.068736 kJ/mol
# Density = 2.310941 g / cm^3
# Si number density = 23.162130 Si / 1000 Ang^3
#
#
#
# Elastic Constant Matrix: (Units=GPa)
#
#
# Indices 1 2 3 4 5 6 
#
# 1 68.4101 19.3463 10.0781 0.4019 -6.0600 16.9295
# 2 19.3463 105.1757 31.9719 -18.6555 -0.4071 12.2959
# 3 10.0781 31.9719 84.5878 -23.9581 13.7135 8.4820
# 4 0.4019 -18.6555 -23.9581 57.0107 7.0278 4.0121
# 5 -6.0600 -0.4071 13.7135 7.0278 32.5716 -0.5550
# 6 16.9295 12.2959 8.4820 4.0121 -0.5550 33.2313
#
#
#
# Elastic Compliance Matrix: (Units=1/GPa)
#
#
# Indices 1 2 3 4 5 6 
#
# 1 0.017709 -0.002121 -0.001645 -0.001489 0.004153 -0.007568
# 2 -0.002121 0.011660 -0.003226 0.002604 0.000501 -0.002717
# 3 -0.001645 -0.003226 0.017240 0.007589 -0.009301 -0.003441
# 4 -0.001489 0.002604 0.007589 0.022995 -0.008488 -0.005060
# 5 0.004153 0.000501 -0.009301 -0.008488 0.037257 0.001720
# 6 -0.007568 -0.002717 -0.003441 -0.005060 0.001720 0.036471
#
#
# Mechanical properties :
#
#
# Convention : Reuss Voigt Hill
#
# Bulk Modulus (GPa) = 30.64964 42.32957 36.48960
# Shear Modulus (GPa) = 29.72831 37.68120 33.70476
#
# Velocity S-wave (km/s) = 3.58647 4.03779 3.81880
# Velocity P-wave (km/s) = 5.51468 6.32877 5.93570
#
# Compressibility (1/GPa) = 0.03262681
#
# Stress axis : x y z
#
# Youngs Moduli (GPa) = 56.46738 85.76289 58.00573
#
# Poissons Ratio (x) = 0.18189 0.09539
# Poissons Ratio (y) = 0.11976 0.18711
# Poissons Ratio (z) = 0.09286 0.27664
#
# Static dielectric constant tensor:
#      x y z
#    x 1.859520 -0.042910 0.003450 
#    y -0.042910 1.946520 -0.059200 
#    z 0.003450 -0.059200 1.851540 
# 
# From -- ./inp_files/534520.got.cif
#   From: 2010.05.17/outbox.cif.g08.bks.cpg/sg2_268_cif.got.tgz:534520.got - 2010.06.03 11:33:40.
