data_PCOD9041405
_publ_section_title
;
Structure prediction by ZEFSAII (Michael W. Deem and Ramdas Pophale) SiO2 
 PCOD9041405
Probable space group: P -1
;
_chemical_formula_sum "Si O2"
_cell_formula_units_Z 16
_cell_length_a 19.817826
_cell_length_b 5.689436
_cell_length_c 9.379290
_cell_angle_alpha 96.711749
_cell_angle_beta 135.410613
_cell_angle_gamma 69.330863
_cell_volume 679.908633
_symmetry_space_group_name_H-M "P -1"
_symmetry_group_IT_number 2
_symmetry_cell_setting 'triclinic'
loop_
_space_group_symop_operation_xyz
x,y,z
-x,-y,-z
loop_
_atom_site_type_symbol
_atom_site_label
_atom_site_fract_x
_atom_site_fract_y
_atom_site_fract_z
Si Si1 0.539485 0.028312 0.720936
Si Si2 0.242784 0.296213 0.900485
Si Si3 0.236795 0.834652 0.392276
Si Si4 0.936880 0.614707 0.767999
Si Si5 0.103400 0.038012 0.697889
Si Si6 0.212107 0.595928 0.616270
Si Si7 0.536600 0.399498 0.387351
Si Si8 0.126619 0.731488 0.965470
O O1 0.517414 0.797981 0.750866
O O2 0.500000 0.000000 0.500000
O O3 0.488154 0.327037 0.709580
O O4 0.663586 0.945253 0.912265
O O5 0.269670 0.351732 0.785179
O O6 0.130174 0.277780 0.717564
O O7 0.216749 0.515514 0.996267
O O8 0.264679 0.673262 0.568253
O O9 0.341222 0.772877 0.455512
O O10 0.163053 0.737861 0.180055
O O11 0.166678 0.131203 0.338281
O O12 0.892246 0.429658 0.605015
O O13 0.000000 0.500000 0.000000
O O14 0.017531 0.695871 0.802961
O O15 0.185395 0.819379 0.708159
O O16 0.116276 0.986902 0.882486
O O17 0.000000 0.000000 0.500000
O O18 0.500000 0.500000 0.500000
#
# Coordination Sequence:
#
# PCOD9041405 Si02
#       8
#     2   2   2   2   2   2   2   2
#     4  10  23  43  74 107 142 182 249 315 375 431
#     4  11  25  44  75 104 147 194 241 307 368 441
#     4  12  26  43  72 103 147 187 238 311 374 442
#     4  12  26  42  69 105 148 191 244 298 369 447
#     4  11  24  41  68 100 146 189 243 293 360 440
#     4  11  25  45  66 100 150 189 240 290 379 440
#     4  10  24  44  72 106 143 182 244 315 375 435
#     4  11  24  39  68 105 137 189 241 293 362 436
#
# _framework density 23.532574
#
# number of rings (size 3 to 8) (size 9 to 14) (size 15 to 20)
#    0.000    1.000    1.250    4.875   12.250    2.000 
#    0.000    1.250    0.000    0.000    0.000    0.000 
#    0.000    0.000    0.000    0.000    0.000    0.000 
#
# Total GULP energy -89314.294177 kJ/mol
# GULP energy per Si atom -5582.143386 kJ/mol
# Density = 2.347901 g / cm^3
# Si number density = 23.532574 Si / 1000 Ang^3
#
#
#
# Elastic Constant Matrix: (Units=GPa)
#
#
# Indices 1 2 3 4 5 6 
#
# 1 106.5406 24.5691 27.6135 -10.8157 0.6756 -5.2529
# 2 24.5691 105.8163 18.9510 -0.7757 3.8833 -1.4051
# 3 27.6135 18.9510 85.0689 -6.6330 -5.2194 -3.1695
# 4 -10.8157 -0.7757 -6.6330 34.6173 4.1108 6.5909
# 5 0.6756 3.8833 -5.2194 4.1108 43.4762 -5.5790
# 6 -5.2529 -1.4051 -3.1695 6.5909 -5.5790 37.0742
#
#
#
# Elastic Compliance Matrix: (Units=1/GPa)
#
#
# Indices 1 2 3 4 5 6 
#
# 1 0.010904 -0.001965 -0.002895 0.002744 -0.000517 0.000657
# 2 -0.001965 0.010255 -0.001760 -0.000578 -0.001054 -0.000096
# 3 -0.002895 -0.001760 0.013320 0.001264 0.001772 0.000704
# 4 0.002744 -0.000578 0.001264 0.031470 -0.003540 -0.005652
# 5 -0.000517 -0.001054 0.001772 -0.003540 0.024204 0.004310
# 6 0.000657 -0.000096 0.000704 -0.005652 0.004310 0.028776
#
#
# Mechanical properties :
#
#
# Convention : Reuss Voigt Hill
#
# Bulk Modulus (GPa) = 47.08315 48.85478 47.96897
# Shear Modulus (GPa) = 35.90670 38.11969 37.01319
#
# Velocity S-wave (km/s) = 3.91042 4.02913 3.97022
# Velocity P-wave (km/s) = 6.35922 6.51542 6.43779
#
# Compressibility (1/GPa) = 0.02123902
#
# Stress axis : x y z
#
# Youngs Moduli (GPa) = 91.71028 97.51283 75.07284
#
# Poissons Ratio (x) = 0.19166 0.21732
# Poissons Ratio (y) = 0.18026 0.13212
# Poissons Ratio (z) = 0.26548 0.17161
#
# Static dielectric constant tensor:
#      x y z
#    x 1.935220 0.072790 0.009030 
#    y 0.072790 1.970680 -0.056420 
#    z 0.009030 -0.056420 1.880320 
# 
# From -- ./inp_files/323747.got.cif
#   From: 2010.05.17/outbox.cif.g08.bks.cpg/sg2_162_cif.got.tgz:323747.got - 2010.06.03 11:33:40.
