data_PCOD9041032
_publ_section_title
;
Structure prediction by ZEFSAII (Michael W. Deem and Ramdas Pophale) SiO2 
 PCOD9041032
Probable space group: P -1
;
_chemical_formula_sum "Si O2"
_cell_formula_units_Z 12
_cell_length_a 16.703416
_cell_length_b 5.072937
_cell_length_c 11.925991
_cell_angle_alpha 63.004220
_cell_angle_beta 36.039317
_cell_angle_gamma 61.947677
_cell_volume 519.394934
_symmetry_space_group_name_H-M "P -1"
_symmetry_group_IT_number 2
_symmetry_cell_setting 'triclinic'
loop_
_space_group_symop_operation_xyz
x,y,z
-x,-y,-z
loop_
_atom_site_type_symbol
_atom_site_label
_atom_site_fract_x
_atom_site_fract_y
_atom_site_fract_z
Si Si1 0.869947 0.256933 0.137950
Si Si2 0.585160 0.260982 0.364958
Si Si3 0.031876 0.400449 0.609251
Si Si4 0.471698 0.472337 0.861526
Si Si5 0.024031 0.216460 0.187062
Si Si6 0.352218 0.172383 0.257593
O O1 0.733360 0.150286 0.275490
O O2 0.893158 0.304411 0.234052
O O3 0.871271 0.581920 0.017699
O O4 0.000000 0.000000 0.000000
O O5 0.500000 0.500000 0.500000
O O6 0.595134 0.407243 0.203293
O O7 0.500000 0.000000 0.500000
O O8 0.004998 0.671423 0.675517
O O9 0.194441 0.249420 0.460954
O O10 0.000000 0.500000 0.500000
O O11 0.942974 0.143768 0.786729
O O12 0.543322 0.719887 0.793374
O O13 0.592447 0.179009 0.760527
O O14 0.368757 0.358037 0.088621
#
# Coordination Sequence:
#
# PCOD9041032 Si02
#       6
#     2   2   2   2   2   2
#     4  11  27  50  76 105 146 198 238 297 373 421
#     4  12  30  44  74 108 144 184 244 299 349 424
#     4  12  26  43  71 108 138 182 239 299 348 428
#     4  10  23  45  65  99 131 187 225 285 350 423
#     4  11  26  45  73 101 145 188 235 289 367 430
#     4  10  23  43  70  93 138 180 227 285 356 407
#
# _framework density 23.103807
#
# number of rings (size 3 to 8) (size 9 to 14) (size 15 to 20)
#    0.000    1.000    1.667    2.500   14.000    0.000 
#    6.000    0.000    0.000    0.000    0.000    0.000 
#    0.000    0.000    0.000    0.000    0.000    0.000 
#
# Total GULP energy -67208.613881 kJ/mol
# GULP energy per Si atom -5600.717823 kJ/mol
# Density = 2.305122 g / cm^3
# Si number density = 23.103807 Si / 1000 Ang^3
#
#
#
# Elastic Constant Matrix: (Units=GPa)
#
#
# Indices 1 2 3 4 5 6 
#
# 1 158.2031 24.3746 38.1265 -2.4877 18.7572 15.1961
# 2 24.3746 63.0908 16.3944 -5.8558 -7.8363 21.7392
# 3 38.1265 16.3944 45.4501 -5.6510 -11.3461 7.4759
# 4 -2.4877 -5.8558 -5.6510 37.7935 -1.1737 2.8302
# 5 18.7572 -7.8363 -11.3461 -1.1737 49.8143 -1.4159
# 6 15.1961 21.7392 7.4759 2.8302 -1.4159 35.1391
#
#
#
# Elastic Compliance Matrix: (Units=1/GPa)
#
#
# Indices 1 2 3 4 5 6 
#
# 1 0.009508 -0.001788 -0.008721 -0.001041 -0.005909 -0.001304
# 2 -0.001788 0.022506 -0.003249 0.003930 0.003207 -0.012646
# 3 -0.008721 -0.003249 0.033899 0.004421 0.010559 -0.001362
# 4 -0.001041 0.003930 0.004421 0.028121 0.002535 -0.005085
# 5 -0.005909 0.003207 0.010559 0.002535 0.025244 -0.000862
# 6 -0.001304 -0.012646 -0.001362 -0.005085 -0.000862 0.037511
#
#
# Mechanical properties :
#
#
# Convention : Reuss Voigt Hill
#
# Bulk Modulus (GPa) = 26.04331 47.17053 36.60692
# Shear Modulus (GPa) = 25.36748 37.07262 31.22005
#
# Velocity S-wave (km/s) = 3.31717 4.01011 3.67998
# Velocity P-wave (km/s) = 5.09591 6.47320 5.82540
#
# Compressibility (1/GPa) = 0.03839757
#
# Stress axis : x y z
#
# Youngs Moduli (GPa) = 105.17779 44.43277 29.49932
#
# Poissons Ratio (x) = 0.07946 0.25725
# Poissons Ratio (y) = 0.18809 0.09583
# Poissons Ratio (z) = 0.91722 0.14434
#
# Static dielectric constant tensor:
#      x y z
#    x 1.860620 -0.116930 0.013230 
#    y -0.116930 2.108270 0.023160 
#    z 0.013230 0.023160 1.898040 
# 
# From -- ./inp_files/133937.got.cif
#   From: 2010.05.17/outbox.cif.g08.bks.cpg/sg2_67_cif.got.tgz:133937.got - 2010.06.03 11:33:40.
