data_PCOD9041826
_publ_section_title
;
Structure prediction by ZEFSAII (Michael W. Deem and Ramdas Pophale) SiO2 
 PCOD9041826
Probable space group: P -1
;
_chemical_formula_sum "Si O2"
_cell_formula_units_Z 16
_cell_length_a 9.378306
_cell_length_b 23.458181
_cell_length_c 20.807398
_cell_angle_alpha 160.632356
_cell_angle_beta 147.514263
_cell_angle_gamma 41.993385
_cell_volume 779.013970
_symmetry_space_group_name_H-M "P -1"
_symmetry_group_IT_number 2
_symmetry_cell_setting 'triclinic'
loop_
_space_group_symop_operation_xyz
x,y,z
-x,-y,-z
loop_
_atom_site_type_symbol
_atom_site_label
_atom_site_fract_x
_atom_site_fract_y
_atom_site_fract_z
Si Si1 0.190212 0.011135 0.884416
Si Si2 0.322307 0.377451 0.246843
Si Si3 0.078558 0.100973 0.204993
Si Si4 0.439773 0.019000 0.722312
Si Si5 0.138691 0.974127 0.435970
Si Si6 0.783540 0.763226 0.369982
Si Si7 0.780304 0.341790 0.285484
Si Si8 0.146849 0.599644 0.995797
O O1 0.214923 0.180676 0.028371
O O2 0.064307 0.016867 0.913491
O O3 0.988692 0.840986 0.589880
O O4 0.500000 0.000000 0.000000
O O5 0.500000 0.500000 0.500000
O O6 0.532953 0.386849 0.277640
O O7 0.058743 0.428562 0.173410
O O8 0.951388 0.264949 0.322070
O O9 0.406470 0.134175 0.373936
O O10 0.000000 0.000000 0.000000
O O11 0.134925 0.979334 0.594008
O O12 0.391433 0.047605 0.659573
O O13 0.632571 0.190009 0.015580
O O14 0.077511 0.758175 0.178698
O O15 0.205339 0.073075 0.499101
O O16 0.468187 0.684912 0.190019
O O17 0.873416 0.598956 0.196997
O O18 0.000000 0.500000 0.500000
#
# Coordination Sequence:
#
# PCOD9041826 Si02
#       8
#     2   2   2   2   2   2   2   2
#     4  12  23  44  72 101 140 179 233 287 348 410
#     4  12  26  42  69 103 138 182 233 291 348 409
#     4  10  24  41  65  96 132 182 225 271 343 409
#     4  10  23  44  67  96 129 185 228 270 348 412
#     4  11  22  45  71  93 139 178 230 283 338 414
#     4  11  25  42  70 101 136 181 223 293 348 404
#     4  11  24  45  65  99 142 177 227 286 342 415
#     4  11  24  44  66 101 138 169 235 286 343 417
#
# _framework density 20.538784
#
# number of rings (size 3 to 8) (size 9 to 14) (size 15 to 20)
#    0.000    1.000    3.750    1.875    7.000    1.000 
#    4.500    1.250    0.000    0.000    0.000    0.000 
#    0.000    0.000    0.000    0.000    0.000    0.000 
#
# Total GULP energy -89302.584141 kJ/mol
# GULP energy per Si atom -5581.411509 kJ/mol
# Density = 2.049204 g / cm^3
# Si number density = 20.538784 Si / 1000 Ang^3
#
#
#
# Elastic Constant Matrix: (Units=GPa)
#
#
# Indices 1 2 3 4 5 6 
#
# 1 82.0041 15.6995 28.9959 -6.0134 -1.3221 6.2768
# 2 15.6995 109.2566 44.0198 -28.6577 4.7381 -9.7410
# 3 28.9959 44.0198 98.9993 -21.9179 -6.6509 4.0681
# 4 -6.0134 -28.6577 -21.9179 41.8291 5.7190 1.0668
# 5 -1.3221 4.7381 -6.6509 5.7190 29.6486 -2.9491
# 6 6.2768 -9.7410 4.0681 1.0668 -2.9491 31.7481
#
#
#
# Elastic Compliance Matrix: (Units=1/GPa)
#
#
# Indices 1 2 3 4 5 6 
#
# 1 0.013813 -0.000822 -0.003684 -0.000409 -0.000251 -0.002521
# 2 -0.000822 0.013618 -0.004675 0.007231 -0.004228 0.004304
# 3 -0.003684 -0.004675 0.014311 0.003432 0.002894 -0.002386
# 4 -0.000409 0.007231 0.003432 0.031477 -0.006456 0.000202
# 5 -0.000251 -0.004228 0.002894 -0.006456 0.036485 0.001988
# 6 -0.002521 0.004304 -0.002386 0.000202 0.001988 0.033800
#
#
# Mechanical properties :
#
#
# Convention : Reuss Voigt Hill
#
# Bulk Modulus (GPa) = 42.76942 51.96560 47.36751
# Shear Modulus (GPa) = 29.47072 34.08150 31.77611
#
# Velocity S-wave (km/s) = 3.79209 4.07796 3.93762
# Velocity P-wave (km/s) = 6.32789 6.89414 6.61707
#
# Compressibility (1/GPa) = 0.02338119
#
# Stress axis : x y z
#
# Youngs Moduli (GPa) = 72.39329 73.43278 69.87659
#
# Poissons Ratio (x) = 0.06033 0.25745
# Poissons Ratio (y) = 0.05948 0.32665
# Poissons Ratio (z) = 0.26672 0.34327
#
# Static dielectric constant tensor:
#      x y z
#    x 1.746960 -0.029040 -0.040920 
#    y -0.029040 1.765180 0.015700 
#    z -0.040920 0.015700 1.723320 
# 
# From -- ./inp_files/592007.got.cif
#   From: 2010.05.17/outbox.cif.g08.bks.cpg/sg2_297_cif.got.tgz:592007.got - 2010.06.03 11:33:40.
