data_PCOD9041291
_publ_section_title
;
Structure prediction by ZEFSAII (Michael W. Deem and Ramdas Pophale) SiO2 
 PCOD9041291
Probable space group: P -1
;
_chemical_formula_sum "Si O2"
_cell_formula_units_Z 16
_cell_length_a 18.287919
_cell_length_b 8.083133
_cell_length_c 6.682029
_cell_angle_alpha 91.673299
_cell_angle_beta 48.178503
_cell_angle_gamma 101.154107
_cell_volume 715.442549
_symmetry_space_group_name_H-M "P -1"
_symmetry_group_IT_number 2
_symmetry_cell_setting 'triclinic'
loop_
_space_group_symop_operation_xyz
x,y,z
-x,-y,-z
loop_
_atom_site_type_symbol
_atom_site_label
_atom_site_fract_x
_atom_site_fract_y
_atom_site_fract_z
Si Si1 0.365534 0.804800 0.787637
Si Si2 0.944441 0.609232 0.250667
Si Si3 0.995567 0.805485 0.553263
Si Si4 0.696957 0.013066 0.469436
Si Si5 0.814858 0.267009 0.586480
Si Si6 0.503999 0.758030 0.873938
Si Si7 0.177327 0.263902 0.830131
Si Si8 0.384785 0.534218 0.435105
O O1 0.447420 0.845805 0.815482
O O2 0.389861 0.641767 0.629825
O O3 0.352608 0.929960 0.636874
O O4 0.260065 0.766930 0.092755
O O5 0.006450 0.699356 0.329594
O O6 0.850076 0.467452 0.497074
O O7 0.901826 0.744550 0.205884
O O8 0.000000 0.500000 0.000000
O O9 0.085093 0.794963 0.540322
O O10 0.887941 0.727543 0.852168
O O11 0.000000 0.000000 0.500000
O O12 0.604663 0.896173 0.760268
O O13 0.772591 0.896180 0.265306
O O14 0.759773 0.168104 0.490866
O O15 0.547296 0.603901 0.697368
O O16 0.427627 0.668175 0.183511
O O17 0.269302 0.426880 0.629723
#
# Coordination Sequence:
#
# PCOD9041291 Si02
#       8
#     2   2   2   2   2   2   2   2
#     4  12  23  40  68  98 138 177 230 282 347 414
#     4  12  26  43  72  98 137 185 232 284 345 401
#     4  12  27  45  70 104 142 183 232 284 346 418
#     4  11  26  43  68 100 140 183 228 289 351 407
#     4  12  27  43  68 103 138 180 235 282 342 421
#     4  10  23  45  67 101 133 179 230 290 346 415
#     4  11  24  45  69  97 140 184 232 284 346 410
#     4  10  23  43  72  97 135 178 232 284 350 408
#
# _framework density 22.363779000000001
#
# number of rings (size 3 to 8) (size 9 to 14) (size 15 to 20)
#    0.000    0.750    1.250    5.625    5.250    4.000 
#    0.000    6.250    0.000    0.000    0.000    0.000 
#    0.000    0.000    0.000    0.000    0.000    0.000 
#
# Total GULP energy -89499.594357 kJ/mol
# GULP energy per Si atom -5593.724647 kJ/mol
# Density = 2.231288 g / cm^3
# Si number density = 22.363779 Si / 1000 Ang^3
#
#
#
# Elastic Constant Matrix: (Units=GPa)
#
#
# Indices 1 2 3 4 5 6 
#
# 1 123.0680 42.5734 36.5747 -0.5052 -4.4562 -18.8302
# 2 42.5734 75.1025 24.8239 3.6252 4.9922 -4.8555
# 3 36.5747 24.8239 136.0324 -3.8436 -17.1687 4.5587
# 4 -0.5052 3.6252 -3.8436 35.1695 -3.6051 0.0347
# 5 -4.4562 4.9922 -17.1687 -3.6051 28.7691 -5.5107
# 6 -18.8302 -4.8555 4.5587 0.0347 -5.5107 29.8475
#
#
#
# Elastic Compliance Matrix: (Units=1/GPa)
#
#
# Indices 1 2 3 4 5 6 
#
# 1 0.012044 -0.005953 -0.001965 0.000901 0.003282 0.007535
# 2 -0.005953 0.017955 -0.002483 -0.002840 -0.006180 -0.001593
# 3 -0.001965 -0.002483 0.009134 0.001783 0.005410 -0.002042
# 4 0.000901 -0.002840 0.001783 0.029502 0.005551 0.000825
# 5 0.003282 -0.006180 0.005410 0.005551 0.041787 0.007948
# 6 0.007535 -0.001593 -0.002042 0.000825 0.007948 0.039776
#
#
# Mechanical properties :
#
#
# Convention : Reuss Voigt Hill
#
# Bulk Modulus (GPa) = 54.54751 60.23856 57.39303
# Shear Modulus (GPa) = 28.23095 34.10594 31.16844
#
# Velocity S-wave (km/s) = 3.55681 3.90943 3.73728
# Velocity P-wave (km/s) = 6.42743 6.88276 6.65899
#
# Compressibility (1/GPa) = 0.01833264
#
# Stress axis : x y z
#
# Youngs Moduli (GPa) = 83.02766 55.69458 109.47934
#
# Poissons Ratio (x) = 0.33152 0.21511
# Poissons Ratio (y) = 0.49423 0.27183
# Poissons Ratio (z) = 0.16314 0.13829
#
# Static dielectric constant tensor:
#      x y z
#    x 1.814950 -0.014920 0.002540 
#    y -0.014920 1.807480 -0.021600 
#    z 0.002540 -0.021600 1.839500 
# 
# From -- ./inp_files/106852.got.cif
#   From: 2010.05.17/outbox.cif.g08.bks.cpg/sg2_54_cif.got.tgz:106852.got - 2010.06.03 11:33:40.
