data_PCOD9041154
_publ_section_title
;
Structure prediction by ZEFSAII (Michael W. Deem and Ramdas Pophale) SiO2 
 PCOD9041154
Probable space group: P -1
;
_chemical_formula_sum "Si O2"
_cell_formula_units_Z 16
_cell_length_a 12.900390
_cell_length_b 8.116435
_cell_length_c 8.721055
_cell_angle_alpha 112.451463
_cell_angle_beta 46.919985
_cell_angle_gamma 97.456440
_cell_volume 604.672931
_symmetry_space_group_name_H-M "P -1"
_symmetry_group_IT_number 2
_symmetry_cell_setting 'triclinic'
loop_
_space_group_symop_operation_xyz
x,y,z
-x,-y,-z
loop_
_atom_site_type_symbol
_atom_site_label
_atom_site_fract_x
_atom_site_fract_y
_atom_site_fract_z
Si Si1 0.449959 0.001205 0.221842
Si Si2 0.861449 0.144108 0.900100
Si Si3 0.128997 0.567244 0.594657
Si Si4 0.833287 0.021522 0.331545
Si Si5 0.461983 0.374120 0.855638
Si Si6 0.646926 0.437453 0.420168
Si Si7 0.845369 0.436934 0.796104
Si Si8 0.361978 0.012939 0.772216
O O1 0.557710 0.825610 0.139446
O O2 0.522611 0.141553 0.290235
O O3 0.292732 0.972302 0.409843
O O4 0.500000 0.000000 0.000000
O O5 0.765908 0.307295 0.153514
O O6 0.773286 0.984458 0.956551
O O7 0.866189 0.228533 0.755292
O O8 0.020593 0.097431 0.793483
O O9 0.250558 0.452152 0.544459
O O10 0.159282 0.527668 0.369284
O O11 0.974396 0.518640 0.766143
O O12 0.127200 0.782705 0.677453
O O13 0.760524 0.955594 0.230468
O O14 0.588728 0.344613 0.595874
O O15 0.500000 0.500000 0.000000
O O16 0.313513 0.462372 0.958920
O O17 0.500000 0.500000 0.500000
O O18 0.500000 0.000000 0.500000
#
# Coordination Sequence:
#
# PCOD9041154 Si02
#       8
#     2   2   2   2   2   2   2   2
#     4  10  24  43  73 106 139 183 232 288 349 416
#     4  12  26  42  73 105 133 184 238 291 347 417
#     4  11  26  48  71  97 148 188 233 288 357 415
#     4  12  24  46  69 107 139 184 230 295 352 411
#     4  10  23  45  71  99 147 179 232 293 350 419
#     4  12  25  47  71 108 139 186 237 289 355 425
#     4  11  27  48  67 102 143 195 230 288 355 421
#     4  10  23  43  71 103 142 179 231 293 354 406
#
# _framework density 26.460587
#
# number of rings (size 3 to 8) (size 9 to 14) (size 15 to 20)
#    0.750    0.250    3.750    1.500    5.250    4.500 
#    2.250    0.000    0.000    0.000    0.000    0.000 
#    0.000    0.000    0.000    0.000    0.000    0.000 
#
# Total GULP energy -89091.727066 kJ/mol
# GULP energy per Si atom -5568.232942 kJ/mol
# Density = 2.640036 g / cm^3
# Si number density = 26.460587 Si / 1000 Ang^3
#
#
#
# Elastic Constant Matrix: (Units=GPa)
#
#
# Indices 1 2 3 4 5 6 
#
# 1 239.4229 63.4479 85.2955 -2.6502 -47.3936 -12.9680
# 2 63.4479 100.0269 39.9972 -6.5144 -10.9821 8.2697
# 3 85.2955 39.9972 108.7336 -25.3970 -26.4130 -8.0992
# 4 -2.6502 -6.5144 -25.3970 35.8718 -0.7676 -7.0632
# 5 -47.3936 -10.9821 -26.4130 -0.7676 67.6507 0.6378
# 6 -12.9680 8.2697 -8.0992 -7.0632 0.6378 45.9445
#
#
#
# Elastic Compliance Matrix: (Units=1/GPa)
#
#
# Indices 1 2 3 4 5 6 
#
# 1 0.007043 -0.002674 -0.004448 -0.002817 0.002720 0.001214
# 2 -0.002674 0.013268 -0.003612 -0.001145 -0.001106 -0.003940
# 3 -0.004448 -0.003612 0.018214 0.012879 0.003512 0.004537
# 4 -0.002817 -0.001145 0.012879 0.038125 0.003231 0.007498
# 5 0.002720 -0.001106 0.003512 0.003231 0.017898 0.001834
# 6 0.001214 -0.003940 0.004537 0.007498 0.001834 0.024744
#
#
# Mechanical properties :
#
#
# Convention : Reuss Voigt Hill
#
# Bulk Modulus (GPa) = 58.63106 91.74051 75.18579
# Shear Modulus (GPa) = 34.14210 47.18958 40.66584
#
# Velocity S-wave (km/s) = 3.59597 4.22760 3.92452
# Velocity P-wave (km/s) = 6.28071 7.65350 7.00084
#
# Compressibility (1/GPa) = 0.01705581
#
# Stress axis : x y z
#
# Youngs Moduli (GPa) = 141.98576 75.37076 54.90223
#
# Poissons Ratio (x) = 0.20154 0.24421
# Poissons Ratio (y) = 0.37967 0.19833
# Poissons Ratio (z) = 0.63156 0.27227
#
# Static dielectric constant tensor:
#      x y z
#    x 2.151450 0.011570 0.053650 
#    y 0.011570 2.191840 0.021250 
#    z 0.053650 0.021250 2.110320 
# 
# From -- ./inp_files/244369.got.cif
#   From: 2010.05.17/outbox.cif.g08.bks.cpg/sg2_123_cif.got.tgz:244369.got - 2010.06.03 11:33:40.
