data_PCOD9041879
_publ_section_title
;
Structure prediction by ZEFSAII (Michael W. Deem and Ramdas Pophale) SiO2 
 PCOD9041879
Probable space group: P -1
;
_chemical_formula_sum "Si O2"
_cell_formula_units_Z 15
_cell_length_a 5.235937
_cell_length_b 8.100266
_cell_length_c 22.414217
_cell_angle_alpha 140.404584
_cell_angle_beta 60.058470
_cell_angle_gamma 119.814366
_cell_volume 514.011334
_symmetry_space_group_name_H-M "P -1"
_symmetry_group_IT_number 2
_symmetry_cell_setting 'triclinic'
loop_
_space_group_symop_operation_xyz
x,y,z
-x,-y,-z
loop_
_atom_site_type_symbol
_atom_site_label
_atom_site_fract_x
_atom_site_fract_y
_atom_site_fract_z
Si Si1 0.891662 0.041761 0.238291
Si Si2 0.835100 0.189561 0.506218
Si Si3 0.885459 0.894231 0.066564
Si Si4 0.477134 0.685805 0.788434
Si Si5 0.404657 0.378958 0.108621
Si Si6 0.416682 0.500164 0.578984
Si Si7 0.994354 0.196830 0.714548
Si Si8 0.000000 0.500000 0.000000
O O1 0.928194 0.848575 0.123158
O O2 0.182101 0.271963 0.257618
O O3 0.632111 0.211191 0.314694
O O4 0.909557 0.903185 0.260574
O O5 0.703166 0.429282 0.559308
O O6 0.085738 0.292844 0.557495
O O7 0.500000 0.000000 0.500000
O O8 0.011163 0.039997 0.396813
O O9 0.140203 0.114835 0.067365
O O10 0.618290 0.044633 0.142316
O O11 0.874235 0.593556 0.972004
O O12 0.454865 0.648627 0.850924
O O13 0.250090 0.430952 0.720699
O O14 0.279744 0.650271 0.202492
O O15 0.648449 0.367783 0.027721
O O16 0.500000 0.500000 0.500000
#
# Coordination Sequence:
#
# PCOD9041879 Si02
#       8
#     2   2   2   2   2   2   2   1
#     4  11  24  43  70  96 142 189 237 293 368 433
#     4  12  28  46  73 111 149 200 254 316 366 441
#     4  10  24  43  68  99 134 179 230 293 357 439
#     4  10  23  44  68 100 136 190 228 295 359 437
#     4  10  24  42  67 100 138 181 228 293 353 444
#     4  12  27  46  69 109 151 197 253 313 370 437
#     4  11  24  43  69 101 141 186 243 288 368 432
#     4  12  22  44  72 100 136 176 230 288 368 434
#
# _framework density 29.182236
#
# number of rings (size 3 to 8) (size 9 to 14) (size 15 to 20)
#    0.000    1.067    1.333    3.600    9.333    1.600 
#    0.000   12.667    0.000    0.000    0.000    0.000 
#    0.000    0.000    0.000    0.000    0.000    0.000 
#
# Total GULP energy -83903.433467 kJ/mol
# GULP energy per Si atom -5593.562231 kJ/mol
# Density = 2.911582 g / cm^3
# Si number density = 29.182236 Si / 1000 Ang^3
#
#
#
# Elastic Constant Matrix: (Units=GPa)
#
#
# Indices 1 2 3 4 5 6 
#
# 1 109.0458 12.0774 70.4906 5.7070 1.2771 -19.1228
# 2 12.0774 152.6263 63.2687 6.3674 -11.1089 -6.2109
# 3 70.4906 63.2687 232.8218 13.7566 -19.5111 -13.2442
# 4 5.7070 6.3674 13.7566 50.2011 4.4004 -17.0327
# 5 1.2771 -11.1089 -19.5111 4.4004 66.8464 11.7677
# 6 -19.1228 -6.2109 -13.2442 -17.0327 11.7677 45.8641
#
#
#
# Elastic Compliance Matrix: (Units=1/GPa)
#
#
# Indices 1 2 3 4 5 6 
#
# 1 0.012541 0.000628 -0.003953 0.001605 -0.002340 0.005369
# 2 0.000628 0.007455 -0.002126 -0.000354 0.000563 0.000381
# 3 -0.003953 -0.002126 0.006250 -0.001559 0.001858 -0.001187
# 4 0.001605 -0.000354 -0.001559 0.023968 -0.003895 0.010071
# 5 -0.002340 0.000563 0.001858 -0.003895 0.016982 -0.006167
# 6 0.005369 0.000381 -0.001187 0.010071 -0.006167 0.029073
#
#
# Mechanical properties :
#
#
# Convention : Reuss Voigt Hill
#
# Bulk Modulus (GPa) = 65.17672 87.35191 76.26432
# Shear Modulus (GPa) = 44.52851 55.82614 50.17732
#
# Velocity S-wave (km/s) = 3.91049 4.37855 4.15112
# Velocity P-wave (km/s) = 6.54004 7.45389 7.01187
#
# Compressibility (1/GPa) = 0.01534290
#
# Stress axis : x y z
#
# Youngs Moduli (GPa) = 79.73675 134.14070 159.99836
#
# Poissons Ratio (x) = -0.08418 0.63249
# Poissons Ratio (y) = -0.05004 0.34017
# Poissons Ratio (z) = 0.31521 0.28519
#
# Static dielectric constant tensor:
#      x y z
#    x 2.640590 -0.036400 0.014210 
#    y -0.036400 2.316120 0.106860 
#    z 0.014210 0.106860 2.361770 
# 
# From -- ./inp_files/41901.got.cif
#   From: 2010.05.17/outbox.cif.g08.bks.cpg/sg2_21_cif.got.tgz:41901.got - 2010.06.03 11:33:40.
