data_PCOD9041430
_publ_section_title
;
Structure prediction by ZEFSAII (Michael W. Deem and Ramdas Pophale) SiO2 
 PCOD9041430
Probable space group: P -1
;
_chemical_formula_sum "Si O2"
_cell_formula_units_Z 12
_cell_length_a 10.569241
_cell_length_b 12.370673
_cell_length_c 5.170537
_cell_angle_alpha 104.170221
_cell_angle_beta 121.821626
_cell_angle_gamma 59.267258
_cell_volume 493.473727
_symmetry_space_group_name_H-M "P -1"
_symmetry_group_IT_number 2
_symmetry_cell_setting 'triclinic'
loop_
_space_group_symop_operation_xyz
x,y,z
-x,-y,-z
loop_
_atom_site_type_symbol
_atom_site_label
_atom_site_fract_x
_atom_site_fract_y
_atom_site_fract_z
Si Si1 0.365043 0.837534 0.902533
Si Si2 0.602922 0.431543 0.319046
Si Si3 0.179830 0.974391 0.283734
Si Si4 0.949247 0.390139 0.452767
Si Si5 0.919816 0.650857 0.934536
Si Si6 0.357222 0.135443 0.535259
O O1 0.380133 0.706407 0.754125
O O2 0.231707 0.932015 0.610000
O O3 0.303400 0.869428 0.151248
O O4 0.542906 0.841428 0.106898
O O5 0.500000 0.500000 0.500000
O O6 0.779207 0.430457 0.449251
O O7 0.500000 0.500000 0.000000
O O8 0.209816 0.095744 0.370339
O O9 0.000000 0.000000 0.000000
O O10 0.735849 0.733948 0.655400
O O11 0.081846 0.297167 0.749832
O O12 0.952526 0.341469 0.137059
O O13 0.000000 0.500000 0.500000
O O14 0.000000 0.500000 0.000000
O O15 0.500000 0.000000 0.500000
#
# Coordination Sequence:
#
# PCOD9041430 Si02
#       6
#     2   2   2   2   2   2
#     4  11  26  47  72 108 151 201 259 318 400 467
#     4  12  27  47  75 109 158 205 260 324 398 472
#     4  11  25  46  75 109 145 198 260 327 388 464
#     4  10  24  45  69 106 145 199 258 315 389 461
#     4  10  23  43  75 105 148 196 260 315 387 457
#     4  10  25  48  75 109 156 204 259 319 393 473
#
# _framework density 24.317401
#
# number of rings (size 3 to 8) (size 9 to 14) (size 15 to 20)
#    0.000    1.333    0.000    3.000    9.333    5.333 
#    6.000    0.000    0.000    0.000    0.000    0.000 
#    0.000    0.000    0.000    0.000    0.000    0.000 
#
# Total GULP energy -66856.123634 kJ/mol
# GULP energy per Si atom -5571.343636 kJ/mol
# Density = 2.426205 g / cm^3
# Si number density = 24.317401 Si / 1000 Ang^3
#
#
#
# Elastic Constant Matrix: (Units=GPa)
#
#
# Indices 1 2 3 4 5 6 
#
# 1 136.7464 41.4138 72.1227 14.1947 4.9244 -5.6236
# 2 41.4138 137.6845 30.4571 0.5284 13.7778 1.9033
# 3 72.1227 30.4571 171.3190 -21.3446 8.3698 12.9527
# 4 14.1947 0.5284 -21.3446 56.4204 1.3350 1.7807
# 5 4.9244 13.7778 8.3698 1.3350 72.0112 7.4494
# 6 -5.6236 1.9033 12.9527 1.7807 7.4494 29.0620
#
#
#
# Elastic Compliance Matrix: (Units=1/GPa)
#
#
# Indices 1 2 3 4 5 6 
#
# 1 0.011704 -0.002330 -0.005548 -0.005184 -0.000156 0.005248
# 2 -0.002330 0.008171 -0.000312 0.000440 -0.001320 -0.000536
# 3 -0.005548 -0.000312 0.009283 0.005087 -0.000170 -0.005459
# 4 -0.005184 0.000440 0.005087 0.021097 -0.000244 -0.004529
# 5 -0.000156 -0.001320 -0.000170 -0.000244 0.014545 -0.003582
# 6 0.005248 -0.000536 -0.005459 -0.004529 -0.003582 0.039088
#
#
# Mechanical properties :
#
#
# Convention : Reuss Voigt Hill
#
# Bulk Modulus (GPa) = 78.26073 81.52637 79.89355
# Shear Modulus (GPa) = 40.15190 51.61580 45.88385
#
# Velocity S-wave (km/s) = 4.06785 4.61215 4.34853
# Velocity P-wave (km/s) = 7.36995 7.87155 7.62488
#
# Compressibility (1/GPa) = 0.01277780
#
# Stress axis : x y z
#
# Youngs Moduli (GPa) = 85.43992 122.38858 107.72544
#
# Poissons Ratio (x) = 0.28519 0.59765
# Poissons Ratio (y) = 0.19909 0.03359
# Poissons Ratio (z) = 0.47402 0.03816
#
# Static dielectric constant tensor:
#      x y z
#    x 2.045200 -0.121190 -0.000160 
#    y -0.121190 1.920810 -0.004100 
#    z -0.000160 -0.004100 2.159340 
# 
# From -- ./inp_files/67734.got.cif
#   From: 2010.05.17/outbox.cif.g08.bks.cpg/sg2_34_cif.got.tgz:67734.got - 2010.06.03 11:33:40.
