data_PCOD9041645
_publ_section_title
;
Structure prediction by ZEFSAII (Michael W. Deem and Ramdas Pophale) SiO2 
 PCOD9041645
Probable space group: P -1
;
_chemical_formula_sum "Si O2"
_cell_formula_units_Z 16
_cell_length_a 10.757062
_cell_length_b 8.840478
_cell_length_c 11.447509
_cell_angle_alpha 67.243215
_cell_angle_beta 67.278966
_cell_angle_gamma 114.494718
_cell_volume 693.136133
_symmetry_space_group_name_H-M "P -1"
_symmetry_group_IT_number 2
_symmetry_cell_setting 'triclinic'
loop_
_space_group_symop_operation_xyz
x,y,z
-x,-y,-z
loop_
_atom_site_type_symbol
_atom_site_label
_atom_site_fract_x
_atom_site_fract_y
_atom_site_fract_z
Si Si1 0.034388 0.105659 0.782211
Si Si2 0.545060 0.149125 0.761038
Si Si3 0.489264 0.590783 0.857398
Si Si4 0.700372 0.774052 0.155915
Si Si5 0.894939 0.209375 0.224544
Si Si6 0.900881 0.588758 0.542807
Si Si7 0.761938 0.064522 0.551352
Si Si8 0.235644 0.687237 0.979306
O O1 0.182320 0.232177 0.793205
O O2 0.084177 0.274356 0.612990
O O3 0.033377 0.915657 0.793798
O O4 0.843579 0.978395 0.955104
O O5 0.428841 0.205129 0.735853
O O6 0.699637 0.367465 0.713408
O O7 0.654913 0.123432 0.639101
O O8 0.383789 0.901554 0.941456
O O9 0.424253 0.432120 0.820560
O O10 0.346878 0.622968 0.910272
O O11 0.679149 0.827938 0.694033
O O12 0.500000 0.500000 0.000000
O O13 0.743245 0.068938 0.419195
O O14 0.821825 0.236347 0.126645
O O15 0.045985 0.453412 0.152076
O O16 0.000000 0.500000 0.500000
O O17 0.028340 0.767534 0.541201
#
# Coordination Sequence:
#
# PCOD9041645 Si02
#       8
#     2   2   2   2   2   2   2   2
#     4  11  24  44  72  99 142 180 231 287 345 418
#     4  10  23  44  66 102 132 177 230 286 342 414
#     4  11  24  44  69 103 143 182 228 287 345 423
#     4  11  24  44  71 103 134 180 232 285 351 400
#     4  11  23  44  73 101 136 186 233 294 338 412
#     4  10  24  46  65 100 143 180 228 282 355 416
#     4  10  25  44  71  98 143 184 231 284 353 412
#     4  10  23  45  70  99 138 180 248 274 349 411
#
# _framework density 23.083489
#
# number of rings (size 3 to 8) (size 9 to 14) (size 15 to 20)
#    0.000    1.500    2.500    0.750    1.750    9.000 
#    0.000    9.375    0.000    0.000    0.000    0.000 
#    0.000    0.000    0.000    0.000    0.000    0.000 
#
# Total GULP energy -89319.478316 kJ/mol
# GULP energy per Si atom -5582.467395 kJ/mol
# Density = 2.303095 g / cm^3
# Si number density = 23.083489 Si / 1000 Ang^3
#
#
#
# Elastic Constant Matrix: (Units=GPa)
#
#
# Indices 1 2 3 4 5 6 
#
# 1 88.0670 52.9634 55.3233 -18.4356 -1.0151 -6.4265
# 2 52.9634 106.6312 51.0890 -31.3265 7.4726 16.5938
# 3 55.3233 51.0890 120.9059 -23.1317 33.7147 7.1723
# 4 -18.4356 -31.3265 -23.1317 30.2159 0.4922 -9.1075
# 5 -1.0151 7.4726 33.7147 0.4922 37.2861 -3.7747
# 6 -6.4265 16.5938 7.1723 -9.1075 -3.7747 26.8918
#
#
#
# Elastic Compliance Matrix: (Units=1/GPa)
#
#
# Indices 1 2 3 4 5 6 
#
# 1 0.030186 -0.012384 -0.015199 0.000159 0.019238 0.021663
# 2 -0.012384 0.020478 0.002222 0.011459 -0.007961 -0.013425
# 3 -0.015199 0.002222 0.022684 0.007212 -0.022660 -0.011792
# 4 0.000159 0.011459 0.007212 0.053086 -0.008724 0.007798
# 5 0.019238 -0.007961 -0.022660 -0.008724 0.051551 0.019835
# 6 0.021663 -0.013425 -0.011792 0.007798 0.019835 0.059217
#
#
# Mechanical properties :
#
#
# Convention : Reuss Voigt Hill
#
# Bulk Modulus (GPa) = 44.19320 70.48396 57.33858
# Shear Modulus (GPa) = 16.92236 29.29399 23.10817
#
# Velocity S-wave (km/s) = 2.71051 3.56623 3.16740
# Velocity P-wave (km/s) = 5.38352 6.89623 6.18629
#
# Compressibility (1/GPa) = 0.02262791
#
# Stress axis : x y z
#
# Youngs Moduli (GPa) = 33.12740 48.83228 44.08356
#
# Poissons Ratio (x) = 0.60475 0.67001
# Poissons Ratio (y) = 0.41026 -0.09797
# Poissons Ratio (z) = 0.50349 -0.10852
#
# Static dielectric constant tensor:
#      x y z
#    x 1.801540 0.007070 -0.020200 
#    y 0.007070 1.893120 -0.062400 
#    z -0.020200 -0.062400 1.855580 
# 
# From -- ./inp_files/416857.got.cif
#   From: 2010.05.17/outbox.cif.g08.bks.cpg/sg2_209_cif.got.tgz:416857.got - 2010.06.03 11:33:40.
