data_PCOD9041934
_publ_section_title
;
Structure prediction by ZEFSAII (Michael W. Deem and Ramdas Pophale) SiO2 
 PCOD9041934
Probable space group: P -1
;
_chemical_formula_sum "Si O2"
_cell_formula_units_Z 12
_cell_length_a 21.734215
_cell_length_b 18.855731
_cell_length_c 5.171106
_cell_angle_alpha 83.711779
_cell_angle_beta 94.859349
_cell_angle_gamma 168.111055
_cell_volume 431.339314
_symmetry_space_group_name_H-M "P -1"
_symmetry_group_IT_number 2
_symmetry_cell_setting 'triclinic'
loop_
_space_group_symop_operation_xyz
x,y,z
-x,-y,-z
loop_
_atom_site_type_symbol
_atom_site_label
_atom_site_fract_x
_atom_site_fract_y
_atom_site_fract_z
Si Si1 0.260682 0.589574 0.703856
Si Si2 0.421180 0.601208 0.330585
Si Si3 0.680952 0.231535 0.723685
Si Si4 0.853010 0.006694 0.645374
Si Si5 0.203444 0.216902 0.229685
Si Si6 0.210367 0.850987 0.975179
O O1 0.295870 0.657684 0.393228
O O2 0.096234 0.326795 0.769024
O O3 0.040060 0.395845 0.836103
O O4 0.569250 0.938429 0.831633
O O5 0.080608 0.241176 0.399233
O O6 0.436307 0.545434 0.192595
O O7 0.591102 0.765960 0.582327
O O8 0.607548 0.877717 0.187136
O O9 0.500000 0.000000 0.500000
O O10 0.024386 0.600505 0.781811
O O11 0.500000 0.000000 0.000000
O O12 0.707663 0.765652 0.755253
O O13 0.000000 0.000000 0.500000
O O14 0.000000 0.000000 0.000000
#
# Coordination Sequence:
#
# PCOD9041934 Si02
#       6
#     2   2   2   2   2   2
#     4  12  27  49  79 114 153 200 253 311 379 454
#     4  11  23  44  74 109 151 200 250 308 369 441
#     4  12  28  54  80 115 152 197 250 318 384 460
#     4  11  23  44  74 109 151 200 250 308 369 441
#     4  10  23  44  68 108 148 198 250 305 365 435
#     4  12  27  49  79 114 153 200 253 311 379 454
#
# _framework density 27.820326999999999
#
# number of rings (size 3 to 8) (size 9 to 14) (size 15 to 20)
#    0.000    0.667    3.333    3.500    0.000    4.000 
#    0.000    7.500    0.000    0.000    0.000    0.000 
#    0.000    0.000    0.000    0.000    0.000    0.000 
#
# Total GULP energy -67205.216476 kJ/mol
# GULP energy per Si atom -5600.434706 kJ/mol
# Density = 2.775701 g / cm^3
# Si number density = 27.820327 Si / 1000 Ang^3
#
#
#
# Elastic Constant Matrix: (Units=GPa)
#
#
# Indices 1 2 3 4 5 6 
#
# 1 121.9512 38.9046 30.8709 3.0567 2.6370 -2.0286
# 2 38.9046 154.2568 47.3175 27.1008 10.8032 -8.4363
# 3 30.8709 47.3175 156.6316 18.8758 25.4509 1.7291
# 4 3.0567 27.1008 18.8758 60.1378 -8.7979 5.3066
# 5 2.6370 10.8032 25.4509 -8.7979 53.0529 9.6565
# 6 -2.0286 -8.4363 1.7291 5.3066 9.6565 67.1898
#
#
#
# Elastic Compliance Matrix: (Units=1/GPa)
#
#
# Indices 1 2 3 4 5 6 
#
# 1 0.009198 -0.002141 -0.001439 0.001093 0.000881 -0.000167
# 2 -0.002141 0.008287 -0.001372 -0.003595 -0.001802 0.001554
# 3 -0.001439 -0.001372 0.008016 -0.002433 -0.003960 0.000339
# 4 0.001093 -0.003595 -0.002433 0.020029 0.005668 -0.002752
# 5 0.000881 -0.001802 -0.003960 0.005668 0.022705 -0.003808
# 6 -0.000167 0.001554 0.000339 -0.002752 -0.003808 0.015829
#
#
# Mechanical properties :
#
#
# Convention : Reuss Voigt Hill
#
# Bulk Modulus (GPa) = 64.12317 74.11394 69.11856
# Shear Modulus (GPa) = 50.42008 57.12586 53.77297
#
# Velocity S-wave (km/s) = 4.26179 4.53635 4.40121
# Velocity P-wave (km/s) = 6.87867 7.35771 7.12222
#
# Compressibility (1/GPa) = 0.01559499
#
# Stress axis : x y z
#
# Youngs Moduli (GPa) = 108.71757 120.67776 124.75789
#
# Poissons Ratio (x) = 0.25840 0.17952
# Poissons Ratio (y) = 0.23279 0.17122
# Poissons Ratio (z) = 0.15644 0.16562
#
# Static dielectric constant tensor:
#      x y z
#    x 2.281570 -0.093630 -0.072710 
#    y -0.093630 2.199330 -0.016360 
#    z -0.072710 -0.016360 2.181170 
# 
# From -- ./inp_files/7038.got.cif
#   From: 2010.05.17/outbox.cif.g08.bks.cpg/sg2_4_cif.got.tgz:7038.got - 2010.06.03 11:33:40.
