data_PCOD9041160
_publ_section_title
;
Structure prediction by ZEFSAII (Michael W. Deem and Ramdas Pophale) SiO2 
 PCOD9041160
Probable space group: P -1
;
_chemical_formula_sum "Si O2"
_cell_formula_units_Z 15
_cell_length_a 11.674130
_cell_length_b 5.153440
_cell_length_c 11.462314
_cell_angle_alpha 100.621924
_cell_angle_beta 118.768357
_cell_angle_gamma 79.684388
_cell_volume 590.845566
_symmetry_space_group_name_H-M "P -1"
_symmetry_group_IT_number 2
_symmetry_cell_setting 'triclinic'
loop_
_space_group_symop_operation_xyz
x,y,z
-x,-y,-z
loop_
_atom_site_type_symbol
_atom_site_label
_atom_site_fract_x
_atom_site_fract_y
_atom_site_fract_z
Si Si1 0.000000 0.500000 0.500000
Si Si2 0.365191 0.969913 0.867435
Si Si3 0.241693 0.207556 0.212714
Si Si4 0.355654 0.918314 0.459464
Si Si5 0.478984 0.600296 0.685288
Si Si6 0.012307 0.586175 0.234064
Si Si7 0.713073 0.700806 0.345752
Si Si8 0.867357 0.086159 0.084057
O O1 0.994396 0.417288 0.629562
O O2 0.161800 0.511100 0.592272
O O3 0.295116 0.225075 0.787634
O O4 0.264289 0.872356 0.900492
O O5 0.404268 0.784883 0.761711
O O6 0.500000 0.000000 0.000000
O O7 0.279290 0.979206 0.307855
O O8 0.374509 0.326665 0.245094
O O9 0.152935 0.450904 0.248551
O O10 0.167903 0.068743 0.062128
O O11 0.264511 0.080505 0.526118
O O12 0.500000 0.000000 0.500000
O O13 0.399348 0.648364 0.529102
O O14 0.439285 0.328113 0.695332
O O15 0.970052 0.879871 0.188416
O O16 0.919584 0.371164 0.119071
#
# Coordination Sequence:
#
# PCOD9041160 Si02
#       8
#     1   2   2   2   2   2   2   2
#     4  12  24  48  72 106 148 200 250 312 370 440
#     4  11  23  44  69 104 145 190 245 307 371 442
#     4  11  23  47  70 106 146 200 242 308 380 448
#     4   9  21  42  62 100 140 173 242 296 369 436
#     4  10  23  43  71 104 143 186 249 314 369 443
#     4  12  28  50  74 109 150 198 254 307 374 452
#     4  11  23  44  69 102 143 188 251 308 373 442
#     4  12  27  50  74 109 155 195 253 307 375 457
#
# _framework density 25.387346999999998
#
# number of rings (size 3 to 8) (size 9 to 14) (size 15 to 20)
#    0.000    1.067    4.000    1.600    0.000    5.333 
#    9.600    0.000    0.000    0.000    0.000    0.000 
#    0.000    0.000    0.000    0.000    0.000    0.000 
#
# Total GULP energy -83581.961065 kJ/mol
# GULP energy per Si atom -5572.130738 kJ/mol
# Density = 2.532956 g / cm^3
# Si number density = 25.387347 Si / 1000 Ang^3
#
#
#
# Elastic Constant Matrix: (Units=GPa)
#
#
# Indices 1 2 3 4 5 6 
#
# 1 127.8591 -0.2680 15.5798 5.2550 10.8603 -2.0925
# 2 -0.2680 33.6005 -5.8983 5.2402 0.5337 -7.4560
# 3 15.5798 -5.8983 137.3299 -4.7567 0.5010 -12.0607
# 4 5.2550 5.2402 -4.7567 9.2280 0.2844 0.8484
# 5 10.8603 0.5337 0.5010 0.2844 45.3710 4.0828
# 6 -2.0925 -7.4560 -12.0607 0.8484 4.0828 32.3813
#
#
#
# Elastic Compliance Matrix: (Units=1/GPa)
#
#
# Indices 1 2 3 4 5 6 
#
# 1 0.008378 0.001014 -0.001033 -0.005890 -0.002041 0.000802
# 2 0.001014 0.035401 0.001527 -0.020724 -0.001402 0.009506
# 3 -0.001033 0.001527 0.007862 0.003490 -0.000162 0.003142
# 4 -0.005890 -0.020724 0.003490 0.125916 0.001486 -0.007339
# 5 -0.002041 -0.001402 -0.000162 0.001486 0.022847 -0.003435
# 6 0.000802 0.009506 0.003142 -0.007339 -0.003435 0.034918
#
#
# Mechanical properties :
#
#
# Convention : Reuss Voigt Hill
#
# Bulk Modulus (GPa) = 18.29531 35.29074 26.79302
# Shear Modulus (GPa) = 19.95816 36.68779 28.32297
#
# Velocity S-wave (km/s) = 2.80687 3.80560 3.34373
# Velocity P-wave (km/s) = 4.21032 5.76552 5.04817
#
# Compressibility (1/GPa) = 0.05465883
#
# Stress axis : x y z
#
# Youngs Moduli (GPa) = 119.36477 28.24750 127.19489
#
# Poissons Ratio (x) = -0.02866 0.13139
# Poissons Ratio (y) = -0.12109 -0.19429
# Poissons Ratio (z) = 0.12330 -0.04315
#
# Static dielectric constant tensor:
#      x y z
#    x 2.025670 0.039550 -0.019380 
#    y 0.039550 2.476750 0.120550 
#    z -0.019380 0.120550 2.012890 
# 
# From -- ./inp_files/82724.got.cif
#   From: 2010.05.17/outbox.cif.g08.bks.cpg/sg2_42_cif.got.tgz:82724.got - 2010.06.03 11:33:40.
