data_PCOD9041449
_publ_section_title
;
Structure prediction by ZEFSAII (Michael W. Deem and Ramdas Pophale) SiO2 
 PCOD9041449
Probable space group: P -1
;
_chemical_formula_sum "Si O2"
_cell_formula_units_Z 14
_cell_length_a 15.165507
_cell_length_b 8.440861
_cell_length_c 15.787541
_cell_angle_alpha 40.197396
_cell_angle_beta 152.651365
_cell_angle_gamma 145.020101
_cell_volume 527.252304
_symmetry_space_group_name_H-M "P -1"
_symmetry_group_IT_number 2
_symmetry_cell_setting 'triclinic'
loop_
_space_group_symop_operation_xyz
x,y,z
-x,-y,-z
loop_
_atom_site_type_symbol
_atom_site_label
_atom_site_fract_x
_atom_site_fract_y
_atom_site_fract_z
Si Si1 0.241854 0.803293 0.785167
Si Si2 0.004092 0.938821 0.841074
Si Si3 0.971472 0.982873 0.595226
Si Si4 0.651112 0.390932 0.526219
Si Si5 0.504362 0.790404 0.867398
Si Si6 0.707101 0.167715 0.494445
Si Si7 0.068807 0.316995 0.955073
O O1 0.448144 0.899936 0.860699
O O2 0.237516 0.553207 0.940566
O O3 0.173760 0.968600 0.728589
O O4 0.051732 0.760269 0.570037
O O5 0.981555 0.937936 0.721241
O O6 0.936342 0.178545 0.707306
O O7 0.872377 0.676212 0.898299
O O8 0.253503 0.017277 0.038328
O O9 0.740675 0.717180 0.479805
O O10 0.617132 0.291012 0.440481
O O11 0.858077 0.358745 0.746884
O O12 0.448827 0.169759 0.496835
O O13 0.328506 0.742793 0.664201
O O14 0.500000 0.500000 0.000000
O O15 0.000000 0.000000 0.000000
#
# Coordination Sequence:
#
# PCOD9041449 Si02
#       7
#     2   2   2   2   2   2   2
#     4  10  24  45  71 104 156 189 241 298 375 436
#     4  12  25  46  78 106 147 193 249 301 367 439
#     4  10  24  48  74 107 149 203 237 301 375 450
#     4  10  23  43  76 105 146 192 246 306 369 431
#     4  12  27  44  74 113 145 192 253 307 364 437
#     4  11  24  46  73 108 144 192 252 307 358 435
#     4  11  21  42  73 110 142 187 248 308 352 434
#
# _framework density 26.552752999999999
#
# number of rings (size 3 to 8) (size 9 to 14) (size 15 to 20)
#    0.000    1.143    4.286    0.857    2.000    7.429 
#    0.000    0.000    0.000    0.000    0.000    0.000 
#    0.000    0.000    0.000    0.000    0.000    0.000 
#
# Total GULP energy -78245.324322 kJ/mol
# GULP energy per Si atom -5588.951737 kJ/mol
# Density = 2.649232 g / cm^3
# Si number density = 26.552753 Si / 1000 Ang^3
#
#
#
# Elastic Constant Matrix: (Units=GPa)
#
#
# Indices 1 2 3 4 5 6 
#
# 1 138.8435 9.1140 55.5205 -24.3060 -28.5380 6.2060
# 2 9.1140 48.5617 16.3488 -29.4384 -4.5095 2.1226
# 3 55.5205 16.3488 143.4753 -23.3404 -28.4999 7.0306
# 4 -24.3060 -29.4384 -23.3404 38.9442 2.8292 -6.6363
# 5 -28.5380 -4.5095 -28.4999 2.8292 66.7976 -5.0750
# 6 6.2060 2.1226 7.0306 -6.6363 -5.0750 23.2410
#
#
#
# Elastic Compliance Matrix: (Units=1/GPa)
#
#
# Indices 1 2 3 4 5 6 
#
# 1 0.009841 0.003688 -0.002438 0.007334 0.003145 0.000554
# 2 0.003688 0.040203 -0.000233 0.033276 0.003208 0.005616
# 3 -0.002438 -0.000233 0.009045 0.003447 0.002618 -0.000508
# 4 0.007334 0.033276 0.003447 0.059137 0.005257 0.011994
# 5 0.003145 0.003208 0.002618 0.005257 0.017686 0.003439
# 6 0.000554 0.005616 -0.000508 0.011994 0.003439 0.046696
#
#
# Mechanical properties :
#
#
# Convention : Reuss Voigt Hill
#
# Bulk Modulus (GPa) = 16.36032 54.76078 35.56055
# Shear Modulus (GPa) = 24.88210 42.45638 33.66924
#
# Velocity S-wave (km/s) = 3.06450 4.00302 3.56478
# Velocity P-wave (km/s) = 4.32393 6.48334 5.51045
#
# Compressibility (1/GPa) = 0.06112349
#
# Stress axis : x y z
#
# Youngs Moduli (GPa) = 101.62046 24.87364 110.55555
#
# Poissons Ratio (x) = -0.09173 0.26949
# Poissons Ratio (y) = -0.37474 0.02574
# Poissons Ratio (z) = 0.24771 0.00579
#
# Static dielectric constant tensor:
#      x y z
#    x 2.126380 0.001000 -0.007250 
#    y 0.001000 2.271520 0.031140 
#    z -0.007250 0.031140 2.062290 
# 
# From -- ./inp_files/529323.got.cif
#   From: 2010.05.17/outbox.cif.g08.bks.cpg/sg2_265_cif.got.tgz:529323.got - 2010.06.03 11:33:40.
