data_PCOD9041383
_publ_section_title
;
Structure prediction by ZEFSAII (Michael W. Deem and Ramdas Pophale) SiO2 
 PCOD9041383
Probable space group: P -1
;
_chemical_formula_sum "Si O2"
_cell_formula_units_Z 16
_cell_length_a 23.273004
_cell_length_b 9.238826
_cell_length_c 8.412737
_cell_angle_alpha 95.226799
_cell_angle_beta 54.709457
_cell_angle_gamma 139.387498
_cell_volume 727.077574
_symmetry_space_group_name_H-M "P -1"
_symmetry_group_IT_number 2
_symmetry_cell_setting 'triclinic'
loop_
_space_group_symop_operation_xyz
x,y,z
-x,-y,-z
loop_
_atom_site_type_symbol
_atom_site_label
_atom_site_fract_x
_atom_site_fract_y
_atom_site_fract_z
Si Si1 0.299225 0.710141 0.689438
Si Si2 0.439459 0.657324 0.510117
Si Si3 0.962068 0.296705 0.932070
Si Si4 0.738199 0.296890 0.617235
Si Si5 0.025446 0.897299 0.855085
Si Si6 0.277621 0.178759 0.965365
Si Si7 0.850740 0.780655 0.637484
Si Si8 0.567620 0.745602 0.024226
O O1 0.335027 0.609292 0.672903
O O2 0.320128 0.765408 0.470874
O O3 0.408634 0.009106 0.637198
O O4 0.133715 0.446569 0.962152
O O5 0.390566 0.441827 0.683749
O O6 0.456349 0.629987 0.302113
O O7 0.102742 0.477351 0.650011
O O8 0.000000 0.500000 0.000000
O O9 0.898304 0.068769 0.137610
O O10 0.850010 0.123729 0.957645
O O11 0.754983 0.467499 0.720802
O O12 0.648838 0.010049 0.814519
O O13 0.110940 0.080649 0.579202
O O14 0.000000 0.000000 0.000000
O O15 0.334003 0.166136 0.001082
O O16 0.222109 0.226421 0.142559
O O17 0.000000 0.000000 0.500000
O O18 0.500000 0.500000 0.000000
#
# Coordination Sequence:
#
# PCOD9041383 Si02
#       8
#     2   2   2   2   2   2   2   2
#     4  10  23  43  74 101 134 181 236 287 336 413
#     4  11  26  46  71  97 135 188 241 280 342 411
#     4  11  26  43  72 104 141 186 227 284 360 426
#     4  11  26  46  70 106 140 179 234 288 358 410
#     4  11  21  43  71 105 138 178 225 289 353 405
#     4  12  28  46  72 102 141 187 232 291 351 414
#     4  12  24  43  72 108 143 175 234 291 346 421
#     4  12  31  48  69 100 145 188 232 291 349 422
#
# _framework density 22.005907000000001
#
# number of rings (size 3 to 8) (size 9 to 14) (size 15 to 20)
#    0.000    0.750    3.750    2.625   14.000    1.000 
#    0.000    0.000    0.000    0.000    0.000    0.000 
#    0.000    0.000    0.000    0.000    0.000    0.000 
#
# Total GULP energy -89607.678290 kJ/mol
# GULP energy per Si atom -5600.479893 kJ/mol
# Density = 2.195582 g / cm^3
# Si number density = 22.005907 Si / 1000 Ang^3
#
#
#
# Elastic Constant Matrix: (Units=GPa)
#
#
# Indices 1 2 3 4 5 6 
#
# 1 106.1912 18.2088 15.6509 -4.0988 21.6854 3.4640
# 2 18.2088 139.4655 27.9932 8.8258 10.8782 -0.1357
# 3 15.6509 27.9932 70.4044 -2.9983 23.1554 -5.4812
# 4 -4.0988 8.8258 -2.9983 27.3841 -5.9555 0.1485
# 5 21.6854 10.8782 23.1554 -5.9555 41.8167 -4.3539
# 6 3.4640 -0.1357 -5.4812 0.1485 -4.3539 37.0646
#
#
#
# Elastic Compliance Matrix: (Units=1/GPa)
#
#
# Indices 1 2 3 4 5 6 
#
# 1 0.010786 -0.000973 -0.000405 0.000766 -0.005182 -0.001683
# 2 -0.000973 0.008144 -0.003048 -0.003193 -0.000419 -0.000366
# 3 -0.000405 -0.003048 0.018642 0.000997 -0.008998 0.001722
# 4 0.000766 -0.003193 0.000997 0.038961 0.005488 0.000553
# 5 -0.005182 -0.000419 -0.008998 0.005488 0.032785 0.002981
# 6 -0.001683 -0.000366 0.001722 0.000553 0.002981 0.027739
#
#
# Mechanical properties :
#
#
# Convention : Reuss Voigt Hill
#
# Bulk Modulus (GPa) = 34.82001 48.86300 41.84150
# Shear Modulus (GPa) = 32.15815 38.20029 35.17922
#
# Velocity S-wave (km/s) = 3.82690 4.17095 4.00262
# Velocity P-wave (km/s) = 5.94847 6.74154 6.35738
#
# Compressibility (1/GPa) = 0.02871912
#
# Stress axis : x y z
#
# Youngs Moduli (GPa) = 92.71048 122.79730 53.64304
#
# Poissons Ratio (x) = 0.11946 0.02172
# Poissons Ratio (y) = 0.09019 0.16353
# Poissons Ratio (z) = 0.03754 0.37433
#
# Static dielectric constant tensor:
#      x y z
#    x 1.786940 0.008730 -0.008420 
#    y 0.008730 1.768870 0.017570 
#    z -0.008420 0.017570 1.751710 
# 
# From -- ./inp_files/352236.got.cif
#   From: 2010.05.17/outbox.cif.g08.bks.cpg/sg2_177_cif.got.tgz:352236.got - 2010.06.03 11:33:40.
