data_PCOD9041446
_publ_section_title
;
Structure prediction by ZEFSAII (Michael W. Deem and Ramdas Pophale) SiO2 
 PCOD9041446
Probable space group: P -1
;
_chemical_formula_sum "Si O2"
_cell_formula_units_Z 13
_cell_length_a 14.515025
_cell_length_b 8.497070
_cell_length_c 5.134711
_cell_angle_alpha 87.474130
_cell_angle_beta 56.112339
_cell_angle_gamma 86.948367
_cell_volume 524.890406
_symmetry_space_group_name_H-M "P -1"
_symmetry_group_IT_number 2
_symmetry_cell_setting 'triclinic'
loop_
_space_group_symop_operation_xyz
x,y,z
-x,-y,-z
loop_
_atom_site_type_symbol
_atom_site_label
_atom_site_fract_x
_atom_site_fract_y
_atom_site_fract_z
Si Si1 0.508443 0.111039 0.228848
Si Si2 0.283727 0.699973 0.269944
Si Si3 0.888198 0.778505 0.527302
Si Si4 0.695351 0.640788 0.494793
Si Si5 0.087625 0.786485 0.856175
Si Si6 0.000000 0.000000 0.500000
Si Si7 0.857000 0.484243 0.884822
O O1 0.409754 0.243817 0.371610
O O2 0.500000 0.000000 0.500000
O O3 0.621804 0.204110 0.018886
O O4 0.500000 0.000000 0.000000
O O5 0.327003 0.528361 0.323192
O O6 0.218768 0.798804 0.594010
O O7 0.189516 0.648450 0.218574
O O8 0.794389 0.731066 0.479792
O O9 0.921508 0.616765 0.625500
O O10 0.865408 0.935220 0.712594
O O11 0.007435 0.848786 0.220255
O O12 0.749290 0.588598 0.140310
O O13 0.089185 0.600718 0.942573
O O14 0.028195 0.859294 0.696264
#
# Coordination Sequence:
#
# PCOD9041446 Si02
#       7
#     2   2   2   2   2   1   2
#     4  12  31  50  79 113 151 197 246 321 383 453
#     4  10  25  47  76 106 144 192 252 301 372 444
#     4  11  24  43  68 106 145 194 242 302 373 437
#     4  10  25  47  75 104 148 190 251 303 369 449
#     4  11  24  43  68 105 145 191 242 299 366 445
#     4  12  26  38  62  96 152 192 232 294 366 446
#     4  10  23  43  76 103 144 191 250 306 350 465
#
# _framework density 24.767074999999998
#
# number of rings (size 3 to 8) (size 9 to 14) (size 15 to 20)
#    0.000    1.231    0.000    3.231   10.769   10.462 
#    0.000    0.000    0.000    0.000    0.000    0.000 
#    0.000    0.000    0.000    0.000    0.000    0.000 
#
# Total GULP energy -72414.656871 kJ/mol
# GULP energy per Si atom -5570.358221 kJ/mol
# Density = 2.471070 g / cm^3
# Si number density = 24.767075 Si / 1000 Ang^3
#
#
#
# Elastic Constant Matrix: (Units=GPa)
#
#
# Indices 1 2 3 4 5 6 
#
# 1 91.1986 81.9262 70.5297 -26.9726 1.7405 -7.0099
# 2 81.9262 124.2748 93.6959 -9.1990 -20.1355 -8.8606
# 3 70.5297 93.6959 163.0534 -26.3513 3.6121 -13.5026
# 4 -26.9726 -9.1990 -26.3513 48.2877 -2.5186 -7.5968
# 5 1.7405 -20.1355 3.6121 -2.5186 44.8947 -9.7044
# 6 -7.0099 -8.8606 -13.5026 -7.5968 -9.7044 59.6103
#
#
#
# Elastic Compliance Matrix: (Units=1/GPa)
#
#
# Indices 1 2 3 4 5 6 
#
# 1 0.042808 -0.031371 0.002991 0.018971 -0.014673 0.001077
# 2 -0.031371 0.040094 -0.012351 -0.015506 0.019466 0.000666
# 3 0.002991 -0.012351 0.013221 0.006427 -0.006069 0.001342
# 4 0.018971 -0.015506 0.006427 0.032305 -0.005396 0.004620
# 5 -0.014673 0.019466 -0.006069 -0.005396 0.032717 0.004432
# 6 0.001077 0.000666 0.001342 0.004620 0.004432 0.018615
#
#
# Mechanical properties :
#
#
# Convention : Reuss Voigt Hill
#
# Bulk Modulus (GPa) = 68.22102 96.75896 82.48999
# Shear Modulus (GPa) = 18.78916 39.38354 29.08635
#
# Velocity S-wave (km/s) = 2.75732 3.99200 3.43066
# Velocity P-wave (km/s) = 6.14345 7.77178 7.00509
#
# Compressibility (1/GPa) = 0.01465824
#
# Stress axis : x y z
#
# Youngs Moduli (GPa) = 23.36017 24.94163 75.63723
#
# Poissons Ratio (x) = 0.78246 -0.22619
# Poissons Ratio (y) = 0.73284 0.93421
# Poissons Ratio (z) = -0.06986 0.30806
#
# Static dielectric constant tensor:
#      x y z
#    x 1.959810 0.086130 0.061340 
#    y 0.086130 2.051660 0.106280 
#    z 0.061340 0.106280 2.134340 
# 
# From -- ./inp_files/88507.got.cif
#   From: 2010.05.17/outbox.cif.g08.bks.cpg/sg2_45_cif.got.tgz:88507.got - 2010.06.03 11:33:40.
