data_PCOD9041192
_publ_section_title
;
Structure prediction by ZEFSAII (Michael W. Deem and Ramdas Pophale) SiO2 
 PCOD9041192
Probable space group: P -1
;
_chemical_formula_sum "Si O2"
_cell_formula_units_Z 16
_cell_length_a 13.534165
_cell_length_b 8.808467
_cell_length_c 12.785867
_cell_angle_alpha 71.427435
_cell_angle_beta 34.386394
_cell_angle_gamma 95.015786
_cell_volume 617.122868
_symmetry_space_group_name_H-M "P -1"
_symmetry_group_IT_number 2
_symmetry_cell_setting 'triclinic'
loop_
_space_group_symop_operation_xyz
x,y,z
-x,-y,-z
loop_
_atom_site_type_symbol
_atom_site_label
_atom_site_fract_x
_atom_site_fract_y
_atom_site_fract_z
Si Si1 0.100951 0.293468 0.434654
Si Si2 0.139117 0.935667 0.518743
Si Si3 0.493987 0.223533 0.698410
Si Si4 0.389160 0.655413 0.953594
Si Si5 0.083305 0.451448 0.633184
Si Si6 0.907581 0.110084 0.007959
Si Si7 0.310982 0.439618 0.882283
Si Si8 0.257709 0.716707 0.741810
O O1 0.319653 0.525870 0.149301
O O2 0.039260 0.350675 0.580574
O O3 0.931182 0.183844 0.505298
O O4 0.119405 0.117040 0.483958
O O5 0.953183 0.765353 0.805972
O O6 0.411822 0.092966 0.271042
O O7 0.668594 0.310787 0.624564
O O8 0.411091 0.358709 0.743336
O O9 0.630613 0.233341 0.479014
O O10 0.244177 0.999034 0.940990
O O11 0.149590 0.587081 0.134319
O O12 0.447240 0.543900 0.849087
O O13 0.103221 0.341646 0.738462
O O14 0.765158 0.125722 0.216219
O O15 0.000000 0.000000 0.000000
O O16 0.359871 0.637586 0.741443
O O17 0.000000 0.500000 0.000000
#
# Coordination Sequence:
#
# PCOD9041192 Si02
#       8
#     2   2   2   2   2   2   2   2
#     4  10  23  43  71 111 150 192 252 304 375 447
#     4  10  23  45  74 106 150 195 248 305 377 449
#     4  12  27  47  77 104 153 195 250 311 374 442
#     4  11  23  45  74 108 153 196 246 312 372 441
#     4  12  26  46  70 112 147 195 253 305 376 448
#     4  12  28  48  74 109 149 199 252 308 377 447
#     4  11  24  45  72 108 144 199 246 304 373 442
#     4  12  24  49  71 105 148 190 248 305 373 441
#
# _framework density 25.926765
#
# number of rings (size 3 to 8) (size 9 to 14) (size 15 to 20)
#    0.000    0.750    2.500    3.750    1.750    6.500 
#    2.250    0.000    0.000    0.000    0.000    0.000 
#    0.000    0.000    0.000    0.000    0.000    0.000 
#
# Total GULP energy -89379.285316 kJ/mol
# GULP energy per Si atom -5586.205332 kJ/mol
# Density = 2.586775 g / cm^3
# Si number density = 25.926765 Si / 1000 Ang^3
#
#
#
# Elastic Constant Matrix: (Units=GPa)
#
#
# Indices 1 2 3 4 5 6 
#
# 1 82.4177 42.8274 29.7273 1.5052 -2.8195 -19.2837
# 2 42.8274 177.1590 46.2709 4.5293 1.7455 9.6266
# 3 29.7273 46.2709 107.5282 -21.2674 -8.0316 1.0267
# 4 1.5052 4.5293 -21.2674 46.4767 8.6717 1.1056
# 5 -2.8195 1.7455 -8.0316 8.6717 47.3487 -7.7644
# 6 -19.2837 9.6266 1.0267 1.1056 -7.7644 56.5799
#
#
#
# Elastic Compliance Matrix: (Units=1/GPa)
#
#
# Indices 1 2 3 4 5 6 
#
# 1 0.016926 -0.003489 -0.003559 -0.002385 0.002078 0.006759
# 2 -0.003489 0.007338 -0.002547 -0.001513 -0.001044 -0.002505
# 3 -0.003559 -0.002547 0.012638 0.006030 0.000753 -0.001024
# 4 -0.002385 -0.001513 0.006030 0.025282 -0.003973 -0.001704
# 5 0.002078 -0.001044 0.000753 -0.003973 0.022807 0.004080
# 6 0.006759 -0.002505 -0.001024 -0.001704 0.004080 0.021016
#
#
# Mechanical properties :
#
#
# Convention : Reuss Voigt Hill
#
# Bulk Modulus (GPa) = 56.45391 67.19512 61.82452
# Shear Modulus (GPa) = 38.13853 46.63300 42.38577
#
# Velocity S-wave (km/s) = 3.83954 4.24564 4.04769
# Velocity P-wave (km/s) = 6.44032 7.07160 6.76333
#
# Compressibility (1/GPa) = 0.01771356
#
# Stress axis : x y z
#
# Youngs Moduli (GPa) = 59.08031 136.27134 79.12378
#
# Poissons Ratio (x) = 0.47545 0.28161
# Poissons Ratio (y) = 0.20613 0.20149
# Poissons Ratio (z) = 0.21027 0.34702
#
# Static dielectric constant tensor:
#      x y z
#    x 3.478630 -0.460570 0.171730 
#    y -0.460570 2.189530 -0.109890 
#    z 0.171730 -0.109890 2.149390 
# 
# From -- ./inp_files/529622.got.cif
#   From: 2010.05.17/outbox.cif.g08.bks.cpg/sg2_265_cif.got.tgz:529622.got - 2010.06.03 11:33:40.
