data_PCOD9041150
_publ_section_title
;
Structure prediction by ZEFSAII (Michael W. Deem and Ramdas Pophale) SiO2 
 PCOD9041150
Probable space group: P -1
;
_chemical_formula_sum "Si O2"
_cell_formula_units_Z 15
_cell_length_a 20.047110
_cell_length_b 12.085811
_cell_length_c 6.063505
_cell_angle_alpha 113.197382
_cell_angle_beta 61.918173
_cell_angle_gamma 151.466728
_cell_volume 618.457732
_symmetry_space_group_name_H-M "P -1"
_symmetry_group_IT_number 2
_symmetry_cell_setting 'triclinic'
loop_
_space_group_symop_operation_xyz
x,y,z
-x,-y,-z
loop_
_atom_site_type_symbol
_atom_site_label
_atom_site_fract_x
_atom_site_fract_y
_atom_site_fract_z
Si Si1 0.030446 0.443709 0.088243
Si Si2 0.000000 0.000000 0.000000
Si Si3 0.160658 0.971421 0.680391
Si Si4 0.613292 0.586670 0.053743
Si Si5 0.210789 0.317308 0.489259
Si Si6 0.049955 0.313059 0.568705
Si Si7 0.718260 0.249907 0.756486
Si Si8 0.433468 0.712474 0.793670
O O1 0.054276 0.356158 0.844617
O O2 0.180098 0.670092 0.154283
O O3 0.000000 0.500000 0.000000
O O4 0.894198 0.227555 0.284505
O O5 0.882710 0.831060 0.261704
O O6 0.950122 0.072663 0.110684
O O7 0.111432 0.892838 0.440972
O O8 0.315992 0.226370 0.727773
O O9 0.736439 0.713428 0.785327
O O10 0.500000 0.500000 0.000000
O O11 0.567454 0.403512 0.123956
O O12 0.119296 0.275586 0.429797
O O13 0.354951 0.570004 0.574953
O O14 0.164375 0.554459 0.456745
O O15 0.589985 0.981699 0.702411
O O16 0.651324 0.288355 0.966883
#
# Coordination Sequence:
#
# PCOD9041150 Si02
#       8
#     2   1   2   2   2   2   2   2
#     4  11  25  44  67 104 141 182 235 296 364 411
#     4  12  22  44  74 112 136 172 252 296 344 422
#     4  11  25  43  70 107 138 181 244 295 352 429
#     4  12  29  49  68 105 152 191 232 288 370 431
#     4  12  24  45  76 107 141 190 234 302 355 417
#     4  11  22  44  74 103 135 185 238 302 358 407
#     4  10  23  43  71 103 140 180 247 292 335 435
#     4  11  23  46  70 104 140 184 246 285 345 437
#
# _framework density 24.253883999999999
#
# number of rings (size 3 to 8) (size 9 to 14) (size 15 to 20)
#    0.000    0.800    5.333    1.600    3.733    5.333 
#    2.400    0.000    0.000    0.000    0.000    0.000 
#    0.000    0.000    0.000    0.000    0.000    0.000 
#
# Total GULP energy -83542.130396 kJ/mol
# GULP energy per Si atom -5569.475360 kJ/mol
# Density = 2.419868 g / cm^3
# Si number density = 24.253884 Si / 1000 Ang^3
#
#
#
# Elastic Constant Matrix: (Units=GPa)
#
#
# Indices 1 2 3 4 5 6 
#
# 1 140.3628 51.7925 5.3552 -2.8579 35.9939 -4.3891
# 2 51.7925 160.6054 39.8947 30.2991 41.4999 4.7040
# 3 5.3552 39.8947 49.8699 5.7919 13.3302 21.2306
# 4 -2.8579 30.2991 5.7919 31.9290 1.7023 14.4965
# 5 35.9939 41.4999 13.3302 1.7023 45.8388 2.8380
# 6 -4.3891 4.7040 21.2306 14.4965 2.8380 32.1490
#
#
#
# Elastic Compliance Matrix: (Units=1/GPa)
#
#
# Indices 1 2 3 4 5 6 
#
# 1 0.009710 -0.003374 0.003524 0.004699 -0.005637 -0.002129
# 2 -0.003374 0.016969 -0.016213 -0.021223 -0.008329 0.018068
# 3 0.003524 -0.016213 0.046389 0.025023 -0.000090 -0.039057
# 4 0.004699 -0.021223 0.025023 0.066681 0.008470 -0.043594
# 5 -0.005637 -0.008329 -0.000090 0.008470 0.033884 -0.006302
# 6 -0.002129 0.018068 -0.039057 -0.043594 -0.006302 0.074176
#
#
# Mechanical properties :
#
#
# Convention : Reuss Voigt Hill
#
# Bulk Modulus (GPa) = 24.42567 60.54698 42.48632
# Shear Modulus (GPa) = 17.03103 38.90306 27.96705
#
# Velocity S-wave (km/s) = 2.65278 4.00933 3.39941
# Velocity P-wave (km/s) = 4.41312 6.81550 5.74137
#
# Compressibility (1/GPa) = 0.04094054
#
# Stress axis : x y z
#
# Youngs Moduli (GPa) = 102.99132 58.93264 21.55688
#
# Poissons Ratio (x) = 0.19884 -0.07596
# Poissons Ratio (y) = 0.34750 0.34950
# Poissons Ratio (z) = -0.36293 0.95548
#
# Static dielectric constant tensor:
#      x y z
#    x 2.001610 -0.038070 -0.078170 
#    y -0.038070 1.981250 0.009700 
#    z -0.078170 0.009700 2.057460 
# 
# From -- ./inp_files/118735.got.cif
#   From: 2010.05.17/outbox.cif.g08.bks.cpg/sg2_60_cif.got.tgz:118735.got - 2010.06.03 11:33:40.
