data_PCOD9041827
_publ_section_title
;
Structure prediction by ZEFSAII (Michael W. Deem and Ramdas Pophale) SiO2 
 PCOD9041827
Probable space group: P -1
;
_chemical_formula_sum "Si O2"
_cell_formula_units_Z 12
_cell_length_a 8.325053
_cell_length_b 6.680127
_cell_length_c 13.695026
_cell_angle_alpha 54.233017
_cell_angle_beta 112.819318
_cell_angle_gamma 97.598075
_cell_volume 565.045204
_symmetry_space_group_name_H-M "P -1"
_symmetry_group_IT_number 2
_symmetry_cell_setting 'triclinic'
loop_
_space_group_symop_operation_xyz
x,y,z
-x,-y,-z
loop_
_atom_site_type_symbol
_atom_site_label
_atom_site_fract_x
_atom_site_fract_y
_atom_site_fract_z
Si Si1 0.092020 0.461560 0.927737
Si Si2 0.666760 0.034450 0.867959
Si Si3 0.460903 0.496018 0.733548
Si Si4 0.180529 0.336503 0.561946
Si Si5 0.678812 0.198152 0.205922
Si Si6 0.775123 0.526783 0.687186
O O1 0.245172 0.636560 0.905325
O O2 0.949769 0.534204 0.788959
O O3 0.177275 0.177939 0.010124
O O4 0.000000 0.500000 0.000000
O O5 0.508867 0.893300 0.832735
O O6 0.572959 0.232982 0.867973
O O7 0.737702 0.236387 0.754408
O O8 0.334248 0.433661 0.634353
O O9 0.349727 0.632111 0.753642
O O10 0.609569 0.645263 0.679532
O O11 0.216578 0.360249 0.449150
O O12 0.000000 0.500000 0.500000
O O13 0.186444 0.048253 0.673424
#
# Coordination Sequence:
#
# PCOD9041827 Si02
#       6
#     2   2   2   2   2   2
#     4  12  25  42  67  98 133 171 220 266 318 388
#     4   9  23  44  65  94 131 172 214 261 322 380
#     4   9  22  42  67  97 126 172 210 266 323 383
#     4  11  24  43  67  98 134 166 215 269 326 388
#     4  11  24  44  68  98 127 173 217 267 324 381
#     4  10  23  44  67  96 132 172 211 266 328 374
#
# _framework density 21.237237
#
# number of rings (size 3 to 8) (size 9 to 14) (size 15 to 20)
#    1.000    0.667    0.000    3.500    2.333    4.000 
#    6.000    0.000    0.000    0.000    0.000    0.000 
#    0.000    0.000    0.000    0.000    0.000    0.000 
#
# Total GULP energy -66967.495377 kJ/mol
# GULP energy per Si atom -5580.624615 kJ/mol
# Density = 2.118890 g / cm^3
# Si number density = 21.237237 Si / 1000 Ang^3
#
#
#
# Elastic Constant Matrix: (Units=GPa)
#
#
# Indices 1 2 3 4 5 6 
#
# 1 57.2574 9.0139 16.7971 2.7983 5.7982 -12.6472
# 2 9.0139 58.2436 18.5010 -1.1782 6.8632 -17.2163
# 3 16.7971 18.5010 43.1211 2.3699 -2.0339 -9.0354
# 4 2.7983 -1.1782 2.3699 39.0706 -1.1303 5.9724
# 5 5.7982 6.8632 -2.0339 -1.1303 34.7897 -9.4104
# 6 -12.6472 -17.2163 -9.0354 5.9724 -9.4104 44.1919
#
#
#
# Elastic Compliance Matrix: (Units=1/GPa)
#
#
# Indices 1 2 3 4 5 6 
#
# 1 0.020923 0.000779 -0.007618 -0.001762 -0.002970 0.004339
# 2 0.000779 0.022038 -0.008586 0.000065 -0.003260 0.006350
# 3 -0.007618 -0.008586 0.030624 -0.001738 0.005263 0.002092
# 4 -0.001762 0.000065 -0.001738 0.026504 -0.000164 -0.004451
# 5 -0.002970 -0.003260 0.005263 -0.000164 0.031736 0.005737
# 6 0.004339 0.006350 0.002092 -0.004451 0.005737 0.028595
#
#
# Mechanical properties :
#
#
# Convention : Reuss Voigt Hill
#
# Bulk Modulus (GPa) = 23.40001 27.47179 25.43590
# Shear Modulus (GPa) = 24.32911 31.23111 27.78011
#
# Velocity S-wave (km/s) = 3.38832 3.83898 3.62067
# Velocity P-wave (km/s) = 5.13322 5.71087 5.42974
#
# Compressibility (1/GPa) = 0.04273502
#
# Stress axis : x y z
#
# Youngs Moduli (GPa) = 47.79528 45.37521 32.65438
#
# Poissons Ratio (x) = -0.03534 0.24876
# Poissons Ratio (y) = -0.03722 0.28036
# Poissons Ratio (z) = 0.36411 0.38957
#
# Static dielectric constant tensor:
#      x y z
#    x 1.801950 0.000020 0.007520 
#    y 0.000020 1.775120 -0.014210 
#    z 0.007520 -0.014210 1.767860 
# 
# From -- ./inp_files/40948.got.cif
#   From: 2010.05.17/outbox.cif.g08.bks.cpg/sg2_21_cif.got.tgz:40948.got - 2010.06.03 11:33:40.
