data_PCOD9041689
_publ_section_title
;
Structure prediction by ZEFSAII (Michael W. Deem and Ramdas Pophale) SiO2 
 PCOD9041689
Probable space group: P -1
;
_chemical_formula_sum "Si O2"
_cell_formula_units_Z 16
_cell_length_a 14.359000
_cell_length_b 8.866927
_cell_length_c 9.622530
_cell_angle_alpha 76.912227
_cell_angle_beta 85.052082
_cell_angle_gamma 139.902528
_cell_volume 699.786873
_symmetry_space_group_name_H-M "P -1"
_symmetry_group_IT_number 2
_symmetry_cell_setting 'triclinic'
loop_
_space_group_symop_operation_xyz
x,y,z
-x,-y,-z
loop_
_atom_site_type_symbol
_atom_site_label
_atom_site_fract_x
_atom_site_fract_y
_atom_site_fract_z
Si Si1 0.812794 0.942123 0.225795
Si Si2 0.307126 0.515029 0.502657
Si Si3 0.124675 0.631893 0.836028
Si Si4 0.101100 0.524361 0.578608
Si Si5 0.437131 0.091429 0.378010
Si Si6 0.185458 0.442867 0.047525
Si Si7 0.600881 0.551960 0.092249
Si Si8 0.390293 0.799246 0.184956
O O1 0.744210 0.721763 0.387140
O O2 0.718456 0.805758 0.121569
O O3 0.799222 0.098086 0.250152
O O4 0.998774 0.155657 0.128568
O O5 0.153415 0.424927 0.540261
O O6 0.425137 0.742700 0.558881
O O7 0.391685 0.645841 0.313863
O O8 0.030857 0.432477 0.760404
O O9 0.227531 0.631495 0.888727
O O10 0.000000 0.500000 0.000000
O O11 0.000000 0.500000 0.500000
O O12 0.267855 0.834422 0.519998
O O13 0.474692 0.308278 0.265481
O O14 0.418011 0.961601 0.268109
O O15 0.225699 0.562156 0.170633
O O16 0.292820 0.440087 0.994902
O O17 0.500000 0.500000 0.000000
O O18 0.500000 0.000000 0.000000
#
# Coordination Sequence:
#
# PCOD9041689 Si02
#       8
#     2   2   2   2   2   2   2   2
#     4  10  24  45  69  99 140 181 229 285 355 403
#     4  10  24  47  69  95 141 185 226 280 347 416
#     4  10  24  42  68 100 138 172 233 280 341 406
#     4  11  24  41  67  98 133 180 227 278 341 408
#     4  10  23  44  66  94 135 185 227 272 346 416
#     4  11  24  42  74 100 136 186 227 287 347 402
#     4  11  24  44  66 105 139 181 227 287 346 413
#     4  11  22  38  73 104 128 175 242 277 333 406
#
# _framework density 22.864101999999999
#
# number of rings (size 3 to 8) (size 9 to 14) (size 15 to 20)
#    0.000    1.500    1.250    3.375   10.500    3.500 
#    2.250    1.250    0.000    0.000    0.000    0.000 
#    0.000    0.000    0.000    0.000    0.000    0.000 
#
# Total GULP energy -89231.608624 kJ/mol
# GULP energy per Si atom -5576.975539 kJ/mol
# Density = 2.281206 g / cm^3
# Si number density = 22.864102 Si / 1000 Ang^3
#
#
#
# Elastic Constant Matrix: (Units=GPa)
#
#
# Indices 1 2 3 4 5 6 
#
# 1 123.9424 29.2675 42.1249 8.8301 30.0753 -3.4518
# 2 29.2675 83.7900 19.9220 -8.7896 18.5416 -11.8656
# 3 42.1249 19.9220 118.4046 10.2029 29.3464 -20.9859
# 4 8.8301 -8.7896 10.2029 43.7508 2.6963 3.7930
# 5 30.0753 18.5416 29.3464 2.6963 46.2541 6.0312
# 6 -3.4518 -11.8656 -20.9859 3.7930 6.0312 21.5634
#
#
#
# Elastic Compliance Matrix: (Units=1/GPa)
#
#
# Indices 1 2 3 4 5 6 
#
# 1 0.010561 -0.002418 -0.002120 -0.001838 -0.004427 -0.000142
# 2 -0.002418 0.016045 0.002047 0.002665 -0.007901 0.012175
# 3 -0.002120 0.002047 0.015629 -0.003812 -0.011738 0.019951
# 4 -0.001838 0.002665 -0.003812 0.025179 0.002061 -0.007543
# 5 -0.004427 -0.007901 -0.011738 0.002061 0.038596 -0.027638
# 6 -0.000142 0.012175 0.019951 -0.007543 -0.027638 0.081526
#
#
# Mechanical properties :
#
#
# Convention : Reuss Voigt Hill
#
# Bulk Modulus (GPa) = 26.84319 56.52955 41.68637
# Shear Modulus (GPa) = 24.39792 37.96850 31.18321
#
# Velocity S-wave (km/s) = 3.27017 4.07949 3.69704
# Velocity P-wave (km/s) = 5.10142 6.85328 6.04119
#
# Compressibility (1/GPa) = 0.03725339
#
# Stress axis : x y z
#
# Youngs Moduli (GPa) = 94.68792 62.32585 63.98287
#
# Poissons Ratio (x) = 0.15071 0.13564
# Poissons Ratio (y) = 0.22897 -0.13100
# Poissons Ratio (z) = 0.20074 -0.12760
#
# Static dielectric constant tensor:
#      x y z
#    x 1.929000 0.003300 0.021430 
#    y 0.003300 1.871440 -0.007860 
#    z 0.021430 -0.007860 1.790810 
# 
# From -- ./inp_files/298259.got.cif
#   From: 2010.05.17/outbox.cif.g08.bks.cpg/sg2_150_cif.got.tgz:298259.got - 2010.06.03 11:33:40.
