data_PCOD9041437
_publ_section_title
;
Structure prediction by ZEFSAII (Michael W. Deem and Ramdas Pophale) SiO2 
 PCOD9041437
Probable space group: P -1
;
_chemical_formula_sum "Si O2"
_cell_formula_units_Z 11
_cell_length_a 9.981628
_cell_length_b 9.725513
_cell_length_c 7.810452
_cell_angle_alpha 130.464531
_cell_angle_beta 50.858191
_cell_angle_gamma 99.538200
_cell_volume 407.371814
_symmetry_space_group_name_H-M "P -1"
_symmetry_group_IT_number 2
_symmetry_cell_setting 'triclinic'
loop_
_space_group_symop_operation_xyz
x,y,z
-x,-y,-z
loop_
_atom_site_type_symbol
_atom_site_label
_atom_site_fract_x
_atom_site_fract_y
_atom_site_fract_z
Si Si1 0.243892 0.528850 0.876048
Si Si2 0.249112 0.112703 0.644078
Si Si3 0.343500 0.622543 0.518641
Si Si4 0.618819 0.994580 0.068091
Si Si5 0.000000 0.000000 0.500000
Si Si6 0.980289 0.722680 0.697818
O O1 0.202757 0.341344 0.812104
O O2 0.281329 0.509087 0.624027
O O3 0.437449 0.499656 0.797016
O O4 0.101479 0.751980 0.202087
O O5 0.475610 0.992745 0.332119
O O6 0.148615 0.146618 0.936552
O O7 0.155961 0.000306 0.513452
O O8 0.348991 0.808243 0.767544
O O9 0.192478 0.695866 0.547657
O O10 0.500000 0.000000 0.000000
O O11 0.836316 0.834657 0.751372
O O12 0.000000 0.500000 0.500000
#
# Coordination Sequence:
#
# PCOD9041437 Si02
#       6
#     2   2   2   2   1   2
#     4  10  23  43  75 108 143 194 241 306 366 446
#     4  11  26  47  73 110 150 194 251 305 370 445
#     4  10  23  47  70 103 151 189 250 296 373 441
#     4  11  26  48  78 106 148 198 248 306 376 445
#     4  12  22  38  78 106 148 186 252 292 376 432
#     4  12  28  46  73 109 154 194 249 312 367 438
#
# _framework density 27.002357
#
# number of rings (size 3 to 8) (size 9 to 14) (size 15 to 20)
#    0.000    1.091    1.818    2.727   10.182    1.455 
#    3.273    1.818    0.000    0.000    0.000    0.000 
#    0.000    0.000    0.000    0.000    0.000    0.000 
#
# Total GULP energy -61363.200897 kJ/mol
# GULP energy per Si atom -5578.472809 kJ/mol
# Density = 2.694090 g / cm^3
# Si number density = 27.002357 Si / 1000 Ang^3
#
#
#
# Elastic Constant Matrix: (Units=GPa)
#
#
# Indices 1 2 3 4 5 6 
#
# 1 212.3219 34.2806 42.0914 5.3248 -21.6929 7.8232
# 2 34.2806 23.3418 14.8787 -1.0252 2.6730 1.9742
# 3 42.0914 14.8787 79.0791 8.9540 -21.0199 7.8339
# 4 5.3248 -1.0252 8.9540 61.0170 -7.4477 -0.3437
# 5 -21.6929 2.6730 -21.0199 -7.4477 57.8044 15.5345
# 6 7.8232 1.9742 7.8339 -0.3437 15.5345 35.0958
#
#
#
# Elastic Compliance Matrix: (Units=1/GPa)
#
#
# Indices 1 2 3 4 5 6 
#
# 1 0.006873 -0.009897 -0.000629 -0.000272 0.003403 -0.002344
# 2 -0.009897 0.065467 -0.011198 0.002145 -0.012278 0.006479
# 3 -0.000629 -0.011198 0.018291 -0.001805 0.008621 -0.007146
# 4 -0.000272 0.002145 -0.001805 0.016877 0.001340 -0.000085
# 5 0.003403 -0.012278 0.008621 0.001340 0.026087 -0.013526
# 6 -0.002344 0.006479 -0.007146 -0.000085 -0.013526 0.036233
#
#
# Mechanical properties :
#
#
# Convention : Reuss Voigt Hill
#
# Bulk Modulus (GPa) = 21.19370 55.24933 38.22152
# Shear Modulus (GPa) = 21.83372 45.68293 33.75832
#
# Velocity S-wave (km/s) = 2.84665 4.11763 3.53965
# Velocity P-wave (km/s) = 4.32093 6.56596 5.55798
#
# Compressibility (1/GPa) = 0.04718384
#
# Stress axis : x y z
#
# Youngs Moduli (GPa) = 145.49022 15.27489 54.67161
#
# Poissons Ratio (x) = 0.15118 0.03437
# Poissons Ratio (y) = 1.43993 0.61221
# Poissons Ratio (z) = 0.09147 0.17105
#
# Static dielectric constant tensor:
#      x y z
#    x 2.132130 -0.124840 -0.019630 
#    y -0.124840 2.344090 -0.128890 
#    z -0.019630 -0.128890 2.103020 
# 
# From -- ./inp_files/152324.got.cif
#   From: 2010.05.17/outbox.cif.g08.bks.cpg/sg2_77_cif.got.tgz:152324.got - 2010.06.03 11:33:40.
