data_PCOD9041372
_publ_section_title
;
Structure prediction by ZEFSAII (Michael W. Deem and Ramdas Pophale) SiO2 
 PCOD9041372
Probable space group: P -1
;
_chemical_formula_sum "Si O2"
_cell_formula_units_Z 13
_cell_length_a 12.533106
_cell_length_b 9.413898
_cell_length_c 11.685953
_cell_angle_alpha 38.715144
_cell_angle_beta 142.620784
_cell_angle_gamma 123.856826
_cell_volume 516.288064
_symmetry_space_group_name_H-M "P -1"
_symmetry_group_IT_number 2
_symmetry_cell_setting 'triclinic'
loop_
_space_group_symop_operation_xyz
x,y,z
-x,-y,-z
loop_
_atom_site_type_symbol
_atom_site_label
_atom_site_fract_x
_atom_site_fract_y
_atom_site_fract_z
Si Si1 0.744336 0.082217 0.953501
Si Si2 0.747031 0.799909 0.819300
Si Si3 0.209229 0.423620 0.250213
Si Si4 0.000000 0.000000 0.000000
Si Si5 0.189571 0.060180 0.655865
Si Si6 0.631085 0.290297 0.355836
Si Si7 0.527877 0.222101 0.068200
O O1 0.813089 0.927573 0.218793
O O2 0.712049 0.347000 0.799251
O O3 0.879523 0.045565 0.988309
O O4 0.563241 0.987510 0.833274
O O5 0.733624 0.706744 0.738882
O O6 0.565324 0.767475 0.745182
O O7 0.925647 0.735054 0.082778
O O8 0.767944 0.079287 0.659518
O O9 0.226754 0.264178 0.477340
O O10 0.000000 0.500000 0.000000
O O11 0.349030 0.853966 0.886478
O O12 0.000000 0.000000 0.500000
O O13 0.648700 0.281670 0.239706
O O14 0.615696 0.549921 0.219985
#
# Coordination Sequence:
#
# PCOD9041372 Si02
#       7
#     2   2   2   1   2   2   2
#     4  12  27  47  70 111 147 186 245 299 359 430
#     4  11  22  45  71 106 140 190 243 291 359 434
#     4  12  24  45  76 103 146 193 234 298 363 426
#     4  12  24  44  72 104 152 180 242 304 346 424
#     4  12  25  46  75 107 142 190 243 291 364 434
#     4  10  23  43  73  97 144 192 234 292 368 425
#     4  11  24  47  68 106 144 186 240 303 354 428
#
# _framework density 25.179742999999998
#
# number of rings (size 3 to 8) (size 9 to 14) (size 15 to 20)
#    0.000    0.615    6.154    1.385    0.000    1.846 
#    0.000    1.538    0.000    0.000    0.000    0.000 
#    0.000    0.000    0.000    0.000    0.000    0.000 
#
# Total GULP energy -72534.670621 kJ/mol
# GULP energy per Si atom -5579.590048 kJ/mol
# Density = 2.512243 g / cm^3
# Si number density = 25.179743 Si / 1000 Ang^3
#
#
#
# Elastic Constant Matrix: (Units=GPa)
#
#
# Indices 1 2 3 4 5 6 
#
# 1 165.3416 53.5061 24.8726 3.0268 -8.2981 -21.0269
# 2 53.5061 155.6190 34.8558 -26.3460 -8.2335 -4.8151
# 3 24.8726 34.8558 83.0438 -16.7335 -15.4908 -20.2648
# 4 3.0268 -26.3460 -16.7335 35.4264 3.5788 -12.5874
# 5 -8.2981 -8.2335 -15.4908 3.5788 38.3630 16.3313
# 6 -21.0269 -4.8151 -20.2648 -12.5874 16.3313 46.5527
#
#
#
# Elastic Compliance Matrix: (Units=1/GPa)
#
#
# Indices 1 2 3 4 5 6 
#
# 1 0.007355 -0.002631 -0.001128 -0.002441 -0.000012 0.001903
# 2 -0.002631 0.008749 -0.001412 0.006419 -0.000255 0.000927
# 3 -0.001128 -0.001412 0.017674 0.010537 0.001643 0.009311
# 4 -0.002441 0.006419 0.010537 0.045691 -0.007269 0.019053
# 5 -0.000012 -0.000255 0.001643 -0.007269 0.032794 -0.012786
# 6 0.001903 0.000927 0.009311 0.019053 -0.012786 0.036127
#
#
# Mechanical properties :
#
#
# Convention : Reuss Voigt Hill
#
# Bulk Modulus (GPa) = 42.66985 70.05261 56.36123
# Shear Modulus (GPa) = 30.02187 43.45309 36.73748
#
# Velocity S-wave (km/s) = 3.45672 4.15868 3.82384
# Velocity P-wave (km/s) = 5.73714 7.13729 6.47517
#
# Compressibility (1/GPa) = 0.02343575
#
# Stress axis : x y z
#
# Youngs Moduli (GPa) = 135.95409 114.30049 56.57994
#
# Poissons Ratio (x) = 0.30075 0.06383
# Poissons Ratio (y) = 0.35773 0.07988
# Poissons Ratio (z) = 0.15339 0.16138
#
# Static dielectric constant tensor:
#      x y z
#    x 2.141650 0.515860 0.896610 
#    y 0.515860 3.647890 2.326500 
#    z 0.896610 2.326500 5.771130 
# 
# From -- ./inp_files/183634.got.cif
#   From: 2010.05.17/outbox.cif.g08.bks.cpg/sg2_92_cif.got.tgz:183634.got - 2010.06.03 11:33:40.
