data_PCOD9041080
_publ_section_title
;
Structure prediction by ZEFSAII (Michael W. Deem and Ramdas Pophale) SiO2 
 PCOD9041080
Probable space group: P -1
;
_chemical_formula_sum "Si O2"
_cell_formula_units_Z 16
_cell_length_a 12.206161
_cell_length_b 8.360232
_cell_length_c 9.721789
_cell_angle_alpha 113.867361
_cell_angle_beta 122.465994
_cell_angle_gamma 59.761998
_cell_volume 710.759035
_symmetry_space_group_name_H-M "P -1"
_symmetry_group_IT_number 2
_symmetry_cell_setting 'triclinic'
loop_
_space_group_symop_operation_xyz
x,y,z
-x,-y,-z
loop_
_atom_site_type_symbol
_atom_site_label
_atom_site_fract_x
_atom_site_fract_y
_atom_site_fract_z
Si Si1 0.940426 0.448010 0.622906
Si Si2 0.660608 0.073036 0.197643
Si Si3 0.836055 0.379159 0.089775
Si Si4 0.580679 0.725510 0.088366
Si Si5 0.660608 0.766357 0.462965
Si Si6 0.580678 0.193812 0.492313
Si Si7 0.940426 0.111564 0.317520
Si Si8 0.836055 0.284786 0.746280
O O1 0.818117 0.620722 0.528103
O O2 0.969367 0.265316 0.484684
O O3 0.878559 0.413934 0.714247
O O4 0.074742 0.497944 0.758349
O O5 0.588884 0.170620 0.325448
O O6 0.818117 0.061162 0.290013
O O7 0.650663 0.867862 0.122444
O O8 0.571890 0.194372 0.053372
O O9 0.674090 0.513986 0.036953
O O10 0.878559 0.207508 0.164312
O O11 0.872750 0.313625 0.936375
O O12 0.588884 0.740497 0.263437
O O13 0.571890 0.733738 0.518519
O O14 0.650663 0.981475 0.528220
O O15 0.674090 0.311925 0.637138
O O16 0.074742 0.927313 0.316393
#
# Coordination Sequence:
#
# PCOD9041080 Si02
#       8
#     2   2   2   2   2   2   2   2
#     4  12  25  45  70  97 130 178 223 270 328 391
#     4  10  23  43  70  98 130 175 216 271 325 396
#     4  12  27  44  67 100 135 173 219 277 328 387
#     4  10  23  44  68  97 134 172 218 266 333 388
#     4  10  23  43  70  98 130 175 216 271 325 396
#     4  10  23  44  68  97 134 172 218 266 333 388
#     4  12  25  45  70  97 130 178 223 270 328 391
#     4  12  27  44  67 100 135 173 219 277 328 387
#
# _framework density 22.511147000000001
#
# number of rings (size 3 to 8) (size 9 to 14) (size 15 to 20)
#    0.000    1.000    2.500    3.000    7.000    2.000 
#    4.500    0.000    0.000    0.000    0.000    0.000 
#    0.000    0.000    0.000    0.000    0.000    0.000 
#
# Total GULP energy -89644.030488 kJ/mol
# GULP energy per Si atom -5602.751905 kJ/mol
# Density = 2.245991 g / cm^3
# Si number density = 22.511147 Si / 1000 Ang^3
#
#
#
# Elastic Constant Matrix: (Units=GPa)
#
#
# Indices 1 2 3 4 5 6 
#
# 1 76.6413 -8.7934 6.6435 4.7517 -9.3312 7.1756
# 2 -8.7934 50.5444 3.4495 -11.9853 1.3462 -6.3042
# 3 6.6435 3.4495 83.7691 -10.2260 -19.3174 -0.7323
# 4 4.7517 -11.9853 -10.2260 31.6019 5.6202 -3.8307
# 5 -9.3312 1.3462 -19.3174 5.6202 39.8342 -6.1529
# 6 7.1756 -6.3042 -0.7323 -3.8307 -6.1529 27.9445
#
#
#
# Elastic Compliance Matrix: (Units=1/GPa)
#
#
# Indices 1 2 3 4 5 6 
#
# 1 0.014078 0.001403 -0.000909 -0.002738 0.002717 -0.003099
# 2 0.001403 0.023018 -0.000069 0.009372 -0.000890 0.005919
# 3 -0.000909 -0.000069 0.013979 0.003797 0.006422 0.002519
# 4 -0.002738 0.009372 0.003797 0.038340 -0.003378 0.007429
# 5 0.002717 -0.000890 0.006422 -0.003378 0.030204 0.005457
# 6 -0.003099 0.005919 0.002519 0.007429 0.005457 0.040202
#
#
# Mechanical properties :
#
#
# Convention : Reuss Voigt Hill
#
# Bulk Modulus (GPa) = 19.25807 23.72820 21.49314
# Shear Modulus (GPa) = 28.36406 33.85314 31.10860
#
# Velocity S-wave (km/s) = 3.55350 3.88214 3.72145
# Velocity P-wave (km/s) = 5.04083 5.53699 5.29472
#
# Compressibility (1/GPa) = 0.05192627
#
# Stress axis : x y z
#
# Youngs Moduli (GPa) = 71.03125 43.44457 71.53625
#
# Poissons Ratio (x) = -0.06096 0.06503
# Poissons Ratio (y) = -0.09967 0.00491
# Poissons Ratio (z) = 0.06457 0.00298
#
# Static dielectric constant tensor:
#      x y z
#    x 1.796960 0.026610 -0.011270 
#    y 0.026610 1.820400 -0.001340 
#    z -0.011270 -0.001340 1.796180 
# 
# From -- ./inp_files/242882.got.cif
#   From: 2010.05.17/outbox.cif.g08.bks.cpg/sg2_122_cif.got.tgz:242882.got - 2010.06.03 11:33:40.
