data_PCOD9041188
_publ_section_title
;
Structure prediction by ZEFSAII (Michael W. Deem and Ramdas Pophale) SiO2 
 PCOD9041188
Probable space group: P -1
;
_chemical_formula_sum "Si O2"
_cell_formula_units_Z 16
_cell_length_a 16.182706
_cell_length_b 15.508942
_cell_length_c 10.624761
_cell_angle_alpha 23.383982
_cell_angle_beta 44.204270
_cell_angle_gamma 35.326637
_cell_volume 605.991761
_symmetry_space_group_name_H-M "P -1"
_symmetry_group_IT_number 2
_symmetry_cell_setting 'triclinic'
loop_
_space_group_symop_operation_xyz
x,y,z
-x,-y,-z
loop_
_atom_site_type_symbol
_atom_site_label
_atom_site_fract_x
_atom_site_fract_y
_atom_site_fract_z
Si Si1 0.705467 0.701474 0.543150
Si Si2 0.059681 0.222158 0.241952
Si Si3 0.628761 0.130931 0.742664
Si Si4 0.225211 0.903823 0.137648
Si Si5 0.925149 0.391470 0.924191
Si Si6 0.462857 0.905810 0.358519
Si Si7 0.821647 0.914498 0.459368
Si Si8 0.160476 0.740786 0.191907
O O1 0.706562 0.961557 0.191941
O O2 0.779328 0.531991 0.814477
O O3 0.554708 0.768757 0.567615
O O4 0.808249 0.516133 0.564656
O O5 0.208755 0.109080 0.156523
O O6 0.102633 0.047665 0.554376
O O7 0.000000 0.500000 0.000000
O O8 0.941328 0.265574 0.213045
O O9 0.550955 0.252709 0.529940
O O10 0.672417 0.248838 0.649450
O O11 0.538805 0.034078 0.038825
O O12 0.066181 0.163583 0.000435
O O13 0.205956 0.720211 0.313207
O O14 0.922987 0.648632 0.624696
O O15 0.301853 0.103996 0.319252
O O16 0.754667 0.169373 0.104682
O O17 0.000000 0.000000 0.000000
#
# Coordination Sequence:
#
# PCOD9041188 Si02
#       8
#     2   2   2   2   2   2   2   2
#     4  11  21  34  57  85 111 150 188 226 283 340
#     4   8  16  30  56  85 111 141 184 238 282 325
#     4   8  16  34  60  82 110 153 188 225 283 336
#     4  10  19  37  59  85 112 143 186 244 283 332
#     4  10  17  33  57  82 111 142 183 233 289 326
#     4   9  19  35  56  85 115 151 194 226 272 341
#     4  10  20  35  55  83 116 150 188 235 275 333
#     4  12  23  36  58  87 114 147 190 235 292 335
#
# _framework density 26.402999999999999
#
# number of rings (size 3 to 8) (size 9 to 14) (size 15 to 20)
#    0.000    2.250    2.500    1.125    0.000    2.000 
#    0.000    1.250    0.000    0.000    0.000    0.000 
#    0.000    0.000    0.000    0.000    0.000    0.000 
#
# Total GULP energy -89278.881231 kJ/mol
# GULP energy per Si atom -5579.930077 kJ/mol
# Density = 2.634291 g / cm^3
# Si number density = 26.403000 Si / 1000 Ang^3
#
#
#
# Elastic Constant Matrix: (Units=GPa)
#
#
# Indices 1 2 3 4 5 6 
#
# 1 252.4217 21.8121 7.1100 7.6321 33.7433 22.0136
# 2 21.8121 80.3899 6.7663 14.9126 -3.5681 -9.2702
# 3 7.1100 6.7663 56.6014 1.4438 -8.6679 -2.0813
# 4 7.6321 14.9126 1.4438 22.9402 -2.8584 -2.8143
# 5 33.7433 -3.5681 -8.6679 -2.8584 28.0046 -2.4509
# 6 22.0136 -9.2702 -2.0813 -2.8143 -2.4509 46.5509
#
#
#
# Elastic Compliance Matrix: (Units=1/GPa)
#
#
# Indices 1 2 3 4 5 6 
#
# 1 0.005629 -0.001772 -0.001817 -0.002064 -0.008101 -0.003647
# 2 -0.001772 0.015073 -0.000737 -0.008327 0.003282 0.003476
# 3 -0.001817 -0.000737 0.019313 0.001168 0.008376 0.002088
# 4 -0.002064 -0.008327 0.001168 0.050865 0.007226 0.002825
# 5 -0.008101 0.003282 0.008376 0.007226 0.049911 0.007924
# 6 -0.003647 0.003476 0.002088 0.002825 0.007924 0.024580
#
#
# Mechanical properties :
#
#
# Convention : Reuss Voigt Hill
#
# Bulk Modulus (GPa) = 31.88310 51.19887 41.54098
# Shear Modulus (GPa) = 27.10337 43.08077 35.09207
#
# Velocity S-wave (km/s) = 3.20742 4.04377 3.64963
# Velocity P-wave (km/s) = 5.08119 6.42154 5.79028
#
# Compressibility (1/GPa) = 0.03136458
#
# Stress axis : x y z
#
# Youngs Moduli (GPa) = 177.64092 66.34213 51.77757
#
# Poissons Ratio (x) = 0.11754 0.09410
# Poissons Ratio (y) = 0.31474 0.03814
# Poissons Ratio (z) = 0.32284 0.04887
#
# Static dielectric constant tensor:
#      x y z
#    x 2.135340 0.009190 0.038100 
#    y 0.009190 2.098240 0.019610 
#    z 0.038100 0.019610 2.100120 
# 
# From -- ./inp_files/312616.got.cif
#   From: 2010.05.17/outbox.cif.g08.bks.cpg/sg2_157_cif.got.tgz:312616.got - 2010.06.03 11:33:40.
