data_PCOD9041732
_publ_section_title
;
Structure prediction by ZEFSAII (Michael W. Deem and Ramdas Pophale) SiO2 
 PCOD9041732
Probable space group: P -1
;
_chemical_formula_sum "Si O2"
_cell_formula_units_Z 12
_cell_length_a 5.371107
_cell_length_b 8.122797
_cell_length_c 14.577334
_cell_angle_alpha 82.332156
_cell_angle_beta 120.568001
_cell_angle_gamma 120.134445
_cell_volume 467.205366
_symmetry_space_group_name_H-M "P -1"
_symmetry_group_IT_number 2
_symmetry_cell_setting 'triclinic'
loop_
_space_group_symop_operation_xyz
x,y,z
-x,-y,-z
loop_
_atom_site_type_symbol
_atom_site_label
_atom_site_fract_x
_atom_site_fract_y
_atom_site_fract_z
Si Si1 0.515238 0.765579 0.436867
Si Si2 0.700099 0.913017 0.654083
Si Si3 0.867020 0.218372 0.945968
Si Si4 0.447494 0.756822 0.931815
Si Si5 0.634552 0.751334 0.259357
Si Si6 0.197291 0.570138 0.715032
O O1 0.697285 0.813356 0.564654
O O2 0.707704 0.766927 0.381066
O O3 0.170553 0.560405 0.387678
O O4 0.425732 0.934242 0.394194
O O5 0.451626 0.748254 0.687291
O O6 0.080259 0.050381 0.748176
O O7 0.717168 0.265085 0.825414
O O8 0.660305 0.986593 0.936186
O O9 0.758441 0.289517 0.009860
O O10 0.257696 0.293779 0.006577
O O11 0.201785 0.656053 0.808184
O O12 0.659263 0.574323 0.239786
#
# Coordination Sequence:
#
# PCOD9041732 Si02
#       6
#     2   2   2   2   2   2
#     4  10  23  44  66  99 135 180 231 284 346 414
#     4  10  23  44  68  95 138 181 227 287 346 412
#     4  10  24  43  70 101 139 184 233 282 348 418
#     4  10  24  43  70 102 137 186 231 284 348 414
#     4  11  25  40  69 101 135 180 230 285 347 413
#     4  11  25  40  69 102 136 179 231 285 347 411
#
# _framework density 25.684635
#
# number of rings (size 3 to 8) (size 9 to 14) (size 15 to 20)
#    0.000    1.667    0.000    2.000   14.000    3.333 
#    0.000    0.000    0.000    0.000    0.000    0.000 
#    0.000    0.000    0.000    0.000    0.000    0.000 
#
# Total GULP energy -67354.301811 kJ/mol
# GULP energy per Si atom -5612.858484 kJ/mol
# Density = 2.562618 g / cm^3
# Si number density = 25.684635 Si / 1000 Ang^3
#
#
#
# Elastic Constant Matrix: (Units=GPa)
#
#
# Indices 1 2 3 4 5 6 
#
# 1 90.3502 42.5953 10.6467 0.7783 -26.8615 0.2424
# 2 42.5953 145.1330 29.3415 11.1356 -15.2300 37.7682
# 3 10.6467 29.3415 78.0734 11.0853 -31.7465 -1.7726
# 4 0.7783 11.1356 11.0853 16.4844 -17.7536 -3.8191
# 5 -26.8615 -15.2300 -31.7465 -17.7536 30.1464 2.6498
# 6 0.2424 37.7682 -1.7726 -3.8191 2.6498 44.7508
#
#
#
# Elastic Compliance Matrix: (Units=1/GPa)
#
#
# Indices 1 2 3 4 5 6 
#
# 1 -0.022660 0.013871 -0.030853 -0.106286 -0.106901 -0.015547
# 2 0.013871 0.002475 0.013330 0.050264 0.057313 -0.000740
# 3 -0.030853 0.013330 -0.010587 -0.100656 -0.089885 -0.014770
# 4 -0.106286 0.050264 -0.100656 -0.262755 -0.325745 -0.048968
# 5 -0.106901 0.057313 -0.089885 -0.325745 -0.314297 -0.060541
# 6 -0.015547 -0.000740 -0.014770 -0.048968 -0.060541 0.021875
#
#
# Mechanical properties :
#
#
# Convention : Reuss Voigt Hill
#
# Bulk Modulus (GPa) = -26.26208 53.19152 13.46472
# Shear Modulus (GPa) = -8.45542 33.67453 12.60956
#
# Velocity S-wave (km/s) = -1.81636 3.62481 2.21812
# Velocity P-wave (km/s) = 3.82700 6.18655 3.43711
#
# Compressibility (1/GPa) = -0.03807771
#
# Stress axis : x y z
#
# Youngs Moduli (GPa) = -44.12974 404.11820 -94.45720
#
# Poissons Ratio (x) = -5.60552 -2.91431
# Poissons Ratio (y) = 0.61212 1.25909
# Poissons Ratio (z) = -1.36154 -5.38679
#
# Static dielectric constant tensor:
#      x y z
#    x 1.991220 -0.010330 0.008020 
#    y -0.010330 1.984980 -0.007380 
#    z 0.008020 -0.007380 1.977250 
# 
# From -- ./inp_files/31895.got.cif
#   From: 2010.05.17/outbox.cif.g08.bks.cpg/sg2_16_cif.got.tgz:31895.got - 2010.06.03 11:33:40.
