data_PCOD9041246
_publ_section_title
;
Structure prediction by ZEFSAII (Michael W. Deem and Ramdas Pophale) SiO2 
 PCOD9041246
Probable space group: P -1
;
_chemical_formula_sum "Si O2"
_cell_formula_units_Z 14
_cell_length_a 14.745900
_cell_length_b 9.823070
_cell_length_c 7.965259
_cell_angle_alpha 83.145645
_cell_angle_beta 63.321669
_cell_angle_gamma 37.071688
_cell_volume 557.001665
_symmetry_space_group_name_H-M "P -1"
_symmetry_group_IT_number 2
_symmetry_cell_setting 'triclinic'
loop_
_space_group_symop_operation_xyz
x,y,z
-x,-y,-z
loop_
_atom_site_type_symbol
_atom_site_label
_atom_site_fract_x
_atom_site_fract_y
_atom_site_fract_z
Si Si1 0.250371 0.292429 0.475564
Si Si2 0.420658 0.517760 0.828177
Si Si3 0.966128 0.735674 0.433310
Si Si4 0.916779 0.445124 0.084740
Si Si5 0.210845 0.799071 0.612856
Si Si6 0.125629 0.018553 0.187176
Si Si7 0.575119 0.804758 0.100580
O O1 0.115297 0.313545 0.562282
O O2 0.212885 0.410008 0.662775
O O3 0.178474 0.474387 0.359284
O O4 0.452603 0.999892 0.330283
O O5 0.283432 0.670237 0.754637
O O6 0.605259 0.386558 0.627064
O O7 0.463519 0.312514 0.874263
O O8 0.307026 0.724419 0.037470
O O9 0.869062 0.887578 0.671059
O O10 0.900726 0.931057 0.338330
O O11 0.789527 0.568626 0.011704
O O12 0.081852 0.155776 0.036930
O O13 0.000000 0.500000 0.000000
O O14 0.056404 0.871174 0.657755
O O15 0.500000 0.000000 0.000000
#
# Coordination Sequence:
#
# PCOD9041246 Si02
#       7
#     2   2   2   2   2   2   2
#     4  10  24  47  71  96 149 185 244 295 358 428
#     4  11  26  45  73 105 144 189 240 300 362 433
#     4  10  23  43  72 101 136 193 232 298 359 421
#     4  11  27  46  74 105 142 195 242 293 371 431
#     4  11  23  45  72 103 144 189 236 293 371 430
#     4  11  25  45  69 108 146 182 244 294 363 435
#     4  12  27  47  71 110 145 190 246 297 359 434
#
# _framework density 25.134574000000001
#
# number of rings (size 3 to 8) (size 9 to 14) (size 15 to 20)
#    0.000    1.143    2.857    1.286   10.000    0.571 
#    5.143    0.000    0.000    0.000    0.000    0.000 
#    0.000    0.000    0.000    0.000    0.000    0.000 
#
# Total GULP energy -78341.688797 kJ/mol
# GULP energy per Si atom -5595.834914 kJ/mol
# Density = 2.507737 g / cm^3
# Si number density = 25.134574 Si / 1000 Ang^3
#
#
#
# Elastic Constant Matrix: (Units=GPa)
#
#
# Indices 1 2 3 4 5 6 
#
# 1 71.6894 34.1251 29.7413 -5.1260 -1.6684 -8.7278
# 2 34.1251 197.4919 40.7480 -3.0944 4.7852 1.3167
# 3 29.7413 40.7480 75.9695 8.6164 21.5531 5.5419
# 4 -5.1260 -3.0944 8.6164 58.9314 -0.6582 2.1374
# 5 -1.6684 4.7852 21.5531 -0.6582 51.4353 1.4964
# 6 -8.7278 1.3167 5.5419 2.1374 1.4964 44.6392
#
#
#
# Elastic Compliance Matrix: (Units=1/GPa)
#
#
# Indices 1 2 3 4 5 6 
#
# 1 0.019065 -0.001650 -0.008405 0.002682 0.004196 0.004551
# 2 -0.001650 0.005909 -0.002732 0.000580 0.000555 -0.000204
# 3 -0.008405 -0.002732 0.021137 -0.003929 -0.008818 -0.003703
# 4 0.002682 0.000580 -0.003929 0.017826 0.001905 0.000078
# 5 0.004196 0.000555 -0.008818 0.001905 0.023216 0.001029
# 6 0.004551 -0.000204 -0.003703 0.000078 0.001029 0.023719
#
#
# Mechanical properties :
#
#
# Convention : Reuss Voigt Hill
#
# Bulk Modulus (GPa) = 48.69412 61.59773 55.14593
# Shear Modulus (GPa) = 34.89386 47.03694 40.96540
#
# Velocity S-wave (km/s) = 3.73001 4.33067 4.04151
# Velocity P-wave (km/s) = 6.16166 7.04035 6.61561
#
# Compressibility (1/GPa) = 0.02053636
#
# Stress axis : x y z
#
# Youngs Moduli (GPa) = 52.45194 169.22548 47.31119
#
# Poissons Ratio (x) = 0.27922 0.39767
# Poissons Ratio (y) = 0.08655 0.12925
# Poissons Ratio (z) = 0.44088 0.46231
#
# Static dielectric constant tensor:
#      x y z
#    x 1.969340 -0.052770 -0.007850 
#    y -0.052770 2.009060 -0.038310 
#    z -0.007850 -0.038310 2.119090 
# 
# From -- ./inp_files/159410.got.cif
#   From: 2010.05.17/outbox.cif.g08.bks.cpg/sg2_80_cif.got.tgz:159410.got - 2010.06.03 11:33:40.
