data_PCOD9041138
_publ_section_title
;
Structure prediction by ZEFSAII (Michael W. Deem and Ramdas Pophale) SiO2 
 PCOD9041138
Probable space group: P -1
;
_chemical_formula_sum "Si O2"
_cell_formula_units_Z 16
_cell_length_a 9.015060
_cell_length_b 17.588063
_cell_length_c 13.724127
_cell_angle_alpha 141.022776
_cell_angle_beta 150.886560
_cell_angle_gamma 40.294971
_cell_volume 640.664998
_symmetry_space_group_name_H-M "P -1"
_symmetry_group_IT_number 2
_symmetry_cell_setting 'triclinic'
loop_
_space_group_symop_operation_xyz
x,y,z
-x,-y,-z
loop_
_atom_site_type_symbol
_atom_site_label
_atom_site_fract_x
_atom_site_fract_y
_atom_site_fract_z
Si Si1 0.385352 0.713769 0.489256
Si Si2 0.310035 0.247313 0.804167
Si Si3 0.847376 0.082840 0.590072
Si Si4 0.740460 0.014983 0.777330
Si Si5 0.794213 0.501663 0.104952
Si Si6 0.172554 0.542741 0.548533
Si Si7 0.727302 0.199193 0.175651
Si Si8 0.209524 0.229479 0.061865
O O1 0.317170 0.782812 0.416932
O O2 0.499516 0.564956 0.386883
O O3 0.667448 0.762234 0.749288
O O4 0.056269 0.751343 0.398331
O O5 0.570001 0.158694 0.792258
O O6 0.298873 0.391420 0.923286
O O7 0.465252 0.184693 0.931828
O O8 0.565645 0.032375 0.420524
O O9 0.000000 0.000000 0.500000
O O10 0.092175 0.111836 0.838931
O O11 0.973198 0.916189 0.742361
O O12 0.000000 0.000000 0.000000
O O13 0.018466 0.541199 0.352078
O O14 0.955714 0.361023 0.024845
O O15 0.500000 0.500000 0.000000
O O16 0.168146 0.686766 0.699330
O O17 0.000000 0.500000 0.500000
O O18 0.517728 0.236456 0.186545
#
# Coordination Sequence:
#
# PCOD9041138 Si02
#       8
#     2   2   2   2   2   2   2   2
#     4  11  24  44  71 103 142 184 237 294 352 421
#     4  11  22  44  70 101 139 189 236 288 359 416
#     4  12  23  46  74 103 143 187 238 289 353 425
#     4  10  23  43  71 102 140 187 235 288 349 423
#     4  11  26  43  68 104 144 177 240 298 351 429
#     4  11  24  41  67 102 138 187 233 298 358 415
#     4  11  22  41  71 101 142 189 237 293 353 421
#     4  11  26  45  70 110 139 185 238 294 359 420
#
# _framework density 24.974049999999998
#
# number of rings (size 3 to 8) (size 9 to 14) (size 15 to 20)
#    0.000    1.000    2.500    3.750    5.250    6.500 
#    0.000    3.750    0.000    0.000    0.000    0.000 
#    0.000    0.000    0.000    0.000    0.000    0.000 
#
# Total GULP energy -89374.830151 kJ/mol
# GULP energy per Si atom -5585.926884 kJ/mol
# Density = 2.491721 g / cm^3
# Si number density = 24.974050 Si / 1000 Ang^3
#
#
#
# Elastic Constant Matrix: (Units=GPa)
#
#
# Indices 1 2 3 4 5 6 
#
# 1 60.4605 32.0076 18.9062 -4.3227 8.2895 -19.4766
# 2 32.0076 132.7594 41.8645 -16.4982 9.1917 -40.7186
# 3 18.9062 41.8645 123.5946 5.2399 -7.0086 -2.5602
# 4 -4.3227 -16.4982 5.2399 30.4308 1.0177 4.7846
# 5 8.2895 9.1917 -7.0086 1.0177 39.9306 -7.7865
# 6 -19.4766 -40.7186 -2.5602 4.7846 -7.7865 47.5922
#
#
#
# Elastic Compliance Matrix: (Units=1/GPa)
#
#
# Indices 1 2 3 4 5 6 
#
# 1 0.020902 -0.001915 -0.002670 0.001541 -0.003219 0.006090
# 2 -0.001915 0.013081 -0.004304 0.006160 -0.001717 0.009276
# 3 -0.002670 -0.004304 0.010217 -0.004036 0.002785 -0.003364
# 4 0.001541 0.006160 -0.004036 0.036990 -0.003105 0.001457
# 5 -0.003219 -0.001717 0.002785 -0.003105 0.027086 0.002107
# 6 0.006090 0.009276 -0.003364 0.001457 0.002107 0.031458
#
#
# Mechanical properties :
#
#
# Convention : Reuss Voigt Hill
#
# Bulk Modulus (GPa) = 37.84955 55.81900 46.83428
# Shear Modulus (GPa) = 30.06265 38.52646 34.29455
#
# Velocity S-wave (km/s) = 3.47328 3.93193 3.70970
# Velocity P-wave (km/s) = 5.59226 6.55841 6.09451
#
# Compressibility (1/GPa) = 0.02642039
#
# Stress axis : x y z
#
# Youngs Moduli (GPa) = 47.84241 76.44707 97.87800
#
# Poissons Ratio (x) = 0.14639 0.26137
# Poissons Ratio (y) = 0.09162 0.42130
# Poissons Ratio (z) = 0.12776 0.32905
#
# Static dielectric constant tensor:
#      x y z
#    x 3.600050 -0.021360 -0.036290 
#    y -0.021360 1.998740 0.078590 
#    z -0.036290 0.078590 2.084390 
# 
# From -- ./inp_files/507313.got.cif
#   From: 2010.05.17/outbox.cif.g08.bks.cpg/sg2_254_cif.got.tgz:507313.got - 2010.06.03 11:33:40.
