data_PCOD9041101
_publ_section_title
;
Structure prediction by ZEFSAII (Michael W. Deem and Ramdas Pophale) SiO2 
 PCOD9041101
Probable space group: P -1
;
_chemical_formula_sum "Si O2"
_cell_formula_units_Z 11
_cell_length_a 10.130390
_cell_length_b 11.280265
_cell_length_c 7.596279
_cell_angle_alpha 134.268837
_cell_angle_beta 140.734487
_cell_angle_gamma 52.840322
_cell_volume 389.518586
_symmetry_space_group_name_H-M "P -1"
_symmetry_group_IT_number 2
_symmetry_cell_setting 'triclinic'
loop_
_space_group_symop_operation_xyz
x,y,z
-x,-y,-z
loop_
_atom_site_type_symbol
_atom_site_label
_atom_site_fract_x
_atom_site_fract_y
_atom_site_fract_z
Si Si1 0.714357 0.173751 0.968652
Si Si2 0.000000 0.500000 0.500000
Si Si3 0.668856 0.317598 0.534192
Si Si4 0.723269 0.535573 0.519265
Si Si5 0.063737 0.967652 0.301926
Si Si6 0.317092 0.259820 0.817036
O O1 0.754045 0.369757 0.246203
O O2 0.831432 0.114962 0.852863
O O3 0.467196 0.179909 0.731626
O O4 0.825695 0.044274 0.093833
O O5 0.880154 0.630129 0.670061
O O6 0.830806 0.587159 0.264175
O O7 0.774735 0.459243 0.686333
O O8 0.514404 0.373416 0.599154
O O9 0.846494 0.165826 0.599719
O O10 0.495590 0.284002 0.171724
O O11 0.176819 0.131431 0.615699
#
# Coordination Sequence:
#
# PCOD9041101 Si02
#       6
#     2   1   2   2   2   2
#     4  10  23  43  70  99 140 181 231 271 349 401
#     4  12  24  44  68  98 140 176 242 268 332 422
#     4  10  24  44  72 101 143 173 228 288 350 396
#     4  10  23  45  66 104 131 187 223 279 341 405
#     4  11  22  45  68 106 132 182 229 284 339 415
#     4  11  24  43  68 104 134 185 224 288 338 410
#
# _framework density 28.239986999999999
#
# number of rings (size 3 to 8) (size 9 to 14) (size 15 to 20)
#    0.000    1.455    1.818    2.182    0.000   11.636 
#    3.273    0.000    0.000    0.000    0.000    0.000 
#    0.000    0.000    0.000    0.000    0.000    0.000 
#
# Total GULP energy -61332.713313 kJ/mol
# GULP energy per Si atom -5575.701210 kJ/mol
# Density = 2.817571 g / cm^3
# Si number density = 28.239987 Si / 1000 Ang^3
#
#
#
# Elastic Constant Matrix: (Units=GPa)
#
#
# Indices 1 2 3 4 5 6 
#
# 1 156.7066 20.2931 45.4612 -18.0848 -12.3449 -28.2584
# 2 20.2931 193.1626 65.2497 -60.1191 6.6480 -3.3875
# 3 45.4612 65.2497 92.8570 -31.3837 -0.7975 -8.3716
# 4 -18.0848 -60.1191 -31.3837 48.7296 -6.6054 -5.7970
# 5 -12.3449 6.6480 -0.7975 -6.6054 53.5437 -5.6535
# 6 -28.2584 -3.3875 -8.3716 -5.7970 -5.6535 45.4902
#
#
#
# Elastic Compliance Matrix: (Units=1/GPa)
#
#
# Indices 1 2 3 4 5 6 
#
# 1 0.008974 0.001501 -0.003535 0.004009 0.002949 0.005913
# 2 0.001501 0.009475 -0.003728 0.010207 0.000619 0.002330
# 3 -0.003535 -0.003728 0.017061 0.005345 0.000713 0.001436
# 4 0.004009 0.010207 0.005345 0.040016 0.005734 0.010046
# 5 0.002949 0.000619 0.000713 0.005734 0.020556 0.005295
# 6 0.005913 0.002330 0.001436 0.010046 0.005295 0.028032
#
#
# Mechanical properties :
#
#
# Convention : Reuss Voigt Hill
#
# Bulk Modulus (GPa) = 41.68927 78.30378 59.99653
# Shear Modulus (GPa) = 34.81105 50.33418 42.57261
#
# Velocity S-wave (km/s) = 3.51477 4.22640 3.88690
# Velocity P-wave (km/s) = 5.59160 7.18364 6.43703
#
# Compressibility (1/GPa) = 0.02398699
#
# Stress axis : x y z
#
# Youngs Moduli (GPa) = 111.43694 105.54392 58.61207
#
# Poissons Ratio (x) = -0.15846 0.20719
# Poissons Ratio (y) = -0.16730 0.21849
# Poissons Ratio (z) = 0.39392 0.39345
#
# Static dielectric constant tensor:
#      x y z
#    x 1.337700 -0.388970 -0.551130 
#    y -0.388970 2.043780 -0.026480 
#    z -0.551130 -0.026480 2.096580 
# 
# From -- ./inp_files/195734.got.cif
#   From: 2010.05.17/outbox.cif.g08.bks.cpg/sg2_98_cif.got.tgz:195734.got - 2010.06.03 11:33:40.
