data_PCOD9041665
_publ_section_title
;
Structure prediction by ZEFSAII (Michael W. Deem and Ramdas Pophale) SiO2 
 PCOD9041665
Probable space group: P -1
;
_chemical_formula_sum "Si O2"
_cell_formula_units_Z 16
_cell_length_a 11.665369
_cell_length_b 21.227813
_cell_length_c 5.066493
_cell_angle_alpha 62.552402
_cell_angle_beta 55.444599
_cell_angle_gamma 36.089977
_cell_volume 608.647260
_symmetry_space_group_name_H-M "P -1"
_symmetry_group_IT_number 2
_symmetry_cell_setting 'triclinic'
loop_
_space_group_symop_operation_xyz
x,y,z
-x,-y,-z
loop_
_atom_site_type_symbol
_atom_site_label
_atom_site_fract_x
_atom_site_fract_y
_atom_site_fract_z
Si Si1 0.953144 0.438744 0.792071
Si Si2 0.839311 0.842799 0.762799
Si Si3 0.785979 0.270887 0.121927
Si Si4 0.518795 0.368877 0.806690
Si Si5 0.427364 0.814898 0.790420
Si Si6 0.933856 0.972129 0.876794
Si Si7 0.397087 0.943237 0.227194
Si Si8 0.852111 0.706235 0.679582
O O1 0.009184 0.368664 0.605468
O O2 0.000000 0.500000 0.500000
O O3 0.717251 0.516522 0.053542
O O4 0.094267 0.363664 0.003869
O O5 0.886416 0.774015 0.591041
O O6 0.025557 0.769323 0.870189
O O7 0.773132 0.948948 0.578087
O O8 0.621768 0.893552 0.057609
O O9 0.677402 0.343961 0.859872
O O10 0.886676 0.157300 0.110194
O O11 0.603217 0.337266 0.457875
O O12 0.517055 0.287144 0.051347
O O13 0.434971 0.847134 0.431661
O O14 0.611829 0.785643 0.759369
O O15 0.190536 0.925131 0.968060
O O16 0.728749 0.005355 0.977649
O O17 0.000000 0.000000 0.500000
#
# Coordination Sequence:
#
# PCOD9041665 Si02
#       8
#     2   2   2   2   2   2   2   2
#     4  12  27  47  77 108 140 178 246 309 371 418
#     4  10  24  48  70 100 151 196 246 281 348 431
#     4  11  27  45  69 103 150 198 231 290 356 430
#     4  12  27  47  72 106 146 185 243 306 366 418
#     4  12  25  39  76 107 150 182 241 294 372 424
#     4  11  22  39  65 107 150 184 232 288 362 438
#     4  10  23  44  66 106 146 198 239 287 343 438
#     4  12  26  47  75 110 138 189 239 305 358 417
#
# _framework density 26.287803
#
# number of rings (size 3 to 8) (size 9 to 14) (size 15 to 20)
#    0.000    0.750    3.750    2.625    5.250    3.500 
#    2.250    3.750    0.000    0.000    0.000    0.000 
#    0.000    0.000    0.000    0.000    0.000    0.000 
#
# Total GULP energy -89496.379997 kJ/mol
# GULP energy per Si atom -5593.523750 kJ/mol
# Density = 2.622797 g / cm^3
# Si number density = 26.287803 Si / 1000 Ang^3
#
#
#
# Elastic Constant Matrix: (Units=GPa)
#
#
# Indices 1 2 3 4 5 6 
#
# 1 54.8312 9.0868 -0.4990 31.1051 12.2448 9.4755
# 2 9.0868 118.7307 43.1970 44.3268 17.2731 -8.9527
# 3 -0.4990 43.1970 98.6760 27.4032 34.2799 5.4460
# 4 31.1051 44.3268 27.4032 58.9825 -0.0517 3.3585
# 5 12.2448 17.2731 34.2799 -0.0517 45.5155 8.4862
# 6 9.4755 -8.9527 5.4460 3.3585 8.4862 51.1959
#
#
#
# Elastic Compliance Matrix: (Units=1/GPa)
#
#
# Indices 1 2 3 4 5 6 
#
# 1 0.044713 0.008453 0.016598 -0.037580 -0.027493 -0.001541
# 2 0.008453 0.015266 0.001130 -0.016673 -0.009623 0.003674
# 3 0.016598 0.001130 0.023133 -0.020352 -0.022283 -0.000306
# 4 -0.037580 -0.016673 -0.020352 0.058960 0.032398 -0.003033
# 5 -0.027493 -0.009623 -0.022283 0.032398 0.050725 -0.004757
# 6 -0.001541 0.003674 -0.000306 -0.003033 -0.004757 0.021481
#
#
# Mechanical properties :
#
#
# Convention : Reuss Voigt Hill
#
# Bulk Modulus (GPa) = 7.38147 41.75639 24.56893
# Shear Modulus (GPa) = 24.14612 45.83566 34.99089
#
# Velocity S-wave (km/s) = 3.03401 4.18018 3.65234
# Velocity P-wave (km/s) = 3.88429 6.26238 5.21081
#
# Compressibility (1/GPa) = 0.13547435
#
# Stress axis : x y z
#
# Youngs Moduli (GPa) = 22.36506 65.50531 43.22751
#
# Poissons Ratio (x) = -0.55371 -0.71749
# Poissons Ratio (y) = -0.18905 -0.04886
# Poissons Ratio (z) = -0.37122 -0.07404
#
# Static dielectric constant tensor:
#      x y z
#    x 2.225380 0.032030 -0.016770 
#    y 0.032030 2.008510 0.043250 
#    z -0.016770 0.043250 2.168380 
# 
# From -- ./inp_files/84281.got.cif
#   From: 2010.05.17/outbox.cif.g08.bks.cpg/sg2_43_cif.got.tgz:84281.got - 2010.06.03 11:33:40.
