data_PCOD9041008
_publ_section_title
;
Structure prediction by ZEFSAII (Michael W. Deem and Ramdas Pophale) SiO2 
 PCOD9041008
Probable space group: P -1
;
_chemical_formula_sum "Si O2"
_cell_formula_units_Z 16
_cell_length_a 7.731277
_cell_length_b 13.319310
_cell_length_c 7.973800
_cell_angle_alpha 62.619009
_cell_angle_beta 118.527564
_cell_angle_gamma 97.291119
_cell_volume 636.049377
_symmetry_space_group_name_H-M "P -1"
_symmetry_group_IT_number 2
_symmetry_cell_setting 'triclinic'
loop_
_space_group_symop_operation_xyz
x,y,z
-x,-y,-z
loop_
_atom_site_type_symbol
_atom_site_label
_atom_site_fract_x
_atom_site_fract_y
_atom_site_fract_z
Si Si1 0.469949 0.042094 0.177346
Si Si2 0.534180 0.433060 0.740667
Si Si3 0.162880 0.782376 0.510771
Si Si4 0.608448 0.832428 0.613478
Si Si5 0.186448 0.406691 0.197184
Si Si6 0.878384 0.615395 0.417861
Si Si7 0.916467 0.004761 0.143287
Si Si8 0.226012 0.782534 0.908489
O O1 0.371020 0.094984 0.263972
O O2 0.601268 0.139122 0.110751
O O3 0.596675 0.923541 0.385339
O O4 0.307130 0.022040 0.978673
O O5 0.500000 0.500000 0.500000
O O6 0.628806 0.525879 0.822677
O O7 0.340721 0.384221 0.761907
O O8 0.694385 0.325037 0.862723
O O9 0.384804 0.792073 0.542146
O O10 0.173696 0.734078 0.741355
O O11 0.020259 0.713765 0.385116
O O12 0.047598 0.908225 0.380631
O O13 0.765608 0.719912 0.758294
O O14 0.171234 0.387148 0.405214
O O15 0.000000 0.500000 0.000000
O O16 0.000000 0.500000 0.500000
O O17 0.924751 0.126192 0.137767
O O18 0.000000 0.000000 0.000000
#
# Coordination Sequence:
#
# PCOD9041008 Si02
#       8
#     2   2   2   2   2   2   2   2
#     4  10  23  43  70 104 142 188 234 297 361 422
#     4  10  24  45  69 101 136 184 234 292 355 416
#     4  11  24  45  68 106 143 186 236 295 359 425
#     4  10  23  45  71 102 148 185 235 297 364 423
#     4  11  25  44  71 100 137 191 235 292 354 425
#     4  11  25  42  69 100 135 181 234 291 350 419
#     4  12  25  39  67 103 141 184 236 290 359 417
#     4  11  25  44  69 101 142 188 238 292 355 429
#
# _framework density 25.155280999999999
#
# number of rings (size 3 to 8) (size 9 to 14) (size 15 to 20)
#    0.000    1.250    1.250    3.000    5.250    7.000 
#    0.000    4.375    0.000    0.000    0.000    0.000 
#    0.000    0.000    0.000    0.000    0.000    0.000 
#
# Total GULP energy -89497.189442 kJ/mol
# GULP energy per Si atom -5593.574340 kJ/mol
# Density = 2.509803 g / cm^3
# Si number density = 25.155281 Si / 1000 Ang^3
#
#
#
# Elastic Constant Matrix: (Units=GPa)
#
#
# Indices 1 2 3 4 5 6 
#
# 1 67.2351 35.2287 4.5570 -3.0775 10.4765 15.9293
# 2 35.2287 153.8243 28.5712 -28.5020 19.8328 9.8755
# 3 4.5570 28.5712 97.6037 -35.7691 7.5142 -7.3782
# 4 -3.0775 -28.5020 -35.7691 48.8187 -7.5551 17.3323
# 5 10.4765 19.8328 7.5142 -7.5551 37.7231 1.0401
# 6 15.9293 9.8755 -7.3782 17.3323 1.0401 56.8054
#
#
#
# Elastic Compliance Matrix: (Units=1/GPa)
#
#
# Indices 1 2 3 4 5 6 
#
# 1 0.018247 -0.003446 0.000209 0.000435 -0.003084 -0.004567
# 2 -0.003446 0.008743 -0.000609 0.004780 -0.002505 -0.002045
# 3 0.000209 -0.000609 0.014173 0.010432 -0.000436 -0.001287
# 4 0.000435 0.004780 0.010432 0.035012 0.002585 -0.010328
# 5 -0.003084 -0.002505 -0.000436 0.002585 0.029289 -0.000081
# 6 -0.004567 -0.002045 -0.001287 -0.010328 -0.000081 0.022226
#
#
# Mechanical properties :
#
#
# Convention : Reuss Voigt Hill
#
# Bulk Modulus (GPa) = 29.87642 50.59745 40.23694
# Shear Modulus (GPa) = 34.12028 45.35652 39.73840
#
# Velocity S-wave (km/s) = 3.68691 4.25085 3.97889
# Velocity P-wave (km/s) = 5.47969 6.65212 6.09417
#
# Compressibility (1/GPa) = 0.03347121
#
# Stress axis : x y z
#
# Youngs Moduli (GPa) = 54.80279 114.37608 70.55576
#
# Poissons Ratio (x) = 0.39416 -0.01471
# Poissons Ratio (y) = 0.18886 0.04293
# Poissons Ratio (z) = -0.01143 0.06960
#
# Static dielectric constant tensor:
#      x y z
#    x 2.051390 0.039870 -0.024440 
#    y 0.039870 1.971390 0.075960 
#    z -0.024440 0.075960 1.902970 
# 
# From -- ./inp_files/185340.got.cif
#   From: 2010.05.17/outbox.cif.g08.bks.cpg/sg2_93_cif.got.tgz:185340.got - 2010.06.03 11:33:40.
