data_PCOD9041955
_publ_section_title
;
Structure prediction by ZEFSAII (Michael W. Deem and Ramdas Pophale) SiO2 
 PCOD9041955
Probable space group: P -1
;
_chemical_formula_sum "Si O2"
_cell_formula_units_Z 14
_cell_length_a 11.890538
_cell_length_b 6.562484
_cell_length_c 11.404395
_cell_angle_alpha 97.163610
_cell_angle_beta 47.338810
_cell_angle_gamma 105.349815
_cell_volume 629.187047
_symmetry_space_group_name_H-M "P -1"
_symmetry_group_IT_number 2
_symmetry_cell_setting 'triclinic'
loop_
_space_group_symop_operation_xyz
x,y,z
-x,-y,-z
loop_
_atom_site_type_symbol
_atom_site_label
_atom_site_fract_x
_atom_site_fract_y
_atom_site_fract_z
Si Si1 0.277740 0.500010 0.717998
Si Si2 0.474660 0.206306 0.597141
Si Si3 0.248264 0.468279 0.198539
Si Si4 0.400656 0.895019 0.258096
Si Si5 0.001406 0.411561 0.749710
Si Si6 0.839489 0.846616 0.556350
Si Si7 0.662333 0.292491 0.055938
O O1 0.309865 0.268669 0.697994
O O2 0.391284 0.606347 0.540152
O O3 0.104341 0.501121 0.796313
O O4 0.331375 0.629171 0.809027
O O5 0.509844 0.186599 0.706249
O O6 0.500000 0.000000 0.500000
O O7 0.303457 0.696716 0.238954
O O8 0.247971 0.290494 0.281310
O O9 0.068716 0.432812 0.273278
O O10 0.351107 0.515911 0.009568
O O11 0.275075 0.018740 0.403875
O O12 0.530932 0.077968 0.115057
O O13 0.108284 0.301898 0.586702
O O14 0.835599 0.260686 0.899348
O O15 0.000000 0.000000 0.500000
#
# Coordination Sequence:
#
# PCOD9041955 Si02
#       7
#     2   2   2   2   2   2   2
#     4  11  23  45  68  97 132 182 225 273 337 399
#     4  11  24  42  70  98 131 176 228 278 332 390
#     4  10  25  43  69  98 139 176 216 285 337 390
#     4  12  24  44  70 100 138 171 233 276 330 407
#     4  10  23  44  68  94 138 172 221 279 330 395
#     4  12  24  43  70 102 130 179 229 270 340 401
#     4  10  24  44  67 100 139 179 217 276 344 395
#
# _framework density 22.250934999999998
#
# number of rings (size 3 to 8) (size 9 to 14) (size 15 to 20)
#    0.857    0.286    2.857    3.000    6.000    0.571 
#    5.143    0.714    0.000    0.000    0.000    0.000 
#    0.000    0.000    0.000    0.000    0.000    0.000 
#
# Total GULP energy -78147.764686 kJ/mol
# GULP energy per Si atom -5581.983192 kJ/mol
# Density = 2.220029 g / cm^3
# Si number density = 22.250935 Si / 1000 Ang^3
#
#
#
# Elastic Constant Matrix: (Units=GPa)
#
#
# Indices 1 2 3 4 5 6 
#
# 1 83.2435 36.3212 13.0832 7.0341 -2.8684 -4.3533
# 2 36.3212 63.8028 13.0026 -10.5020 8.4427 -2.0157
# 3 13.0832 13.0026 67.5728 -18.8437 9.7808 -0.0433
# 4 7.0341 -10.5020 -18.8437 29.2943 8.0080 0.8723
# 5 -2.8684 8.4427 9.7808 8.0080 32.1549 2.1192
# 6 -4.3533 -2.0157 -0.0433 0.8723 2.1192 28.8440
#
#
#
# Elastic Compliance Matrix: (Units=1/GPa)
#
#
# Indices 1 2 3 4 5 6 
#
# 1 0.023256 -0.016767 -0.009456 -0.021737 0.014641 0.001906
# 2 -0.016767 0.030088 0.006602 0.023795 -0.017339 0.000136
# 3 -0.009456 0.006602 0.024679 0.024975 -0.016271 -0.000489
# 4 -0.021737 0.023795 0.024975 0.073270 -0.033945 -0.001302
# 5 0.014641 -0.017339 -0.016271 -0.033945 0.050474 -0.001708
# 6 0.001906 0.000136 -0.000489 -0.001302 -0.001708 0.035131
#
#
# Mechanical properties :
#
#
# Convention : Reuss Voigt Hill
#
# Bulk Modulus (GPa) = 25.78559 37.71480 31.75020
# Shear Modulus (GPa) = 17.29710 28.20610 22.75160
#
# Velocity S-wave (km/s) = 2.79115 3.56425 3.20113
# Velocity P-wave (km/s) = 4.69053 5.82452 5.28801
#
# Compressibility (1/GPa) = 0.03878135
#
# Stress axis : x y z
#
# Youngs Moduli (GPa) = 42.99986 33.23561 40.52069
#
# Poissons Ratio (x) = 0.55726 0.38316
# Poissons Ratio (y) = 0.72098 -0.26753
# Poissons Ratio (z) = 0.40661 -0.21943
#
# Static dielectric constant tensor:
#      x y z
#    x 1.857110 -0.015380 0.001710 
#    y -0.015380 1.829370 0.006490 
#    z 0.001710 0.006490 1.839070 
# 
# From -- ./inp_files/410693.got.cif
#   From: 2010.05.17/outbox.cif.g08.bks.cpg/sg2_206_cif.got.tgz:410693.got - 2010.06.03 11:33:40.
