data_PCOD9041719
_publ_section_title
;
Structure prediction by ZEFSAII (Michael W. Deem and Ramdas Pophale) SiO2 
 PCOD9041719
Probable space group: P -1
;
_chemical_formula_sum "Si O2"
_cell_formula_units_Z 15
_cell_length_a 6.047890
_cell_length_b 16.257087
_cell_length_c 6.770936
_cell_angle_alpha 88.273764
_cell_angle_beta 111.227757
_cell_angle_gamma 97.105579
_cell_volume 615.711898
_symmetry_space_group_name_H-M "P -1"
_symmetry_group_IT_number 2
_symmetry_cell_setting 'triclinic'
loop_
_space_group_symop_operation_xyz
x,y,z
-x,-y,-z
loop_
_atom_site_type_symbol
_atom_site_label
_atom_site_fract_x
_atom_site_fract_y
_atom_site_fract_z
Si Si1 0.872545 0.561896 0.090328
Si Si2 0.930788 0.894933 0.227005
Si Si3 0.324604 0.677884 0.206909
Si Si4 0.151932 0.819124 0.918678
Si Si5 0.316060 0.198321 0.484029
Si Si6 0.614360 0.073640 0.362609
Si Si7 0.529886 0.507750 0.278440
Si Si8 0.500000 0.000000 0.000000
O O1 0.634823 0.565087 0.882555
O O2 0.791107 0.516377 0.269964
O O3 0.000000 0.500000 0.000000
O O4 0.052592 0.643459 0.179311
O O5 0.768239 0.831342 0.322353
O O6 0.142532 0.930019 0.443196
O O7 0.763892 0.959413 0.086613
O O8 0.049175 0.850647 0.086882
O O9 0.484532 0.723600 0.427398
O O10 0.445106 0.597228 0.194744
O O11 0.298914 0.743749 0.021648
O O12 0.926750 0.789596 0.709582
O O13 0.321854 0.891894 0.849760
O O14 0.445751 0.132164 0.406102
O O15 0.487950 0.987739 0.247878
O O16 0.500000 0.500000 0.500000
#
# Coordination Sequence:
#
# PCOD9041719 Si02
#       8
#     2   2   2   2   2   2   2   1
#     4   9  22  44  64  99 134 169 219 271 318 397
#     4  11  25  46  66  99 137 170 228 279 326 407
#     4  11  24  41  71  98 131 181 219 272 340 391
#     4  11  25  45  67  97 138 170 225 281 329 393
#     4  11  25  45  67  99 135 173 226 278 330 397
#     4  11  25  46  66 100 133 174 225 280 327 406
#     4  10  23  44  66  98 138 172 221 273 327 397
#     4  12  24  44  72  94 134 188 212 276 352 380
#
# _framework density 24.362045999999999
#
# number of rings (size 3 to 8) (size 9 to 14) (size 15 to 20)
#    0.000    1.333    2.667    1.200    3.733    3.200 
#    4.800    0.000    0.000    0.000    0.000    0.000 
#    0.000    0.000    0.000    0.000    0.000    0.000 
#
# Total GULP energy -83727.912088 kJ/mol
# GULP energy per Si atom -5581.860806 kJ/mol
# Density = 2.430660 g / cm^3
# Si number density = 24.362046 Si / 1000 Ang^3
#
#
#
# Elastic Constant Matrix: (Units=GPa)
#
#
# Indices 1 2 3 4 5 6 
#
# 1 114.2691 45.1789 72.4207 -0.5432 -5.6979 13.6804
# 2 45.1789 73.9887 45.0666 0.6016 3.0891 1.8143
# 3 72.4207 45.0666 155.3585 6.4860 8.7380 11.2071
# 4 -0.5432 0.6016 6.4860 31.7071 -3.1412 13.7989
# 5 -5.6979 3.0891 8.7380 -3.1412 70.9678 1.2234
# 6 13.6804 1.8143 11.2071 13.7989 1.2234 49.2391
#
#
#
# Elastic Compliance Matrix: (Units=1/GPa)
#
#
# Indices 1 2 3 4 5 6 
#
# 1 0.015048 -0.006011 -0.005270 0.003311 0.002330 -0.003746
# 2 -0.006011 0.018837 -0.002703 -0.000813 -0.001038 0.001845
# 3 -0.005270 -0.002703 0.009862 -0.002207 -0.001617 -0.000022
# 4 0.003311 -0.000813 -0.002207 0.037008 0.002397 -0.010818
# 5 0.002330 -0.001038 -0.001617 0.002397 0.014650 -0.001277
# 6 -0.003746 0.001845 -0.000022 -0.010818 -0.001277 0.024350
#
#
# Mechanical properties :
#
#
# Convention : Reuss Voigt Hill
#
# Bulk Modulus (GPa) = 63.37464 74.32762 68.85113
# Shear Modulus (GPa) = 32.68302 42.44612 37.56457
#
# Velocity S-wave (km/s) = 3.66670 4.17862 3.93100
# Velocity P-wave (km/s) = 6.63298 7.33873 6.99476
#
# Compressibility (1/GPa) = 0.01577918
#
# Stress axis : x y z
#
# Youngs Moduli (GPa) = 66.45253 53.08653 101.39718
#
# Poissons Ratio (x) = 0.31911 0.53438
# Poissons Ratio (y) = 0.39945 0.27408
# Poissons Ratio (z) = 0.35022 0.14349
#
# Static dielectric constant tensor:
#      x y z
#    x 1.126950 0.148870 0.120370 
#    y 0.148870 2.644770 0.421170 
#    z 0.120370 0.421170 2.257760 
# 
# From -- ./inp_files/7974.got.cif
#   From: 2010.05.17/outbox.cif.g08.bks.cpg/sg2_4_cif.got.tgz:7974.got - 2010.06.03 11:33:40.
