data_PCOD9041903
_publ_section_title
;
Structure prediction by ZEFSAII (Michael W. Deem and Ramdas Pophale) SiO2 
 PCOD9041903
Probable space group: P -1
;
_chemical_formula_sum "Si O2"
_cell_formula_units_Z 16
_cell_length_a 14.333055
_cell_length_b 14.351844
_cell_length_c 15.409539
_cell_angle_alpha 38.972317
_cell_angle_beta 141.092110
_cell_angle_gamma 159.938029
_cell_volume 666.840050
_symmetry_space_group_name_H-M "P -1"
_symmetry_group_IT_number 2
_symmetry_cell_setting 'triclinic'
loop_
_space_group_symop_operation_xyz
x,y,z
-x,-y,-z
loop_
_atom_site_type_symbol
_atom_site_label
_atom_site_fract_x
_atom_site_fract_y
_atom_site_fract_z
Si Si1 0.755465 0.341724 0.830485
Si Si2 0.304436 0.491347 0.981659
Si Si3 0.839744 0.437391 0.510597
Si Si4 0.509663 0.393182 0.505219
Si Si5 0.742510 0.047584 0.801024
Si Si6 0.367281 0.744702 0.001048
Si Si7 0.993200 0.134938 0.590993
Si Si8 0.677646 0.813525 0.757572
O O1 0.661972 0.375101 0.664994
O O2 0.087268 0.605365 0.883857
O O3 0.622996 0.066300 0.927639
O O4 0.638715 0.298832 0.870184
O O5 0.349449 0.589233 0.039632
O O6 0.983033 0.216071 0.921437
O O7 0.454590 0.735689 0.850920
O O8 0.425459 0.429775 0.104810
O O9 0.735041 0.214721 0.655312
O O10 0.577535 0.308586 0.378045
O O11 0.000000 0.500000 0.500000
O O12 0.024682 0.708785 0.503142
O O13 0.500000 0.500000 0.500000
O O14 0.697857 0.619922 0.400458
O O15 0.216751 0.093486 0.470818
O O16 0.812060 0.022792 0.779635
O O17 0.901465 0.971724 0.729253
#
# Coordination Sequence:
#
# PCOD9041903 Si02
#       8
#     2   2   2   2   2   2   2   2
#     4  10  23  45  69  96 145 175 242 296 375 431
#     4  12  29  45  77 107 152 194 259 308 371 446
#     4  12  27  50  79 112 155 205 259 312 378 458
#     4  12  28  48  74 113 148 192 246 321 374 447
#     4  12  28  46  75 109 152 199 249 310 373 441
#     4  10  23  44  68 102 130 197 230 302 362 445
#     4  12  28  46  78 108 151 198 251 304 383 451
#     4  12  28  51  74 111 156 202 252 309 385 453
#
# _framework density 23.993759000000001
#
# number of rings (size 3 to 8) (size 9 to 14) (size 15 to 20)
#    0.000    0.500    2.500    3.750   10.500    0.000 
#    4.500    0.000    0.000    0.000    0.000    0.000 
#    0.000    0.000    0.000    0.000    0.000    0.000 
#
# Total GULP energy -89716.878740 kJ/mol
# GULP energy per Si atom -5607.304921 kJ/mol
# Density = 2.393915 g / cm^3
# Si number density = 23.993759 Si / 1000 Ang^3
#
#
#
# Elastic Constant Matrix: (Units=GPa)
#
#
# Indices 1 2 3 4 5 6 
#
# 1 124.2324 39.5867 16.1148 -3.6546 -6.8316 -30.7605
# 2 39.5867 93.6218 16.1133 -4.2300 -3.1145 -21.3990
# 3 16.1148 16.1133 88.8136 -8.5194 8.1596 -8.2032
# 4 -3.6546 -4.2300 -8.5194 30.2260 -1.4669 -4.1287
# 5 -6.8316 -3.1145 8.1596 -1.4669 21.6819 -0.5887
# 6 -30.7605 -21.3990 -8.2032 -4.1287 -0.5887 54.4609
#
#
#
# Elastic Compliance Matrix: (Units=1/GPa)
#
#
# Indices 1 2 3 4 5 6 
#
# 1 0.010567 -0.003007 -0.001127 0.001361 0.003543 0.004759
# 2 -0.003007 0.013113 -0.001528 0.001583 0.001710 0.003362
# 3 -0.001127 -0.001528 0.012579 0.003063 -0.005079 0.000835
# 4 0.001361 0.001583 0.003063 0.035049 0.001998 0.004531
# 5 0.003543 0.001710 -0.005079 0.001998 0.049600 0.002596
# 6 0.004759 0.003362 0.000835 0.004531 0.002596 0.022868
#
#
# Mechanical properties :
#
#
# Convention : Reuss Voigt Hill
#
# Bulk Modulus (GPa) = 40.10625 50.03302 45.06963
# Shear Modulus (GPa) = 30.59758 36.93064 33.76411
#
# Velocity S-wave (km/s) = 3.57491 3.92749 3.75534
# Velocity P-wave (km/s) = 5.81305 6.43931 6.13418
#
# Compressibility (1/GPa) = 0.02493377
#
# Stress axis : x y z
#
# Youngs Moduli (GPa) = 94.63456 76.26231 79.49884
#
# Poissons Ratio (x) = 0.22933 0.08961
# Poissons Ratio (y) = 0.28457 0.12148
# Poissons Ratio (z) = 0.10667 0.11653
#
# Static dielectric constant tensor:
#      x y z
#    x 1.929090 0.006360 -0.021270 
#    y 0.006360 1.877040 -0.021820 
#    z -0.021270 -0.021820 1.881960 
# 
# From -- ./inp_files/534264.got.cif
#   From: 2010.05.17/outbox.cif.g08.bks.cpg/sg2_268_cif.got.tgz:534264.got - 2010.06.03 11:33:40.
