data_PCOD9041513
_publ_section_title
;
Structure prediction by ZEFSAII (Michael W. Deem and Ramdas Pophale) SiO2 
 PCOD9041513
Probable space group: P -1
;
_chemical_formula_sum "Si O2"
_cell_formula_units_Z 16
_cell_length_a 18.598548
_cell_length_b 6.746111
_cell_length_c 5.528907
_cell_angle_alpha 102.139487
_cell_angle_beta 88.976317
_cell_angle_gamma 99.085263
_cell_volume 669.595237
_symmetry_space_group_name_H-M "P -1"
_symmetry_group_IT_number 2
_symmetry_cell_setting 'triclinic'
loop_
_space_group_symop_operation_xyz
x,y,z
-x,-y,-z
loop_
_atom_site_type_symbol
_atom_site_label
_atom_site_fract_x
_atom_site_fract_y
_atom_site_fract_z
Si Si1 0.278032 0.473845 0.614907
Si Si2 0.094704 0.996643 0.745269
Si Si3 0.677100 0.807604 0.120683
Si Si4 0.847934 0.365812 0.580326
Si Si5 0.258957 0.814906 0.090242
Si Si6 0.925009 0.794579 0.705387
Si Si7 0.516990 0.891594 0.222460
Si Si8 0.377907 0.613096 0.263037
O O1 0.279211 0.250678 0.663828
O O2 0.217097 0.501048 0.430859
O O3 0.358403 0.559883 0.528985
O O4 0.259283 0.628974 0.857508
O O5 0.136819 0.802268 0.658673
O O6 0.009613 0.895008 0.729498
O O7 0.104004 0.136470 0.536053
O O8 0.109182 0.123472 0.026341
O O9 0.601746 0.878601 0.212940
O O10 0.653979 0.596277 0.923918
O O11 0.723929 0.973359 0.994696
O O12 0.815939 0.228682 0.772509
O O13 0.915023 0.546664 0.658159
O O14 0.329752 0.790115 0.244855
O O15 0.460198 0.681481 0.196149
O O16 0.500000 0.000000 0.500000
O O17 0.500000 0.000000 0.000000
#
# Coordination Sequence:
#
# PCOD9041513 Si02
#       8
#     2   2   2   2   2   2   2   2
#     4  10  25  42  65 100 138 185 236 293 350 440
#     4  10  24  45  76 109 150 188 243 302 365 416
#     4  11  24  44  72  95 142 180 235 297 359 415
#     4  11  25  44  72 103 147 193 247 290 367 432
#     4  10  23  44  63  98 140 181 234 290 352 426
#     4  10  24  46  73 113 146 190 244 303 355 433
#     4  12  26  44  77 101 134 181 236 295 360 431
#     4  10  23  44  66 100 131 179 234 288 360 422
#
# _framework density 23.895033999999999
#
# number of rings (size 3 to 8) (size 9 to 14) (size 15 to 20)
#    0.000    1.500    1.250    1.500    7.000    6.500 
#    0.000    3.750    0.000    0.000    0.000    0.000 
#    0.000    0.000    0.000    0.000    0.000    0.000 
#
# Total GULP energy -89473.646050 kJ/mol
# GULP energy per Si atom -5592.102878 kJ/mol
# Density = 2.384065 g / cm^3
# Si number density = 23.895034 Si / 1000 Ang^3
#
#
#
# Elastic Constant Matrix: (Units=GPa)
#
#
# Indices 1 2 3 4 5 6 
#
# 1 62.3391 32.5312 32.5615 -13.2119 -11.7094 -1.9066
# 2 32.5312 129.5649 45.5742 -29.3481 -14.7239 -2.3404
# 3 32.5615 45.5742 136.0095 -13.0153 -27.7347 -10.8836
# 4 -13.2119 -29.3481 -13.0153 42.2450 -2.5180 -2.2811
# 5 -11.7094 -14.7239 -27.7347 -2.5180 31.0192 -6.6710
# 6 -1.9066 -2.3404 -10.8836 -2.2811 -6.6710 33.7926
#
#
#
# Elastic Compliance Matrix: (Units=1/GPa)
#
#
# Indices 1 2 3 4 5 6 
#
# 1 0.020633 -0.002791 -0.002510 0.004105 0.004854 0.001398
# 2 -0.002791 0.010843 -0.001532 0.006464 0.003513 0.001230
# 3 -0.002510 -0.001532 0.011085 0.002428 0.009591 0.005380
# 4 0.004105 0.006464 0.002428 0.031126 0.010529 0.005641
# 5 0.004854 0.003513 0.009591 0.010529 0.048140 0.013820
# 6 0.001398 0.001230 0.005380 0.005641 0.013820 0.034598
#
#
# Mechanical properties :
#
#
# Convention : Reuss Voigt Hill
#
# Bulk Modulus (GPa) = 34.60672 61.02747 47.81709
# Shear Modulus (GPa) = 27.82042 35.89446 31.85744
#
# Velocity S-wave (km/s) = 3.41585 3.87999 3.65530
# Velocity P-wave (km/s) = 5.48376 6.75779 6.15383
#
# Compressibility (1/GPa) = 0.02889612
#
# Stress axis : x y z
#
# Youngs Moduli (GPa) = 48.46525 92.22240 90.20985
#
# Poissons Ratio (x) = 0.25739 0.22644
# Poissons Ratio (y) = 0.13526 0.13819
# Poissons Ratio (z) = 0.12165 0.14127
#
# Static dielectric constant tensor:
#      x y z
#    x 1.960790 0.000410 0.047380 
#    y 0.000410 1.908030 -0.022590 
#    z 0.047380 -0.022590 1.991920 
# 
# From -- ./inp_files/13267.got.cif
#   From: 2010.05.17/outbox.cif.g08.bks.cpg/sg2_7_cif.got.tgz:13267.got - 2010.06.03 11:33:40.
