data_PCOD9041227
_publ_section_title
;
Structure prediction by ZEFSAII (Michael W. Deem and Ramdas Pophale) SiO2 
 PCOD9041227
Probable space group: P -1
;
_chemical_formula_sum "Si O2"
_cell_formula_units_Z 12
_cell_length_a 16.509076
_cell_length_b 7.985020
_cell_length_c 9.318768
_cell_angle_alpha 107.086062
_cell_angle_beta 146.213011
_cell_angle_gamma 58.466814
_cell_volume 555.968785
_symmetry_space_group_name_H-M "P -1"
_symmetry_group_IT_number 2
_symmetry_cell_setting 'triclinic'
loop_
_space_group_symop_operation_xyz
x,y,z
-x,-y,-z
loop_
_atom_site_type_symbol
_atom_site_label
_atom_site_fract_x
_atom_site_fract_y
_atom_site_fract_z
Si Si1 0.195817 0.833890 0.282836
Si Si2 0.852493 0.492784 0.698041
Si Si3 0.867676 0.464903 0.385648
Si Si4 0.475180 0.229813 0.164210
Si Si5 0.501363 0.097046 0.678775
Si Si6 0.306619 0.691825 0.090406
O O1 0.195332 0.651700 0.321728
O O2 0.318663 0.885762 0.570188
O O3 0.267334 0.781293 0.213201
O O4 0.000000 0.000000 0.000000
O O5 0.912467 0.414273 0.604679
O O6 0.688102 0.721308 0.515390
O O7 0.000000 0.500000 0.000000
O O8 0.000000 0.500000 0.500000
O O9 0.671419 0.667932 0.147701
O O10 0.847916 0.297049 0.224763
O O11 0.430101 0.444979 0.226177
O O12 0.433218 0.085673 0.157555
O O13 0.612118 0.202535 0.853092
O O14 0.500000 0.000000 0.500000
#
# Coordination Sequence:
#
# PCOD9041227 Si02
#       6
#     2   2   2   2   2   2
#     4  12  23  41  69 105 141 179 235 287 345 420
#     4  12  26  43  71 100 139 186 240 293 349 423
#     4  10  25  46  71  98 144 189 230 299 355 401
#     4  10  23  43  71  98 142 185 232 278 356 409
#     4  12  23  41  75 106 135 185 235 283 353 421
#     4  10  23  45  69  99 143 182 226 293 344 411
#
# _framework density 21.583945
#
# number of rings (size 3 to 8) (size 9 to 14) (size 15 to 20)
#    1.000    0.000    3.333    3.500    2.333    3.333 
#    0.000    5.000    0.000    0.000    0.000    0.000 
#    0.000    0.000    0.000    0.000    0.000    0.000 
#
# Total GULP energy -66917.224444 kJ/mol
# GULP energy per Si atom -5576.435370 kJ/mol
# Density = 2.153482 g / cm^3
# Si number density = 21.583945 Si / 1000 Ang^3
#
#
#
# Elastic Constant Matrix: (Units=GPa)
#
#
# Indices 1 2 3 4 5 6 
#
# 1 75.4950 13.0439 37.0896 14.5038 12.1387 28.1962
# 2 13.0439 79.2446 7.9685 -0.6560 10.9656 33.9487
# 3 37.0896 7.9685 126.8268 18.2877 9.0636 13.1512
# 4 14.5038 -0.6560 18.2877 34.8172 9.6739 3.7016
# 5 12.1387 10.9656 9.0636 9.6739 35.7686 3.7223
# 6 28.1962 33.9487 13.1512 3.7016 3.7223 33.5254
#
#
#
# Elastic Compliance Matrix: (Units=1/GPa)
#
#
# Indices 1 2 3 4 5 6 
#
# 1 0.026194 0.009266 -0.004281 -0.003587 -0.006699 -0.028594
# 2 0.009266 0.027073 -0.000678 0.003023 -0.008517 -0.034330
# 3 -0.004281 -0.000678 0.009568 -0.003365 0.000053 0.000900
# 4 -0.003587 0.003023 -0.003365 0.034437 -0.008000 -0.001638
# 5 -0.006699 -0.008517 0.000053 -0.008000 0.033809 0.011368
# 6 -0.028594 -0.034330 0.000900 -0.001638 0.011368 0.087205
#
#
# Mechanical properties :
#
#
# Convention : Reuss Voigt Hill
#
# Bulk Modulus (GPa) = 13.99641 44.19671 29.09656
# Shear Modulus (GPa) = 21.41432 35.71986 28.56709
#
# Velocity S-wave (km/s) = 3.15324 4.07249 3.64199
# Velocity P-wave (km/s) = 4.44477 6.52953 5.58528
#
# Compressibility (1/GPa) = 0.07144689
#
# Stress axis : x y z
#
# Youngs Moduli (GPa) = 38.17676 36.93765 104.52007
#
# Poissons Ratio (x) = -0.34226 0.44749
# Poissons Ratio (y) = -0.35374 0.07087
# Poissons Ratio (z) = 0.16345 0.02505
#
# Static dielectric constant tensor:
#      x y z
#    x 1.759870 -0.041140 0.027010 
#    y -0.041140 1.790500 -0.040240 
#    z 0.027010 -0.040240 1.872430 
# 
# From -- ./inp_files/326353.got.cif
#   From: 2010.05.17/outbox.cif.g08.bks.cpg/sg2_164_cif.got.tgz:326353.got - 2010.06.03 11:33:40.
