data_PCOD9041695
_publ_section_title
;
Structure prediction by ZEFSAII (Michael W. Deem and Ramdas Pophale) SiO2 
 PCOD9041695
Probable space group: P -1
;
_chemical_formula_sum "Si O2"
_cell_formula_units_Z 16
_cell_length_a 19.671409
_cell_length_b 5.305345
_cell_length_c 9.197389
_cell_angle_alpha 84.290777
_cell_angle_beta 47.410910
_cell_angle_gamma 86.148549
_cell_volume 703.177756
_symmetry_space_group_name_H-M "P -1"
_symmetry_group_IT_number 2
_symmetry_cell_setting 'triclinic'
loop_
_space_group_symop_operation_xyz
x,y,z
-x,-y,-z
loop_
_atom_site_type_symbol
_atom_site_label
_atom_site_fract_x
_atom_site_fract_y
_atom_site_fract_z
Si Si1 0.071247 0.741008 0.286951
Si Si2 0.788174 0.967895 0.134225
Si Si3 0.367631 0.365352 0.292964
Si Si4 0.259784 0.856896 0.506891
Si Si5 0.908043 0.072643 0.455266
Si Si6 0.408241 0.047217 0.725580
Si Si7 0.946767 0.627166 0.937884
Si Si8 0.433083 0.523215 0.872601
O O1 0.102088 0.725698 0.410857
O O2 0.067342 0.527997 0.181773
O O3 0.964329 0.835430 0.451846
O O4 0.148897 0.927819 0.094407
O O5 0.782412 0.150895 0.270316
O O6 0.685103 0.914311 0.233696
O O7 0.847563 0.732408 0.119433
O O8 0.337684 0.076361 0.380599
O O9 0.460768 0.422326 0.243688
O O10 0.295219 0.579739 0.431980
O O11 0.386875 0.419386 0.092481
O O12 0.187037 0.956665 0.487589
O O13 0.981861 0.154277 0.222772
O O14 0.393966 0.791481 0.856566
O O15 0.500000 0.000000 0.500000
O O16 0.424108 0.300234 0.781323
O O17 0.000000 0.500000 0.000000
#
# Coordination Sequence:
#
# PCOD9041695 Si02
#       8
#     2   2   2   2   2   2   2   2
#     4  10  23  44  66  95 141 179 237 285 357 414
#     4  11  27  41  67 103 138 184 239 288 352 428
#     4  11  26  45  73 102 142 181 240 294 350 425
#     4  12  26  44  71 105 140 183 236 292 351 420
#     4  10  24  42  66 100 134 185 232 293 348 425
#     4  12  26  45  73 104 147 187 236 290 356 417
#     4  11  23  43  70  99 140 187 231 294 355 420
#     4  11  25  48  71 102 140 190 234 294 358 413
#
# _framework density 22.753845999999999
#
# number of rings (size 3 to 8) (size 9 to 14) (size 15 to 20)
#    0.000    1.000    0.000    5.250   10.500    4.000 
#    0.000    0.000    0.000    0.000    0.000    0.000 
#    0.000    0.000    0.000    0.000    0.000    0.000 
#
# Total GULP energy -89426.168108 kJ/mol
# GULP energy per Si atom -5589.135507 kJ/mol
# Density = 2.270206 g / cm^3
# Si number density = 22.753846 Si / 1000 Ang^3
#
#
#
# Elastic Constant Matrix: (Units=GPa)
#
#
# Indices 1 2 3 4 5 6 
#
# 1 128.5812 10.0276 46.0883 12.8239 -0.7890 2.7702
# 2 10.0276 54.7761 0.8701 -6.4271 -7.9412 16.0041
# 3 46.0883 0.8701 69.6046 -2.7640 -10.7991 4.1108
# 4 12.8239 -6.4271 -2.7640 37.9768 -6.0132 8.2795
# 5 -0.7890 -7.9412 -10.7991 -6.0132 27.2358 7.2022
# 6 2.7702 16.0041 4.1108 8.2795 7.2022 26.2299
#
#
#
# Elastic Compliance Matrix: (Units=1/GPa)
#
#
# Indices 1 2 3 4 5 6 
#
# 1 0.014077 -0.010376 -0.012846 -0.013007 -0.014538 0.014955
# 2 -0.010376 0.041502 0.015678 0.027205 0.035961 -0.045145
# 3 -0.012846 0.015678 0.029154 0.019081 0.026896 -0.026186
# 4 -0.013007 0.027205 0.019081 0.052791 0.038818 -0.045538
# 5 -0.014538 0.035961 0.026896 0.038818 0.081699 -0.059307
# 6 0.014955 -0.045145 -0.026186 -0.045538 -0.059307 0.098853
#
#
# Mechanical properties :
#
#
# Convention : Reuss Voigt Hill
#
# Bulk Modulus (GPa) = 14.35883 40.77041 27.56462
# Shear Modulus (GPa) = 14.02996 31.35355 22.69175
#
# Velocity S-wave (km/s) = 2.48583 3.71610 3.16139
# Velocity P-wave (km/s) = 3.81620 6.03071 5.04642
#
# Compressibility (1/GPa) = 0.06964354
#
# Stress axis : x y z
#
# Youngs Moduli (GPa) = 71.03873 24.09504 34.30038
#
# Poissons Ratio (x) = 0.25001 0.44064
# Poissons Ratio (y) = 0.73710 -0.53775
# Poissons Ratio (z) = 0.91259 -0.37775
#
# Static dielectric constant tensor:
#      x y z
#    x 1.871490 -0.063510 0.021370 
#    y -0.063510 1.927210 -0.036550 
#    z 0.021370 -0.036550 1.853930 
# 
# From -- ./inp_files/39326.got.cif
#   From: 2010.05.17/outbox.cif.g08.bks.cpg/sg2_20_cif.got.tgz:39326.got - 2010.06.03 11:33:40.
