data_PCOD9041199
_publ_section_title
;
Structure prediction by ZEFSAII (Michael W. Deem and Ramdas Pophale) SiO2 
 PCOD9041199
Probable space group: P -1
;
_chemical_formula_sum "Si O2"
_cell_formula_units_Z 15
_cell_length_a 8.863321
_cell_length_b 12.241730
_cell_length_c 11.956004
_cell_angle_alpha 56.130980
_cell_angle_beta 141.889123
_cell_angle_gamma 115.981823
_cell_volume 664.787672
_symmetry_space_group_name_H-M "P -1"
_symmetry_group_IT_number 2
_symmetry_cell_setting 'triclinic'
loop_
_space_group_symop_operation_xyz
x,y,z
-x,-y,-z
loop_
_atom_site_type_symbol
_atom_site_label
_atom_site_fract_x
_atom_site_fract_y
_atom_site_fract_z
Si Si1 0.553014 0.900335 0.485608
Si Si2 0.989915 0.272010 0.446369
Si Si3 0.918830 0.026504 0.257030
Si Si4 0.761345 0.963132 0.954556
Si Si5 0.587036 0.229091 0.061025
Si Si6 0.304767 0.640761 0.423125
Si Si7 0.524713 0.362513 0.706697
Si Si8 0.000000 0.500000 0.500000
O O1 0.406017 0.764844 0.479051
O O2 0.842072 0.882622 0.657022
O O3 0.500000 0.000000 0.500000
O O4 0.455887 0.970362 0.278166
O O5 0.774175 0.294577 0.218922
O O6 0.951774 0.363943 0.478591
O O7 0.262816 0.307054 0.543369
O O8 0.000689 0.118125 0.573749
O O9 0.717202 0.093407 0.177611
O O10 0.812976 0.016001 0.077448
O O11 0.668385 0.813292 0.006396
O O12 0.000000 0.000000 0.000000
O O13 0.555740 0.307274 0.881790
O O14 0.498859 0.519744 0.612226
O O15 0.286457 0.672383 0.261865
O O16 0.071328 0.576493 0.380587
#
# Coordination Sequence:
#
# PCOD9041199 Si02
#       8
#     2   2   2   2   2   2   2   1
#     4  12  24  43  67 102 143 177 230 283 343 416
#     4  11  23  44  69 101 138 181 233 279 353 402
#     4  12  24  42  69 105 139 183 227 290 353 402
#     4  12  26  40  65 105 145 184 223 284 350 412
#     4  12  25  42  72 107 137 180 234 287 345 416
#     4  10  23  43  71  94 132 188 224 281 349 399
#     4  10  23  47  68  97 138 178 233 285 334 415
#     4  10  24  44  68  94 132 186 230 280 334 412
#
# _framework density 22.563594999999999
#
# number of rings (size 3 to 8) (size 9 to 14) (size 15 to 20)
#    0.000    0.800    4.000    3.200    1.867    0.000 
#    0.000   17.333    0.000    0.000    0.000    0.000 
#    0.000    0.000    0.000    0.000    0.000    0.000 
#
# Total GULP energy -83594.557118 kJ/mol
# GULP energy per Si atom -5572.970475 kJ/mol
# Density = 2.251224 g / cm^3
# Si number density = 22.563595 Si / 1000 Ang^3
#
#
#
# Elastic Constant Matrix: (Units=GPa)
#
#
# Indices 1 2 3 4 5 6 
#
# 1 106.6273 18.9604 27.9230 -0.9008 -24.9279 19.1029
# 2 18.9604 106.4686 24.4343 -18.1131 -20.4240 -2.9253
# 3 27.9230 24.4343 107.8551 13.5754 -21.9991 7.4213
# 4 -0.9008 -18.1131 13.5754 21.3259 -1.3827 -8.1037
# 5 -24.9279 -20.4240 -21.9991 -1.3827 24.1899 -5.9916
# 6 19.1029 -2.9253 7.4213 -8.1037 -5.9916 38.7981
#
#
#
# Elastic Compliance Matrix: (Units=1/GPa)
#
#
# Indices 1 2 3 4 5 6 
#
# 1 0.013120 -0.000060 -0.000675 -0.000028 0.011732 -0.004529
# 2 -0.000060 0.016844 -0.004287 0.021203 0.013615 0.008651
# 3 -0.000675 -0.004287 0.013735 -0.013722 0.006273 -0.004516
# 4 -0.000028 0.021203 -0.013722 0.083905 0.016200 0.024264
# 5 0.011732 0.013615 0.006273 0.016200 0.073741 0.008822
# 6 -0.004529 0.008651 -0.004516 0.024264 0.008822 0.035951
#
#
# Mechanical properties :
#
#
# Convention : Reuss Voigt Hill
#
# Bulk Modulus (GPa) = 29.71398 51.50959 40.61179
# Shear Modulus (GPa) = 19.33801 33.50500 26.42151
#
# Velocity S-wave (km/s) = 2.93071 3.85764 3.42567
# Velocity P-wave (km/s) = 4.96484 6.53606 5.80386
#
# Compressibility (1/GPa) = 0.03365419
#
# Stress axis : x y z
#
# Youngs Moduli (GPa) = 76.22007 59.36917 72.80619
#
# Poissons Ratio (x) = 0.00357 0.04914
# Poissons Ratio (y) = 0.00458 0.31214
# Poissons Ratio (z) = 0.05144 0.25453
#
# Static dielectric constant tensor:
#      x y z
#    x 1.950630 0.006610 0.047450 
#    y 0.006610 1.848880 -0.036480 
#    z 0.047450 -0.036480 1.835430 
# 
# From -- ./inp_files/389623.got.cif
#   From: 2010.05.17/outbox.cif.g08.bks.cpg/sg2_195_cif.got.tgz:389623.got - 2010.06.03 11:33:40.
