data_PCOD9041296
_publ_section_title
;
Structure prediction by ZEFSAII (Michael W. Deem and Ramdas Pophale) SiO2 
 PCOD9041296
Probable space group: P -1
;
_chemical_formula_sum "Si O2"
_cell_formula_units_Z 16
_cell_length_a 8.705951
_cell_length_b 19.214974
_cell_length_c 16.744438
_cell_angle_alpha 29.771958
_cell_angle_beta 148.414264
_cell_angle_gamma 141.770285
_cell_volume 716.961179
_symmetry_space_group_name_H-M "P -1"
_symmetry_group_IT_number 2
_symmetry_cell_setting 'triclinic'
loop_
_space_group_symop_operation_xyz
x,y,z
-x,-y,-z
loop_
_atom_site_type_symbol
_atom_site_label
_atom_site_fract_x
_atom_site_fract_y
_atom_site_fract_z
Si Si1 0.495013 0.784054 0.939108
Si Si2 0.493871 0.704447 0.506951
Si Si3 0.280176 0.506012 0.287139
Si Si4 0.155031 0.636853 0.649986
Si Si5 0.900603 0.702846 0.315019
Si Si6 0.803620 0.003623 0.331266
Si Si7 0.313427 0.468725 0.098391
Si Si8 0.691573 0.108073 0.417691
O O1 0.463651 0.871204 0.756939
O O2 0.293755 0.845090 0.856020
O O3 0.807362 0.803348 0.104719
O O4 0.409761 0.619905 0.035808
O O5 0.617414 0.641160 0.546362
O O6 0.530571 0.873120 0.349509
O O7 0.696773 0.654437 0.716757
O O8 0.158826 0.637513 0.448709
O O9 0.578956 0.615692 0.287675
O O10 0.131234 0.480541 0.333887
O O11 0.997798 0.532612 0.082419
O O12 0.425159 0.561840 0.814694
O O13 0.246526 0.738574 0.664603
O O14 0.066872 0.735635 0.440805
O O15 0.011104 0.958353 0.399654
O O16 0.000000 0.000000 0.500000
O O17 0.500000 0.000000 0.500000
#
# Coordination Sequence:
#
# PCOD9041296 Si02
#       8
#     2   2   2   2   2   2   2   2
#     4  11  24  46  69 104 132 180 239 276 332 407
#     4  11  23  43  69 100 142 180 226 282 345 408
#     4  12  21  41  68 104 138 178 231 282 342 403
#     4  11  25  45  67 104 145 181 215 291 357 398
#     4  11  27  41  69 102 142 182 223 283 346 411
#     4  10  23  43  72  98 132 183 232 277 337 407
#     4  11  24  40  75 104 136 176 239 286 332 406
#     4  11  25  46  71  99 137 180 230 282 345 405
#
# _framework density 22.316410999999999
#
# number of rings (size 3 to 8) (size 9 to 14) (size 15 to 20)
#    0.000    1.000    3.750    2.250   12.250    0.500 
#    0.000    0.625    0.000    0.000    0.000    0.000 
#    0.000    0.000    0.000    0.000    0.000    0.000 
#
# Total GULP energy -89186.156627 kJ/mol
# GULP energy per Si atom -5574.134789 kJ/mol
# Density = 2.226562 g / cm^3
# Si number density = 22.316411 Si / 1000 Ang^3
#
#
#
# Elastic Constant Matrix: (Units=GPa)
#
#
# Indices 1 2 3 4 5 6 
#
# 1 138.1177 37.8013 38.6428 -2.0071 22.3861 5.4673
# 2 37.8013 66.0057 30.2020 -11.7509 18.5242 8.9898
# 3 38.6428 30.2020 119.7109 13.6464 5.1301 -14.3194
# 4 -2.0071 -11.7509 13.6464 36.6239 -1.8141 3.3645
# 5 22.3861 18.5242 5.1301 -1.8141 46.3420 -5.1554
# 6 5.4673 8.9898 -14.3194 3.3645 -5.1554 33.2056
#
#
#
# Elastic Compliance Matrix: (Units=1/GPa)
#
#
# Indices 1 2 3 4 5 6 
#
# 1 0.009373 -0.002819 -0.002534 0.000612 -0.003370 -0.002458
# 2 -0.002819 0.027575 -0.008699 0.012698 -0.009708 -0.013546
# 3 -0.002534 -0.008699 0.013380 -0.008640 0.003998 0.010038
# 4 0.000612 0.012698 -0.008640 0.035477 -0.004309 -0.011528
# 5 -0.003370 -0.009708 0.003998 -0.004309 0.027546 0.009621
# 6 -0.002458 -0.013546 0.010038 -0.011528 0.009621 0.041178
#
#
# Mechanical properties :
#
#
# Convention : Reuss Voigt Hill
#
# Bulk Modulus (GPa) = 44.99431 59.68070 52.33751
# Shear Modulus (GPa) = 26.31018 37.71351 32.01184
#
# Velocity S-wave (km/s) = 3.43733 4.11535 3.79153
# Velocity P-wave (km/s) = 5.99661 7.02727 6.53230
#
# Compressibility (1/GPa) = 0.02222503
#
# Stress axis : x y z
#
# Youngs Moduli (GPa) = 106.68903 36.26499 74.73696
#
# Poissons Ratio (x) = 0.10223 0.18937
# Poissons Ratio (y) = 0.30076 0.65012
# Poissons Ratio (z) = 0.27033 0.31546
#
# Static dielectric constant tensor:
#      x y z
#    x 1.872070 0.029730 -0.025470 
#    y 0.029730 1.883370 -0.006290 
#    z -0.025470 -0.006290 1.864360 
# 
# From -- ./inp_files/562927.got.cif
#   From: 2010.05.17/outbox.cif.g08.bks.cpg/sg2_282_cif.got.tgz:562927.got - 2010.06.03 11:33:40.
