data_PCOD9041946
_publ_section_title
;
Structure prediction by ZEFSAII (Michael W. Deem and Ramdas Pophale) SiO2 
 PCOD9041946
Probable space group: P -1
;
_chemical_formula_sum "Si O2"
_cell_formula_units_Z 16
_cell_length_a 8.563540
_cell_length_b 21.294976
_cell_length_c 19.387437
_cell_angle_alpha 158.494450
_cell_angle_beta 144.060546
_cell_angle_gamma 50.794605
_cell_volume 628.614796
_symmetry_space_group_name_H-M "P -1"
_symmetry_group_IT_number 2
_symmetry_cell_setting 'triclinic'
loop_
_space_group_symop_operation_xyz
x,y,z
-x,-y,-z
loop_
_atom_site_type_symbol
_atom_site_label
_atom_site_fract_x
_atom_site_fract_y
_atom_site_fract_z
Si Si1 0.701534 0.474247 0.959186
Si Si2 0.919649 0.165392 0.729365
Si Si3 0.982236 0.701273 0.705273
Si Si4 0.951062 0.087952 0.802374
Si Si5 0.035877 0.755132 0.486340
Si Si6 0.435169 0.528097 0.789125
Si Si7 0.400201 0.556775 0.451857
Si Si8 0.388901 0.885312 0.159765
O O1 0.793805 0.313249 0.841049
O O2 0.333029 0.374277 0.749828
O O3 0.662940 0.504199 0.896341
O O4 0.968528 0.678516 0.304737
O O5 0.784551 0.006416 0.583777
O O6 0.753889 0.037428 0.469300
O O7 0.304730 0.302988 0.999810
O O8 0.842725 0.688207 0.565942
O O9 0.701935 0.657473 0.612047
O O10 0.000000 0.500000 0.500000
O O11 0.291516 0.883539 0.043553
O O12 0.789915 0.064253 0.794667
O O13 0.128936 0.328650 0.096001
O O14 0.161383 0.992691 0.785105
O O15 0.252229 0.691936 0.536084
O O16 0.295240 0.650739 0.898345
O O17 0.500000 0.500000 0.500000
#
# Coordination Sequence:
#
# PCOD9041946 Si02
#       8
#     2   2   2   2   2   2   2   2
#     4  11  23  41  67 102 143 177 229 293 350 409
#     4  12  23  41  69 104 139 181 231 291 351 404
#     4  10  23  44  68  93 136 190 227 273 351 418
#     4  12  23  43  73 104 137 179 232 294 339 409
#     4  11  25  42  70 110 136 176 237 289 347 409
#     4  11  23  41  68  96 139 189 230 281 352 413
#     4  12  24  45  74  99 138 187 231 285 345 412
#     4  11  23  40  65  99 135 182 235 281 343 411
#
# _framework density 25.452787000000001
#
# number of rings (size 3 to 8) (size 9 to 14) (size 15 to 20)
#    0.000    0.750    5.000    2.625    3.500    0.500 
#    0.000    0.625    0.000    0.000    0.000    0.000 
#    0.000    0.000    0.000    0.000    0.000    0.000 
#
# Total GULP energy -89331.757303 kJ/mol
# GULP energy per Si atom -5583.234831 kJ/mol
# Density = 2.539486 g / cm^3
# Si number density = 25.452787 Si / 1000 Ang^3
#
#
#
# Elastic Constant Matrix: (Units=GPa)
#
#
# Indices 1 2 3 4 5 6 
#
# 1 71.9566 47.6704 25.9612 -6.8567 -21.5408 -11.4392
# 2 47.6704 182.6482 31.2153 -2.6341 -32.7374 -22.9760
# 3 25.9612 31.2153 88.6605 -22.5037 -33.9073 1.8673
# 4 -6.8567 -2.6341 -22.5037 39.7814 4.4610 -10.4349
# 5 -21.5408 -32.7374 -33.9073 4.4610 40.5884 -8.8377
# 6 -11.4392 -22.9760 1.8673 -10.4349 -8.8377 43.5101
#
#
#
# Elastic Compliance Matrix: (Units=1/GPa)
#
#
# Indices 1 2 3 4 5 6 
#
# 1 0.019937 -0.002606 -0.000759 0.003558 0.008882 0.006556
# 2 -0.002606 0.007843 0.000607 0.000998 0.006423 0.004974
# 3 -0.000759 0.000607 0.020556 0.011018 0.017219 0.005379
# 4 0.003558 0.000998 0.011018 0.033810 0.010633 0.011258
# 5 0.008882 0.006423 0.017219 0.010633 0.051675 0.018034
# 6 0.006556 0.004974 0.005379 0.011258 0.018034 0.033465
#
#
# Mechanical properties :
#
#
# Convention : Reuss Voigt Hill
#
# Bulk Modulus (GPa) = 23.35338 61.43988 42.39663
# Shear Modulus (GPa) = 26.72711 40.67056 33.69883
#
# Velocity S-wave (km/s) = 3.24399 4.00169 3.64259
# Velocity P-wave (km/s) = 4.81937 6.74852 5.86383
#
# Compressibility (1/GPa) = 0.04282035
#
# Stress axis : x y z
#
# Youngs Moduli (GPa) = 50.15682 127.50475 48.64739
#
# Poissons Ratio (x) = 0.33228 0.03691
# Poissons Ratio (y) = 0.13071 -0.02952
# Poissons Ratio (z) = 0.03806 -0.07736
#
# Static dielectric constant tensor:
#      x y z
#    x 2.137350 0.056060 -0.040980 
#    y 0.056060 2.021220 -0.075320 
#    z -0.040980 -0.075320 2.203730 
# 
# From -- ./inp_files/452627.got.cif
#   From: 2010.05.17/outbox.cif.g08.bks.cpg/sg2_227_cif.got.tgz:452627.got - 2010.06.03 11:33:40.
