data_PCOD9041104
_publ_section_title
;
Structure prediction by ZEFSAII (Michael W. Deem and Ramdas Pophale) SiO2 
 PCOD9041104
Probable space group: P -1
;
_chemical_formula_sum "Si O2"
_cell_formula_units_Z 16
_cell_length_a 16.752201
_cell_length_b 5.753571
_cell_length_c 8.683385
_cell_angle_alpha 103.896790
_cell_angle_beta 103.022802
_cell_angle_gamma 55.419874
_cell_volume 664.754633
_symmetry_space_group_name_H-M "P -1"
_symmetry_group_IT_number 2
_symmetry_cell_setting 'triclinic'
loop_
_space_group_symop_operation_xyz
x,y,z
-x,-y,-z
loop_
_atom_site_type_symbol
_atom_site_label
_atom_site_fract_x
_atom_site_fract_y
_atom_site_fract_z
Si Si1 0.844644 0.769839 0.092537
Si Si2 0.334595 0.708161 0.431925
Si Si3 0.522553 0.099144 0.371487
Si Si4 0.259341 0.466970 0.938600
Si Si5 0.200627 0.695579 0.637186
Si Si6 0.154686 0.995096 0.180610
Si Si7 0.457312 0.302121 0.945019
Si Si8 0.028765 0.670253 0.650408
O O1 0.740745 0.797812 0.037179
O O2 0.913293 0.511088 0.198635
O O3 0.823085 0.038138 0.224821
O O4 0.877370 0.770768 0.932474
O O5 0.422371 0.410780 0.347463
O O6 0.391063 0.840921 0.559901
O O7 0.269855 0.658769 0.520911
O O8 0.252041 0.916887 0.304687
O O9 0.500000 0.000000 0.500000
O O10 0.544560 0.825883 0.238994
O O11 0.249739 0.449680 0.748223
O O12 0.350227 0.492426 0.997490
O O13 0.177444 0.724548 0.046422
O O14 0.096064 0.733018 0.582994
O O15 0.070915 0.072628 0.279848
O O16 0.500000 0.500000 0.000000
O O17 0.500000 0.000000 0.000000
O O18 0.000000 0.500000 0.500000
#
# Coordination Sequence:
#
# PCOD9041104 Si02
#       8
#     2   2   2   2   2   2   2   2
#     4  10  23  43  70  99 143 189 241 300 368 444
#     4  11  25  45  73 110 145 197 245 312 383 454
#     4  11  27  47  76 106 153 191 255 313 388 454
#     4  10  24  44  69  98 137 187 241 299 371 446
#     4  10  23  45  70  98 141 186 243 298 368 445
#     4  11  25  42  70 103 145 182 247 298 375 447
#     4  12  29  46  76 109 152 198 256 317 390 465
#     4  11  25  44  68 104 140 192 240 303 370 441
#
# _framework density 24.069029
#
# number of rings (size 3 to 8) (size 9 to 14) (size 15 to 20)
#    0.000    1.250    0.000    3.375   10.500   12.500 
#    0.000    0.000    0.000    0.000    0.000    0.000 
#    0.000    0.000    0.000    0.000    0.000    0.000 
#
# Total GULP energy -89119.394768 kJ/mol
# GULP energy per Si atom -5569.962173 kJ/mol
# Density = 2.401425 g / cm^3
# Si number density = 24.069029 Si / 1000 Ang^3
#
#
#
# Elastic Constant Matrix: (Units=GPa)
#
#
# Indices 1 2 3 4 5 6 
#
# 1 205.5644 56.2871 69.5261 16.0738 -2.0173 28.8212
# 2 56.2871 74.4249 30.4418 11.0990 4.2056 4.6518
# 3 69.5261 30.4418 135.8845 7.6035 -5.9183 2.8313
# 4 16.0738 11.0990 7.6035 49.1254 0.8051 5.8001
# 5 -2.0173 4.2056 -5.9183 0.8051 32.5597 3.8835
# 6 28.8212 4.6518 2.8313 5.8001 3.8835 45.7635
#
#
#
# Elastic Compliance Matrix: (Units=1/GPa)
#
#
# Indices 1 2 3 4 5 6 
#
# 1 0.007640 -0.004352 -0.002767 -0.000609 0.001050 -0.004210
# 2 -0.004352 0.017911 -0.001813 -0.002482 -0.003043 0.001605
# 3 -0.002767 -0.001813 0.009241 -0.000290 0.001600 0.001256
# 4 -0.000609 -0.002482 -0.000290 0.021404 -0.000054 -0.002055
# 5 0.001050 -0.003043 0.001600 -0.000054 0.031838 -0.003146
# 6 -0.004210 0.001605 0.001256 -0.002055 -0.003146 0.024789
#
#
# Mechanical properties :
#
#
# Convention : Reuss Voigt Hill
#
# Bulk Modulus (GPa) = 59.07154 80.93154 70.00154
# Shear Modulus (GPa) = 36.67571 42.79764 39.73668
#
# Velocity S-wave (km/s) = 3.90779 4.22135 4.06759
# Velocity P-wave (km/s) = 6.70499 7.58007 7.15592
#
# Compressibility (1/GPa) = 0.01692863
#
# Stress axis : x y z
#
# Youngs Moduli (GPa) = 130.88598 55.83156 108.21730
#
# Poissons Ratio (x) = 0.24298 0.29941
# Poissons Ratio (y) = 0.56962 0.19619
# Poissons Ratio (z) = 0.36212 0.10122
#
# Static dielectric constant tensor:
#      x y z
#    x 2.020580 -0.099400 0.066330 
#    y -0.099400 2.009070 -0.051340 
#    z 0.066330 -0.051340 1.766790 
# 
# From -- ./inp_files/289024.got.cif
#   From: 2010.05.17/outbox.cif.g08.bks.cpg/sg2_145_cif.got.tgz:289024.got - 2010.06.03 11:33:40.
