data_PCOD9041751
_publ_section_title
;
Structure prediction by ZEFSAII (Michael W. Deem and Ramdas Pophale) SiO2 
 PCOD9041751
Probable space group: P -1
;
_chemical_formula_sum "Si O2"
_cell_formula_units_Z 16
_cell_length_a 12.393544
_cell_length_b 8.683083
_cell_length_c 8.726448
_cell_angle_alpha 130.618174
_cell_angle_beta 93.593285
_cell_angle_gamma 69.843405
_cell_volume 651.724346
_symmetry_space_group_name_H-M "P -1"
_symmetry_group_IT_number 2
_symmetry_cell_setting 'triclinic'
loop_
_space_group_symop_operation_xyz
x,y,z
-x,-y,-z
loop_
_atom_site_type_symbol
_atom_site_label
_atom_site_fract_x
_atom_site_fract_y
_atom_site_fract_z
Si Si1 0.535186 0.836776 0.167709
Si Si2 0.036268 0.781923 0.632594
Si Si3 0.237605 0.786874 0.467771
Si Si4 0.337263 0.787648 0.907999
Si Si5 0.494531 0.315970 0.594905
Si Si6 0.149353 0.745297 0.097814
Si Si7 0.975891 0.469874 0.223988
Si Si8 0.776979 0.818049 0.090992
O O1 0.526126 0.720732 0.251043
O O2 0.670167 0.742791 0.063252
O O3 0.498840 0.097356 0.368161
O O4 0.445093 0.813795 0.022954
O O5 0.169146 0.707365 0.537186
O O6 0.967542 0.695693 0.446760
O O7 0.028845 0.678656 0.727478
O O8 0.974513 0.045256 0.802465
O O9 0.378243 0.675708 0.404396
O O10 0.186524 0.756634 0.281360
O O11 0.208031 0.043932 0.672692
O O12 0.394482 0.545107 0.680405
O O13 0.276240 0.987277 0.916005
O O14 0.243120 0.782161 0.020091
O O15 0.124381 0.535934 0.902945
O O16 0.102096 0.357922 0.080222
#
# Coordination Sequence:
#
# PCOD9041751 Si02
#       8
#     2   2   2   2   2   2   2   2
#     4  10  23  44  67 100 139 176 223 282 333 399
#     4  11  24  44  68  97 134 177 223 278 339 396
#     4  11  24  44  70  96 139 178 219 285 332 402
#     4  12  24  43  73  99 135 184 226 274 342 404
#     4  10  24  45  67 103 138 177 225 279 339 399
#     4  12  24  44  68  99 137 175 227 277 334 402
#     4  11  25  45  67 100 135 178 222 280 341 398
#     4  11  24  45  70 100 142 178 225 284 335 403
#
# _framework density 24.550256999999998
#
# number of rings (size 3 to 8) (size 9 to 14) (size 15 to 20)
#    0.000    1.000    3.750    2.250    1.750    3.500 
#    2.250    0.000    0.000    0.000    0.000    0.000 
#    0.000    0.000    0.000    0.000    0.000    0.000 
#
# Total GULP energy -89763.840139 kJ/mol
# GULP energy per Si atom -5610.240009 kJ/mol
# Density = 2.449438 g / cm^3
# Si number density = 24.550257 Si / 1000 Ang^3
#
#
#
# Elastic Constant Matrix: (Units=GPa)
#
#
# Indices 1 2 3 4 5 6 
#
# 1 158.2027 38.8850 55.0422 -34.6786 -0.8720 25.0483
# 2 38.8850 70.2074 34.6849 -16.1485 -2.1531 7.2827
# 3 55.0422 34.6849 116.6465 -12.0468 17.2011 7.0961
# 4 -34.6786 -16.1485 -12.0468 31.8877 11.0677 -5.9567
# 5 -0.8720 -2.1531 17.2011 11.0677 53.8054 -8.3681
# 6 25.0483 7.2827 7.0961 -5.9567 -8.3681 33.8502
#
#
#
# Elastic Compliance Matrix: (Units=1/GPa)
#
#
# Indices 1 2 3 4 5 6 
#
# 1 0.010694 -0.001822 -0.002961 0.009116 -0.001718 -0.005721
# 2 -0.001822 0.018687 -0.004218 0.005480 0.000844 -0.000615
# 3 -0.002961 -0.004218 0.011919 0.000537 -0.004191 -0.000341
# 4 0.009116 0.005480 0.000537 0.047272 -0.009864 -0.002157
# 5 -0.001718 0.000844 -0.004191 -0.009864 0.022876 0.005887
# 6 -0.005721 -0.000615 -0.000341 -0.002157 0.005887 0.035055
#
#
# Mechanical properties :
#
#
# Convention : Reuss Voigt Hill
#
# Bulk Modulus (GPa) = 42.92546 66.92010 54.92278
# Shear Modulus (GPa) = 29.02420 38.33829 33.68125
#
# Velocity S-wave (km/s) = 3.44210 3.95603 3.70798
# Velocity P-wave (km/s) = 5.77235 6.94150 6.38375
#
# Compressibility (1/GPa) = 0.02329620
#
# Stress axis : x y z
#
# Youngs Moduli (GPa) = 93.51272 53.51407 83.90235
#
# Poissons Ratio (x) = 0.09752 0.24847
# Poissons Ratio (y) = 0.17041 0.35387
# Poissons Ratio (z) = 0.27694 0.22570
#
# Static dielectric constant tensor:
#      x y z
#    x 1.898220 -0.000120 0.013590 
#    y -0.000120 1.936400 0.004180 
#    z 0.013590 0.004180 1.936050 
# 
# From -- ./inp_files/245950.got.cif
#   From: 2010.05.17/outbox.cif.g08.bks.cpg/sg2_123_cif.got.tgz:245950.got - 2010.06.03 11:33:40.
