data_PCOD9041300
_publ_section_title
;
Structure prediction by ZEFSAII (Michael W. Deem and Ramdas Pophale) SiO2 
 PCOD9041300
Probable space group: P -1
;
_chemical_formula_sum "Si O2"
_cell_formula_units_Z 14
_cell_length_a 12.105628
_cell_length_b 8.056241
_cell_length_c 9.723683
_cell_angle_alpha 47.346172
_cell_angle_beta 120.010460
_cell_angle_gamma 121.128483
_cell_volume 579.853835
_symmetry_space_group_name_H-M "P -1"
_symmetry_group_IT_number 2
_symmetry_cell_setting 'triclinic'
loop_
_space_group_symop_operation_xyz
x,y,z
-x,-y,-z
loop_
_atom_site_type_symbol
_atom_site_label
_atom_site_fract_x
_atom_site_fract_y
_atom_site_fract_z
Si Si1 0.960855 0.732150 0.303183
Si Si2 0.860868 0.821710 0.472148
Si Si3 0.824252 0.956317 0.905784
Si Si4 0.400910 0.152634 0.564042
Si Si5 0.585143 0.358592 0.818818
Si Si6 0.132364 0.619576 0.099555
Si Si7 0.477573 0.225912 0.118472
O O1 0.870422 0.789288 0.334758
O O2 0.000000 0.500000 0.500000
O O3 0.099261 0.932525 0.246728
O O4 0.874259 0.735182 0.110515
O O5 0.736613 0.895022 0.412242
O O6 0.850667 0.571527 0.673098
O O7 0.000000 0.000000 0.500000
O O8 0.873239 0.156121 0.941592
O O9 0.668243 0.898982 0.846772
O O10 0.518840 0.259662 0.687630
O O11 0.405933 0.361681 0.341072
O O12 0.424904 0.906371 0.674531
O O13 0.733502 0.330862 0.934558
O O14 0.499232 0.224539 0.967286
O O15 0.000000 0.500000 0.000000
O O16 0.500000 0.500000 0.000000
#
# Coordination Sequence:
#
# PCOD9041300 Si02
#       7
#     2   2   2   2   2   2   2
#     4  11  24  44  70  98 142 186 224 287 359 408
#     4  11  24  41  69 106 135 181 233 287 348 419
#     4  11  25  44  68 103 140 184 236 287 345 426
#     4  10  23  45  71 100 134 181 238 285 347 416
#     4  10  23  43  72  99 133 181 231 290 347 412
#     4  11  23  41  70 103 137 175 235 291 347 418
#     4  12  27  43  70 102 140 188 230 286 353 412
#
# _framework density 24.144017000000002
#
# number of rings (size 3 to 8) (size 9 to 14) (size 15 to 20)
#    0.000    1.143    2.857    2.143    4.000    7.429 
#    0.000    0.000    0.000    0.000    0.000    0.000 
#    0.000    0.000    0.000    0.000    0.000    0.000 
#
# Total GULP energy -78347.228938 kJ/mol
# GULP energy per Si atom -5596.230638 kJ/mol
# Density = 2.408906 g / cm^3
# Si number density = 24.144017 Si / 1000 Ang^3
#
#
#
# Elastic Constant Matrix: (Units=GPa)
#
#
# Indices 1 2 3 4 5 6 
#
# 1 164.0806 13.4765 60.0780 -1.3728 9.5237 34.0843
# 2 13.4765 55.9814 -4.1297 -5.0712 12.6286 4.9240
# 3 60.0780 -4.1297 138.0027 -30.2495 5.0673 -1.5164
# 4 -1.3728 -5.0712 -30.2495 35.4526 -2.7540 5.5806
# 5 9.5237 12.6286 5.0673 -2.7540 49.6327 -1.7398
# 6 34.0843 4.9240 -1.5164 5.5806 -1.7398 34.8528
#
#
#
# Elastic Compliance Matrix: (Units=1/GPa)
#
#
# Indices 1 2 3 4 5 6 
#
# 1 0.010189 -0.001940 -0.005186 -0.002920 -0.001428 -0.009519
# 2 -0.001940 0.020249 0.002717 0.005062 -0.004843 -0.001897
# 3 -0.005186 0.002717 0.011741 0.009613 -0.000234 0.003647
# 4 -0.002920 0.005062 0.009613 0.037583 0.000255 -0.003446
# 5 -0.001428 -0.004843 -0.000234 0.000255 0.021801 0.003117
# 6 -0.009519 -0.001897 0.003647 -0.003446 0.003117 0.039135
#
#
# Mechanical properties :
#
#
# Convention : Reuss Voigt Hill
#
# Bulk Modulus (GPa) = 29.97599 55.21269 42.59434
# Shear Modulus (GPa) = 31.12638 43.23029 37.17833
#
# Velocity S-wave (km/s) = 3.59443 4.23604 3.92836
# Velocity P-wave (km/s) = 5.44693 6.84420 6.18515
#
# Compressibility (1/GPa) = 0.03336003
#
# Stress axis : x y z
#
# Youngs Moduli (GPa) = 98.14965 49.38625 85.17135
#
# Poissons Ratio (x) = 0.09583 0.44168
# Poissons Ratio (y) = 0.19046 -0.23143
# Poissons Ratio (z) = 0.50899 -0.13420
#
# Static dielectric constant tensor:
#      x y z
#    x 1.942830 -0.079380 0.005610 
#    y -0.079380 1.948090 -0.005770 
#    z 0.005610 -0.005770 1.963850 
# 
# From -- ./inp_files/416210.got.cif
#   From: 2010.05.17/outbox.cif.g08.bks.cpg/sg2_209_cif.got.tgz:416210.got - 2010.06.03 11:33:40.
