data_PCOD9041910
_publ_section_title
;
Structure prediction by ZEFSAII (Michael W. Deem and Ramdas Pophale) SiO2 
 PCOD9041910
Probable space group: P -1
;
_chemical_formula_sum "Si O2"
_cell_formula_units_Z 16
_cell_length_a 11.898815
_cell_length_b 19.305630
_cell_length_c 9.960976
_cell_angle_alpha 41.140528
_cell_angle_beta 26.422257
_cell_angle_gamma 36.524542
_cell_volume 601.148613
_symmetry_space_group_name_H-M "P -1"
_symmetry_group_IT_number 2
_symmetry_cell_setting 'triclinic'
loop_
_space_group_symop_operation_xyz
x,y,z
-x,-y,-z
loop_
_atom_site_type_symbol
_atom_site_label
_atom_site_fract_x
_atom_site_fract_y
_atom_site_fract_z
Si Si1 0.103047 0.391577 0.269284
Si Si2 0.449706 0.771646 0.179364
Si Si3 0.345528 0.177174 0.850073
Si Si4 0.878558 0.965621 0.522123
Si Si5 0.301365 0.968871 0.662186
Si Si6 0.673939 0.716326 0.529136
Si Si7 0.449634 0.458731 0.257412
Si Si8 0.753809 0.412226 0.265455
O O1 0.193664 0.370313 0.360627
O O2 0.775535 0.425518 0.591785
O O3 0.327787 0.285220 0.096768
O O4 0.076849 0.509358 0.051087
O O5 0.642018 0.748274 0.141607
O O6 0.242213 0.707336 0.504557
O O7 0.215484 0.907259 0.228787
O O8 0.193073 0.220671 0.805096
O O9 0.679089 0.101870 0.569348
O O10 0.211638 0.097596 0.173084
O O11 0.755403 0.956257 0.522831
O O12 0.434357 0.830387 0.688557
O O13 0.500000 0.000000 0.500000
O O14 0.000000 0.000000 0.000000
O O15 0.627046 0.642734 0.565890
O O16 0.687818 0.404389 0.191289
O O17 0.500000 0.500000 0.000000
O O18 0.500000 0.500000 0.500000
#
# Coordination Sequence:
#
# PCOD9041910 Si02
#       8
#     2   2   2   2   2   2   2   2
#     4  11  26  43  67 100 142 181 249 296 362 438
#     4  11  23  42  72  98 140 191 234 298 371 434
#     4  10  23  44  68 103 138 184 238 296 368 439
#     4  10  24  43  71 103 143 181 245 296 364 445
#     4  11  27  51  77 113 152 190 250 313 377 457
#     4  11  24  47  71 105 137 198 243 303 384 431
#     4  12  25  45  69  98 144 191 245 306 362 445
#     4  10  24  43  65 102 138 182 241 299 364 434
#
# _framework density 26.615711999999998
#
# number of rings (size 3 to 8) (size 9 to 14) (size 15 to 20)
#    0.000    1.250    2.500    1.500    5.250    5.000 
#    6.750    0.000    0.000    0.000    0.000    0.000 
#    0.000    0.000    0.000    0.000    0.000    0.000 
#
# Total GULP energy -89146.278608 kJ/mol
# GULP energy per Si atom -5571.642413 kJ/mol
# Density = 2.655513 g / cm^3
# Si number density = 26.615712 Si / 1000 Ang^3
#
#
#
# Elastic Constant Matrix: (Units=GPa)
#
#
# Indices 1 2 3 4 5 6 
#
# 1 139.7326 5.8061 36.3781 8.0261 46.3992 5.8773
# 2 5.8061 94.2335 36.3901 39.8581 11.8276 4.6749
# 3 36.3781 36.3901 136.7025 26.7410 29.1095 -6.1417
# 4 8.0261 39.8581 26.7410 59.0903 -3.0363 8.8030
# 5 46.3992 11.8276 29.1095 -3.0363 40.9869 -4.4839
# 6 5.8773 4.6749 -6.1417 8.8030 -4.4839 17.5871
#
#
#
# Elastic Compliance Matrix: (Units=1/GPa)
#
#
# Indices 1 2 3 4 5 6 
#
# 1 0.013247 0.003364 -0.000538 -0.003488 -0.016722 -0.008026
# 2 0.003364 0.016989 -0.001452 -0.011305 -0.008817 -0.002737
# 3 -0.000538 -0.001452 0.010266 -0.004639 -0.006067 0.004926
# 4 -0.003488 -0.011305 -0.004639 0.029066 0.011672 -0.009022
# 5 -0.016722 -0.008817 -0.006067 0.011672 0.052507 0.013358
# 6 -0.008026 -0.002737 0.004926 -0.009022 0.013358 0.069911
#
#
# Mechanical properties :
#
#
# Convention : Reuss Voigt Hill
#
# Bulk Modulus (GPa) = 23.12114 58.64635 40.88375
# Shear Modulus (GPa) = 24.55131 43.00581 33.77856
#
# Velocity S-wave (km/s) = 3.04046 4.02407 3.56634
# Velocity P-wave (km/s) = 4.58604 6.60857 5.68792
#
# Compressibility (1/GPa) = 0.04325046
#
# Stress axis : x y z
#
# Youngs Moduli (GPa) = 75.48620 58.86002 97.41329
#
# Poissons Ratio (x) = -0.19802 0.05244
# Poissons Ratio (y) = -0.25395 0.14143
# Poissons Ratio (z) = 0.04063 0.08546
#
# Static dielectric constant tensor:
#      x y z
#    x 2.187520 -0.058230 -0.118800 
#    y -0.058230 2.715420 -0.202760 
#    z -0.118800 -0.202760 2.179720 
# 
# From -- ./inp_files/126914.got.cif
#   From: 2010.05.17/outbox.cif.g08.bks.cpg/sg2_64_cif.got.tgz:126914.got - 2010.06.03 11:33:40.
