data_PCOD9041392
_publ_section_title
;
Structure prediction by ZEFSAII (Michael W. Deem and Ramdas Pophale) SiO2 
 PCOD9041392
Probable space group: P -1
;
_chemical_formula_sum "Si O2"
_cell_formula_units_Z 15
_cell_length_a 12.557129
_cell_length_b 11.524238
_cell_length_c 8.429530
_cell_angle_alpha 127.405801
_cell_angle_beta 97.995645
_cell_angle_gamma 45.918629
_cell_volume 604.093677
_symmetry_space_group_name_H-M "P -1"
_symmetry_group_IT_number 2
_symmetry_cell_setting 'triclinic'
loop_
_space_group_symop_operation_xyz
x,y,z
-x,-y,-z
loop_
_atom_site_type_symbol
_atom_site_label
_atom_site_fract_x
_atom_site_fract_y
_atom_site_fract_z
Si Si1 0.832894 0.748622 0.741921
Si Si2 0.726339 0.056614 0.234189
Si Si3 0.500000 0.500000 0.000000
Si Si4 0.459031 0.127705 0.351525
Si Si5 0.748061 0.287875 0.167161
Si Si6 0.992748 0.181524 0.672316
Si Si7 0.005772 0.174548 0.316830
Si Si8 0.347854 0.344308 0.857671
O O1 0.676595 0.808888 0.734271
O O2 0.836160 0.890056 0.753053
O O3 0.000000 0.500000 0.500000
O O4 0.836661 0.813769 0.969151
O O5 0.820092 0.983245 0.358453
O O6 0.544287 0.176587 0.326109
O O7 0.726005 0.198887 0.238220
O O8 0.415317 0.548417 0.844677
O O9 0.458090 0.373838 0.941117
O O10 0.378907 0.259150 0.612910
O O11 0.596806 0.854827 0.193561
O O12 0.838028 0.334869 0.306130
O O13 0.899757 0.079808 0.901544
O O14 0.958736 0.271129 0.562198
O O15 0.000000 0.000000 0.500000
O O16 0.845038 0.401973 0.934294
#
# Coordination Sequence:
#
# PCOD9041392 Si02
#       8
#     2   2   1   2   2   2   2   2
#     4  11  25  45  73 106 148 205 260 321 380 460
#     4  11  25  46  78 111 154 205 260 320 390 470
#     4  12  26  44  80 106 156 196 258 322 394 456
#     4  11  27  50  74 109 165 206 258 325 390 467
#     4  10  23  46  73 111 148 198 250 320 391 458
#     4  12  25  45  78 116 155 202 263 321 387 470
#     4  10  23  43  74 103 149 194 252 313 376 459
#     4  11  28  46  74 115 155 211 256 319 395 462
#
# _framework density 24.830587999999999
#
# number of rings (size 3 to 8) (size 9 to 14) (size 15 to 20)
#    0.000    1.067    1.333    3.600   14.933    0.533 
#    0.000    1.333    0.000    0.000    0.000    0.000 
#    0.000    0.000    0.000    0.000    0.000    0.000 
#
# Total GULP energy -83564.493143 kJ/mol
# GULP energy per Si atom -5570.966210 kJ/mol
# Density = 2.477407 g / cm^3
# Si number density = 24.830588 Si / 1000 Ang^3
#
#
#
# Elastic Constant Matrix: (Units=GPa)
#
#
# Indices 1 2 3 4 5 6 
#
# 1 145.8167 44.0887 20.2422 -12.9192 12.7885 -18.5395
# 2 44.0887 101.9127 13.8949 -14.2451 5.9637 -16.4831
# 3 20.2422 13.8949 74.7673 -4.7259 -0.6400 -7.5926
# 4 -12.9192 -14.2451 -4.7259 34.8086 -7.7349 7.8390
# 5 12.7885 5.9637 -0.6400 -7.7349 39.0812 -9.3946
# 6 -18.5395 -16.4831 -7.5926 7.8390 -9.3946 38.9979
#
#
#
# Elastic Compliance Matrix: (Units=1/GPa)
#
#
# Indices 1 2 3 4 5 6 
#
# 1 0.008415 -0.002901 -0.001503 0.000930 -0.001698 0.001886
# 2 -0.002901 0.012102 -0.000953 0.003164 0.000439 0.003020
# 3 -0.001503 -0.000953 0.014214 0.000901 0.001488 0.001827
# 4 0.000930 0.003164 0.000901 0.032322 0.004812 -0.003383
# 5 -0.001698 0.000439 0.001488 0.004812 0.028384 0.005539
# 6 0.001886 0.003020 0.001827 -0.003383 0.005539 0.030185
#
#
# Mechanical properties :
#
#
# Convention : Reuss Voigt Hill
#
# Bulk Modulus (GPa) = 41.63875 53.21649 47.42762
# Shear Modulus (GPa) = 34.63949 38.86227 36.75088
#
# Velocity S-wave (km/s) = 3.73907 3.96042 3.85133
# Velocity P-wave (km/s) = 5.95368 6.51088 6.23851
#
# Compressibility (1/GPa) = 0.02401609
#
# Stress axis : x y z
#
# Youngs Moduli (GPa) = 118.83775 82.62831 70.35214
#
# Poissons Ratio (x) = 0.23971 0.10576
# Poissons Ratio (y) = 0.34476 0.06706
# Poissons Ratio (z) = 0.17865 0.07876
#
# Static dielectric constant tensor:
#      x y z
#    x 1.807630 0.035350 -0.081970 
#    y 0.035350 2.010690 0.066210 
#    z -0.081970 0.066210 2.019370 
# 
# From -- ./inp_files/260668.got.cif
#   From: 2010.05.17/outbox.cif.g08.bks.cpg/sg2_131_cif.got.tgz:260668.got - 2010.06.03 11:33:40.
