data_PCOD9041991
_publ_section_title
;
Structure prediction by ZEFSAII (Michael W. Deem and Ramdas Pophale) SiO2 
 PCOD9041991
Probable space group: P -1
;
_chemical_formula_sum "Si O2"
_cell_formula_units_Z 16
_cell_length_a 6.148499
_cell_length_b 17.834523
_cell_length_c 10.012764
_cell_angle_alpha 44.151320
_cell_angle_beta 95.921219
_cell_angle_gamma 99.077921
_cell_volume 755.127204
_symmetry_space_group_name_H-M "P -1"
_symmetry_group_IT_number 2
_symmetry_cell_setting 'triclinic'
loop_
_space_group_symop_operation_xyz
x,y,z
-x,-y,-z
loop_
_atom_site_type_symbol
_atom_site_label
_atom_site_fract_x
_atom_site_fract_y
_atom_site_fract_z
Si Si1 0.206295 0.483947 0.132325
Si Si2 0.985887 0.097098 0.683148
Si Si3 0.608475 0.643367 0.039517
Si Si4 0.724119 0.075210 0.956131
Si Si5 0.296606 0.765774 0.005910
Si Si6 0.675010 0.740478 0.662984
Si Si7 0.986029 0.542742 0.297262
Si Si8 0.349259 0.893990 0.574050
O O1 0.388282 0.589348 0.017921
O O2 0.334541 0.381952 0.237247
O O3 0.102185 0.473013 0.286699
O O4 0.000000 0.500000 0.000000
O O5 0.162136 0.191049 0.515562
O O6 0.839736 0.125308 0.764490
O O7 0.831196 0.066685 0.585341
O O8 0.112937 0.000221 0.867073
O O9 0.524055 0.715627 0.057342
O O10 0.739127 0.550946 0.223082
O O11 0.755393 0.717169 0.848508
O O12 0.682587 0.162110 0.953607
O O13 0.500000 0.000000 0.000000
O O14 0.110368 0.664748 0.142070
O O15 0.263169 0.831446 0.783305
O O16 0.477741 0.811693 0.596732
O O17 0.000000 0.500000 0.500000
O O18 0.500000 0.000000 0.500000
#
# Coordination Sequence:
#
# PCOD9041991 Si02
#       8
#     2   2   2   2   2   2   2   2
#     4  11  24  42  69  99 136 173 225 282 330 401
#     4  11  25  42  69  98 134 171 224 279 335 407
#     4  10  23  44  68  97 137 175 222 280 333 398
#     4  11  25  48  66  97 139 179 222 276 340 407
#     4  10  24  43  69  95 134 179 223 278 340 403
#     4  11  23  39  70 101 127 173 225 279 339 386
#     4  11  25  44  64  98 138 180 225 270 340 408
#     4  11  24  44  69 102 133 172 227 282 342 407
#
# _framework density 21.188483999999999
#
# number of rings (size 3 to 8) (size 9 to 14) (size 15 to 20)
#    0.000    1.250    1.250    3.375    5.250    8.000 
#    4.500    0.000    0.000    0.000    0.000    0.000 
#    0.000    0.000    0.000    0.000    0.000    0.000 
#
# Total GULP energy -89307.924252 kJ/mol
# GULP energy per Si atom -5581.745266 kJ/mol
# Density = 2.114026 g / cm^3
# Si number density = 21.188484 Si / 1000 Ang^3
#
#
#
# Elastic Constant Matrix: (Units=GPa)
#
#
# Indices 1 2 3 4 5 6 
#
# 1 56.6034 35.7115 37.5059 13.0511 -10.8673 -9.5963
# 2 35.7115 118.7457 14.1164 3.5787 -14.2866 -25.0651
# 3 37.5059 14.1164 124.9018 13.4478 -21.3935 5.1264
# 4 13.0511 3.5787 13.4478 30.4954 -6.0956 -5.4917
# 5 -10.8673 -14.2866 -21.3935 -6.0956 43.7582 7.2314
# 6 -9.5963 -25.0651 5.1264 -5.4917 7.2314 32.9879
#
#
#
# Elastic Compliance Matrix: (Units=1/GPa)
#
#
# Indices 1 2 3 4 5 6 
#
# 1 0.029278 -0.007096 -0.007288 -0.007991 -0.000213 0.002975
# 2 -0.007096 0.012141 0.000411 0.003062 0.001631 0.007249
# 3 -0.007288 0.000411 0.011304 -0.001910 0.004385 -0.004844
# 4 -0.007991 0.003062 -0.001910 0.038281 0.002399 0.006146
# 5 -0.000213 0.001631 0.004385 0.002399 0.026627 -0.004942
# 6 0.002975 0.007249 -0.004844 0.006146 -0.004942 0.039547
#
#
# Mechanical properties :
#
#
# Convention : Reuss Voigt Hill
#
# Bulk Modulus (GPa) = 40.36065 52.76870 46.56468
# Shear Modulus (GPa) = 25.85547 35.64277 30.74912
#
# Velocity S-wave (km/s) = 3.49701 4.10588 3.81362
# Velocity P-wave (km/s) = 5.94939 6.88739 6.43550
#
# Compressibility (1/GPa) = 0.02477661
#
# Stress axis : x y z
#
# Youngs Moduli (GPa) = 34.15477 82.36854 88.46502
#
# Poissons Ratio (x) = 0.58446 0.64475
# Poissons Ratio (y) = 0.24235 -0.03633
# Poissons Ratio (z) = 0.24893 -0.03383
#
# Static dielectric constant tensor:
#      x y z
#    x 1.891260 -0.014890 0.055040 
#    y -0.014890 1.763400 -0.010430 
#    z 0.055040 -0.010430 1.806870 
# 
# From -- ./inp_files/138591.got.cif
#   From: 2010.05.17/outbox.cif.g08.bks.cpg/sg2_70_cif.got.tgz:138591.got - 2010.06.03 11:33:40.
