data_PCOD9041037
_publ_section_title
;
Structure prediction by ZEFSAII (Michael W. Deem and Ramdas Pophale) SiO2 
 PCOD9041037
Probable space group: P -1
;
_chemical_formula_sum "Si O2"
_cell_formula_units_Z 14
_cell_length_a 9.314291
_cell_length_b 5.501907
_cell_length_c 12.479482
_cell_angle_alpha 96.551049
_cell_angle_beta 89.497745
_cell_angle_gamma 103.183364
_cell_volume 618.509301
_symmetry_space_group_name_H-M "P -1"
_symmetry_group_IT_number 2
_symmetry_cell_setting 'triclinic'
loop_
_space_group_symop_operation_xyz
x,y,z
-x,-y,-z
loop_
_atom_site_type_symbol
_atom_site_label
_atom_site_fract_x
_atom_site_fract_y
_atom_site_fract_z
Si Si1 0.889485 0.473405 0.801708
Si Si2 0.629149 0.748725 0.516839
Si Si3 0.340388 0.938669 0.860074
Si Si4 0.371567 0.892819 0.622812
Si Si5 0.154739 0.534292 0.443147
Si Si6 0.614418 0.341672 0.948745
Si Si7 0.040022 0.044738 0.877387
O O1 0.851624 0.389816 0.675643
O O2 0.742443 0.467658 0.872739
O O3 0.980009 0.765230 0.812840
O O4 0.973015 0.271098 0.843082
O O5 0.500000 0.500000 0.500000
O O6 0.543779 0.915340 0.597206
O O7 0.777603 0.712006 0.566141
O O8 0.655346 0.838399 0.398589
O O9 0.332755 0.809588 0.738382
O O10 0.217009 0.101438 0.869153
O O11 0.505767 0.104910 0.880638
O O12 0.313007 0.756509 0.952860
O O13 0.267158 0.721339 0.528801
O O14 0.000000 0.500000 0.500000
O O15 0.500000 0.500000 0.000000
O O16 0.000000 0.000000 0.000000
#
# Coordination Sequence:
#
# PCOD9041037 Si02
#       7
#     2   2   2   2   2   2   2
#     4  12  29  47  79 105 151 194 238 306 360 434
#     4   9  22  41  63  96 130 182 233 282 349 423
#     4  11  26  44  73 102 141 191 242 304 361 434
#     4  10  23  43  70  94 137 184 235 289 355 432
#     4  11  26  44  66 105 142 184 234 294 359 426
#     4  11  27  45  70 108 143 186 247 306 364 425
#     4  12  26  51  73 107 144 196 244 291 368 432
#
# _framework density 22.635066999999999
#
# number of rings (size 3 to 8) (size 9 to 14) (size 15 to 20)
#    0.000    1.143    1.429    2.143   16.000    1.714 
#    0.000    0.000    0.000    0.000    0.000    0.000 
#    0.000    0.000    0.000    0.000    0.000    0.000 
#
# Total GULP energy -78178.749346 kJ/mol
# GULP energy per Si atom -5584.196382 kJ/mol
# Density = 2.258355 g / cm^3
# Si number density = 22.635067 Si / 1000 Ang^3
#
#
#
# Elastic Constant Matrix: (Units=GPa)
#
#
# Indices 1 2 3 4 5 6 
#
# 1 152.2526 25.4441 47.8573 -20.7843 -7.5209 -22.2373
# 2 25.4441 67.3968 18.1232 -1.3714 12.5709 -8.7245
# 3 47.8573 18.1232 150.8592 -7.9510 8.9254 -5.3637
# 4 -20.7843 -1.3714 -7.9510 27.7849 4.0009 6.2746
# 5 -7.5209 12.5709 8.9254 4.0009 29.5297 -3.8582
# 6 -22.2373 -8.7245 -5.3637 6.2746 -3.8582 44.5870
#
#
#
# Elastic Compliance Matrix: (Units=1/GPa)
#
#
# Indices 1 2 3 4 5 6 
#
# 1 0.009180 -0.003060 -0.002426 0.004652 0.004187 0.003395
# 2 -0.003060 0.017801 -0.000696 -0.000770 -0.007873 0.001300
# 3 -0.002426 -0.000696 0.007673 0.000942 -0.002873 -0.000805
# 4 0.004652 -0.000770 0.000942 0.041298 -0.004884 -0.003952
# 5 0.004187 -0.007873 -0.002873 -0.004884 0.040385 0.004384
# 6 0.003395 0.001300 -0.000805 -0.003952 0.004384 0.025215
#
#
# Mechanical properties :
#
#
# Convention : Reuss Voigt Hill
#
# Bulk Modulus (GPa) = 44.86598 61.48418 53.17508
# Shear Modulus (GPa) = 30.98919 38.98592 34.98755
#
# Velocity S-wave (km/s) = 3.70412 4.15464 3.93583
# Velocity P-wave (km/s) = 6.17726 7.08780 6.64814
#
# Compressibility (1/GPa) = 0.02228860
#
# Stress axis : x y z
#
# Youngs Moduli (GPa) = 108.93366 56.17641 130.32516
#
# Poissons Ratio (x) = 0.17190 0.31622
# Poissons Ratio (y) = 0.33334 0.09075
# Poissons Ratio (z) = 0.26432 0.03912
#
# Static dielectric constant tensor:
#      x y z
#    x 1.624270 0.567220 0.164690 
#    y 0.567220 0.444440 -0.438090 
#    z 0.164690 -0.438090 1.702240 
# 
# From -- ./inp_files/76106.got.cif
#   From: 2010.05.17/outbox.cif.g08.bks.cpg/sg2_39_cif.got.tgz:76106.got - 2010.06.03 11:33:40.
