data_PCOD9041376
_publ_section_title
;
Structure prediction by ZEFSAII (Michael W. Deem and Ramdas Pophale) SiO2 
 PCOD9041376
Probable space group: P -1
;
_chemical_formula_sum "Si O2"
_cell_formula_units_Z 16
_cell_length_a 11.226123
_cell_length_b 12.314255
_cell_length_c 17.977691
_cell_angle_alpha 40.550379
_cell_angle_beta 147.626052
_cell_angle_gamma 148.679361
_cell_volume 685.146854
_symmetry_space_group_name_H-M "P -1"
_symmetry_group_IT_number 2
_symmetry_cell_setting 'triclinic'
loop_
_space_group_symop_operation_xyz
x,y,z
-x,-y,-z
loop_
_atom_site_type_symbol
_atom_site_label
_atom_site_fract_x
_atom_site_fract_y
_atom_site_fract_z
Si Si1 0.551457 0.029574 0.248758
Si Si2 0.618303 0.692880 0.515827
Si Si3 0.787480 0.345493 0.341867
Si Si4 0.112168 0.370409 0.104090
Si Si5 0.942005 0.769429 0.138705
Si Si6 0.295249 0.388492 0.630829
Si Si7 0.192551 0.193073 0.106099
Si Si8 0.200540 0.959948 0.763292
O O1 0.626568 0.873899 0.388199
O O2 0.240977 0.904074 0.183691
O O3 0.748457 0.233834 0.299190
O O4 0.574683 0.043902 0.163889
O O5 0.500000 0.500000 0.500000
O O6 0.413100 0.581580 0.535290
O O7 0.926505 0.799356 0.652335
O O8 0.896083 0.580462 0.257691
O O9 0.473391 0.233986 0.264559
O O10 0.982258 0.321211 0.511019
O O11 0.442763 0.506510 0.229363
O O12 0.102657 0.310328 0.045281
O O13 0.903662 0.152596 0.153301
O O14 0.000000 0.500000 0.000000
O O15 0.742108 0.717007 0.990507
O O16 0.962142 0.940648 0.112384
O O17 0.265460 0.186926 0.686814
#
# Coordination Sequence:
#
# PCOD9041376 Si02
#       8
#     2   2   2   2   2   2   2   2
#     4  11  21  34  65 105 134 169 217 279 333 400
#     4  11  19  33  59  96 143 172 212 277 332 390
#     4  11  22  41  72 101 130 171 226 282 341 392
#     4  11  29  48  66  94 140 183 226 276 329 411
#     4  10  23  43  73  99 133 171 220 292 338 389
#     4  11  23  41  66 100 134 181 221 274 344 395
#     4  10  25  47  65 100 133 177 231 270 336 399
#     4  11  24  39  62 100 138 180 226 266 337 408
#
# _framework density 23.352657000000001
#
# number of rings (size 3 to 8) (size 9 to 14) (size 15 to 20)
#    0.000    1.250    3.750    1.500    3.500    2.000 
#    0.000    1.250    0.000    0.000    0.000    0.000 
#    0.000    0.000    0.000    0.000    0.000    0.000 
#
# Total GULP energy -89298.543863 kJ/mol
# GULP energy per Si atom -5581.158991 kJ/mol
# Density = 2.329951 g / cm^3
# Si number density = 23.352657 Si / 1000 Ang^3
#
#
#
# Elastic Constant Matrix: (Units=GPa)
#
#
# Indices 1 2 3 4 5 6 
#
# 1 53.4899 33.0931 13.3867 -0.5539 12.9374 -23.9694
# 2 33.0931 112.1163 10.0496 -18.7789 -6.4481 -17.1749
# 3 13.3867 10.0496 75.3020 1.4486 10.3710 -8.7658
# 4 -0.5539 -18.7789 1.4486 38.8403 -0.7516 7.7576
# 5 12.9374 -6.4481 10.3710 -0.7516 22.6958 -2.8340
# 6 -23.9694 -17.1749 -8.7658 7.7576 -2.8340 36.0129
#
#
#
# Elastic Compliance Matrix: (Units=1/GPa)
#
#
# Indices 1 2 3 4 5 6 
#
# 1 0.042360 -0.012259 0.000436 -0.010362 -0.025339 0.022692
# 2 -0.012259 0.014252 -0.001780 0.007507 0.011789 -0.002485
# 3 0.000436 -0.001780 0.014819 -0.002134 -0.007230 0.002939
# 4 -0.010362 0.007507 -0.002134 0.031459 0.008818 -0.009919
# 5 -0.025339 0.011789 -0.007230 0.008818 0.064221 -0.009848
# 6 0.022692 -0.002485 0.002939 -0.009919 -0.009848 0.043763
#
#
# Mechanical properties :
#
#
# Convention : Reuss Voigt Hill
#
# Bulk Modulus (GPa) = 22.61163 39.32967 30.97065
# Shear Modulus (GPa) = 19.77677 31.80172 25.78924
#
# Velocity S-wave (km/s) = 2.91327 3.69426 3.32676
# Velocity P-wave (km/s) = 4.58474 5.92241 5.29598
#
# Compressibility (1/GPa) = 0.04422504
#
# Stress axis : x y z
#
# Youngs Moduli (GPa) = 23.60699 70.16515 67.48197
#
# Poissons Ratio (x) = 0.86017 -0.02944
# Poissons Ratio (y) = 0.28940 0.12012
# Poissons Ratio (z) = -0.01030 0.12490
#
# Static dielectric constant tensor:
#      x y z
#    x 2.001380 0.089520 0.135620 
#    y 0.089520 2.037120 0.266690 
#    z 0.135620 0.266690 2.200370 
# 
# From -- ./inp_files/595107.got.cif
#   From: 2010.05.17/outbox.cif.g08.bks.cpg/sg2_298_cif.got.tgz:595107.got - 2010.06.03 11:33:40.
