data_PCOD9041811
_publ_section_title
;
Structure prediction by ZEFSAII (Michael W. Deem and Ramdas Pophale) SiO2 
 PCOD9041811
Probable space group: P -1
;
_chemical_formula_sum "Si O2"
_cell_formula_units_Z 16
_cell_length_a 13.130929
_cell_length_b 9.954493
_cell_length_c 14.950719
_cell_angle_alpha 63.115327
_cell_angle_beta 133.788426
_cell_angle_gamma 145.025423
_cell_volume 776.906623
_symmetry_space_group_name_H-M "P -1"
_symmetry_group_IT_number 2
_symmetry_cell_setting 'triclinic'
loop_
_space_group_symop_operation_xyz
x,y,z
-x,-y,-z
loop_
_atom_site_type_symbol
_atom_site_label
_atom_site_fract_x
_atom_site_fract_y
_atom_site_fract_z
Si Si1 0.032782 0.907635 0.968027
Si Si2 0.901201 0.234096 0.806877
Si Si3 0.135027 0.957103 0.592773
Si Si4 0.365804 0.496018 0.264419
Si Si5 0.244400 0.346546 0.871786
Si Si6 0.102845 0.416384 0.587564
Si Si7 0.523654 0.765582 0.601922
Si Si8 0.173015 0.488490 0.324029
O O1 0.807522 0.631746 0.884378
O O2 0.109314 0.073947 0.881277
O O3 0.190523 0.920901 0.110930
O O4 0.000000 0.000000 0.000000
O O5 0.918487 0.423324 0.778020
O O6 0.144150 0.369706 0.882130
O O7 0.733043 0.040662 0.682419
O O8 0.399106 0.216062 0.690241
O O9 0.000000 0.000000 0.500000
O O10 0.085907 0.840805 0.501988
O O11 0.011526 0.750443 0.654040
O O12 0.415543 0.358884 0.336674
O O13 0.242320 0.448505 0.293266
O O14 0.186032 0.394529 0.733121
O O15 0.500000 0.500000 0.000000
O O16 0.326447 0.609661 0.603156
O O17 0.000000 0.500000 0.500000
O O18 0.403940 0.712937 0.453665
#
# Coordination Sequence:
#
# PCOD9041811 Si02
#       8
#     2   2   2   2   2   2   2   2
#     4  10  23  44  67  94 130 178 236 279 334 419
#     4  11  24  45  67  99 138 176 237 288 340 410
#     4  11  25  42  65 103 144 174 230 286 343 424
#     4  12  24  43  72  97 138 185 231 279 354 416
#     4  11  23  39  73 101 130 184 237 282 343 413
#     4  11  25  42  68 107 142 178 232 295 349 401
#     4  11  22  42  70 100 138 178 230 287 340 424
#     4  11  26  43  68 104 142 180 221 291 364 399
#
# _framework density 20.594495999999999
#
# number of rings (size 3 to 8) (size 9 to 14) (size 15 to 20)
#    0.000    1.000    5.000    3.000    7.000    0.500 
#    2.250    0.625    0.000    0.000    0.000    0.000 
#    0.000    0.000    0.000    0.000    0.000    0.000 
#
# Total GULP energy -89233.297782 kJ/mol
# GULP energy per Si atom -5577.081111 kJ/mol
# Density = 2.054762 g / cm^3
# Si number density = 20.594496 Si / 1000 Ang^3
#
#
#
# Elastic Constant Matrix: (Units=GPa)
#
#
# Indices 1 2 3 4 5 6 
#
# 1 119.8057 41.2080 54.5316 -15.4687 7.7211 -9.3628
# 2 41.2080 97.6380 49.1722 -7.7440 8.1849 -11.2146
# 3 54.5316 49.1722 109.6706 7.3931 -14.0939 -4.5225
# 4 -15.4687 -7.7440 7.3931 43.5332 1.4913 12.2793
# 5 7.7211 8.1849 -14.0939 1.4913 27.6809 -3.8408
# 6 -9.3628 -11.2146 -4.5225 12.2793 -3.8408 32.1126
#
#
#
# Elastic Compliance Matrix: (Units=1/GPa)
#
#
# Indices 1 2 3 4 5 6 
#
# 1 0.013470 -0.000576 -0.007961 0.006560 -0.008115 -0.000874
# 2 -0.000576 0.015764 -0.008066 0.003774 -0.008570 0.001733
# 3 -0.007961 -0.008066 0.019379 -0.008876 0.015342 0.002820
# 4 0.006560 0.003774 -0.008876 0.030991 -0.010681 -0.011147
# 5 -0.008115 -0.008570 0.015342 -0.010681 0.050268 0.006898
# 6 -0.000874 0.001733 0.002820 -0.011147 0.006898 0.036976
#
#
# Mechanical properties :
#
#
# Convention : Reuss Voigt Hill
#
# Bulk Modulus (GPa) = 64.89990 68.54867 66.72428
# Shear Modulus (GPa) = 24.36776 32.81217 28.58997
#
# Velocity S-wave (km/s) = 3.44352 3.99588 3.72994
# Velocity P-wave (km/s) = 6.88419 7.39234 7.14279
#
# Compressibility (1/GPa) = 0.01540834
#
# Stress axis : x y z
#
# Youngs Moduli (GPa) = 74.23866 63.43594 51.60118
#
# Poissons Ratio (x) = 0.03651 0.41079
# Poissons Ratio (y) = 0.04273 0.41622
# Poissons Ratio (z) = 0.59100 0.51168
#
# Static dielectric constant tensor:
#      x y z
#    x 1.729780 0.009900 -0.002030 
#    y 0.009900 1.749890 -0.037910 
#    z -0.002030 -0.037910 1.855580 
# 
# From -- ./inp_files/515425.got.cif
#   From: 2010.05.17/outbox.cif.g08.bks.cpg/sg2_258_cif.got.tgz:515425.got - 2010.06.03 11:33:40.
