data_PCOD9041617
_publ_section_title
;
Structure prediction by ZEFSAII (Michael W. Deem and Ramdas Pophale) SiO2 
 PCOD9041617
Probable space group: P -1
;
_chemical_formula_sum "Si O2"
_cell_formula_units_Z 16
_cell_length_a 17.192892
_cell_length_b 7.659272
_cell_length_c 10.542646
_cell_angle_alpha 91.864103
_cell_angle_beta 151.637864
_cell_angle_gamma 87.977605
_cell_volume 659.092065
_symmetry_space_group_name_H-M "P -1"
_symmetry_group_IT_number 2
_symmetry_cell_setting 'triclinic'
loop_
_space_group_symop_operation_xyz
x,y,z
-x,-y,-z
loop_
_atom_site_type_symbol
_atom_site_label
_atom_site_fract_x
_atom_site_fract_y
_atom_site_fract_z
Si Si1 0.516273 0.070130 0.703665
Si Si2 0.258363 0.867950 0.203770
Si Si3 0.699870 0.337002 0.375675
Si Si4 0.019843 0.205615 0.517623
Si Si5 0.183615 0.498461 0.212063
Si Si6 0.322024 0.623740 0.947787
Si Si7 0.940298 0.800784 0.137012
Si Si8 0.360920 0.250656 0.985293
O O1 0.594282 0.140948 0.686974
O O2 0.341551 0.981846 0.437358
O O3 0.630356 0.910856 0.910899
O O4 0.543470 0.229030 0.840094
O O5 0.212878 0.675481 0.178087
O O6 0.115685 0.996990 0.951289
O O7 0.711392 0.478717 0.508394
O O8 0.698365 0.409135 0.232622
O O9 0.527272 0.240260 0.143087
O O10 0.868464 0.224007 0.628861
O O11 0.059946 0.265124 0.720132
O O12 0.849040 0.298923 0.240756
O O13 0.179757 0.241739 0.664512
O O14 0.000000 0.000000 0.500000
O O15 0.182831 0.323017 0.122191
O O16 0.000000 0.500000 0.000000
O O17 0.365216 0.438038 0.064396
#
# Coordination Sequence:
#
# PCOD9041617 Si02
#       8
#     2   2   2   2   2   2   2   2
#     4  11  25  42  70 107 135 175 229 287 337 404
#     4  11  23  44  70 103 139 176 228 282 339 403
#     4  10  24  46  64 102 136 174 232 279 328 412
#     4  11  22  46  68 102 135 167 231 283 330 411
#     4  10  23  44  65  97 140 175 229 271 327 408
#     4  11  25  45  71  97 136 186 222 274 358 391
#     4  10  23  44  71  98 134 184 220 274 350 394
#     4  12  23  45  67 100 141 172 230 284 333 408
#
# _framework density 24.275818000000001
#
# number of rings (size 3 to 8) (size 9 to 14) (size 15 to 20)
#    0.000    1.250    3.750    0.750    3.500    2.500 
#    9.000    3.125    0.000    0.000    0.000    0.000 
#    0.000    0.000    0.000    0.000    0.000    0.000 
#
# Total GULP energy -89359.930911 kJ/mol
# GULP energy per Si atom -5584.995682 kJ/mol
# Density = 2.422057 g / cm^3
# Si number density = 24.275818 Si / 1000 Ang^3
#
#
#
# Elastic Constant Matrix: (Units=GPa)
#
#
# Indices 1 2 3 4 5 6 
#
# 1 64.3301 30.7012 28.3002 11.4983 8.2286 14.0323
# 2 30.7012 152.4513 15.3459 4.1148 8.1344 7.0950
# 3 28.3002 15.3459 70.8882 17.0416 27.4880 -0.0579
# 4 11.4983 4.1148 17.0416 39.9582 -4.2442 10.5715
# 5 8.2286 8.1344 27.4880 -4.2442 53.3700 12.6975
# 6 14.0323 7.0950 -0.0579 10.5715 12.6975 31.4248
#
#
#
# Elastic Compliance Matrix: (Units=1/GPa)
#
#
# Indices 1 2 3 4 5 6 
#
# 1 0.024142 -0.003432 -0.012124 0.002874 0.006516 -0.013627
# 2 -0.003432 0.007276 -0.000027 0.000174 -0.000566 0.000060
# 3 -0.012124 -0.000027 0.030675 -0.016752 -0.019806 0.019114
# 4 0.002874 0.000174 -0.016752 0.038566 0.016190 -0.020869
# 5 0.006516 -0.000566 -0.019806 0.016190 0.034599 -0.022245
# 6 -0.013627 0.000060 0.019114 -0.020869 -0.022245 0.053938
#
#
# Mechanical properties :
#
#
# Convention : Reuss Voigt Hill
#
# Bulk Modulus (GPa) = 32.33419 48.48490 40.40955
# Shear Modulus (GPa) = 21.67585 39.17208 30.42396
#
# Velocity S-wave (km/s) = 2.99138 4.02135 3.54398
# Velocity P-wave (km/s) = 5.02788 6.44807 5.78175
#
# Compressibility (1/GPa) = 0.03092702
#
# Stress axis : x y z
#
# Youngs Moduli (GPa) = 41.42224 137.43543 32.59960
#
# Poissons Ratio (x) = 0.47173 0.39523
# Poissons Ratio (y) = 0.14218 0.00088
# Poissons Ratio (z) = 0.50219 0.00371
#
# Static dielectric constant tensor:
#      x y z
#    x 1.987660 -0.038610 -0.024250 
#    y -0.038610 1.914110 0.019790 
#    z -0.024250 0.019790 2.040430 
# 
# From -- ./inp_files/461288.got.cif
#   From: 2010.05.17/outbox.cif.g08.bks.cpg/sg2_231_cif.got.tgz:461288.got - 2010.06.03 11:33:40.
