data_PCOD9041434
_publ_section_title
;
Structure prediction by ZEFSAII (Michael W. Deem and Ramdas Pophale) SiO2 
 PCOD9041434
Probable space group: P -1
;
_chemical_formula_sum "Si O2"
_cell_formula_units_Z 12
_cell_length_a 7.953890
_cell_length_b 8.912319
_cell_length_c 16.354043
_cell_angle_alpha 44.334655
_cell_angle_beta 55.000483
_cell_angle_gamma 33.924863
_cell_volume 451.570923
_symmetry_space_group_name_H-M "P -1"
_symmetry_group_IT_number 2
_symmetry_cell_setting 'triclinic'
loop_
_space_group_symop_operation_xyz
x,y,z
-x,-y,-z
loop_
_atom_site_type_symbol
_atom_site_label
_atom_site_fract_x
_atom_site_fract_y
_atom_site_fract_z
Si Si1 0.626911 0.120249 0.959389
Si Si2 0.004647 0.229113 0.647418
Si Si3 0.166432 0.684114 0.757687
Si Si4 0.557764 0.304945 0.481827
Si Si5 0.686740 0.722113 0.681150
Si Si6 0.211513 0.465558 0.092866
O O1 0.485653 0.242109 0.041404
O O2 0.463515 0.422009 0.832065
O O3 0.983835 0.826133 0.986214
O O4 0.500000 0.000000 0.000000
O O5 0.772910 0.494078 0.541646
O O6 0.930607 0.410860 0.680076
O O7 0.953042 0.012594 0.737779
O O8 0.360792 0.959727 0.636015
O O9 0.262392 0.706558 0.634761
O O10 0.987450 0.599573 0.832684
O O11 0.500000 0.500000 0.500000
O O12 0.722952 0.952253 0.591352
O O13 0.682316 0.613663 0.812873
#
# Coordination Sequence:
#
# PCOD9041434 Si02
#       6
#     2   2   2   2   2   2
#     4  10  23  43  75 107 143 186 238 305 356 409
#     4  12  27  49  71 105 150 196 229 294 365 437
#     4  11  26  46  76 109 143 187 249 297 359 420
#     4  12  29  47  78 109 144 187 247 305 349 433
#     4  12  28  48  72 106 152 191 234 288 374 425
#     4  11  25  46  76 108 142 188 244 298 352 426
#
# _framework density 26.573899000000001
#
# number of rings (size 3 to 8) (size 9 to 14) (size 15 to 20)
#    0.000    0.667    1.667    5.000   16.333    1.333 
#    0.000    5.000    0.000    0.000    0.000    0.000 
#    0.000    0.000    0.000    0.000    0.000    0.000 
#
# Total GULP energy -67326.354129 kJ/mol
# GULP energy per Si atom -5610.529511 kJ/mol
# Density = 2.651342 g / cm^3
# Si number density = 26.573899 Si / 1000 Ang^3
#
#
#
# Elastic Constant Matrix: (Units=GPa)
#
#
# Indices 1 2 3 4 5 6 
#
# 1 95.5164 28.4704 30.6091 1.3455 10.3919 15.4698
# 2 28.4704 171.8749 44.7813 4.6349 8.1168 37.1937
# 3 30.6091 44.7813 125.2856 -0.6764 18.9011 23.4840
# 4 1.3455 4.6349 -0.6764 57.7591 -0.5063 8.7586
# 5 10.3919 8.1168 18.9011 -0.5063 36.4349 6.9845
# 6 15.4698 37.1937 23.4840 8.7586 6.9845 52.7792
#
#
#
# Elastic Compliance Matrix: (Units=1/GPa)
#
#
# Indices 1 2 3 4 5 6 
#
# 1 0.011863 -0.001013 -0.001950 0.000017 -0.001829 -0.001657
# 2 -0.001013 0.007296 -0.001624 0.000054 0.000307 -0.004171
# 3 -0.001950 -0.001624 0.010063 0.000617 -0.003842 -0.002355
# 4 0.000017 0.000054 0.000617 0.017829 0.000553 -0.003350
# 5 -0.001829 0.000307 -0.003842 0.000553 0.030298 -0.002072
# 6 -0.001657 -0.004171 -0.002355 -0.003350 -0.002072 0.024250
#
#
# Mechanical properties :
#
#
# Convention : Reuss Voigt Hill
#
# Bulk Modulus (GPa) = 49.87916 66.71092 58.29504
# Shear Modulus (GPa) = 42.56939 48.64903 45.60921
#
# Velocity S-wave (km/s) = 4.00675 4.28332 4.14734
# Velocity P-wave (km/s) = 6.34162 7.04421 6.70212
#
# Compressibility (1/GPa) = 0.02004845
#
# Stress axis : x y z
#
# Youngs Moduli (GPa) = 84.29475 137.06279 99.37128
#
# Poissons Ratio (x) = 0.13879 0.19376
# Poissons Ratio (y) = 0.08536 0.16142
# Poissons Ratio (z) = 0.16436 0.22265
#
# Static dielectric constant tensor:
#      x y z
#    x 2.151830 -0.010110 -0.109310 
#    y -0.010110 2.005840 -0.010940 
#    z -0.109310 -0.010940 2.143630 
# 
# From -- ./inp_files/227925.got.cif
#   From: 2010.05.17/outbox.cif.g08.bks.cpg/sg2_114_cif.got.tgz:227925.got - 2010.06.03 11:33:40.
