data_PCOD9041494
_publ_section_title
;
Structure prediction by ZEFSAII (Michael W. Deem and Ramdas Pophale) SiO2 
 PCOD9041494
Probable space group: P -1
;
_chemical_formula_sum "Si O2"
_cell_formula_units_Z 16
_cell_length_a 8.077063
_cell_length_b 13.872957
_cell_length_c 12.893792
_cell_angle_alpha 44.554901
_cell_angle_beta 135.151991
_cell_angle_gamma 115.933548
_cell_volume 708.096526
_symmetry_space_group_name_H-M "P -1"
_symmetry_group_IT_number 2
_symmetry_cell_setting 'triclinic'
loop_
_space_group_symop_operation_xyz
x,y,z
-x,-y,-z
loop_
_atom_site_type_symbol
_atom_site_label
_atom_site_fract_x
_atom_site_fract_y
_atom_site_fract_z
Si Si1 0.798158 0.079687 0.562064
Si Si2 0.639689 0.295571 0.918768
Si Si3 0.455178 0.811105 0.420657
Si Si4 0.275882 0.933374 0.685892
Si Si5 0.272601 0.433673 0.165119
Si Si6 0.966981 0.838413 0.111924
Si Si7 0.836406 0.764470 0.889633
Si Si8 0.299895 0.134930 0.811831
O O1 0.670674 0.146346 0.556962
O O2 0.677285 0.127304 0.363310
O O3 0.072048 0.109166 0.663394
O O4 0.788646 0.914896 0.696628
O O5 0.681681 0.177899 0.118319
O O6 0.889684 0.286637 0.978640
O O7 0.580330 0.442402 0.837550
O O8 0.451700 0.261249 0.775164
O O9 0.662645 0.687231 0.629122
O O10 0.237916 0.766614 0.293376
O O11 0.563218 0.943463 0.323158
O O12 0.000000 0.000000 0.500000
O O13 0.303106 0.352219 0.132043
O O14 0.000000 0.500000 0.000000
O O15 0.818625 0.830131 0.155523
O O16 0.833221 0.791789 0.989135
O O17 0.000000 0.000000 0.000000
O O18 0.500000 0.000000 0.000000
#
# Coordination Sequence:
#
# PCOD9041494 Si02
#       8
#     2   2   2   2   2   2   2   2
#     4  11  22  37  62  96 125 159 215 266 321 368
#     4  11  23  39  62  91 130 168 208 265 322 372
#     4  11  23  40  66  92 125 167 216 264 312 389
#     4  12  21  36  61  96 120 157 214 272 310 363
#     4  10  23  44  62  86 131 178 209 256 320 389
#     4  11  21  36  64  98 126 162 215 263 322 375
#     4  11  20  41  62  93 130 168 211 261 319 387
#     4  11  20  38  61  94 127 162 205 270 317 366
#
# _framework density 22.595789
#
# number of rings (size 3 to 8) (size 9 to 14) (size 15 to 20)
#    0.000    1.000    6.250    1.875    0.000    1.000 
#    0.000    8.750    0.000    0.000    0.000    0.000 
#    0.000    0.000    0.000    0.000    0.000    0.000 
#
# Total GULP energy -89403.390443 kJ/mol
# GULP energy per Si atom -5587.711903 kJ/mol
# Density = 2.254436 g / cm^3
# Si number density = 22.595789 Si / 1000 Ang^3
#
#
#
# Elastic Constant Matrix: (Units=GPa)
#
#
# Indices 1 2 3 4 5 6 
#
# 1 69.6845 10.5285 9.2704 4.6479 2.4116 -7.1156
# 2 10.5285 155.5676 38.1362 9.0019 4.9573 -10.4096
# 3 9.2704 38.1362 84.6078 10.9614 12.6738 -3.0426
# 4 4.6479 9.0019 10.9614 40.4990 2.9246 2.8153
# 5 2.4116 4.9573 12.6738 2.9246 30.5282 11.8634
# 6 -7.1156 -10.4096 -3.0426 2.8153 11.8634 36.7830
#
#
#
# Elastic Compliance Matrix: (Units=1/GPa)
#
#
# Indices 1 2 3 4 5 6 
#
# 1 0.015050 -0.000431 -0.000839 -0.001503 -0.001976 0.003473
# 2 -0.000431 0.007401 -0.003009 -0.000877 -0.000624 0.002031
# 3 -0.000839 -0.003009 0.014661 -0.002924 -0.006192 0.002420
# 4 -0.001503 -0.000877 -0.002924 0.026040 0.000067 -0.002796
# 5 -0.001976 -0.000624 -0.006192 0.000067 0.041154 -0.014349
# 6 0.003473 0.002031 0.002420 -0.002796 -0.014349 0.033475
#
#
# Mechanical properties :
#
#
# Convention : Reuss Voigt Hill
#
# Bulk Modulus (GPa) = 35.02010 47.30335 41.16172
# Shear Modulus (GPa) = 32.08054 38.35703 35.21879
#
# Velocity S-wave (km/s) = 3.77205 4.12458 3.95225
# Velocity P-wave (km/s) = 5.87395 6.60779 6.25165
#
# Compressibility (1/GPa) = 0.02855503
#
# Stress axis : x y z
#
# Youngs Moduli (GPa) = 66.44375 135.11100 68.20961
#
# Poissons Ratio (x) = 0.05817 0.05726
# Poissons Ratio (y) = 0.02860 0.20523
# Poissons Ratio (z) = 0.05577 0.40651
#
# Static dielectric constant tensor:
#      x y z
#    x 2.531780 0.838980 0.107010 
#    y 0.838980 3.144650 0.146350 
#    z 0.107010 0.146350 1.892490 
# 
# From -- ./inp_files/503940.got.cif
#   From: 2010.05.17/outbox.cif.g08.bks.cpg/sg2_252_cif.got.tgz:503940.got - 2010.06.03 11:33:40.
