data_PCOD9041020
_publ_section_title
;
Structure prediction by ZEFSAII (Michael W. Deem and Ramdas Pophale) SiO2 
 PCOD9041020
Probable space group: P -1
;
_chemical_formula_sum "Si O2"
_cell_formula_units_Z 14
_cell_length_a 11.110399
_cell_length_b 11.538903
_cell_length_c 10.373658
_cell_angle_alpha 89.122997
_cell_angle_beta 116.460975
_cell_angle_gamma 37.455277
_cell_volume 532.343466
_symmetry_space_group_name_H-M "P -1"
_symmetry_group_IT_number 2
_symmetry_cell_setting 'triclinic'
loop_
_space_group_symop_operation_xyz
x,y,z
-x,-y,-z
loop_
_atom_site_type_symbol
_atom_site_label
_atom_site_fract_x
_atom_site_fract_y
_atom_site_fract_z
Si Si1 0.333285 0.068608 0.298015
Si Si2 0.225232 0.912079 0.535080
Si Si3 0.153447 0.844882 0.876948
Si Si4 0.621284 0.988279 0.213579
Si Si5 0.697325 0.588027 0.109127
Si Si6 0.666725 0.372687 0.752925
Si Si7 0.272592 0.451552 0.570377
O O1 0.413909 0.067660 0.201251
O O2 0.984683 0.350749 0.160057
O O3 0.500000 0.000000 0.500000
O O4 0.480137 0.828869 0.356521
O O5 0.301753 0.963036 0.655011
O O6 0.524788 0.606778 0.656293
O O7 0.000000 0.000000 0.500000
O O8 0.026614 0.092542 0.312149
O O9 0.459944 0.665616 0.976012
O O10 0.210440 0.740197 0.042053
O O11 0.936570 0.122909 0.795570
O O12 0.464292 0.168203 0.014167
O O13 0.949513 0.682478 0.348044
O O14 0.769218 0.534321 0.296154
O O15 0.405391 0.477470 0.613295
#
# Coordination Sequence:
#
# PCOD9041020 Si02
#       7
#     2   2   2   2   2   2   2
#     4  12  28  51  75 105 141 194 247 298 360 424
#     4  12  23  42  71 107 146 183 231 287 362 428
#     4  10  23  44  69 106 145 188 234 289 361 423
#     4  12  26  47  74 108 146 191 239 297 355 430
#     4  11  25  49  74 107 144 191 243 299 356 423
#     4  10  23  43  70 107 142 187 234 293 356 429
#     4  11  25  49  74 104 147 190 240 297 362 421
#
# _framework density 26.298812000000002
#
# number of rings (size 3 to 8) (size 9 to 14) (size 15 to 20)
#    0.000    0.857    4.286    1.286    2.000    5.714 
#    2.571    0.000    0.000    0.000    0.000    0.000 
#    0.000    0.000    0.000    0.000    0.000    0.000 
#
# Total GULP energy -78674.251637 kJ/mol
# GULP energy per Si atom -5619.589403 kJ/mol
# Density = 2.623895 g / cm^3
# Si number density = 26.298812 Si / 1000 Ang^3
#
#
#
# Elastic Constant Matrix: (Units=GPa)
#
#
# Indices 1 2 3 4 5 6 
#
# 1 95.4321 19.1866 27.2241 -15.8361 4.3771 -18.9152
# 2 19.1866 104.9761 25.6608 -24.9742 13.6336 -18.5853
# 3 27.2241 25.6608 144.9330 -15.8922 -5.1170 -12.8137
# 4 -15.8361 -24.9742 -15.8922 50.3148 -4.5708 10.9589
# 5 4.3771 13.6336 -5.1170 -4.5708 40.2045 -9.7304
# 6 -18.9152 -18.5853 -12.8137 10.9589 -9.7304 44.3305
#
#
#
# Elastic Compliance Matrix: (Units=1/GPa)
#
#
# Indices 1 2 3 4 5 6 
#
# 1 0.012202 -0.000612 -0.001604 0.002164 -0.000130 0.003923
# 2 -0.000612 0.011875 -0.001381 0.004434 -0.003012 0.002561
# 3 -0.001604 -0.001381 0.007748 0.001196 0.002038 0.001128
# 4 0.002164 0.004434 0.001196 0.023753 0.000475 -0.002640
# 5 -0.000130 -0.003012 0.002038 0.000475 0.027477 0.005185
# 6 0.003923 0.002561 0.001128 -0.002640 0.005185 0.027422
#
#
# Mechanical properties :
#
#
# Convention : Reuss Voigt Hill
#
# Bulk Modulus (GPa) = 40.60000 54.38713 47.49357
# Shear Modulus (GPa) = 39.72004 45.18794 42.45399
#
# Velocity S-wave (km/s) = 3.89052 4.14968 4.02219
# Velocity P-wave (km/s) = 5.97101 6.60947 6.29834
#
# Compressibility (1/GPa) = 0.02463054
#
# Stress axis : x y z
#
# Youngs Moduli (GPa) = 81.95496 84.21129 129.05760
#
# Poissons Ratio (x) = 0.05153 0.20703
# Poissons Ratio (y) = 0.05015 0.17827
# Poissons Ratio (z) = 0.13147 0.11632
#
# Static dielectric constant tensor:
#      x y z
#    x 2.047730 0.028040 -0.010760 
#    y 0.028040 2.072190 -0.012100 
#    z -0.010760 -0.012100 2.054520 
# 
# From -- ./inp_files/428170.got.cif
#   From: 2010.05.17/outbox.cif.g08.bks.cpg/sg2_215_cif.got.tgz:428170.got - 2010.06.03 11:33:40.
