data_PCOD9041352
_publ_section_title
;
Structure prediction by ZEFSAII (Michael W. Deem and Ramdas Pophale) SiO2 
 PCOD9041352
Probable space group: P -1
;
_chemical_formula_sum "Si O2"
_cell_formula_units_Z 15
_cell_length_a 9.400373
_cell_length_b 9.138756
_cell_length_c 12.896236
_cell_angle_alpha 101.217338
_cell_angle_beta 57.406601
_cell_angle_gamma 135.356876
_cell_volume 621.674903
_symmetry_space_group_name_H-M "P -1"
_symmetry_group_IT_number 2
_symmetry_cell_setting 'triclinic'
loop_
_space_group_symop_operation_xyz
x,y,z
-x,-y,-z
loop_
_atom_site_type_symbol
_atom_site_label
_atom_site_fract_x
_atom_site_fract_y
_atom_site_fract_z
Si Si1 0.174766 0.989665 0.480135
Si Si2 0.212326 0.827307 0.620952
Si Si3 0.627605 0.482156 0.356877
Si Si4 0.500000 0.500000 0.000000
Si Si5 0.443411 0.097856 0.957675
Si Si6 0.076120 0.651288 0.327619
Si Si7 0.089899 0.865085 0.889054
Si Si8 0.633445 0.643564 0.156036
O O1 0.133518 0.928818 0.608494
O O2 0.120798 0.800889 0.418638
O O3 0.454548 0.225017 0.384573
O O4 0.000000 0.000000 0.500000
O O5 0.072732 0.588301 0.607722
O O6 0.167323 0.810753 0.758824
O O7 0.500000 0.000000 0.500000
O O8 0.500000 0.500000 0.500000
O O9 0.901772 0.616983 0.304731
O O10 0.620506 0.553072 0.256570
O O11 0.435118 0.263829 0.020462
O O12 0.609589 0.517205 0.840439
O O13 0.662204 0.224922 0.804987
O O14 0.189183 0.892362 0.967782
O O15 0.500000 0.000000 0.000000
O O16 0.219388 0.108206 0.849928
O O17 0.789561 0.678263 0.995503
#
# Coordination Sequence:
#
# PCOD9041352 Si02
#       8
#     2   2   2   1   2   2   2   2
#     4  12  27  46  73 111 147 203 256 316 388 458
#     4  12  25  47  74 101 156 197 250 322 385 470
#     4  12  25  47  74 111 152 200 255 323 387 457
#     4  10  24  46  70 106 150 208 248 312 398 448
#     4  11  25  46  74 112 155 194 259 321 383 482
#     4  12  27  46  73 113 147 200 257 310 399 454
#     4  10  23  44  72 108 144 202 248 310 396 450
#     4  10  23  43  73 107 147 193 257 309 379 471
#
# _framework density 24.128367000000001
#
# number of rings (size 3 to 8) (size 9 to 14) (size 15 to 20)
#    0.000    0.800    2.667    3.600    1.867    3.200 
#    0.000    2.667    0.000    0.000    0.000    0.000 
#    0.000    0.000    0.000    0.000    0.000    0.000 
#
# Total GULP energy -83733.002340 kJ/mol
# GULP energy per Si atom -5582.200156 kJ/mol
# Density = 2.407345 g / cm^3
# Si number density = 24.128367 Si / 1000 Ang^3
#
#
#
# Elastic Constant Matrix: (Units=GPa)
#
#
# Indices 1 2 3 4 5 6 
#
# 1 141.1464 31.5844 39.0342 4.4823 28.8010 -11.7664
# 2 31.5844 151.2854 45.4796 16.0862 12.5803 -1.1187
# 3 39.0342 45.4796 99.9717 7.6894 8.2843 -10.9741
# 4 4.4823 16.0862 7.6894 41.6192 -0.9842 2.2081
# 5 28.8010 12.5803 8.2843 -0.9842 55.8300 -8.5225
# 6 -11.7664 -1.1187 -10.9741 2.2081 -8.5225 41.8380
#
#
#
# Elastic Compliance Matrix: (Units=1/GPa)
#
#
# Indices 1 2 3 4 5 6 
#
# 1 0.008867 -0.000674 -0.002699 -0.000340 -0.003876 0.000996
# 2 -0.000674 0.008070 -0.003226 -0.002429 -0.001177 -0.000931
# 3 -0.002699 -0.003226 0.012844 -0.000964 0.000608 0.002699
# 4 -0.000340 -0.002429 -0.000964 0.025288 0.001078 -0.001529
# 5 -0.003876 -0.001177 0.000608 0.001078 0.020590 0.003175
# 6 0.000996 -0.000931 0.002699 -0.001529 0.003175 0.025592
#
#
# Mechanical properties :
#
#
# Convention : Reuss Voigt Hill
#
# Bulk Modulus (GPa) = 60.30136 69.40000 64.85068
# Shear Modulus (GPa) = 41.67540 46.27779 43.97660
#
# Velocity S-wave (km/s) = 4.16051 4.38423 4.27383
# Velocity P-wave (km/s) = 6.93729 7.37929 7.16170
#
# Compressibility (1/GPa) = 0.01658337
#
# Stress axis : x y z
#
# Youngs Moduli (GPa) = 112.78178 123.91960 77.85690
#
# Poissons Ratio (x) = 0.08352 0.21011
# Poissons Ratio (y) = 0.07602 0.25116
# Poissons Ratio (z) = 0.30436 0.39975
#
# Static dielectric constant tensor:
#      x y z
#    x 2.123760 0.017740 -0.032560 
#    y 0.017740 2.003160 0.005970 
#    z -0.032560 0.005970 1.934830 
# 
# From -- ./inp_files/382561.got.cif
#   From: 2010.05.17/outbox.cif.g08.bks.cpg/sg2_192_cif.got.tgz:382561.got - 2010.06.03 11:33:40.
