data_PCOD9041147
_publ_section_title
;
Structure prediction by ZEFSAII (Michael W. Deem and Ramdas Pophale) SiO2 
 PCOD9041147
Probable space group: P -1
;
_chemical_formula_sum "Si O2"
_cell_formula_units_Z 16
_cell_length_a 9.220172
_cell_length_b 16.804586
_cell_length_c 5.373323
_cell_angle_alpha 61.506300
_cell_angle_beta 123.997896
_cell_angle_gamma 110.941145
_cell_volume 601.910082
_symmetry_space_group_name_H-M "P -1"
_symmetry_group_IT_number 2
_symmetry_cell_setting 'triclinic'
loop_
_space_group_symop_operation_xyz
x,y,z
-x,-y,-z
loop_
_atom_site_type_symbol
_atom_site_label
_atom_site_fract_x
_atom_site_fract_y
_atom_site_fract_z
Si Si1 0.045548 0.113716 0.187366
Si Si2 0.481666 0.420506 0.298403
Si Si3 0.580524 0.234498 0.537017
Si Si4 0.808585 0.528654 0.697790
Si Si5 0.247393 0.977384 0.265859
Si Si6 0.220137 0.790102 0.744660
Si Si7 0.844264 0.723183 0.273993
Si Si8 0.676487 0.868275 0.199186
O O1 0.127705 0.098339 0.555868
O O2 0.139900 0.052106 0.177711
O O3 0.105829 0.218352 0.013713
O O4 0.845167 0.084220 0.958923
O O5 0.482422 0.323718 0.318246
O O6 0.662165 0.445115 0.597663
O O7 0.300657 0.427078 0.258074
O O8 0.500000 0.500000 0.000000
O O9 0.664903 0.232475 0.350555
O O10 0.441630 0.152875 0.636329
O O11 0.719178 0.243084 0.883784
O O12 0.824931 0.614061 0.393375
O O13 0.000000 0.500000 0.000000
O O14 0.246167 0.899899 0.588273
O O15 0.387340 0.050662 0.147730
O O16 0.021686 0.747450 0.570385
O O17 0.697154 0.776019 0.198307
#
# Coordination Sequence:
#
# PCOD9041147 Si02
#       8
#     2   2   2   2   2   2   2   2
#     4   9  20  38  67  99 139 186 241 302 358 429
#     4  11  28  48  76 107 155 197 243 325 379 453
#     4  12  29  48  71 106 152 194 236 301 386 432
#     4  11  25  48  77 108 147 195 257 310 384 459
#     4   9  21  41  65 102 139 188 246 297 356 424
#     4  11  28  47  72 106 151 192 240 308 361 442
#     4  10  23  43  71 103 137 191 251 299 364 450
#     4  11  23  39  74  98 143 193 242 296 363 446
#
# _framework density 26.582042000000001
#
# number of rings (size 3 to 8) (size 9 to 14) (size 15 to 20)
#    0.000    1.500    1.250    1.875   15.750    1.500 
#    0.000    0.000    0.000    0.000    0.000    0.000 
#    0.000    0.000    0.000    0.000    0.000    0.000 
#
# Total GULP energy -89448.816240 kJ/mol
# GULP energy per Si atom -5590.551015 kJ/mol
# Density = 2.652154 g / cm^3
# Si number density = 26.582042 Si / 1000 Ang^3
#
#
#
# Elastic Constant Matrix: (Units=GPa)
#
#
# Indices 1 2 3 4 5 6 
#
# 1 128.4554 34.3179 10.6246 8.2076 -1.0210 -15.3250
# 2 34.3179 97.7086 15.3477 -24.2704 2.2232 -8.2285
# 3 10.6246 15.3477 108.1415 -10.2092 7.3498 -9.5800
# 4 8.2076 -24.2704 -10.2092 57.5504 13.2628 4.2720
# 5 -1.0210 2.2232 7.3498 13.2628 37.5428 8.5459
# 6 -15.3250 -8.2285 -9.5800 4.2720 8.5459 39.8640
#
#
#
# Elastic Compliance Matrix: (Units=1/GPa)
#
#
# Indices 1 2 3 4 5 6 
#
# 1 0.009451 -0.003915 -0.000545 -0.003586 0.001221 0.002817
# 2 -0.003915 0.013593 -0.000548 0.006916 -0.003517 0.001182
# 3 -0.000545 -0.000548 0.010038 0.002199 -0.003308 0.002563
# 4 -0.003586 0.006916 0.002199 0.023307 -0.009182 0.000048
# 5 0.001221 -0.003517 -0.003308 -0.009182 0.032364 -0.007005
# 6 0.002817 0.001182 0.002563 0.000048 -0.007005 0.028525
#
#
# Mechanical properties :
#
#
# Convention : Reuss Voigt Hill
#
# Bulk Modulus (GPa) = 43.35376 50.54287 46.94832
# Shear Modulus (GPa) = 37.04205 45.25912 41.15059
#
# Velocity S-wave (km/s) = 3.73701 4.13076 3.93881
# Velocity P-wave (km/s) = 5.91313 6.46576 6.19561
#
# Compressibility (1/GPa) = 0.02306605
#
# Stress axis : x y z
#
# Youngs Moduli (GPa) = 105.81245 73.56620 99.62173
#
# Poissons Ratio (x) = 0.28802 0.05428
# Poissons Ratio (y) = 0.41427 0.05458
# Poissons Ratio (z) = 0.05766 0.04031
#
# Static dielectric constant tensor:
#      x y z
#    x 2.808190 0.351490 -0.587190 
#    y 0.351490 2.239320 -0.229790 
#    z -0.587190 -0.229790 2.881960 
# 
# From -- ./inp_files/46855.got.cif
#   From: 2010.05.17/outbox.cif.g08.bks.cpg/sg2_24_cif.got.tgz:46855.got - 2010.06.03 11:33:40.
