data_PCOD9041551
_publ_section_title
;
Structure prediction by ZEFSAII (Michael W. Deem and Ramdas Pophale) SiO2 
 PCOD9041551
Probable space group: P -1
;
_chemical_formula_sum "Si O2"
_cell_formula_units_Z 14
_cell_length_a 23.337114
_cell_length_b 8.898825
_cell_length_c 5.087963
_cell_angle_alpha 100.880738
_cell_angle_beta 96.403325
_cell_angle_gamma 35.301962
_cell_volume 597.948794
_symmetry_space_group_name_H-M "P -1"
_symmetry_group_IT_number 2
_symmetry_cell_setting 'triclinic'
loop_
_space_group_symop_operation_xyz
x,y,z
-x,-y,-z
loop_
_atom_site_type_symbol
_atom_site_label
_atom_site_fract_x
_atom_site_fract_y
_atom_site_fract_z
Si Si1 0.008073 0.874116 0.206980
Si Si2 0.789712 0.753554 0.851472
Si Si3 0.654997 0.547801 0.020133
Si Si4 0.533506 0.055373 0.317171
Si Si5 0.336702 0.963224 0.598959
Si Si6 0.728444 0.223326 0.483405
Si Si7 0.896089 0.808956 0.090010
O O1 0.112762 0.557398 0.148834
O O2 0.000000 0.000000 0.500000
O O3 0.922466 0.930697 0.138898
O O4 0.000000 0.000000 0.000000
O O5 0.745469 0.800062 0.568362
O O6 0.823142 0.860258 0.896667
O O7 0.705902 0.926540 0.091803
O O8 0.728540 0.346600 0.755892
O O9 0.548222 0.747507 0.888264
O O10 0.636565 0.762238 0.161077
O O11 0.685037 0.392946 0.248145
O O12 0.564737 0.155393 0.457456
O O13 0.500000 0.000000 0.500000
O O14 0.340193 0.773752 0.486513
O O15 0.838100 0.923863 0.374562
O O16 0.000000 0.500000 0.000000
#
# Coordination Sequence:
#
# PCOD9041551 Si02
#       7
#     2   2   2   2   2   2   2
#     4  11  24  41  63 101 132 171 220 274 327 395
#     4  10  23  44  64  96 129 179 221 268 339 392
#     4  11  25  44  67  97 137 172 226 274 344 400
#     4  11  26  48  66  97 139 182 218 272 359 403
#     4  11  25  42  70  94 132 172 228 277 325 402
#     4  11  23  44  68 104 127 175 234 277 325 390
#     4   9  22  45  70  93 141 178 216 272 334 395
#
# _framework density 23.413377000000001
#
# number of rings (size 3 to 8) (size 9 to 14) (size 15 to 20)
#    0.000    1.429    1.429    2.571    4.000    8.000 
#    0.000   12.143    0.000    0.000    0.000    0.000 
#    0.000    0.000    0.000    0.000    0.000    0.000 
#
# Total GULP energy -78100.160328 kJ/mol
# GULP energy per Si atom -5578.582881 kJ/mol
# Density = 2.336009 g / cm^3
# Si number density = 23.413377 Si / 1000 Ang^3
#
#
#
# Elastic Constant Matrix: (Units=GPa)
#
#
# Indices 1 2 3 4 5 6 
#
# 1 156.1721 2.3059 36.5812 -7.1532 -1.9046 2.3105
# 2 2.3059 86.2685 26.7240 13.7961 -3.2914 6.2923
# 3 36.5812 26.7240 134.0814 -4.4225 -8.4116 9.6435
# 4 -7.1532 13.7961 -4.4225 52.1370 6.8633 4.5164
# 5 -1.9046 -3.2914 -8.4116 6.8633 23.0498 0.8788
# 6 2.3105 6.2923 9.6435 4.5164 0.8788 24.0994
#
#
#
# Elastic Compliance Matrix: (Units=1/GPa)
#
#
# Indices 1 2 3 4 5 6 
#
# 1 0.006881 0.000286 -0.001922 0.000755 -0.000313 -0.000095
# 2 0.000286 0.013203 -0.002568 -0.003801 0.002173 -0.001814
# 3 -0.001922 -0.002568 0.008905 0.001101 0.002511 -0.003006
# 4 0.000755 -0.003801 0.001101 0.021507 -0.006356 -0.003319
# 5 -0.000313 0.002173 0.002511 -0.006356 0.046556 -0.002049
# 6 -0.000095 -0.001814 -0.003006 -0.003319 -0.002049 0.043877
#
#
# Mechanical properties :
#
#
# Convention : Reuss Voigt Hill
#
# Bulk Modulus (GPa) = 48.59202 56.41602 52.50402
# Shear Modulus (GPa) = 32.01072 40.58463 36.29768
#
# Velocity S-wave (km/s) = 3.70158 4.16792 3.94165
# Velocity P-wave (km/s) = 6.25043 6.87823 6.57183
#
# Compressibility (1/GPa) = 0.02057951
#
# Stress axis : x y z
#
# Youngs Moduli (GPa) = 145.31889 75.74235 112.30267
#
# Poissons Ratio (x) = -0.02165 0.21588
# Poissons Ratio (y) = -0.04154 0.28840
# Poissons Ratio (z) = 0.27935 0.19451
#
# Static dielectric constant tensor:
#      x y z
#    x 1.914190 -0.034680 -0.007090 
#    y -0.034680 1.947830 0.017440 
#    z -0.007090 0.017440 1.871000 
# 
# From -- ./inp_files/116142.got.cif
#   From: 2010.05.17/outbox.cif.g08.bks.cpg/sg2_59_cif.got.tgz:116142.got - 2010.06.03 11:33:40.
