data_PCOD9041866
_publ_section_title
;
Structure prediction by ZEFSAII (Michael W. Deem and Ramdas Pophale) SiO2 
 PCOD9041866
Probable space group: P -1
;
_chemical_formula_sum "Si O2"
_cell_formula_units_Z 12
_cell_length_a 6.605799
_cell_length_b 12.004247
_cell_length_c 8.664707
_cell_angle_alpha 81.123243
_cell_angle_beta 110.405291
_cell_angle_gamma 134.976810
_cell_volume 451.124347
_symmetry_space_group_name_H-M "P -1"
_symmetry_group_IT_number 2
_symmetry_cell_setting 'triclinic'
loop_
_space_group_symop_operation_xyz
x,y,z
-x,-y,-z
loop_
_atom_site_type_symbol
_atom_site_label
_atom_site_fract_x
_atom_site_fract_y
_atom_site_fract_z
Si Si1 0.492798 0.841113 0.483817
Si Si2 0.927064 0.313720 0.117297
Si Si3 0.796457 0.413360 0.312829
Si Si4 0.996509 0.866440 0.610184
Si Si5 0.767702 0.890655 0.100999
Si Si6 0.870529 0.665903 0.174097
O O1 0.417376 0.769673 0.652086
O O2 0.196920 0.765133 0.323894
O O3 0.670986 0.792771 0.484494
O O4 0.747587 0.029869 0.476558
O O5 0.975838 0.446855 0.197550
O O6 0.015483 0.254779 0.281660
O O7 0.565969 0.185156 0.011178
O O8 0.081385 0.341351 0.991591
O O9 0.000000 0.500000 0.500000
O O10 0.667766 0.490044 0.229457
O O11 0.110396 0.994557 0.745722
O O12 0.759618 0.752315 0.150322
O O13 0.000000 0.000000 0.000000
#
# Coordination Sequence:
#
# PCOD9041866 Si02
#       6
#     2   2   2   2   2   2
#     4  10  23  44  67  99 139 179 224 273 338 403
#     4  12  24  45  71 102 136 175 231 284 334 401
#     4  10  25  46  67  98 136 185 228 273 339 406
#     4  11  23  42  71 106 135 177 226 279 343 399
#     4  12  23  40  72 104 137 173 223 284 339 394
#     4  11  24  46  70 100 138 178 231 277 334 402
#
# _framework density 26.600203
#
# number of rings (size 3 to 8) (size 9 to 14) (size 15 to 20)
#    0.000    1.000    3.333    3.000    0.000    7.333 
#    3.000    2.500    0.000    0.000    0.000    0.000 
#    0.000    0.000    0.000    0.000    0.000    0.000 
#
# Total GULP energy -67165.217931 kJ/mol
# GULP energy per Si atom -5597.101494 kJ/mol
# Density = 2.653966 g / cm^3
# Si number density = 26.600203 Si / 1000 Ang^3
#
#
#
# Elastic Constant Matrix: (Units=GPa)
#
#
# Indices 1 2 3 4 5 6 
#
# 1 94.3011 23.6152 41.5005 8.7741 7.2382 5.0534
# 2 23.6152 71.2190 26.2180 -18.7303 3.7634 -18.7872
# 3 41.5005 26.2180 61.5037 8.3119 4.1257 15.9379
# 4 8.7741 -18.7303 8.3119 66.2305 -8.7377 6.6278
# 5 7.2382 3.7634 4.1257 -8.7377 73.9565 4.0423
# 6 5.0534 -18.7872 15.9379 6.6278 4.0423 51.0629
#
#
#
# Elastic Compliance Matrix: (Units=1/GPa)
#
#
# Indices 1 2 3 4 5 6 
#
# 1 0.015477 -0.001510 -0.009848 -0.001519 -0.001138 0.001274
# 2 -0.001510 0.025141 -0.014054 0.007777 -0.000128 0.012787
# 3 -0.009848 -0.014054 0.033228 -0.005462 -0.000063 -0.013854
# 4 -0.001519 0.007777 -0.005462 0.018243 0.002094 0.002183
# 5 -0.001138 -0.000128 -0.000063 0.002094 0.013961 -0.001292
# 6 0.001274 0.012787 -0.013854 0.002183 -0.001292 0.028305
#
#
# Mechanical properties :
#
#
# Convention : Reuss Voigt Hill
#
# Bulk Modulus (GPa) = 43.43877 45.52127 44.48002
# Shear Modulus (GPa) = 25.92658 47.29599 36.61129
#
# Velocity S-wave (km/s) = 3.12537 4.22125 3.71395
# Velocity P-wave (km/s) = 5.42122 6.39600 5.92868
#
# Compressibility (1/GPa) = 0.02302091
#
# Stress axis : x y z
#
# Youngs Moduli (GPa) = 64.61282 39.77583 30.09525
#
# Poissons Ratio (x) = 0.06005 0.29638
# Poissons Ratio (y) = 0.09755 0.42297
# Poissons Ratio (z) = 0.63631 0.55903
#
# Static dielectric constant tensor:
#      x y z
#    x 2.119370 0.045780 0.001260 
#    y 0.045780 2.168300 -0.033380 
#    z 0.001260 -0.033380 2.053330 
# 
# From -- ./inp_files/26317.got.cif
#   From: 2010.05.17/outbox.cif.g08.bks.cpg/sg2_14_cif.got.tgz:26317.got - 2010.06.03 11:33:40.
