data_PCOD9041618
_publ_section_title
;
Structure prediction by ZEFSAII (Michael W. Deem and Ramdas Pophale) SiO2 
 PCOD9041618
Probable space group: P -1
;
_chemical_formula_sum "Si O2"
_cell_formula_units_Z 14
_cell_length_a 16.701445
_cell_length_b 11.166247
_cell_length_c 8.038994
_cell_angle_alpha 73.292816
_cell_angle_beta 43.206266
_cell_angle_gamma 42.361254
_cell_volume 580.150674
_symmetry_space_group_name_H-M "P -1"
_symmetry_group_IT_number 2
_symmetry_cell_setting 'triclinic'
loop_
_space_group_symop_operation_xyz
x,y,z
-x,-y,-z
loop_
_atom_site_type_symbol
_atom_site_label
_atom_site_fract_x
_atom_site_fract_y
_atom_site_fract_z
Si Si1 0.997637 0.374219 0.660436
Si Si2 0.270190 0.482013 0.271441
Si Si3 0.395156 0.677887 0.357296
Si Si4 0.657648 0.860229 0.578218
Si Si5 0.026948 0.891586 0.665637
Si Si6 0.592389 0.245400 0.322154
Si Si7 0.307363 0.268903 0.767382
O O1 0.871068 0.391015 0.730292
O O2 0.000000 0.500000 0.500000
O O3 0.218481 0.157086 0.479298
O O4 0.876970 0.507378 0.957368
O O5 0.310667 0.304720 0.330362
O O6 0.148581 0.663296 0.520047
O O7 0.480175 0.362890 0.959272
O O8 0.167745 0.848254 0.592132
O O9 0.500637 0.452994 0.311568
O O10 0.414989 0.735977 0.474858
O O11 0.738348 0.782274 0.296624
O O12 0.431001 0.093998 0.797109
O O13 0.000000 0.000000 0.500000
O O14 0.815320 0.041726 0.002235
O O15 0.455979 0.246255 0.482030
#
# Coordination Sequence:
#
# PCOD9041618 Si02
#       7
#     2   2   2   2   2   2   2
#     4  10  23  44  65  98 132 177 222 273 329 393
#     4  11  23  46  69  98 137 178 217 282 332 389
#     4  11  24  47  69  97 139 175 223 276 333 393
#     4  10  25  42  71  96 135 172 223 276 329 395
#     4  12  26  42  68 105 133 175 226 271 335 400
#     4  11  25  45  71  99 136 177 221 275 332 399
#     4  11  23  44  68 101 131 177 223 269 339 391
#
# _framework density 24.131663
#
# number of rings (size 3 to 8) (size 9 to 14) (size 15 to 20)
#    0.000    1.143    2.857    2.143    2.000   10.286 
#    0.000    0.000    0.000    0.000    0.000    0.000 
#    0.000    0.000    0.000    0.000    0.000    0.000 
#
# Total GULP energy -78414.145288 kJ/mol
# GULP energy per Si atom -5601.010378 kJ/mol
# Density = 2.407674 g / cm^3
# Si number density = 24.131663 Si / 1000 Ang^3
#
#
#
# Elastic Constant Matrix: (Units=GPa)
#
#
# Indices 1 2 3 4 5 6 
#
# 1 91.3778 -6.9590 6.1443 7.2818 -15.1061 -23.8686
# 2 -6.9590 100.3949 14.4638 0.9142 -12.6370 -5.2724
# 3 6.1443 14.4638 121.5479 0.8751 -1.5027 -2.1745
# 4 7.2818 0.9142 0.8751 17.6887 0.9716 -7.1945
# 5 -15.1061 -12.6370 -1.5027 0.9716 32.3736 8.1905
# 6 -23.8686 -5.2724 -2.1745 -7.1945 8.1905 33.4527
#
#
#
# Elastic Compliance Matrix: (Units=1/GPa)
#
#
# Indices 1 2 3 4 5 6 
#
# 1 0.014603 0.002307 -0.000767 -0.002832 0.005546 0.008766
# 2 0.002307 0.011033 -0.001329 -0.000948 0.004869 0.001903
# 3 -0.000767 -0.001329 0.008417 -0.000051 -0.000457 -0.000109
# 4 -0.002832 -0.000948 -0.000051 0.063492 -0.006934 0.013179
# 5 0.005546 0.004869 -0.000457 -0.006934 0.037049 -0.005867
# 6 0.008766 0.001903 -0.000109 0.013179 -0.005867 0.040711
#
#
# Mechanical properties :
#
#
# Convention : Reuss Voigt Hill
#
# Bulk Modulus (GPa) = 29.00527 37.84654 33.42591
# Shear Modulus (GPa) = 26.82766 36.68109 31.75438
#
# Velocity S-wave (km/s) = 3.33786 3.90300 3.63144
# Velocity P-wave (km/s) = 5.18660 6.00238 5.60934
#
# Compressibility (1/GPa) = 0.03447649
#
# Stress axis : x y z
#
# Youngs Moduli (GPa) = 68.47831 90.63419 118.80939
#
# Poissons Ratio (x) = -0.20909 0.09112
# Poissons Ratio (y) = -0.15798 0.15784
# Poissons Ratio (z) = 0.05252 0.12041
#
# Static dielectric constant tensor:
#      x y z
#    x 1.942130 -0.034330 -0.006820 
#    y -0.034330 1.921070 0.002760 
#    z -0.006820 0.002760 1.866110 
# 
# From -- ./inp_files/90615.got.cif
#   From: 2010.05.17/outbox.cif.g08.bks.cpg/sg2_46_cif.got.tgz:90615.got - 2010.06.03 11:33:40.
