data_PCOD9041734
_publ_section_title
;
Structure prediction by ZEFSAII (Michael W. Deem and Ramdas Pophale) SiO2 
 PCOD9041734
Probable space group: P -1
;
_chemical_formula_sum "Si O2"
_cell_formula_units_Z 16
_cell_length_a 9.006826
_cell_length_b 13.616601
_cell_length_c 8.421676
_cell_angle_alpha 82.787975
_cell_angle_beta 69.631716
_cell_angle_gamma 125.036966
_cell_volume 718.060900
_symmetry_space_group_name_H-M "P -1"
_symmetry_group_IT_number 2
_symmetry_cell_setting 'triclinic'
loop_
_space_group_symop_operation_xyz
x,y,z
-x,-y,-z
loop_
_atom_site_type_symbol
_atom_site_label
_atom_site_fract_x
_atom_site_fract_y
_atom_site_fract_z
Si Si1 0.402178 0.394710 0.858610
Si Si2 0.241218 0.085020 0.438914
Si Si3 0.569585 0.187491 0.533145
Si Si4 0.062235 0.297949 0.777085
Si Si5 0.516073 0.658711 0.856868
Si Si6 0.778611 0.460414 0.547534
Si Si7 0.668384 0.060204 0.781125
Si Si8 0.827503 0.340652 0.084262
O O1 0.250678 0.314168 0.782902
O O2 0.402130 0.511254 0.874540
O O3 0.647044 0.466220 0.726347
O O4 0.338255 0.307742 0.055533
O O5 0.332134 0.082165 0.571962
O O6 0.346821 0.237039 0.354198
O O7 0.329873 0.045501 0.281866
O O8 0.000000 0.000000 0.500000
O O9 0.619603 0.308726 0.583437
O O10 0.620481 0.119462 0.647226
O O11 0.725001 0.263876 0.305332
O O12 0.168247 0.436697 0.625668
O O13 0.901610 0.178577 0.741799
O O14 0.921448 0.285238 0.973477
O O15 0.348348 0.675279 0.951736
O O16 0.000000 0.500000 0.500000
O O17 0.500000 0.000000 0.000000
O O18 0.000000 0.500000 0.000000
#
# Coordination Sequence:
#
# PCOD9041734 Si02
#       8
#     2   2   2   2   2   2   2   2
#     4  11  25  39  69 104 138 170 224 291 361 402
#     4  11  27  47  69  96 137 189 236 281 334 409
#     4  11  25  45  74  98 136 181 233 283 341 418
#     4  12  24  42  68 105 137 176 226 293 342 411
#     4  10  23  44  66  99 136 179 223 285 339 422
#     4  12  24  40  70 105 135 173 219 293 359 406
#     4  12  28  47  69  98 140 189 240 281 331 413
#     4  11  20  41  69 102 135 171 221 276 359 415
#
# _framework density 22.282233000000002
#
# number of rings (size 3 to 8) (size 9 to 14) (size 15 to 20)
#    0.000    0.750    3.750    3.750    5.250    2.000 
#    0.000    1.250    0.000    0.000    0.000    0.000 
#    0.000    0.000    0.000    0.000    0.000    0.000 
#
# Total GULP energy -89386.048685 kJ/mol
# GULP energy per Si atom -5586.628043 kJ/mol
# Density = 2.223152 g / cm^3
# Si number density = 22.282233 Si / 1000 Ang^3
#
#
#
# Elastic Constant Matrix: (Units=GPa)
#
#
# Indices 1 2 3 4 5 6 
#
# 1 127.7544 59.8437 43.6279 3.3556 17.8956 26.6331
# 2 59.8437 90.7494 3.0531 1.5558 10.8446 16.4382
# 3 43.6279 3.0531 73.8868 0.3922 21.8629 -7.8322
# 4 3.3556 1.5558 0.3922 25.2680 -3.0966 0.4808
# 5 17.8956 10.8446 21.8629 -3.0966 43.8646 10.3596
# 6 26.6331 16.4382 -7.8322 0.4808 10.3596 44.8184
#
#
#
# Elastic Compliance Matrix: (Units=1/GPa)
#
#
# Indices 1 2 3 4 5 6 
#
# 1 0.018847 -0.010532 -0.012903 -0.000997 0.003742 -0.010446
# 2 -0.010532 0.017887 0.006858 -0.000334 -0.003998 0.001824
# 3 -0.012903 0.006858 0.025853 -0.000860 -0.012337 0.012531
# 4 -0.000997 -0.000334 -0.000860 0.040240 0.003943 -0.000779
# 5 0.003742 -0.003998 -0.012337 0.003943 0.031081 -0.010140
# 6 -0.010446 0.001824 0.012531 -0.000779 -0.010140 0.032393
#
#
# Mechanical properties :
#
#
# Convention : Reuss Voigt Hill
#
# Bulk Modulus (GPa) = 33.97564 56.16000 45.06782
# Shear Modulus (GPa) = 23.89303 35.18123 29.53713
#
# Velocity S-wave (km/s) = 3.27814 3.97784 3.64482
# Velocity P-wave (km/s) = 5.44143 6.80854 6.16301
#
# Compressibility (1/GPa) = 0.02943286
#
# Stress axis : x y z
#
# Youngs Moduli (GPa) = 53.05871 55.90628 38.68038
#
# Poissons Ratio (x) = 0.58883 0.49908
# Poissons Ratio (y) = 0.55883 -0.26527
# Poissons Ratio (z) = 0.68460 -0.38341
#
# Static dielectric constant tensor:
#      x y z
#    x 1.846720 0.047980 -0.028510 
#    y 0.047980 1.848690 0.019210 
#    z -0.028510 0.019210 1.877780 
# 
# From -- ./inp_files/206903.got.cif
#   From: 2010.05.17/outbox.cif.g08.bks.cpg/sg2_104_cif.got.tgz:206903.got - 2010.06.03 11:33:40.
