data_PCOD9041757
_publ_section_title
;
Structure prediction by ZEFSAII (Michael W. Deem and Ramdas Pophale) SiO2 
 PCOD9041757
Probable space group: P -1
;
_chemical_formula_sum "Si O2"
_cell_formula_units_Z 16
_cell_length_a 11.503917
_cell_length_b 9.148774
_cell_length_c 11.997372
_cell_angle_alpha 48.673837
_cell_angle_beta 134.292145
_cell_angle_gamma 123.291064
_cell_volume 669.623634
_symmetry_space_group_name_H-M "P -1"
_symmetry_group_IT_number 2
_symmetry_cell_setting 'triclinic'
loop_
_space_group_symop_operation_xyz
x,y,z
-x,-y,-z
loop_
_atom_site_type_symbol
_atom_site_label
_atom_site_fract_x
_atom_site_fract_y
_atom_site_fract_z
Si Si1 0.504562 0.502527 0.765008
Si Si2 0.550110 0.237297 0.719603
Si Si3 0.236853 0.039918 0.533804
Si Si4 0.672568 0.145369 0.523401
Si Si5 0.811275 0.811794 0.895192
Si Si6 0.111930 0.661782 0.065897
Si Si7 0.860904 0.031715 0.242695
Si Si8 0.337029 0.187887 0.962505
O O1 0.502685 0.348459 0.741281
O O2 0.364275 0.638933 0.585786
O O3 0.676645 0.652112 0.820132
O O4 0.466693 0.373861 0.916806
O O5 0.393036 0.215038 0.543655
O O6 0.728278 0.359160 0.744001
O O7 0.575942 0.006811 0.864319
O O8 0.211055 0.987732 0.672661
O O9 0.276699 0.871064 0.563185
O O10 0.058521 0.082311 0.355727
O O11 0.500000 0.000000 0.500000
O O12 0.794238 0.032656 0.732588
O O13 0.759235 0.788652 0.000347
O O14 0.989801 0.767431 0.004612
O O15 0.000000 0.500000 0.000000
O O16 0.195242 0.794582 0.952381
O O17 0.792114 0.849823 0.208326
#
# Coordination Sequence:
#
# PCOD9041757 Si02
#       8
#     2   2   2   2   2   2   2   2
#     4  11  22  42  72 107 137 181 238 282 344 416
#     4  11  23  40  74 103 136 175 237 286 340 409
#     4  11  22  46  72  94 133 189 229 281 345 405
#     4  10  23  44  67 100 143 185 221 284 351 413
#     4  11  23  45  70 101 148 181 224 287 356 413
#     4  11  23  42  67 104 142 177 225 287 349 410
#     4  10  24  42  73  93 137 180 235 283 340 401
#     4  11  24  44  72 107 132 185 234 291 344 407
#
# _framework density 23.894020999999999
#
# number of rings (size 3 to 8) (size 9 to 14) (size 15 to 20)
#    0.000    1.250    3.750    2.250    1.750    3.000 
#    2.250   11.875    0.000    0.000    0.000    0.000 
#    0.000    0.000    0.000    0.000    0.000    0.000 
#
# Total GULP energy -89389.379956 kJ/mol
# GULP energy per Si atom -5586.836247 kJ/mol
# Density = 2.383964 g / cm^3
# Si number density = 23.894021 Si / 1000 Ang^3
#
#
#
# Elastic Constant Matrix: (Units=GPa)
#
#
# Indices 1 2 3 4 5 6 
#
# 1 138.7955 45.7145 62.0585 15.3878 12.6989 -36.0920
# 2 45.7145 88.1169 41.1826 8.6019 13.0706 -1.8221
# 3 62.0585 41.1826 72.5336 7.5578 4.4517 -10.2830
# 4 15.3878 8.6019 7.5578 45.4400 0.7645 7.4940
# 5 12.6989 13.0706 4.4517 0.7645 48.5111 11.3491
# 6 -36.0920 -1.8221 -10.2830 7.4940 11.3491 47.6731
#
#
#
# Elastic Compliance Matrix: (Units=1/GPa)
#
#
# Indices 1 2 3 4 5 6 
#
# 1 0.017281 -0.002267 -0.010705 -0.005684 -0.005878 0.012980
# 2 -0.002267 0.016422 -0.007416 -0.000744 -0.002687 -0.001932
# 3 -0.010705 -0.007416 0.026313 0.001203 0.003225 -0.003670
# 4 -0.005684 -0.000744 0.001203 0.025272 0.003242 -0.008817
# 5 -0.005878 -0.002687 0.003225 0.003242 0.024940 -0.010304
# 6 0.012980 -0.001932 -0.003670 -0.008817 -0.010304 0.033777
#
#
# Mechanical properties :
#
#
# Convention : Reuss Voigt Hill
#
# Bulk Modulus (GPa) = 51.97486 66.37301 59.17393
# Shear Modulus (GPa) = 26.15144 38.35752 32.25448
#
# Velocity S-wave (km/s) = 3.31188 4.01099 3.67808
# Velocity P-wave (km/s) = 6.03524 7.02062 6.54650
#
# Compressibility (1/GPa) = 0.01924007
#
# Stress axis : x y z
#
# Youngs Moduli (GPa) = 57.86541 60.89503 38.00440
#
# Poissons Ratio (x) = 0.13805 0.40685
# Poissons Ratio (y) = 0.13119 0.28182
# Poissons Ratio (z) = 0.61947 0.45157
#
# Static dielectric constant tensor:
#      x y z
#    x 1.912220 0.047570 0.016470 
#    y 0.047570 1.987440 0.031230 
#    z 0.016470 0.031230 1.989110 
# 
# From -- ./inp_files/419026.got.cif
#   From: 2010.05.17/outbox.cif.g08.bks.cpg/sg2_210_cif.got.tgz:419026.got - 2010.06.03 11:33:40.
