data_PCOD9041510
_publ_section_title
;
Structure prediction by ZEFSAII (Michael W. Deem and Ramdas Pophale) SiO2 
 PCOD9041510
Probable space group: P -1
;
_chemical_formula_sum "Si O2"
_cell_formula_units_Z 16
_cell_length_a 9.048610
_cell_length_b 12.247857
_cell_length_c 12.833420
_cell_angle_alpha 51.439672
_cell_angle_beta 119.850704
_cell_angle_gamma 145.377871
_cell_volume 631.512167
_symmetry_space_group_name_H-M "P -1"
_symmetry_group_IT_number 2
_symmetry_cell_setting 'triclinic'
loop_
_space_group_symop_operation_xyz
x,y,z
-x,-y,-z
loop_
_atom_site_type_symbol
_atom_site_label
_atom_site_fract_x
_atom_site_fract_y
_atom_site_fract_z
Si Si1 0.597564 0.293971 0.752996
Si Si2 0.985913 0.652468 0.198460
Si Si3 0.277838 0.597036 0.042814
Si Si4 0.259806 0.045719 0.612999
Si Si5 0.765089 0.681697 0.918033
Si Si6 0.861299 0.713569 0.518818
Si Si7 0.221861 0.519145 0.571081
Si Si8 0.217280 0.057136 0.117945
O O1 0.871134 0.401321 0.745055
O O2 0.575781 0.267614 0.882738
O O3 0.381791 0.070555 0.750262
O O4 0.623087 0.474150 0.626516
O O5 0.955072 0.711529 0.043104
O O6 0.741698 0.490567 0.286833
O O7 0.156174 0.857753 0.210142
O O8 0.238922 0.404526 0.138838
O O9 0.486214 0.750327 0.933239
O O10 0.000000 0.500000 0.000000
O O11 0.139083 0.118844 0.567144
O O12 0.509962 0.251803 0.512927
O O13 0.098497 0.837727 0.611208
O O14 0.500000 0.500000 0.000000
O O15 0.818873 0.878539 0.827009
O O16 0.867536 0.657564 0.436653
O O17 0.000000 0.500000 0.500000
O O18 0.000000 0.000000 0.000000
#
# Coordination Sequence:
#
# PCOD9041510 Si02
#       8
#     2   2   2   2   2   2   2   2
#     4  11  22  41  67  93 132 169 214 269 327 379
#     4  11  21  41  63  92 129 170 210 266 324 374
#     4  11  22  41  67  95 129 172 215 272 326 385
#     4  10  23  44  65  94 131 167 215 272 319 391
#     4   9  20  41  60  89 130 163 213 264 316 384
#     4  10  23  44  63  97 128 166 219 267 321 395
#     4  11  21  41  67  94 130 166 208 269 327 380
#     4   9  22  41  61  89 131 168 217 270 318 388
#
# _framework density 25.336012
#
# number of rings (size 3 to 8) (size 9 to 14) (size 15 to 20)
#    0.000    1.750    3.750    1.500    0.000    8.000 
#   13.500    0.000    0.000    0.000    0.000    0.000 
#    0.000    0.000    0.000    0.000    0.000    0.000 
#
# Total GULP energy -89224.969212 kJ/mol
# GULP energy per Si atom -5576.560576 kJ/mol
# Density = 2.527835 g / cm^3
# Si number density = 25.336012 Si / 1000 Ang^3
#
#
#
# Elastic Constant Matrix: (Units=GPa)
#
#
# Indices 1 2 3 4 5 6 
#
# 1 143.5245 29.3266 17.3656 0.9346 6.1031 -23.2828
# 2 29.3266 104.8418 -4.4574 9.3751 0.9059 -20.7882
# 3 17.3656 -4.4574 34.6861 5.2330 -6.2656 -5.8799
# 4 0.9346 9.3751 5.2330 30.2157 -12.0446 -2.7759
# 5 6.1031 0.9059 -6.2656 -12.0446 36.0361 1.0386
# 6 -23.2828 -20.7882 -5.8799 -2.7759 1.0386 38.8097
#
#
#
# Elastic Compliance Matrix: (Units=1/GPa)
#
#
# Indices 1 2 3 4 5 6 
#
# 1 0.008546 -0.001911 -0.004387 0.000589 -0.002067 0.003537
# 2 -0.001911 0.011681 0.003842 -0.004057 -0.000814 0.005425
# 3 -0.004387 0.003842 0.033785 -0.004592 0.004868 0.004086
# 4 0.000589 -0.004057 -0.004592 0.040167 0.012629 0.000020
# 5 -0.002067 -0.000814 0.004868 0.012629 0.033214 -0.000924
# 6 0.003537 0.005425 0.004086 0.000020 -0.000924 0.031439
#
#
# Mechanical properties :
#
#
# Convention : Reuss Voigt Hill
#
# Bulk Modulus (GPa) = 20.36594 40.83579 30.60086
# Shear Modulus (GPa) = 27.76054 37.06682 32.41368
#
# Velocity S-wave (km/s) = 3.31372 3.82908 3.58068
# Velocity P-wave (km/s) = 4.76411 5.97510 5.40364
#
# Compressibility (1/GPa) = 0.04910159
#
# Stress axis : x y z
#
# Youngs Moduli (GPa) = 117.00751 85.60598 29.59904
#
# Poissons Ratio (x) = 0.16357 0.12985
# Poissons Ratio (y) = 0.22357 -0.11373
# Poissons Ratio (z) = 0.51333 -0.32892
#
# Static dielectric constant tensor:
#      x y z
#    x 1.983240 0.061450 0.049480 
#    y 0.061450 2.140180 0.110600 
#    z 0.049480 0.110600 2.447720 
# 
# From -- ./inp_files/500205.got.cif
#   From: 2010.05.17/outbox.cif.g08.bks.cpg/sg2_251_cif.got.tgz:500205.got - 2010.06.03 11:33:40.
