data_PCOD9041095
_publ_section_title
;
Structure prediction by ZEFSAII (Michael W. Deem and Ramdas Pophale) SiO2 
 PCOD9041095
Probable space group: P -1
;
_chemical_formula_sum "Si O2"
_cell_formula_units_Z 16
_cell_length_a 18.450266
_cell_length_b 9.243864
_cell_length_c 12.713585
_cell_angle_alpha 145.631550
_cell_angle_beta 145.824413
_cell_angle_gamma 35.007228
_cell_volume 620.941823
_symmetry_space_group_name_H-M "P -1"
_symmetry_group_IT_number 2
_symmetry_cell_setting 'triclinic'
loop_
_space_group_symop_operation_xyz
x,y,z
-x,-y,-z
loop_
_atom_site_type_symbol
_atom_site_label
_atom_site_fract_x
_atom_site_fract_y
_atom_site_fract_z
Si Si1 0.594384 0.468844 0.758152
Si Si2 0.136130 0.187128 0.852599
Si Si3 0.358821 0.551779 0.688848
Si Si4 0.824845 0.375171 0.681438
Si Si5 0.625010 0.102052 0.375284
Si Si6 0.723479 0.529396 0.258019
Si Si7 0.148592 0.844871 0.983626
Si Si8 0.980252 0.571547 0.710904
O O1 0.500407 0.498656 0.765309
O O2 0.582193 0.256183 0.529134
O O3 0.517585 0.771431 0.790645
O O4 0.755179 0.321385 0.901120
O O5 0.990048 0.202270 0.740322
O O6 0.091327 0.312787 0.756264
O O7 0.261960 0.876142 0.801613
O O8 0.179668 0.395606 0.100118
O O9 0.263354 0.486404 0.447732
O O10 0.393740 0.385930 0.741004
O O11 0.742534 0.196151 0.522782
O O12 0.686077 0.772043 0.271746
O O13 0.859357 0.503760 0.473230
O O14 0.764674 0.241625 0.071154
O O15 0.082578 0.172985 0.126370
O O16 0.033597 0.715411 0.768767
#
# Coordination Sequence:
#
# PCOD9041095 Si02
#       8
#     2   2   2   2   2   2   2   2
#     4  10  23  50  70  97 141 187 236 279 338 423
#     4  11  24  41  73 105 137 190 229 278 356 408
#     4  11  26  45  69 104 146 181 231 282 346 420
#     4  10  23  43  70  98 141 181 231 288 333 415
#     4  10  23  47  73 102 136 186 234 285 349 402
#     4  12  26  43  70 107 139 182 226 293 347 406
#     4  11  26  44  70 103 144 180 236 283 346 414
#     4  11  25  45  68 106 143 181 227 296 347 402
#
# _framework density 25.767308
#
# number of rings (size 3 to 8) (size 9 to 14) (size 15 to 20)
#    0.000    1.250    2.500    1.500    8.750    1.500 
#    6.750    0.000    0.000    0.000    0.000    0.000 
#    0.000    0.000    0.000    0.000    0.000    0.000 
#
# Total GULP energy -89651.329967 kJ/mol
# GULP energy per Si atom -5603.208123 kJ/mol
# Density = 2.570866 g / cm^3
# Si number density = 25.767308 Si / 1000 Ang^3
#
#
#
# Elastic Constant Matrix: (Units=GPa)
#
#
# Indices 1 2 3 4 5 6 
#
# 1 117.9961 7.4897 9.2231 12.5747 -8.0017 -0.7087
# 2 7.4897 59.6971 15.7205 6.7920 9.7391 6.0455
# 3 9.2231 15.7205 71.4372 -1.5631 -15.0590 -4.0271
# 4 12.5747 6.7920 -1.5631 27.4884 -3.9713 -7.1233
# 5 -8.0017 9.7391 -15.0590 -3.9713 36.8208 -0.0784
# 6 -0.7087 6.0455 -4.0271 -7.1233 -0.0784 36.9476
#
#
#
# Elastic Compliance Matrix: (Units=1/GPa)
#
#
# Indices 1 2 3 4 5 6 
#
# 1 0.009098 -0.000612 -0.000878 -0.004020 0.001345 -0.000593
# 2 -0.000612 0.021978 -0.007375 -0.008577 -0.009900 -0.006086
# 3 -0.000878 -0.007375 0.018176 0.005794 0.009828 0.004309
# 4 -0.004020 -0.008577 0.005794 0.044653 0.008603 0.010585
# 5 0.001345 -0.009900 0.009828 0.008603 0.035026 0.004450
# 6 -0.000593 -0.006086 0.004309 0.010585 0.004450 0.030570
#
#
# Mechanical properties :
#
#
# Convention : Reuss Voigt Hill
#
# Bulk Modulus (GPa) = 31.72440 34.88856 33.30648
# Shear Modulus (GPa) = 26.63281 34.69781 30.66531
#
# Velocity S-wave (km/s) = 3.21844 3.67356 3.45350
# Velocity P-wave (km/s) = 5.11368 5.61807 5.37180
#
# Compressibility (1/GPa) = 0.03152148
#
# Stress axis : x y z
#
# Youngs Moduli (GPa) = 109.90921 45.50078 55.01770
#
# Poissons Ratio (x) = 0.02787 0.04829
# Poissons Ratio (y) = 0.06731 0.40576
# Poissons Ratio (z) = 0.09647 0.33558
#
# Static dielectric constant tensor:
#      x y z
#    x 2.102120 0.026600 0.065170 
#    y 0.026600 2.019860 -0.003430 
#    z 0.065170 -0.003430 1.994860 
# 
# From -- ./inp_files/428097.got.cif
#   From: 2010.05.17/outbox.cif.g08.bks.cpg/sg2_215_cif.got.tgz:428097.got - 2010.06.03 11:33:40.
