data_PCOD9041497
_publ_section_title
;
Structure prediction by ZEFSAII (Michael W. Deem and Ramdas Pophale) SiO2 
 PCOD9041497
Probable space group: P -1
;
_chemical_formula_sum "Si O2"
_cell_formula_units_Z 16
_cell_length_a 9.007443
_cell_length_b 13.429536
_cell_length_c 20.085858
_cell_angle_alpha 31.865989
_cell_angle_beta 38.214788
_cell_angle_gamma 32.170286
_cell_volume 663.401939
_symmetry_space_group_name_H-M "P -1"
_symmetry_group_IT_number 2
_symmetry_cell_setting 'triclinic'
loop_
_space_group_symop_operation_xyz
x,y,z
-x,-y,-z
loop_
_atom_site_type_symbol
_atom_site_label
_atom_site_fract_x
_atom_site_fract_y
_atom_site_fract_z
Si Si1 0.162997 0.271820 0.894867
Si Si2 0.870470 0.737483 0.449936
Si Si3 0.561183 0.372560 0.637520
Si Si4 0.676485 0.064945 0.661155
Si Si5 0.103602 0.991457 0.827902
Si Si6 0.383138 0.322237 0.079639
Si Si7 0.333301 0.830467 0.536927
Si Si8 0.124070 0.739219 0.125175
O O1 0.937160 0.483147 0.899716
O O2 0.010867 0.340013 0.836334
O O3 0.469406 0.235531 0.795704
O O4 0.135782 0.069693 0.045619
O O5 0.547616 0.801338 0.536235
O O6 0.000000 0.500000 0.500000
O O7 0.114015 0.689543 0.443050
O O8 0.853805 0.935861 0.299445
O O9 0.514580 0.302797 0.620423
O O10 0.388769 0.610299 0.602662
O O11 0.613195 0.057508 0.609607
O O12 0.617646 0.896470 0.815709
O O13 0.011910 0.967310 0.597376
O O14 0.389636 0.773316 0.883806
O O15 0.991524 0.216876 0.784725
O O16 0.536948 0.386241 0.934238
O O17 0.000000 0.000000 0.000000
#
# Coordination Sequence:
#
# PCOD9041497 Si02
#       8
#     2   2   2   2   2   2   2   2
#     4  10  19  32  58  90 117 144 190 242 299 338
#     4  10  23  40  58  78 119 162 192 231 285 347
#     4  11  22  38  58  86 117 153 193 238 289 346
#     4  11  20  36  63  86 114 148 197 251 283 332
#     4  10  18  35  58  83 117 151 192 234 291 350
#     4  10  17  33  57  88 121 143 182 253 294 339
#     4  10  22  39  58  86 113 154 198 240 290 333
#     4   8  16  29  53  86 111 143 182 233 294 335
#
# _framework density 24.118107999999999
#
# number of rings (size 3 to 8) (size 9 to 14) (size 15 to 20)
#    0.000    2.250    2.500    4.125    0.000    1.000 
#    0.000    0.000   11.000    1.500    0.000    0.000 
#    0.000    0.000    0.000    0.000    0.000    0.000 
#
# Total GULP energy -89116.652473 kJ/mol
# GULP energy per Si atom -5569.790780 kJ/mol
# Density = 2.406321 g / cm^3
# Si number density = 24.118108 Si / 1000 Ang^3
#
#
#
# Elastic Constant Matrix: (Units=GPa)
#
#
# Indices 1 2 3 4 5 6 
#
# 1 52.0910 18.3877 16.0389 3.9199 -18.7080 -6.4425
# 2 18.3877 80.6458 10.2587 8.8064 -11.9578 8.8308
# 3 16.0389 10.2587 72.5926 7.8230 -24.3485 -6.5670
# 4 3.9199 8.8064 7.8230 29.2062 -6.7666 -11.6374
# 5 -18.7080 -11.9578 -24.3485 -6.7666 29.2769 1.8017
# 6 -6.4425 8.8308 -6.5670 -11.6374 1.8017 26.4514
#
#
#
# Elastic Compliance Matrix: (Units=1/GPa)
#
#
# Indices 1 2 3 4 5 6 
#
# 1 0.027840 -0.005701 0.000527 0.005759 0.016602 0.010217
# 2 -0.005701 0.015934 -0.000723 -0.007713 0.001119 -0.010357
# 3 0.000527 -0.000723 0.019503 0.000350 0.016079 0.004270
# 4 0.005759 -0.007713 0.000350 0.047823 0.010372 0.024398
# 5 0.016602 0.001119 0.016079 0.010372 0.060493 0.008105
# 6 0.010217 -0.010357 0.004270 0.024398 0.008105 0.054994
#
#
# Mechanical properties :
#
#
# Convention : Reuss Voigt Hill
#
# Bulk Modulus (GPa) = 19.42373 32.74444 26.08409
# Shear Modulus (GPa) = 19.56629 27.69651 23.63140
#
# Velocity S-wave (km/s) = 2.85137 3.39244 3.13360
# Velocity P-wave (km/s) = 4.34873 5.38062 4.89196
#
# Compressibility (1/GPa) = 0.05148341
#
# Stress axis : x y z
#
# Youngs Moduli (GPa) = 35.91962 62.75900 51.27392
#
# Poissons Ratio (x) = 0.35777 -0.02700
# Poissons Ratio (y) = 0.20477 0.03705
# Poissons Ratio (z) = -0.01892 0.04535
#
# Static dielectric constant tensor:
#      x y z
#    x 2.058070 0.007290 0.031420 
#    y 0.007290 1.956630 0.004780 
#    z 0.031420 0.004780 2.022650 
# 
# From -- ./inp_files/589438.got.cif
#   From: 2010.05.17/outbox.cif.g08.bks.cpg/sg2_295_cif.got.tgz:589438.got - 2010.06.03 11:33:40.
