data_PCOD9041898
_publ_section_title
;
Structure prediction by ZEFSAII (Michael W. Deem and Ramdas Pophale) SiO2 
 PCOD9041898
Probable space group: P -1
;
_chemical_formula_sum "Si O2"
_cell_formula_units_Z 16
_cell_length_a 9.387515
_cell_length_b 16.073566
_cell_length_c 22.155491
_cell_angle_alpha 19.553521
_cell_angle_beta 35.846999
_cell_angle_gamma 43.819547
_cell_volume 639.790755
_symmetry_space_group_name_H-M "P -1"
_symmetry_group_IT_number 2
_symmetry_cell_setting 'triclinic'
loop_
_space_group_symop_operation_xyz
x,y,z
-x,-y,-z
loop_
_atom_site_type_symbol
_atom_site_label
_atom_site_fract_x
_atom_site_fract_y
_atom_site_fract_z
Si Si1 0.717796 0.264257 0.334997
Si Si2 0.431914 0.007814 0.825781
Si Si3 0.892862 0.465182 0.670990
Si Si4 0.024219 0.079744 0.581798
Si Si5 0.440068 0.710225 0.297219
Si Si6 0.560729 0.716442 0.125153
Si Si7 0.595844 0.104497 0.221595
Si Si8 0.135896 0.357691 0.225593
O O1 0.688455 0.552425 0.147640
O O2 0.912230 0.251050 0.330883
O O3 0.827876 0.146370 0.320609
O O4 0.470484 0.083571 0.570815
O O5 0.385264 0.035478 0.752203
O O6 0.419107 0.221885 0.734292
O O7 0.237137 0.757865 0.086212
O O8 0.724257 0.992656 0.741929
O O9 0.880942 0.732008 0.524389
O O10 0.731315 0.386526 0.720189
O O11 0.185157 0.505577 0.531528
O O12 0.092900 0.252103 0.380088
O O13 0.598489 0.651231 0.226378
O O14 0.374874 0.982453 0.113666
O O15 0.372474 0.258354 0.186560
O O16 0.823067 0.337844 0.996500
#
# Coordination Sequence:
#
# PCOD9041898 Si02
#       8
#     2   2   2   2   2   2   2   2
#     4  11  21  33  54  83 120 140 169 223 268 323
#     4  10  17  33  58  83 105 138 184 218 259 317
#     4  10  20  35  60  79 103 141 186 227 257 319
#     4  10  18  32  55  85 111 144 176 208 268 322
#     4   9  21  40  61  75  96 144 193 230 262 312
#     4  10  22  40  57  79 103 142 185 226 275 311
#     4  10  18  31  54  83 111 148 179 204 262 326
#     4  10  18  31  53  81 115 150 173 208 256 327
#
# _framework density 25.008175000000001
#
# number of rings (size 3 to 8) (size 9 to 14) (size 15 to 20)
#    0.000    2.000    3.750    1.125    0.000    1.500 
#    0.000    6.250    0.000    1.500    0.000    0.000 
#    0.000    0.000    0.000    0.000    0.000    0.000 
#
# Total GULP energy -89453.958030 kJ/mol
# GULP energy per Si atom -5590.872377 kJ/mol
# Density = 2.495126 g / cm^3
# Si number density = 25.008175 Si / 1000 Ang^3
#
#
#
# Elastic Constant Matrix: (Units=GPa)
#
#
# Indices 1 2 3 4 5 6 
#
# 1 59.1240 23.9121 24.7730 -0.7606 -11.8232 17.5816
# 2 23.9121 93.3253 54.6333 -8.5194 4.7214 20.8868
# 3 24.7730 54.6333 138.5745 0.4903 -20.7268 -3.0979
# 4 -0.7606 -8.5194 0.4903 32.4682 1.8957 5.0023
# 5 -11.8232 4.7214 -20.7268 1.8957 27.2203 -5.9205
# 6 17.5816 20.8868 -3.0979 5.0023 -5.9205 34.6784
#
#
#
# Elastic Compliance Matrix: (Units=1/GPa)
#
#
# Indices 1 2 3 4 5 6 
#
# 1 0.023072 -0.002856 -0.002188 0.000834 0.006807 -0.009131
# 2 -0.002856 0.026118 -0.013486 0.011439 -0.021356 -0.020784
# 3 -0.002188 -0.013486 0.015835 -0.007076 0.017112 0.014589
# 4 0.000834 0.011439 -0.007076 0.037073 -0.012964 -0.015505
# 5 0.006807 -0.021356 0.017112 -0.012964 0.062436 0.023470
# 6 -0.009131 -0.020784 0.014589 -0.015505 0.023470 0.053531
#
#
# Mechanical properties :
#
#
# Convention : Reuss Voigt Hill
#
# Bulk Modulus (GPa) = 35.75689 55.29561 45.52625
# Shear Modulus (GPa) = 18.90747 31.38709 25.14728
#
# Velocity S-wave (km/s) = 2.75262 3.54654 3.17450
# Velocity P-wave (km/s) = 4.94284 6.23936 5.62856
#
# Compressibility (1/GPa) = 0.02796663
#
# Stress axis : x y z
#
# Youngs Moduli (GPa) = 43.34171 38.28790 63.15130
#
# Poissons Ratio (x) = 0.10933 0.13817
# Poissons Ratio (y) = 0.12376 0.85166
# Poissons Ratio (z) = 0.09482 0.51635
#
# Static dielectric constant tensor:
#      x y z
#    x 1.946340 -0.012620 0.020150 
#    y -0.012620 2.037000 -0.024750 
#    z 0.020150 -0.024750 1.996940 
# 
# From -- ./inp_files/433100.got.cif
#   From: 2010.05.17/outbox.cif.g08.bks.cpg/sg2_217_cif.got.tgz:433100.got - 2010.06.03 11:33:40.
