data_PCOD9041653
_publ_section_title
;
Structure prediction by ZEFSAII (Michael W. Deem and Ramdas Pophale) SiO2 
 PCOD9041653
Probable space group: P -1
;
_chemical_formula_sum "Si O2"
_cell_formula_units_Z 15
_cell_length_a 8.208077
_cell_length_b 11.585115
_cell_length_c 19.684934
_cell_angle_alpha 39.044911
_cell_angle_beta 36.388323
_cell_angle_gamma 52.992799
_cell_volume 698.172958
_symmetry_space_group_name_H-M "P -1"
_symmetry_group_IT_number 2
_symmetry_cell_setting 'triclinic'
loop_
_space_group_symop_operation_xyz
x,y,z
-x,-y,-z
loop_
_atom_site_type_symbol
_atom_site_label
_atom_site_fract_x
_atom_site_fract_y
_atom_site_fract_z
Si Si1 0.000000 0.000000 0.000000
Si Si2 0.910117 0.283621 0.123490
Si Si3 0.263189 0.266394 0.691441
Si Si4 0.153495 0.560728 0.352711
Si Si5 0.354193 0.144719 0.936479
Si Si6 0.260267 0.236612 0.362322
Si Si7 0.221015 0.629995 0.616707
Si Si8 0.771116 0.111646 0.386674
O O1 0.171557 0.074173 0.841414
O O2 0.262547 0.060739 0.933955
O O3 0.585376 0.244596 0.234362
O O4 0.947586 0.180386 0.230806
O O5 0.000000 0.500000 0.000000
O O6 0.096811 0.208118 0.036849
O O7 0.236173 0.415097 0.693637
O O8 0.562103 0.280446 0.551381
O O9 0.050674 0.327487 0.677295
O O10 0.425250 0.683891 0.222597
O O11 0.224500 0.383084 0.367363
O O12 0.000000 0.500000 0.500000
O O13 0.500000 0.000000 0.000000
O O14 0.081435 0.309729 0.327548
O O15 0.136529 0.039234 0.521261
O O16 0.294094 0.708999 0.629920
O O17 0.500000 0.000000 0.500000
#
# Coordination Sequence:
#
# PCOD9041653 Si02
#       8
#     1   2   2   2   2   2   2   2
#     4  12  28  42  72 104 148 192 236 294 370 422
#     4  11  25  46  70  99 141 182 232 293 357 433
#     4  10  25  43  68 105 139 189 236 300 358 424
#     4  11  25  44  75 101 143 191 246 296 361 427
#     4  12  28  50  72 107 150 190 247 297 363 437
#     4  10  23  44  66 103 132 183 233 292 361 420
#     4  10  23  45  67  99 140 177 241 291 351 429
#     4  10  24  39  69  95 132 179 228 279 355 417
#
# _framework density 21.484646999999999
#
# number of rings (size 3 to 8) (size 9 to 14) (size 15 to 20)
#    0.000    1.333    2.667    0.400   16.800    0.000 
#    2.400    0.667    0.000    0.000    0.000    0.000 
#    0.000    0.000    0.000    0.000    0.000    0.000 
#
# Total GULP energy -83583.018776 kJ/mol
# GULP energy per Si atom -5572.201252 kJ/mol
# Density = 2.143575 g / cm^3
# Si number density = 21.484647 Si / 1000 Ang^3
#
#
#
# Elastic Constant Matrix: (Units=GPa)
#
#
# Indices 1 2 3 4 5 6 
#
# 1 116.5134 49.5105 30.8122 2.9675 -4.7260 20.3663
# 2 49.5105 52.7610 17.7339 14.8591 -10.7313 2.8237
# 3 30.8122 17.7339 104.5666 5.5414 -6.3785 -11.4839
# 4 2.9675 14.8591 5.5414 31.3400 -1.3302 -8.3670
# 5 -4.7260 -10.7313 -6.3785 -1.3302 31.1946 -5.8980
# 6 20.3663 2.8237 -11.4839 -8.3670 -5.8980 36.0501
#
#
#
# Elastic Compliance Matrix: (Units=1/GPa)
#
#
# Indices 1 2 3 4 5 6 
#
# 1 0.019000 -0.018361 -0.004263 0.004572 -0.006118 -0.010593
# 2 -0.018361 0.043040 0.000330 -0.016805 0.012364 0.005229
# 3 -0.004263 0.000330 0.011677 0.000085 0.003113 0.006632
# 4 0.004572 -0.016805 0.000085 0.041517 -0.001768 0.008107
# 5 -0.006118 0.012364 0.003113 -0.001768 0.037691 0.009235
# 6 -0.010593 0.005229 0.006632 0.008107 0.009235 0.038819
#
#
# Mechanical properties :
#
#
# Convention : Reuss Voigt Hill
#
# Bulk Modulus (GPa) = 34.33111 52.21713 43.27412
# Shear Modulus (GPa) = 20.32173 31.43591 25.87882
#
# Velocity S-wave (km/s) = 3.07884 3.82930 3.47439
# Velocity P-wave (km/s) = 5.35286 6.62635 6.02336
#
# Compressibility (1/GPa) = 0.02912810
#
# Stress axis : x y z
#
# Youngs Moduli (GPa) = 52.63288 23.23415 85.63639
#
# Poissons Ratio (x) = 0.42660 0.36511
# Poissons Ratio (y) = 0.96640 -0.02827
# Poissons Ratio (z) = 0.22440 -0.00767
#
# Static dielectric constant tensor:
#      x y z
#    x 1.824820 0.007740 0.040870 
#    y 0.007740 1.478370 -0.434540 
#    z 0.040870 -0.434540 1.349720 
# 
# From -- ./inp_files/389221.got.cif
#   From: 2010.05.17/outbox.cif.g08.bks.cpg/sg2_195_cif.got.tgz:389221.got - 2010.06.03 11:33:40.
