data_PCOD9041277
_publ_section_title
;
Structure prediction by ZEFSAII (Michael W. Deem and Ramdas Pophale) SiO2 
 PCOD9041277
Probable space group: P -1
;
_chemical_formula_sum "Si O2"
_cell_formula_units_Z 14
_cell_length_a 11.813220
_cell_length_b 12.077359
_cell_length_c 5.385417
_cell_angle_alpha 88.628899
_cell_angle_beta 70.120591
_cell_angle_gamma 56.928031
_cell_volume 592.626904
_symmetry_space_group_name_H-M "P -1"
_symmetry_group_IT_number 2
_symmetry_cell_setting 'triclinic'
loop_
_space_group_symop_operation_xyz
x,y,z
-x,-y,-z
loop_
_atom_site_type_symbol
_atom_site_label
_atom_site_fract_x
_atom_site_fract_y
_atom_site_fract_z
Si Si1 0.758789 0.608748 0.762805
Si Si2 0.387232 0.523071 0.875548
Si Si3 0.583853 0.845947 0.551816
Si Si4 0.022205 0.611508 0.703396
Si Si5 0.388113 0.731977 0.594918
Si Si6 0.909722 0.021388 0.319307
Si Si7 0.902836 0.769020 0.265183
O O1 0.640454 0.768937 0.789375
O O2 0.897583 0.583003 0.808390
O O3 0.823021 0.527861 0.457258
O O4 0.705705 0.527124 0.939528
O O5 0.321088 0.676645 0.841412
O O6 0.481640 0.408932 0.606641
O O7 0.500000 0.500000 0.000000
O O8 0.471175 0.803889 0.585525
O O9 0.749047 0.785637 0.332912
O O10 0.500000 0.000000 0.500000
O O11 0.977322 0.694500 0.473899
O O12 0.004882 0.694821 0.953513
O O13 0.244960 0.835002 0.540277
O O14 0.869776 0.914269 0.321494
O O15 0.000000 0.000000 0.500000
O O16 0.000000 0.000000 0.000000
#
# Coordination Sequence:
#
# PCOD9041277 Si02
#       7
#     2   2   2   2   2   2   2
#     4  10  23  43  72 109 147 197 242 308 371 438
#     4  11  24  44  73 106 145 190 249 307 375 439
#     4  11  22  46  75 106 146 189 246 305 367 444
#     4  10  24  44  74 105 150 188 250 302 367 435
#     4  11  26  47  74 107 145 196 248 313 370 442
#     4  12  29  49  73 107 151 199 250 302 379 454
#     4  11  24  47  74 109 143 197 243 308 368 435
#
# _framework density 23.623633999999999
#
# number of rings (size 3 to 8) (size 9 to 14) (size 15 to 20)
#    0.000    1.143    2.857    1.714    4.000    7.429 
#    2.571    2.143    0.000    0.000    0.000    0.000 
#    0.000    0.000    0.000    0.000    0.000    0.000 
#
# Total GULP energy -77994.432789 kJ/mol
# GULP energy per Si atom -5571.030913 kJ/mol
# Density = 2.356987 g / cm^3
# Si number density = 23.623634 Si / 1000 Ang^3
#
#
#
# Elastic Constant Matrix: (Units=GPa)
#
#
# Indices 1 2 3 4 5 6 
#
# 1 98.9913 51.6207 43.1108 -20.9257 -14.6473 -0.1629
# 2 51.6207 166.5018 37.9359 -31.7418 -8.0163 11.8190
# 3 43.1108 37.9359 95.2792 -10.6398 -0.1252 9.9264
# 4 -20.9257 -31.7418 -10.6398 26.3764 7.0574 -5.5203
# 5 -14.6473 -8.0163 -0.1252 7.0574 36.7129 -9.7001
# 6 -0.1629 11.8190 9.9264 -5.5203 -9.7001 46.4936
#
#
#
# Elastic Compliance Matrix: (Units=1/GPa)
#
#
# Indices 1 2 3 4 5 6 
#
# 1 0.016282 -0.002349 -0.006060 0.006957 0.005671 0.003957
# 2 -0.002349 0.008593 -0.001355 0.007930 -0.000893 -0.001148
# 3 -0.006060 -0.001355 0.014072 -0.000558 -0.003476 -0.003473
# 4 0.006957 0.007930 -0.000558 0.054862 -0.005096 0.003579
# 5 0.005671 -0.000893 -0.003476 -0.005096 0.032147 0.007091
# 6 0.003957 -0.001148 -0.003473 0.003579 0.007091 0.024460
#
#
# Mechanical properties :
#
#
# Convention : Reuss Voigt Hill
#
# Bulk Modulus (GPa) = 51.49295 69.56745 60.53020
# Shear Modulus (GPa) = 28.34222 37.12358 32.73290
#
# Velocity S-wave (km/s) = 3.46748 3.96846 3.72640
# Velocity P-wave (km/s) = 6.15433 7.10707 6.64779
#
# Compressibility (1/GPa) = 0.01942013
#
# Stress axis : x y z
#
# Youngs Moduli (GPa) = 61.41748 116.37358 71.06540
#
# Poissons Ratio (x) = 0.27334 0.43064
# Poissons Ratio (y) = 0.14426 0.09627
# Poissons Ratio (z) = 0.37218 0.15764
#
# Static dielectric constant tensor:
#      x y z
#    x 1.820550 -0.066220 -0.076890 
#    y -0.066220 2.017220 -0.083000 
#    z -0.076890 -0.083000 2.040080 
# 
# From -- ./inp_files/69670.got.cif
#   From: 2010.05.17/outbox.cif.g08.bks.cpg/sg2_35_cif.got.tgz:69670.got - 2010.06.03 11:33:40.
