data_PCOD9041174
_publ_section_title
;
Structure prediction by ZEFSAII (Michael W. Deem and Ramdas Pophale) SiO2 
 PCOD9041174
Probable space group: P -1
;
_chemical_formula_sum "Si O2"
_cell_formula_units_Z 16
_cell_length_a 12.239345
_cell_length_b 14.690177
_cell_length_c 8.025739
_cell_angle_alpha 102.993976
_cell_angle_beta 85.597679
_cell_angle_gamma 150.445967
_cell_volume 671.998296
_symmetry_space_group_name_H-M "P -1"
_symmetry_group_IT_number 2
_symmetry_cell_setting 'triclinic'
loop_
_space_group_symop_operation_xyz
x,y,z
-x,-y,-z
loop_
_atom_site_type_symbol
_atom_site_label
_atom_site_fract_x
_atom_site_fract_y
_atom_site_fract_z
Si Si1 0.234872 0.218372 0.502981
Si Si2 0.933484 0.494087 0.825867
Si Si3 0.825399 0.483229 0.325351
Si Si4 0.395350 0.495992 0.135320
Si Si5 0.444131 0.069566 0.579266
Si Si6 0.656973 0.883799 0.722931
Si Si7 0.032483 0.307475 0.924529
Si Si8 0.938119 0.728538 0.631993
O O1 0.414914 0.345050 0.682872
O O2 0.313233 0.204451 0.346743
O O3 0.175218 0.278966 0.482200
O O4 0.000000 0.000000 0.500000
O O5 0.666409 0.277513 0.732487
O O6 0.062039 0.532796 0.685645
O O7 0.040162 0.676145 0.914480
O O8 0.000000 0.500000 0.000000
O O9 0.569117 0.275937 0.207364
O O10 0.972360 0.651215 0.241823
O O11 0.828523 0.547081 0.517794
O O12 0.164665 0.310706 0.197939
O O13 0.500000 0.500000 0.000000
O O14 0.299210 0.498316 0.016909
O O15 0.406894 0.104278 0.431221
O O16 0.500000 0.000000 0.500000
O O17 0.208597 0.914338 0.646475
O O18 0.885356 0.103987 0.850441
#
# Coordination Sequence:
#
# PCOD9041174 Si02
#       8
#     2   2   2   2   2   2   2   2
#     4  12  24  46  74 102 143 197 252 294 368 450
#     4  10  23  43  71 106 150 189 234 310 373 422
#     4  11  23  46  76 105 147 202 244 298 372 438
#     4  12  27  44  70 105 146 190 240 315 376 423
#     4  12  23  45  78 110 148 193 251 304 360 451
#     4  12  25  43  77 107 141 202 254 293 359 456
#     4  11  25  48  66 107 156 184 246 318 364 424
#     4  12  25  45  76 108 147 196 250 305 363 444
#
# _framework density 23.809585999999999
#
# number of rings (size 3 to 8) (size 9 to 14) (size 15 to 20)
#    0.000    0.500    5.000    3.375    1.750    4.000 
#    0.000    1.250    0.000    0.000    0.000    0.000 
#    0.000    0.000    0.000    0.000    0.000    0.000 
#
# Total GULP energy -89254.282625 kJ/mol
# GULP energy per Si atom -5578.392664 kJ/mol
# Density = 2.375539 g / cm^3
# Si number density = 23.809586 Si / 1000 Ang^3
#
#
#
# Elastic Constant Matrix: (Units=GPa)
#
#
# Indices 1 2 3 4 5 6 
#
# 1 124.0207 24.1105 50.8361 7.4128 -25.8273 22.5884
# 2 24.1105 104.4620 39.6028 5.1805 -11.0899 29.3638
# 3 50.8361 39.6028 134.4200 19.3067 -8.6183 10.6865
# 4 7.4128 5.1805 19.3067 34.2001 4.4111 2.1317
# 5 -25.8273 -11.0899 -8.6183 4.4111 55.0777 2.9615
# 6 22.5884 29.3638 10.6865 2.1317 2.9615 39.5339
#
#
#
# Elastic Compliance Matrix: (Units=1/GPa)
#
#
# Indices 1 2 3 4 5 6 
#
# 1 0.011927 0.001376 -0.003847 -0.000913 0.005727 -0.007177
# 2 0.001376 0.013898 -0.003536 -0.000206 0.003466 -0.010402
# 3 -0.003847 -0.003536 0.010362 -0.004540 -0.000656 0.002318
# 4 -0.000913 -0.000206 -0.004540 0.032495 -0.003806 0.000435
# 5 0.005727 0.003466 -0.000656 -0.003806 0.022125 -0.007122
# 6 -0.007177 -0.010402 0.002318 0.000435 -0.007122 0.037005
#
#
# Mechanical properties :
#
#
# Convention : Reuss Voigt Hill
#
# Bulk Modulus (GPa) = 41.36966 65.77794 53.57380
# Shear Modulus (GPa) = 33.81037 42.31924 38.06480
#
# Velocity S-wave (km/s) = 3.77242 4.22050 4.00273
# Velocity P-wave (km/s) = 6.03223 7.17195 6.62664
#
# Compressibility (1/GPa) = 0.02417231
#
# Stress axis : x y z
#
# Youngs Moduli (GPa) = 83.84390 71.95323 96.50652
#
# Poissons Ratio (x) = -0.09903 0.37128
# Poissons Ratio (y) = -0.11540 0.34128
# Poissons Ratio (z) = 0.32257 0.25445
#
# Static dielectric constant tensor:
#      x y z
#    x 2.158840 -0.037410 0.038460 
#    y -0.037410 1.844670 -0.016180 
#    z 0.038460 -0.016180 1.939340 
# 
# From -- ./inp_files/272504.got.cif
#   From: 2010.05.17/outbox.cif.g08.bks.cpg/sg2_137_cif.got.tgz:272504.got - 2010.06.03 11:33:40.
