data_PCOD9041693
_publ_section_title
;
Structure prediction by ZEFSAII (Michael W. Deem and Ramdas Pophale) SiO2 
 PCOD9041693
Probable space group: P -1
;
_chemical_formula_sum "Si O2"
_cell_formula_units_Z 16
_cell_length_a 6.761914
_cell_length_b 10.455453
_cell_length_c 12.312772
_cell_angle_alpha 79.848937
_cell_angle_beta 54.569134
_cell_angle_gamma 68.477755
_cell_volume 659.078090
_symmetry_space_group_name_H-M "P -1"
_symmetry_group_IT_number 2
_symmetry_cell_setting 'triclinic'
loop_
_space_group_symop_operation_xyz
x,y,z
-x,-y,-z
loop_
_atom_site_type_symbol
_atom_site_label
_atom_site_fract_x
_atom_site_fract_y
_atom_site_fract_z
Si Si1 0.358249 0.213593 0.977600
Si Si2 0.727899 0.070856 0.693365
Si Si3 0.908981 0.145011 0.250637
Si Si4 0.606768 0.887335 0.576792
Si Si5 0.912035 0.411787 0.323918
Si Si6 0.500489 0.364914 0.088369
Si Si7 0.859622 0.329980 0.577768
Si Si8 0.647723 0.525997 0.175339
O O1 0.500567 0.122532 0.845478
O O2 0.252101 0.369884 0.941503
O O3 0.140340 0.158007 0.100800
O O4 0.545913 0.235064 0.011627
O O5 0.753595 0.203644 0.606020
O O6 0.974962 0.996934 0.698894
O O7 0.701231 0.961120 0.633322
O O8 0.634918 0.149269 0.294137
O O9 0.863397 0.271057 0.329003
O O10 0.839002 0.751811 0.485417
O O11 0.500000 0.000000 0.500000
O O12 0.834451 0.434423 0.470448
O O13 0.763395 0.513161 0.261102
O O14 0.213979 0.384486 0.218412
O O15 0.681985 0.381555 0.126340
O O16 0.500000 0.500000 0.000000
O O17 0.663365 0.405410 0.723426
#
# Coordination Sequence:
#
# PCOD9041693 Si02
#       8
#     2   2   2   2   2   2   2   2
#     4   9  22  43  69  95 128 169 215 274 320 376
#     4  11  22  45  65  94 135 165 214 275 319 380
#     4  11  23  40  67  96 129 170 216 262 326 385
#     4  12  24  42  68  97 131 173 211 263 331 387
#     4  11  23  41  65  96 131 177 213 260 322 382
#     4   9  21  43  64  93 127 171 216 268 314 378
#     4  11  23  44  65  97 134 168 215 269 317 386
#     4  10  23  44  66  95 132 172 215 267 317 379
#
# _framework density 24.276335
#
# number of rings (size 3 to 8) (size 9 to 14) (size 15 to 20)
#    0.000    1.500    2.500    1.875    1.750    5.500 
#    6.750    2.500    0.000    0.000    0.000    0.000 
#    0.000    0.000    0.000    0.000    0.000    0.000 
#
# Total GULP energy -89410.682727 kJ/mol
# GULP energy per Si atom -5588.167670 kJ/mol
# Density = 2.422108 g / cm^3
# Si number density = 24.276335 Si / 1000 Ang^3
#
#
#
# Elastic Constant Matrix: (Units=GPa)
#
#
# Indices 1 2 3 4 5 6 
#
# 1 89.4536 16.2456 35.4494 0.2391 -1.7275 -9.1331
# 2 16.2456 57.7426 11.2250 -9.1955 8.5918 -0.7116
# 3 35.4494 11.2250 128.1839 -12.6522 -2.8185 9.4085
# 4 0.2391 -9.1955 -12.6522 38.3652 -4.4740 4.8126
# 5 -1.7275 8.5918 -2.8185 -4.4740 21.2484 -2.5111
# 6 -9.1331 -0.7116 9.4085 4.8126 -2.5111 20.1781
#
#
#
# Elastic Compliance Matrix: (Units=1/GPa)
#
#
# Indices 1 2 3 4 5 6 
#
# 1 0.014912 -0.004110 -0.004798 -0.003609 0.002664 0.010034
# 2 -0.004110 0.020351 -0.000172 0.004296 -0.008046 -0.003088
# 3 -0.004798 -0.000172 0.010183 0.004454 0.001039 -0.007859
# 4 -0.003609 0.004296 0.004454 0.030316 0.003723 -0.010326
# 5 0.002664 -0.008046 0.001039 0.003723 0.052168 0.006042
# 6 0.010034 -0.003088 -0.007859 -0.010326 0.006042 0.060870
#
#
# Mechanical properties :
#
#
# Convention : Reuss Voigt Hill
#
# Bulk Modulus (GPa) = 36.64860 44.58001 40.61430
# Shear Modulus (GPa) = 23.14213 30.12235 26.63224
#
# Velocity S-wave (km/s) = 3.09087 3.52634 3.31576
# Velocity P-wave (km/s) = 5.27894 5.91468 5.60583
#
# Compressibility (1/GPa) = 0.02728617
#
# Stress axis : x y z
#
# Youngs Moduli (GPa) = 67.05803 49.13692 98.20733
#
# Poissons Ratio (x) = 0.20196 0.47122
# Poissons Ratio (y) = 0.27562 0.01686
# Poissons Ratio (z) = 0.32176 0.00844
#
# Static dielectric constant tensor:
#      x y z
#    x 2.009250 -0.046440 0.052040 
#    y -0.046440 1.927760 -0.013530 
#    z 0.052040 -0.013530 1.953720 
# 
# From -- ./inp_files/364218.got.cif
#   From: 2010.05.17/outbox.cif.g08.bks.cpg/sg2_183_cif.got.tgz:364218.got - 2010.06.03 11:33:40.
