data_PCOD9041519
_publ_section_title
;
Structure prediction by ZEFSAII (Michael W. Deem and Ramdas Pophale) SiO2 
 PCOD9041519
Probable space group: P -1
;
_chemical_formula_sum "Si O2"
_cell_formula_units_Z 11
_cell_length_a 12.812524
_cell_length_b 4.941299
_cell_length_c 7.253683
_cell_angle_alpha 70.089259
_cell_angle_beta 72.797303
_cell_angle_gamma 71.559962
_cell_volume 400.408339
_symmetry_space_group_name_H-M "P -1"
_symmetry_group_IT_number 2
_symmetry_cell_setting 'triclinic'
loop_
_space_group_symop_operation_xyz
x,y,z
-x,-y,-z
loop_
_atom_site_type_symbol
_atom_site_label
_atom_site_fract_x
_atom_site_fract_y
_atom_site_fract_z
Si Si1 0.655722 0.519974 0.771460
Si Si2 0.885505 0.568706 0.748236
Si Si3 0.546117 0.671107 0.192688
Si Si4 0.000000 0.500000 0.000000
Si Si5 0.350446 0.988268 0.646859
Si Si6 0.093751 0.058903 0.705504
O O1 0.789919 0.423120 0.752837
O O2 0.586823 0.293769 0.781004
O O3 0.638682 0.790064 0.574412
O O4 0.603239 0.624465 0.972681
O O5 0.870129 0.680593 0.936263
O O6 0.907540 0.794300 0.530763
O O7 0.000401 0.312687 0.804816
O O8 0.590526 0.908106 0.231481
O O9 0.590832 0.352525 0.341160
O O10 0.056046 0.758625 0.805965
O O11 0.218205 0.014367 0.726523
#
# Coordination Sequence:
#
# PCOD9041519 Si02
#       6
#     2   2   2   1   2   2
#     4  10  24  46  70 106 141 184 237 296 348 425
#     4  10  23  44  64 101 135 182 230 292 354 419
#     4  11  25  46  73 105 141 187 240 288 356 424
#     4  12  22  40  66  96 130 180 228 282 346 420
#     4  11  25  46  73 103 144 187 234 293 357 422
#     4  10  24  43  66  99 139 178 235 289 354 422
#
# _framework density 27.471955999999999
#
# number of rings (size 3 to 8) (size 9 to 14) (size 15 to 20)
#    0.000    1.455    0.000    3.273    5.091    4.364 
#   13.091    0.000    0.000    0.000    0.000    0.000 
#    0.000    0.000    0.000    0.000    0.000    0.000 
#
# Total GULP energy -61561.154853 kJ/mol
# GULP energy per Si atom -5596.468623 kJ/mol
# Density = 2.740943 g / cm^3
# Si number density = 27.471956 Si / 1000 Ang^3
#
#
#
# Elastic Constant Matrix: (Units=GPa)
#
#
# Indices 1 2 3 4 5 6 
#
# 1 225.9071 74.3298 47.6823 -11.4370 14.0574 35.3833
# 2 74.3298 143.5193 46.2010 -14.4161 0.1290 19.4227
# 3 47.6823 46.2010 134.9136 -8.6409 31.1494 10.1265
# 4 -11.4370 -14.4161 -8.6409 47.9604 7.7414 1.9585
# 5 14.0574 0.1290 31.1494 7.7414 43.6198 -1.9077
# 6 35.3833 19.4227 10.1265 1.9585 -1.9077 30.5560
#
#
#
# Elastic Compliance Matrix: (Units=1/GPa)
#
#
# Indices 1 2 3 4 5 6 
#
# 1 0.006416 -0.002212 -0.000439 0.001401 -0.002263 -0.006109
# 2 -0.002212 0.009477 -0.002681 0.001586 0.002207 -0.002538
# 3 -0.000439 -0.002681 0.010616 0.002363 -0.007936 -0.001952
# 4 0.001401 0.001586 0.002363 0.023356 -0.006521 -0.005317
# 5 -0.002263 0.002207 -0.007936 -0.006521 0.030743 0.006185
# 6 -0.006109 -0.002538 -0.001952 -0.005317 0.006185 0.042788
#
#
# Mechanical properties :
#
#
# Convention : Reuss Voigt Hill
#
# Bulk Modulus (GPa) = 63.11652 93.41846 78.26749
# Shear Modulus (GPa) = 35.88303 46.83571 41.35937
#
# Velocity S-wave (km/s) = 3.61802 4.13347 3.88430
# Velocity P-wave (km/s) = 6.36225 7.54053 6.97631
#
# Compressibility (1/GPa) = 0.01584371
#
# Stress axis : x y z
#
# Youngs Moduli (GPa) = 155.86992 105.51730 94.20006
#
# Poissons Ratio (x) = 0.23339 0.04138
# Poissons Ratio (y) = 0.34476 0.25257
# Poissons Ratio (z) = 0.06847 0.28292
#
# Static dielectric constant tensor:
#      x y z
#    x 2.209550 -0.031990 0.011820 
#    y -0.031990 2.204490 0.180210 
#    z 0.011820 0.180210 2.199600 
# 
# From -- ./inp_files/103054.got.cif
#   From: 2010.05.17/outbox.cif.g08.bks.cpg/sg2_52_cif.got.tgz:103054.got - 2010.06.03 11:33:40.
