data_PCOD9041340
_publ_section_title
;
Structure prediction by ZEFSAII (Michael W. Deem and Ramdas Pophale) SiO2 
 PCOD9041340
Probable space group: P -1
;
_chemical_formula_sum "Si O2"
_cell_formula_units_Z 12
_cell_length_a 15.497745
_cell_length_b 9.966839
_cell_length_c 5.731535
_cell_angle_alpha 67.985473
_cell_angle_beta 104.298500
_cell_angle_gamma 54.472527
_cell_volume 526.175328
_symmetry_space_group_name_H-M "P -1"
_symmetry_group_IT_number 2
_symmetry_cell_setting 'triclinic'
loop_
_space_group_symop_operation_xyz
x,y,z
-x,-y,-z
loop_
_atom_site_type_symbol
_atom_site_label
_atom_site_fract_x
_atom_site_fract_y
_atom_site_fract_z
Si Si1 0.995668 0.625466 0.110274
Si Si2 0.035036 0.886301 0.847104
Si Si3 0.554058 0.202879 0.662572
Si Si4 0.391033 0.581439 0.684942
Si Si5 0.218537 0.294518 0.820937
Si Si6 0.287799 0.493224 0.023066
O O1 0.140385 0.455345 0.444098
O O2 0.882873 0.706780 0.158116
O O3 0.964341 0.816988 0.854685
O O4 0.000000 0.500000 0.000000
O O5 0.194792 0.662728 0.061526
O O6 0.000000 0.000000 0.500000
O O7 0.000000 0.000000 0.000000
O O8 0.469781 0.377328 0.700111
O O9 0.641632 0.230565 0.597760
O O10 0.441569 0.292235 0.341492
O O11 0.642834 0.959067 0.959577
O O12 0.500000 0.500000 0.000000
O O13 0.283463 0.619488 0.732576
O O14 0.237031 0.402482 0.946449
#
# Coordination Sequence:
#
# PCOD9041340 Si02
#       6
#     2   2   2   2   2   2
#     4  11  26  49  69 104 152 192 257 308 365 457
#     4  12  29  49  79 110 147 204 254 314 379 442
#     4  10  23  43  73 105 145 194 238 312 382 441
#     4   9  22  42  64 102 150 183 245 300 365 453
#     4  11  25  45  74 104 148 199 245 307 384 445
#     4  11  24  45  70 108 147 186 254 312 364 465
#
# _framework density 22.806087999999999
#
# number of rings (size 3 to 8) (size 9 to 14) (size 15 to 20)
#    0.000    1.333    1.667    1.500    9.333    6.000 
#    0.000    0.000    0.000    0.000    0.000    0.000 
#    0.000    0.000    0.000    0.000    0.000    0.000 
#
# Total GULP energy -67058.047264 kJ/mol
# GULP energy per Si atom -5588.170605 kJ/mol
# Density = 2.275418 g / cm^3
# Si number density = 22.806088 Si / 1000 Ang^3
#
#
#
# Elastic Constant Matrix: (Units=GPa)
#
#
# Indices 1 2 3 4 5 6 
#
# 1 127.2848 44.2902 40.9601 -5.3899 -27.4151 2.9093
# 2 44.2902 137.8223 58.7031 7.7303 -3.8521 13.4422
# 3 40.9601 58.7031 118.4213 2.8622 -1.7387 8.5073
# 4 -5.3899 7.7303 2.8622 31.1187 -2.8925 2.1592
# 5 -27.4151 -3.8521 -1.7387 -2.8925 41.3597 1.5220
# 6 2.9093 13.4422 8.5073 2.1592 1.5220 36.6282
#
#
#
# Elastic Compliance Matrix: (Units=1/GPa)
#
#
# Indices 1 2 3 4 5 6 
#
# 1 0.011325 -0.002509 -0.002658 0.003509 0.007402 0.000124
# 2 -0.002509 0.010073 -0.003907 -0.002502 -0.000976 -0.002402
# 3 -0.002658 -0.003907 0.011355 -0.000627 -0.001660 -0.000886
# 4 0.003509 -0.002502 -0.000627 0.033937 0.004491 -0.001402
# 5 0.007402 -0.000976 -0.001660 0.004491 0.029287 -0.001326
# 6 0.000124 -0.002402 -0.000886 -0.001402 -0.001326 0.028517
#
#
# Mechanical properties :
#
#
# Convention : Reuss Voigt Hill
#
# Bulk Modulus (GPa) = 68.47159 74.60392 71.53776
# Shear Modulus (GPa) = 33.89581 37.79300 35.84440
#
# Velocity S-wave (km/s) = 3.85939 4.07522 3.96877
# Velocity P-wave (km/s) = 7.06742 7.41124 7.24137
#
# Compressibility (1/GPa) = 0.01460460
#
# Stress axis : x y z
#
# Youngs Moduli (GPa) = 88.30058 99.27039 88.06579
#
# Poissons Ratio (x) = 0.24908 0.23411
# Poissons Ratio (y) = 0.22156 0.34407
# Poissons Ratio (z) = 0.23474 0.38785
#
# Static dielectric constant tensor:
#      x y z
#    x 1.901100 -0.032780 -0.004060 
#    y -0.032780 1.808440 -0.003420 
#    z -0.004060 -0.003420 1.908870 
# 
# From -- ./inp_files/22143.got.cif
#   From: 2010.05.17/outbox.cif.g08.bks.cpg/sg2_12_cif.got.tgz:22143.got - 2010.06.03 11:33:40.
