data_PCOD9041412
_publ_section_title
;
Structure prediction by ZEFSAII (Michael W. Deem and Ramdas Pophale) SiO2 
 PCOD9041412
Probable space group: P -1
;
_chemical_formula_sum "Si O2"
_cell_formula_units_Z 14
_cell_length_a 15.774020
_cell_length_b 6.663520
_cell_length_c 5.336056
_cell_angle_alpha 107.903919
_cell_angle_beta 101.218844
_cell_angle_gamma 94.120584
_cell_volume 518.280737
_symmetry_space_group_name_H-M "P -1"
_symmetry_group_IT_number 2
_symmetry_cell_setting 'triclinic'
loop_
_space_group_symop_operation_xyz
x,y,z
-x,-y,-z
loop_
_atom_site_type_symbol
_atom_site_label
_atom_site_fract_x
_atom_site_fract_y
_atom_site_fract_z
Si Si1 0.485149 0.672610 0.766919
Si Si2 0.931735 0.896641 0.703479
Si Si3 0.216346 0.250229 0.067333
Si Si4 0.307754 0.670116 0.392483
Si Si5 0.843059 0.161640 0.365216
Si Si6 0.929921 0.515619 0.194013
Si Si7 0.569240 0.092952 0.784487
O O1 0.500000 0.500000 0.500000
O O2 0.386905 0.719451 0.649943
O O3 0.558415 0.882232 0.867014
O O4 0.466069 0.689767 0.059609
O O5 0.954227 0.676146 0.508243
O O6 0.836587 0.831335 0.746171
O O7 0.775948 0.958186 0.165407
O O8 0.000000 0.000000 0.000000
O O9 0.146100 0.370298 0.927817
O O10 0.085629 0.934653 0.457322
O O11 0.299603 0.423165 0.218039
O O12 0.214035 0.694775 0.457690
O O13 0.336023 0.830153 0.243516
O O14 0.883295 0.294255 0.199780
O O15 0.000000 0.500000 0.000000
O O16 0.500000 0.000000 0.500000
#
# Coordination Sequence:
#
# PCOD9041412 Si02
#       7
#     2   2   2   2   2   2   2
#     4  10  23  43  74 113 151 202 258 314 387 478
#     4  11  28  52  77 115 152 206 281 333 404 483
#     4  11  28  46  74 114 153 207 270 322 411 469
#     4  11  25  45  73 109 158 202 258 328 396 472
#     4  11  28  51  79 112 162 211 266 338 410 468
#     4  11  28  54  79 113 157 210 270 339 406 483
#     4   9  22  43  70 108 151 198 253 308 391 463
#
# _framework density 27.012388999999999
#
# number of rings (size 3 to 8) (size 9 to 14) (size 15 to 20)
#    0.000    1.429    1.429    0.000    6.000   14.286 
#    0.000    0.000    0.000    0.000    0.000    0.000 
#    0.000    0.000    0.000    0.000    0.000    0.000 
#
# Total GULP energy -78235.990197 kJ/mol
# GULP energy per Si atom -5588.285014 kJ/mol
# Density = 2.695091 g / cm^3
# Si number density = 27.012389 Si / 1000 Ang^3
#
#
#
# Elastic Constant Matrix: (Units=GPa)
#
#
# Indices 1 2 3 4 5 6 
#
# 1 79.3899 21.9604 31.9970 10.3614 -9.8663 0.9985
# 2 21.9604 112.8578 48.0366 9.6052 0.7278 26.2971
# 3 31.9970 48.0366 180.5002 37.5383 -13.9199 1.9220
# 4 10.3614 9.6052 37.5383 59.9166 4.2664 -2.3424
# 5 -9.8663 0.7278 -13.9199 4.2664 43.1080 12.2915
# 6 0.9985 26.2971 1.9220 -2.3424 12.2915 57.0530
#
#
#
# Elastic Compliance Matrix: (Units=1/GPa)
#
#
# Indices 1 2 3 4 5 6 
#
# 1 0.014313 -0.002075 -0.001458 -0.001438 0.002966 0.000057
# 2 -0.002075 0.011619 -0.002664 -0.000036 -0.000039 -0.005222
# 3 -0.001458 -0.002664 0.007578 -0.004235 0.002496 0.000287
# 4 -0.001438 -0.000036 -0.004235 0.019973 -0.004218 0.001913
# 5 0.002966 -0.000039 0.002496 -0.004218 0.026832 -0.006072
# 6 0.000057 -0.005222 0.000287 0.001913 -0.006072 0.021311
#
#
# Mechanical properties :
#
#
# Convention : Reuss Voigt Hill
#
# Bulk Modulus (GPa) = 47.35696 64.08178 55.71937
# Shear Modulus (GPa) = 41.30305 50.06578 45.68442
#
# Velocity S-wave (km/s) = 3.91454 4.30983 4.11693
# Velocity P-wave (km/s) = 6.16450 6.96712 6.57806
#
# Compressibility (1/GPa) = 0.02111622
#
# Stress axis : x y z
#
# Youngs Moduli (GPa) = 69.86588 86.06948 131.96576
#
# Poissons Ratio (x) = 0.17855 0.19240
# Poissons Ratio (y) = 0.14494 0.35158
# Poissons Ratio (z) = 0.10186 0.22930
#
# Static dielectric constant tensor:
#      x y z
#    x 2.111200 -0.070570 0.032760 
#    y -0.070570 2.290440 -0.175190 
#    z 0.032760 -0.175190 2.360880 
# 
# From -- ./inp_files/105934.got.cif
#   From: 2010.05.17/outbox.cif.g08.bks.cpg/sg2_53_cif.got.tgz:105934.got - 2010.06.03 11:33:40.
