data_PCOD9041093
_publ_section_title
;
Structure prediction by ZEFSAII (Michael W. Deem and Ramdas Pophale) SiO2 
 PCOD9041093
Probable space group: P -1
;
_chemical_formula_sum "Si O2"
_cell_formula_units_Z 16
_cell_length_a 10.657459
_cell_length_b 20.185543
_cell_length_c 9.186923
_cell_angle_alpha 28.281882
_cell_angle_beta 130.432402
_cell_angle_gamma 129.534805
_cell_volume 700.949275
_symmetry_space_group_name_H-M "P -1"
_symmetry_group_IT_number 2
_symmetry_cell_setting 'triclinic'
loop_
_space_group_symop_operation_xyz
x,y,z
-x,-y,-z
loop_
_atom_site_type_symbol
_atom_site_label
_atom_site_fract_x
_atom_site_fract_y
_atom_site_fract_z
Si Si1 0.890335 0.861302 0.759204
Si Si2 0.845686 0.306631 0.807088
Si Si3 0.965106 0.855525 0.164123
Si Si4 0.330683 0.640080 0.164472
Si Si5 0.306021 0.376120 0.437720
Si Si6 0.663167 0.190661 0.438338
Si Si7 0.658561 0.449206 0.143377
Si Si8 0.595728 0.001518 0.219405
O O1 0.706386 0.877486 0.542348
O O2 0.900999 0.871789 0.921231
O O3 0.000000 0.000000 0.500000
O O4 0.974375 0.729865 0.026551
O O5 0.824729 0.376596 0.810899
O O6 0.776192 0.396966 0.454332
O O7 0.718198 0.153777 0.025369
O O8 0.828530 0.750402 0.356072
O O9 0.143960 0.806637 0.381170
O O10 0.000000 0.000000 0.000000
O O11 0.309432 0.504086 0.307244
O O12 0.503695 0.652409 0.360418
O O13 0.343812 0.771152 0.809864
O O14 0.261935 0.425596 0.149201
O O15 0.608926 0.314983 0.255788
O O16 0.544171 0.043251 0.675832
O O17 0.500000 0.500000 0.000000
O O18 0.500000 0.000000 0.000000
#
# Coordination Sequence:
#
# PCOD9041093 Si02
#       8
#     2   2   2   2   2   2   2   2
#     4  10  23  46  68 101 147 176 235 297 352 423
#     4  11  22  43  70 105 140 181 238 291 354 424
#     4  12  27  46  71 104 144 187 238 293 361 419
#     4  10  23  43  70  98 140 183 238 278 357 420
#     4  10  24  46  68  99 143 187 232 295 345 418
#     4  11  24  43  66 101 140 181 238 291 350 425
#     4  11  21  42  70  96 138 184 239 282 346 419
#     4  11  22  42  75 101 139 183 230 302 359 412
#
# _framework density 22.826187999999998
#
# number of rings (size 3 to 8) (size 9 to 14) (size 15 to 20)
#    0.000    1.250    3.750    1.500    5.250    2.500 
#    4.500    1.875    0.000    0.000    0.000    0.000 
#    0.000    0.000    0.000    0.000    0.000    0.000 
#
# Total GULP energy -89531.520506 kJ/mol
# GULP energy per Si atom -5595.720032 kJ/mol
# Density = 2.277423 g / cm^3
# Si number density = 22.826188 Si / 1000 Ang^3
#
#
#
# Elastic Constant Matrix: (Units=GPa)
#
#
# Indices 1 2 3 4 5 6 
#
# 1 137.5253 43.0975 77.3817 12.2708 -0.6591 -11.5027
# 2 43.0975 47.4158 43.8786 6.5288 -3.2576 2.3272
# 3 77.3817 43.8786 166.3674 33.0141 -17.1064 0.2896
# 4 12.2708 6.5288 33.0141 39.7515 7.6054 -9.5276
# 5 -0.6591 -3.2576 -17.1064 7.6054 60.1013 -2.6831
# 6 -11.5027 2.3272 0.2896 -9.5276 -2.6831 36.2442
#
#
#
# Elastic Compliance Matrix: (Units=1/GPa)
#
#
# Indices 1 2 3 4 5 6 
#
# 1 0.012403 -0.007951 -0.004373 0.002635 -0.001648 0.005053
# 2 -0.007951 0.033224 -0.005071 0.000100 0.000053 -0.004586
# 3 -0.004373 -0.005071 0.011573 -0.008957 0.003961 -0.003216
# 4 0.002635 0.000100 -0.008957 0.035346 -0.006555 0.009708
# 5 -0.001648 0.000053 0.003961 -0.006555 0.018540 -0.000908
# 6 0.005053 -0.004586 -0.003216 0.009708 -0.000908 0.031999
#
#
# Mechanical properties :
#
#
# Convention : Reuss Voigt Hill
#
# Bulk Modulus (GPa) = 44.62250 75.55824 60.09037
# Shear Modulus (GPa) = 26.97670 39.68279 33.32975
#
# Velocity S-wave (km/s) = 3.44151 4.17403 3.82534
# Velocity P-wave (km/s) = 5.94838 7.51022 6.77446
#
# Compressibility (1/GPa) = 0.02241022
#
# Stress axis : x y z
#
# Youngs Moduli (GPa) = 80.62408 30.09842 86.40999
#
# Poissons Ratio (x) = 0.23930 0.37790
# Poissons Ratio (y) = 0.64101 0.43819
# Poissons Ratio (z) = 0.35259 0.15263
#
# Static dielectric constant tensor:
#      x y z
#    x 3.380160 0.665320 -1.319060 
#    y 0.665320 2.137350 -0.633210 
#    z -1.319060 -0.633210 3.087720 
# 
# From -- ./inp_files/222882.got.cif
#   From: 2010.05.17/outbox.cif.g08.bks.cpg/sg2_112_cif.got.tgz:222882.got - 2010.06.03 11:33:40.
