data_PCOD9041391
_publ_section_title
;
Structure prediction by ZEFSAII (Michael W. Deem and Ramdas Pophale) SiO2 
 PCOD9041391
Probable space group: P -1
;
_chemical_formula_sum "Si O2"
_cell_formula_units_Z 14
_cell_length_a 7.334150
_cell_length_b 10.002091
_cell_length_c 23.084853
_cell_angle_alpha 146.834245
_cell_angle_beta 141.485113
_cell_angle_gamma 46.011439
_cell_volume 572.996435
_symmetry_space_group_name_H-M "P -1"
_symmetry_group_IT_number 2
_symmetry_cell_setting 'triclinic'
loop_
_space_group_symop_operation_xyz
x,y,z
-x,-y,-z
loop_
_atom_site_type_symbol
_atom_site_label
_atom_site_fract_x
_atom_site_fract_y
_atom_site_fract_z
Si Si1 0.861274 0.553793 0.238226
Si Si2 0.731002 0.784091 0.407565
Si Si3 0.577535 0.617060 0.748482
Si Si4 0.325108 0.153357 0.365118
Si Si5 0.247780 0.704503 0.579426
Si Si6 0.769539 0.989826 0.018239
Si Si7 0.177513 0.724805 0.108096
O O1 0.917326 0.681572 0.359899
O O2 0.530347 0.658372 0.174538
O O3 0.136661 0.558355 0.266677
O O4 0.848270 0.263888 0.135510
O O5 0.567254 0.553600 0.303387
O O6 0.939155 0.849509 0.535284
O O7 0.517435 0.010770 0.411677
O O8 0.373014 0.704182 0.674584
O O9 0.669082 0.861516 0.889469
O O10 0.201868 0.420559 0.452957
O O11 0.517165 0.209353 0.376508
O O12 0.110407 0.959733 0.219485
O O13 0.052075 0.815905 0.048570
O O14 0.500000 0.000000 0.000000
O O15 0.000000 0.500000 0.000000
#
# Coordination Sequence:
#
# PCOD9041391 Si02
#       7
#     2   2   2   2   2   2   2
#     4  11  24  44  70 101 146 181 239 297 352 423
#     4  11  23  46  72 100 144 189 234 296 356 422
#     4  12  26  43  70 111 141 189 244 292 358 429
#     4  10  23  43  74 103 142 189 241 288 360 422
#     4  11  23  44  70 105 145 190 238 293 354 422
#     4  12  22  44  70  98 143 188 235 296 357 422
#     4  11  22  42  73 104 131 189 234 284 360 415
#
# _framework density 24.432960000000001
#
# number of rings (size 3 to 8) (size 9 to 14) (size 15 to 20)
#    0.000    0.857    2.857    5.571    0.000    2.286 
#    0.000    7.143    0.000    0.000    0.000    0.000 
#    0.000    0.000    0.000    0.000    0.000    0.000 
#
# Total GULP energy -78450.522820 kJ/mol
# GULP energy per Si atom -5603.608773 kJ/mol
# Density = 2.437735 g / cm^3
# Si number density = 24.432960 Si / 1000 Ang^3
#
#
#
# Elastic Constant Matrix: (Units=GPa)
#
#
# Indices 1 2 3 4 5 6 
#
# 1 65.4585 18.6697 17.8033 -8.5547 -14.9430 -3.9450
# 2 18.6697 121.8349 51.1527 -4.6723 -6.6331 29.3374
# 3 17.8033 51.1527 140.5326 -1.9529 -8.7453 10.6463
# 4 -8.5547 -4.6723 -1.9529 46.6350 3.6770 -3.3268
# 5 -14.9430 -6.6331 -8.7453 3.6770 20.9092 -2.5468
# 6 -3.9450 29.3374 10.6463 -3.3268 -2.5468 24.6723
#
#
#
# Elastic Compliance Matrix: (Units=1/GPa)
#
#
# Indices 1 2 3 4 5 6 
#
# 1 0.021143 -0.004670 -0.000908 0.003061 0.014074 0.011191
# 2 -0.004670 0.014199 -0.003476 -0.000580 -0.002186 -0.016434
# 3 -0.000908 -0.003476 0.008579 -0.000277 0.001940 0.000449
# 4 0.003061 -0.000580 -0.000277 0.022352 -0.001537 0.004153
# 5 0.014074 -0.002186 0.001940 -0.001537 0.059483 0.009946
# 6 0.011191 -0.016434 0.000449 0.004153 0.009946 0.063255
#
#
# Mechanical properties :
#
#
# Convention : Reuss Voigt Hill
#
# Bulk Modulus (GPa) = 38.73977 55.89750 47.31863
# Shear Modulus (GPa) = 23.17789 34.45666 28.81727
#
# Velocity S-wave (km/s) = 3.08333 3.75941 3.43803
# Velocity P-wave (km/s) = 5.34470 6.46311 5.93033
#
# Compressibility (1/GPa) = 0.02581327
#
# Stress axis : x y z
#
# Youngs Moduli (GPa) = 47.29705 70.42897 116.56563
#
# Poissons Ratio (x) = 0.32888 0.10587
# Poissons Ratio (y) = 0.22086 0.40515
# Poissons Ratio (z) = 0.04296 0.24479
#
# Static dielectric constant tensor:
#      x y z
#    x 1.987060 -0.042530 0.024130 
#    y -0.042530 1.930660 -0.020980 
#    z 0.024130 -0.020980 1.933910 
# 
# From -- ./inp_files/617007.got.cif
#   From: 2010.05.17/outbox.cif.g08.bks.cpg/sg2_309_cif.got.tgz:617007.got - 2010.06.03 11:33:40.
