data_PCOD9041127
_publ_section_title
;
Structure prediction by ZEFSAII (Michael W. Deem and Ramdas Pophale) SiO2 
 PCOD9041127
Probable space group: P -1
;
_chemical_formula_sum "Si O2"
_cell_formula_units_Z 10
_cell_length_a 12.669173
_cell_length_b 7.975880
_cell_length_c 5.603452
_cell_angle_alpha 61.227922
_cell_angle_beta 122.472159
_cell_angle_gamma 93.497965
_cell_volume 403.520341
_symmetry_space_group_name_H-M "P -1"
_symmetry_group_IT_number 2
_symmetry_cell_setting 'triclinic'
loop_
_space_group_symop_operation_xyz
x,y,z
-x,-y,-z
loop_
_atom_site_type_symbol
_atom_site_label
_atom_site_fract_x
_atom_site_fract_y
_atom_site_fract_z
Si Si1 0.698766 0.275065 0.383665
Si Si2 0.647935 0.915475 0.320088
Si Si3 0.467703 0.361197 0.347617
Si Si4 0.987934 0.277395 0.688544
Si Si5 0.080003 0.270155 0.305167
O O1 0.608675 0.234981 0.515529
O O2 0.844232 0.280436 0.595070
O O3 0.693243 0.110469 0.296196
O O4 0.617401 0.489767 0.048757
O O5 0.623041 0.777271 0.597243
O O6 0.767000 0.770521 0.421321
O O7 0.500000 0.000000 0.000000
O O8 0.500000 0.500000 0.500000
O O9 0.000000 0.500000 0.500000
O O10 0.020653 0.190102 0.520780
O O11 0.074179 0.185323 0.086161
O O12 0.000000 0.500000 0.000000
#
# Coordination Sequence:
#
# PCOD9041127 Si02
#       5
#     2   2   2   2   2
#     4  11  26  43  73 108 144 197 244 307 375 437
#     4  12  26  46  74 112 147 189 250 311 368 444
#     4  11  24  44  71 103 149 192 243 300 375 443
#     4  10  23  43  71 101 143 192 246 297 363 442
#     4  10  24  44  73 103 148 195 243 301 371 436
#
# _framework density 24.781896
#
# number of rings (size 3 to 8) (size 9 to 14) (size 15 to 20)
#    0.000    1.200    2.000    3.000    8.400    4.800 
#    0.000    0.000    0.000    0.000    0.000    0.000 
#    0.000    0.000    0.000    0.000    0.000    0.000 
#
# Total GULP energy -55806.533465 kJ/mol
# GULP energy per Si atom -5580.653346 kJ/mol
# Density = 2.472549 g / cm^3
# Si number density = 24.781896 Si / 1000 Ang^3
#
#
#
# Elastic Constant Matrix: (Units=GPa)
#
#
# Indices 1 2 3 4 5 6 
#
# 1 131.0738 0.1217 23.8524 -6.1695 21.4548 -6.4305
# 2 0.1217 62.2038 7.6138 -6.9428 11.8038 6.5810
# 3 23.8524 7.6138 94.7218 3.5550 20.2802 -18.0148
# 4 -6.1695 -6.9428 3.5550 37.2506 -6.4442 -0.2505
# 5 21.4548 11.8038 20.2802 -6.4442 59.8539 7.9945
# 6 -6.4305 6.5810 -18.0148 -0.2505 7.9945 37.9089
#
#
#
# Elastic Compliance Matrix: (Units=1/GPa)
#
#
# Indices 1 2 3 4 5 6 
#
# 1 0.008447 0.000676 -0.001411 0.001198 -0.002718 0.001226
# 2 0.000676 0.017426 -0.001820 0.003115 -0.002290 -0.003272
# 3 -0.001411 -0.001820 0.013705 -0.002710 -0.005092 0.007645
# 4 0.001198 0.003115 -0.002710 0.028425 0.003218 -0.002116
# 5 -0.002718 -0.002290 -0.005092 0.003218 0.021129 -0.006918
# 6 0.001226 -0.003272 0.007645 -0.002116 -0.006918 0.032233
#
#
# Mechanical properties :
#
#
# Convention : Reuss Voigt Hill
#
# Bulk Modulus (GPa) = 29.01318 39.01948 34.01633
# Shear Modulus (GPa) = 36.24130 44.09677 40.16903
#
# Velocity S-wave (km/s) = 3.82830 4.22286 4.03041
# Velocity P-wave (km/s) = 5.59231 6.28936 5.95105
#
# Compressibility (1/GPa) = 0.03446710
#
# Stress axis : x y z
#
# Youngs Moduli (GPa) = 118.38736 57.38546 72.96728
#
# Poissons Ratio (x) = -0.03879 0.10298
# Poissons Ratio (y) = -0.08002 0.13279
# Poissons Ratio (z) = 0.16708 0.10443
#
# Static dielectric constant tensor:
#      x y z
#    x 2.295670 -0.116630 -0.103790 
#    y -0.116630 2.118990 0.062730 
#    z -0.103790 0.062730 2.040230 
# 
# From -- ./inp_files/17016.got.cif
#   From: 2010.05.17/outbox.cif.g08.bks.cpg/sg2_9_cif.got.tgz:17016.got - 2010.06.03 11:33:40.
