data_PCOD9041365
_publ_section_title
;
Structure prediction by ZEFSAII (Michael W. Deem and Ramdas Pophale) SiO2 
 PCOD9041365
Probable space group: P -1
;
_chemical_formula_sum "Si O2"
_cell_formula_units_Z 12
_cell_length_a 13.105448
_cell_length_b 7.706481
_cell_length_c 9.776936
_cell_angle_alpha 117.893851
_cell_angle_beta 147.239164
_cell_angle_gamma 56.900689
_cell_volume 447.546884
_symmetry_space_group_name_H-M "P -1"
_symmetry_group_IT_number 2
_symmetry_cell_setting 'triclinic'
loop_
_space_group_symop_operation_xyz
x,y,z
-x,-y,-z
loop_
_atom_site_type_symbol
_atom_site_label
_atom_site_fract_x
_atom_site_fract_y
_atom_site_fract_z
Si Si1 0.493426 0.737883 0.829276
Si Si2 0.844485 0.146326 0.979634
Si Si3 0.166940 0.834414 0.715705
Si Si4 0.676861 0.631215 0.555171
Si Si5 0.548193 0.049438 0.405422
Si Si6 0.048051 0.436883 0.740227
O O1 0.378277 0.788000 0.861423
O O2 0.449818 0.528839 0.654471
O O3 0.393917 0.908649 0.665148
O O4 0.725947 0.716712 0.081053
O O5 0.654879 0.145999 0.678138
O O6 0.825988 0.090058 0.095271
O O7 0.906113 0.349517 0.137318
O O8 0.000000 0.000000 0.000000
O O9 0.093131 0.632963 0.551014
O O10 0.000000 0.000000 0.500000
O O11 0.662703 0.771301 0.727744
O O12 0.901932 0.478246 0.723545
O O13 0.619917 0.806024 0.432913
#
# Coordination Sequence:
#
# PCOD9041365 Si02
#       6
#     2   2   2   2   2   2
#     4  11  25  50  77 111 156 197 257 314 383 452
#     4  12  24  48  78 111 152 198 252 317 381 450
#     4  11  28  51  74 112 153 201 257 312 383 461
#     4  10  23  43  73 115 151 200 251 310 378 451
#     4  11  23  45  76 115 158 197 255 318 377 451
#     4  11  25  48  77 111 152 202 247 318 378 455
#
# _framework density 26.812832
#
# number of rings (size 3 to 8) (size 9 to 14) (size 15 to 20)
#    0.000    1.000    3.333    2.000    0.000    4.667 
#    6.000    0.000    0.000    0.000    0.000    0.000 
#    0.000    0.000    0.000    0.000    0.000    0.000 
#
# Total GULP energy -66996.560024 kJ/mol
# GULP energy per Si atom -5583.046669 kJ/mol
# Density = 2.675181 g / cm^3
# Si number density = 26.812832 Si / 1000 Ang^3
#
#
#
# Elastic Constant Matrix: (Units=GPa)
#
#
# Indices 1 2 3 4 5 6 
#
# 1 154.8830 25.4972 77.1656 -7.2605 -3.5259 -15.9039
# 2 25.4972 109.6792 39.1915 29.9763 3.4788 2.1183
# 3 77.1656 39.1915 143.3659 28.0101 3.7683 -5.4632
# 4 -7.2605 29.9763 28.0101 38.0219 -3.6672 15.1591
# 5 -3.5259 3.4788 3.7683 -3.6672 51.8063 3.1472
# 6 -15.9039 2.1183 -5.4632 15.1591 3.1472 42.0817
#
#
#
# Elastic Compliance Matrix: (Units=1/GPa)
#
#
# Indices 1 2 3 4 5 6 
#
# 1 0.010939 -0.002754 -0.007135 0.009874 0.002170 -0.000373
# 2 -0.002754 0.013024 0.000572 -0.012663 -0.002188 0.003103
# 3 -0.007135 0.000572 0.013579 -0.013754 -0.002740 0.004197
# 4 0.009874 -0.012663 -0.013754 0.056324 0.007620 -0.018276
# 5 0.002170 -0.002188 -0.002740 0.007620 0.020561 -0.003708
# 6 -0.000373 0.003103 0.004197 -0.018276 -0.003708 0.030872
#
#
# Mechanical properties :
#
#
# Convention : Reuss Voigt Hill
#
# Bulk Modulus (GPa) = 52.89178 76.84854 64.87016
# Shear Modulus (GPa) = 29.37121 44.12022 36.74572
#
# Velocity S-wave (km/s) = 3.31330 4.06086 3.70598
# Velocity P-wave (km/s) = 5.86569 7.12115 6.52369
#
# Compressibility (1/GPa) = 0.01890653
#
# Stress axis : x y z
#
# Youngs Moduli (GPa) = 91.41796 76.78248 73.64528
#
# Poissons Ratio (x) = 0.21143 0.52549
# Poissons Ratio (y) = 0.25173 -0.04210
# Poissons Ratio (z) = 0.65230 -0.04390
#
# Static dielectric constant tensor:
#      x y z
#    x 19.428760 -16.079570 9.984870 
#    y -16.079570 17.203050 -9.429510 
#    z 9.984870 -9.429510 8.092360 
# 
# From -- ./inp_files/245724.got.cif
#   From: 2010.05.17/outbox.cif.g08.bks.cpg/sg2_123_cif.got.tgz:245724.got - 2010.06.03 11:33:40.
