data_PCOD9041641
_publ_section_title
;
Structure prediction by ZEFSAII (Michael W. Deem and Ramdas Pophale) SiO2 
 PCOD9041641
Probable space group: P -1
;
_chemical_formula_sum "Si O2"
_cell_formula_units_Z 14
_cell_length_a 11.357616
_cell_length_b 21.284425
_cell_length_c 9.238228
_cell_angle_alpha 28.362650
_cell_angle_beta 119.170526
_cell_angle_gamma 137.594647
_cell_volume 616.779321
_symmetry_space_group_name_H-M "P -1"
_symmetry_group_IT_number 2
_symmetry_cell_setting 'triclinic'
loop_
_space_group_symop_operation_xyz
x,y,z
-x,-y,-z
loop_
_atom_site_type_symbol
_atom_site_label
_atom_site_fract_x
_atom_site_fract_y
_atom_site_fract_z
Si Si1 0.018893 0.367019 0.841748
Si Si2 0.403225 0.952132 0.380822
Si Si3 0.398348 0.647761 0.998494
Si Si4 0.320236 0.278230 0.412568
Si Si5 0.581334 0.343433 0.661248
Si Si6 0.037751 0.286327 0.323993
Si Si7 0.198449 0.053079 0.522318
O O1 0.221543 0.460559 0.698913
O O2 0.000000 0.500000 0.500000
O O3 0.040923 0.390679 0.979882
O O4 0.852202 0.134178 0.175205
O O5 0.378495 0.785188 0.651601
O O6 0.186837 0.865851 0.441073
O O7 0.500000 0.000000 0.500000
O O8 0.546807 0.163896 0.962570
O O9 0.617050 0.760898 0.844167
O O10 0.396386 0.635247 0.196176
O O11 0.207626 0.437547 0.238474
O O12 0.396336 0.287036 0.596110
O O13 0.112354 0.206536 0.454309
O O14 0.279753 0.129032 0.580577
O O15 0.500000 0.500000 0.000000
O O16 0.000000 0.000000 0.500000
#
# Coordination Sequence:
#
# PCOD9041641 Si02
#       7
#     2   2   2   2   2   2   2
#     4  12  24  43  71 104 137 186 240 283 342 418
#     4  10  23  44  66 101 137 179 228 290 350 407
#     4  11  24  44  71 101 138 181 232 289 351 411
#     4  12  24  47  67 102 140 184 234 287 345 421
#     4  11  24  43  67 101 140 176 234 290 343 407
#     4  12  24  45  71  95 146 184 228 289 348 415
#     4  12  24  45  73  98 140 188 226 280 357 412
#
# _framework density 22.698554000000001
#
# number of rings (size 3 to 8) (size 9 to 14) (size 15 to 20)
#    0.000    0.571    4.286    4.714    0.000    3.429 
#    0.000    2.857    0.000    0.000    0.000    0.000 
#    0.000    0.000    0.000    0.000    0.000    0.000 
#
# Total GULP energy -78263.582115 kJ/mol
# GULP energy per Si atom -5590.255865 kJ/mol
# Density = 2.264689 g / cm^3
# Si number density = 22.698554 Si / 1000 Ang^3
#
#
#
# Elastic Constant Matrix: (Units=GPa)
#
#
# Indices 1 2 3 4 5 6 
#
# 1 76.9194 23.6250 7.5727 -15.1573 -12.3986 12.4040
# 2 23.6250 130.4000 42.8784 -4.9040 1.1878 -7.4283
# 3 7.5727 42.8784 66.3086 -2.3296 -7.6237 3.1510
# 4 -15.1573 -4.9040 -2.3296 32.6006 9.1823 -2.6425
# 5 -12.3986 1.1878 -7.6237 9.1823 45.3641 -5.1975
# 6 12.4040 -7.4283 3.1510 -2.6425 -5.1975 38.6469
#
#
#
# Elastic Compliance Matrix: (Units=1/GPa)
#
#
# Indices 1 2 3 4 5 6 
#
# 1 0.016445 -0.003463 0.001161 0.005945 0.002978 -0.005231
# 2 -0.003463 0.010832 -0.007002 0.000391 -0.002084 0.003511
# 3 0.001161 -0.007002 0.020016 -0.000331 0.003600 -0.002889
# 4 0.005945 0.000391 -0.000331 0.035023 -0.005548 -0.000158
# 5 0.002978 -0.002084 0.003600 -0.005548 0.024790 0.001305
# 6 -0.005231 0.003511 -0.002889 -0.000158 0.001305 0.028629
#
#
# Mechanical properties :
#
#
# Convention : Reuss Voigt Hill
#
# Bulk Modulus (GPa) = 34.86065 46.86445 40.86255
# Shear Modulus (GPa) = 30.50560 36.62578 33.56569
#
# Velocity S-wave (km/s) = 3.66996 4.02129 3.84964
# Velocity P-wave (km/s) = 5.77491 6.50018 6.14825
#
# Compressibility (1/GPa) = 0.02868563
#
# Stress axis : x y z
#
# Youngs Moduli (GPa) = 60.80890 92.31882 49.96087
#
# Poissons Ratio (x) = 0.31967 -0.05800
# Poissons Ratio (y) = 0.21056 0.34981
# Poissons Ratio (z) = -0.07059 0.64639
#
# Static dielectric constant tensor:
#      x y z
#    x 1.900260 0.026090 0.046650 
#    y 0.026090 1.836000 -0.033390 
#    z 0.046650 -0.033390 1.865960 
# 
# From -- ./inp_files/164454.got.cif
#   From: 2010.05.17/outbox.cif.g08.bks.cpg/sg2_83_cif.got.tgz:164454.got - 2010.06.03 11:33:40.
