data_PCOD9041555
_publ_section_title
;
Structure prediction by ZEFSAII (Michael W. Deem and Ramdas Pophale) SiO2 
 PCOD9041555
Probable space group: P -1
;
_chemical_formula_sum "Si O2"
_cell_formula_units_Z 15
_cell_length_a 8.590623
_cell_length_b 14.041998
_cell_length_c 6.289893
_cell_angle_alpha 75.149608
_cell_angle_beta 102.869679
_cell_angle_gamma 75.040264
_cell_volume 673.788080
_symmetry_space_group_name_H-M "P -1"
_symmetry_group_IT_number 2
_symmetry_cell_setting 'triclinic'
loop_
_space_group_symop_operation_xyz
x,y,z
-x,-y,-z
loop_
_atom_site_type_symbol
_atom_site_label
_atom_site_fract_x
_atom_site_fract_y
_atom_site_fract_z
Si Si1 0.323731 0.324723 0.983833
Si Si2 0.598199 0.027680 0.817780
Si Si3 0.500000 0.500000 0.000000
Si Si4 0.087864 0.747078 0.719654
Si Si5 0.653315 0.215139 0.911984
Si Si6 0.702795 0.391192 0.519088
Si Si7 0.283091 0.152369 0.361183
Si Si8 0.960819 0.421342 0.868429
O O1 0.397266 0.416259 0.006584
O O2 0.304329 0.258927 0.221203
O O3 0.461225 0.246332 0.918928
O O4 0.132509 0.371650 0.814856
O O5 0.698441 0.104689 0.872863
O O6 0.447622 0.093353 0.579683
O O7 0.711993 0.923141 0.794287
O O8 0.500000 0.000000 0.000000
O O9 0.556212 0.464922 0.286160
O O10 0.896706 0.823789 0.590421
O O11 0.167910 0.683261 0.571674
O O12 0.074607 0.664294 0.940837
O O13 0.223680 0.792263 0.844081
O O14 0.658177 0.309666 0.707520
O O15 0.801889 0.454568 0.644860
O O16 0.000000 0.500000 0.000000
#
# Coordination Sequence:
#
# PCOD9041555 Si02
#       8
#     2   2   1   2   2   2   2   2
#     4  11  23  43  68  98 135 174 228 278 333 404
#     4  11  23  42  71 101 130 173 223 278 348 405
#     4  12  24  42  66  98 138 180 230 268 340 394
#     4  10  23  44  64  96 137 176 223 277 340 404
#     4  11  24  43  69  99 136 173 226 284 336 406
#     4  11  25  45  67  98 141 182 225 282 338 402
#     4  10  24  44  69  99 133 173 226 281 337 411
#     4  10  24  45  66  98 133 180 235 279 336 404
#
# _framework density 22.262191999999999
#
# number of rings (size 3 to 8) (size 9 to 14) (size 15 to 20)
#    0.000    1.333    2.667    1.600    3.733    4.267 
#    2.400    1.333    0.000    0.000    0.000    0.000 
#    0.000    0.000    0.000    0.000    0.000    0.000 
#
# Total GULP energy -83599.018380 kJ/mol
# GULP energy per Si atom -5573.267892 kJ/mol
# Density = 2.221152 g / cm^3
# Si number density = 22.262192 Si / 1000 Ang^3
#
#
#
# Elastic Constant Matrix: (Units=GPa)
#
#
# Indices 1 2 3 4 5 6 
#
# 1 79.4211 30.1304 9.7295 7.5417 -6.5870 -4.5346
# 2 30.1304 76.2698 3.5864 16.1658 7.9667 21.2538
# 3 9.7295 3.5864 58.3172 5.0981 10.3963 15.9710
# 4 7.5417 16.1658 5.0981 35.8192 6.3477 -3.6633
# 5 -6.5870 7.9667 10.3963 6.3477 26.2768 7.9747
# 6 -4.5346 21.2538 15.9710 -3.6633 7.9747 33.1400
#
#
#
# Elastic Compliance Matrix: (Units=1/GPa)
#
#
# Indices 1 2 3 4 5 6 
#
# 1 0.019010 -0.011819 -0.007248 0.002394 0.006913 0.012275
# 2 -0.011819 0.027022 0.008609 -0.012543 -0.004424 -0.023418
# 3 -0.007248 0.008609 0.024396 -0.006290 -0.007340 -0.017199
# 4 0.002394 -0.012543 -0.006290 0.037026 -0.007288 0.017250
# 5 0.006913 -0.004424 -0.007340 -0.007288 0.047270 -0.004860
# 6 0.012275 -0.023418 -0.017199 0.017250 -0.004860 0.058238
#
#
# Mechanical properties :
#
#
# Convention : Reuss Voigt Hill
#
# Bulk Modulus (GPa) = 20.19748 33.43341 26.81545
# Shear Modulus (GPa) = 19.96939 30.41800 25.19369
#
# Velocity S-wave (km/s) = 2.99826 3.70043 3.36770
# Velocity P-wave (km/s) = 4.59111 5.77133 5.21472
#
# Compressibility (1/GPa) = 0.04951112
#
# Stress axis : x y z
#
# Youngs Moduli (GPa) = 52.60438 37.00639 40.99047
#
# Poissons Ratio (x) = 0.43738 0.29710
# Poissons Ratio (y) = 0.62174 -0.35288
# Poissons Ratio (z) = 0.38128 -0.31858
#
# Static dielectric constant tensor:
#      x y z
#    x 1.834340 -0.050430 0.015000 
#    y -0.050430 1.847290 0.007810 
#    z 0.015000 0.007810 1.827360 
# 
# From -- ./inp_files/38190.got.cif
#   From: 2010.05.17/outbox.cif.g08.bks.cpg/sg2_20_cif.got.tgz:38190.got - 2010.06.03 11:33:40.
