data_PCOD9041768
_publ_section_title
;
Structure prediction by ZEFSAII (Michael W. Deem and Ramdas Pophale) SiO2 
 PCOD9041768
Probable space group: P -1
;
_chemical_formula_sum "Si O2"
_cell_formula_units_Z 14
_cell_length_a 9.995008
_cell_length_b 13.670993
_cell_length_c 5.202387
_cell_angle_alpha 102.609905
_cell_angle_beta 120.137357
_cell_angle_gamma 74.385710
_cell_volume 589.124159
_symmetry_space_group_name_H-M "P -1"
_symmetry_group_IT_number 2
_symmetry_cell_setting 'triclinic'
loop_
_space_group_symop_operation_xyz
x,y,z
-x,-y,-z
loop_
_atom_site_type_symbol
_atom_site_label
_atom_site_fract_x
_atom_site_fract_y
_atom_site_fract_z
Si Si1 0.705089 0.893485 0.626461
Si Si2 0.793213 0.237789 0.933441
Si Si3 0.847319 0.034993 0.546301
Si Si4 0.597069 0.099931 0.956431
Si Si5 0.401324 0.541560 0.182162
Si Si6 0.111981 0.304164 0.172245
Si Si7 0.131054 0.421901 0.736071
O O1 0.581189 0.861945 0.285307
O O2 0.772160 0.802510 0.830044
O O3 0.848752 0.932302 0.649369
O O4 0.639218 0.995525 0.777389
O O5 0.850961 0.142713 0.743860
O O6 0.708007 0.180974 0.036590
O O7 0.660690 0.336414 0.788968
O O8 0.950646 0.284924 0.139601
O O9 0.666953 0.060918 0.276275
O O10 0.000000 0.000000 0.500000
O O11 0.500000 0.500000 0.500000
O O12 0.500000 0.500000 0.000000
O O13 0.251886 0.487207 0.998819
O O14 0.197585 0.351016 0.517684
O O15 0.079756 0.365133 0.907498
O O16 0.000000 0.500000 0.500000
#
# Coordination Sequence:
#
# PCOD9041768 Si02
#       7
#     2   2   2   2   2   2   2
#     4  10  24  43  66 106 143 196 245 308 375 461
#     4  11  27  44  72 105 147 193 253 306 384 441
#     4  11  23  42  74 107 149 195 247 309 377 462
#     4  10  23  44  67 101 152 188 249 303 380 451
#     4  12  30  51  78 111 153 198 257 322 381 450
#     4  12  27  46  79 108 145 199 250 311 380 455
#     4  12  28  51  76 109 150 195 255 315 383 447
#
# _framework density 23.764087
#
# number of rings (size 3 to 8) (size 9 to 14) (size 15 to 20)
#    0.000    0.857    1.429    3.429   14.000    2.286 
#    0.000    0.000    0.000    0.000    0.000    0.000 
#    0.000    0.000    0.000    0.000    0.000    0.000 
#
# Total GULP energy -78092.020995 kJ/mol
# GULP energy per Si atom -5578.001500 kJ/mol
# Density = 2.371000 g / cm^3
# Si number density = 23.764087 Si / 1000 Ang^3
#
#
#
# Elastic Constant Matrix: (Units=GPa)
#
#
# Indices 1 2 3 4 5 6 
#
# 1 65.4246 80.3742 12.7184 5.2687 1.1465 -21.9853
# 2 80.3742 43.4373 91.5916 -84.1673 -17.3723 79.4997
# 3 12.7184 91.5916 134.9153 1.9659 10.4196 -15.0780
# 4 5.2687 -84.1673 1.9659 12.2429 -10.1414 47.4913
# 5 1.1465 -17.3723 10.4196 -10.1414 32.9896 11.3690
# 6 -21.9853 79.4997 -15.0780 47.4913 11.3690 -22.0199
#
#
#
# Elastic Compliance Matrix: (Units=1/GPa)
#
#
# Indices 1 2 3 4 5 6 
#
# 1 0.015193 -0.001769 -0.001187 0.006259 0.002832 -0.005780
# 2 -0.001769 0.004466 -0.001685 -0.004314 -0.001475 0.008978
# 3 -0.001187 -0.001685 0.008228 0.003166 -0.001014 -0.004228
# 4 0.006259 -0.004314 0.003166 0.015353 -0.001623 0.008281
# 5 0.002832 -0.001475 -0.001014 -0.001623 0.028045 0.003521
# 6 -0.005780 0.008978 -0.004228 0.008281 0.003521 0.015346
#
#
# Mechanical properties :
#
#
# Convention : Reuss Voigt Hill
#
# Bulk Modulus (GPa) = 53.75153 68.12731 60.93942
# Shear Modulus (GPa) = 48.96524 8.58205 28.77364
#
# Velocity S-wave (km/s) = 4.54417 1.90242 3.48344
# Velocity P-wave (km/s) = 7.08523 5.79275 6.47134
#
# Compressibility (1/GPa) = 0.01860412
#
# Stress axis : x y z
#
# Youngs Moduli (GPa) = 65.82190 223.90704 121.54151
#
# Poissons Ratio (x) = 0.39603 0.14430
# Poissons Ratio (y) = 0.11642 0.20481
# Poissons Ratio (z) = 0.07815 0.37730
#
# Static dielectric constant tensor:
#      x y z
#    x 2.046870 -0.050560 -0.082450 
#    y -0.050560 1.980880 0.036910 
#    z -0.082450 0.036910 2.034400 
# 
# From -- ./inp_files/70918.got.cif
#   From: 2010.05.17/outbox.cif.g08.bks.cpg/sg2_36_cif.got.tgz:70918.got - 2010.06.03 11:33:40.
