data_PCOD9041486
_publ_section_title
;
Structure prediction by ZEFSAII (Michael W. Deem and Ramdas Pophale) SiO2 
 PCOD9041486
Probable space group: P -1
;
_chemical_formula_sum "Si O2"
_cell_formula_units_Z 14
_cell_length_a 11.448390
_cell_length_b 9.812534
_cell_length_c 7.950753
_cell_angle_alpha 133.944444
_cell_angle_beta 103.315457
_cell_angle_gamma 94.749356
_cell_volume 587.086985
_symmetry_space_group_name_H-M "P -1"
_symmetry_group_IT_number 2
_symmetry_cell_setting 'triclinic'
loop_
_space_group_symop_operation_xyz
x,y,z
-x,-y,-z
loop_
_atom_site_type_symbol
_atom_site_label
_atom_site_fract_x
_atom_site_fract_y
_atom_site_fract_z
Si Si1 0.995511 0.749327 0.591057
Si Si2 0.631222 0.510775 0.143261
Si Si3 0.814363 0.941498 0.551530
Si Si4 0.546133 0.676875 0.802020
Si Si5 0.747749 0.483281 0.824698
Si Si6 0.990516 0.325620 0.107319
Si Si7 0.725682 0.081747 0.292744
O O1 0.935539 0.866224 0.542952
O O2 0.954871 0.750292 0.772707
O O3 0.959504 0.519504 0.324059
O O4 0.148105 0.843397 0.714585
O O5 0.703855 0.743727 0.418083
O O6 0.578555 0.366202 0.158413
O O7 0.500000 0.500000 0.000000
O O8 0.715671 0.446855 0.979922
O O9 0.766599 0.989130 0.396793
O O10 0.867822 0.149408 0.847941
O O11 0.500000 0.500000 0.500000
O O12 0.665800 0.621881 0.869262
O O13 0.612195 0.916751 0.014839
O O14 0.896325 0.596097 0.925432
O O15 0.700471 0.278274 0.524601
#
# Coordination Sequence:
#
# PCOD9041486 Si02
#       7
#     2   2   2   2   2   2   2
#     4  10  24  42  62  98 133 160 212 255 323 382
#     4  10  23  44  61  94 127 164 216 260 311 373
#     4  12  23  38  68  93 125 172 209 257 319 372
#     4  11  25  45  65  92 129 170 214 265 313 374
#     4  10  23  44  65  93 133 159 216 264 312 383
#     4  10  24  41  64  97 130 167 202 265 319 379
#     4  11  24  41  68  97 124 170 212 262 319 372
#
# _framework density 23.846551999999999
#
# number of rings (size 3 to 8) (size 9 to 14) (size 15 to 20)
#    0.000    1.429    2.857    1.714    8.000    2.286 
#    0.000    0.000    0.000    0.000    0.000    0.000 
#    0.000    0.000    0.000    0.000    0.000    0.000 
#
# Total GULP energy -78208.180287 kJ/mol
# GULP energy per Si atom -5586.298592 kJ/mol
# Density = 2.379228 g / cm^3
# Si number density = 23.846552 Si / 1000 Ang^3
#
#
#
# Elastic Constant Matrix: (Units=GPa)
#
#
# Indices 1 2 3 4 5 6 
#
# 1 72.9954 21.1352 42.9333 5.4448 -1.7877 14.4797
# 2 21.1352 36.2593 30.6760 18.5182 -8.6099 0.5001
# 3 42.9333 30.6760 189.3943 38.0832 22.1611 24.5800
# 4 5.4448 18.5182 38.0832 43.5079 8.9934 5.1880
# 5 -1.7877 -8.6099 22.1611 8.9934 31.2409 8.2216
# 6 14.4797 0.5001 24.5800 5.1880 8.2216 46.9171
#
#
#
# Elastic Compliance Matrix: (Units=1/GPa)
#
#
# Indices 1 2 3 4 5 6 
#
# 1 0.019394 -0.011833 -0.002979 0.005892 -0.000452 -0.004870
# 2 -0.011833 0.056558 -0.005094 -0.023633 0.024253 0.004081
# 3 -0.002979 -0.005094 0.008421 -0.003339 -0.006059 -0.002007
# 4 0.005892 -0.023633 -0.003339 0.038400 -0.014460 -0.001530
# 5 -0.000452 0.024253 -0.006059 -0.014460 0.048122 -0.003779
# 6 -0.004870 0.004081 -0.002007 -0.001530 -0.003779 0.024657
#
#
# Mechanical properties :
#
#
# Convention : Reuss Voigt Hill
#
# Bulk Modulus (GPa) = 22.44096 54.23755 38.33926
# Shear Modulus (GPa) = 19.98266 37.92682 28.95474
#
# Velocity S-wave (km/s) = 2.89791 3.99237 3.48833
# Velocity P-wave (km/s) = 4.54182 6.63670 5.68656
#
# Compressibility (1/GPa) = 0.04456138
#
# Stress axis : x y z
#
# Youngs Moduli (GPa) = 51.56360 17.68088 118.74896
#
# Poissons Ratio (x) = 0.20921 0.35380
# Poissons Ratio (y) = 0.61014 0.60487
# Poissons Ratio (z) = 0.15363 0.09006
#
# Static dielectric constant tensor:
#      x y z
#    x 1.886120 -0.009990 0.000290 
#    y -0.009990 1.976790 -0.034020 
#    z 0.000290 -0.034020 1.959220 
# 
# From -- ./inp_files/261113.got.cif
#   From: 2010.05.17/outbox.cif.g08.bks.cpg/sg2_131_cif.got.tgz:261113.got - 2010.06.03 11:33:40.
