data_PCOD9041741
_publ_section_title
;
Structure prediction by ZEFSAII (Michael W. Deem and Ramdas Pophale) SiO2 
 PCOD9041741
Probable space group: P -1
;
_chemical_formula_sum "Si O2"
_cell_formula_units_Z 14
_cell_length_a 11.591002
_cell_length_b 8.192838
_cell_length_c 9.125691
_cell_angle_alpha 103.026323
_cell_angle_beta 112.483542
_cell_angle_gamma 120.440750
_cell_volume 587.068456
_symmetry_space_group_name_H-M "P -1"
_symmetry_group_IT_number 2
_symmetry_cell_setting 'triclinic'
loop_
_space_group_symop_operation_xyz
x,y,z
-x,-y,-z
loop_
_atom_site_type_symbol
_atom_site_label
_atom_site_fract_x
_atom_site_fract_y
_atom_site_fract_z
Si Si1 0.973785 0.974022 0.230939
Si Si2 0.752334 0.771570 0.335962
Si Si3 0.995521 0.255277 0.041763
Si Si4 0.490438 0.199240 0.649233
Si Si5 0.658351 0.084301 0.923552
Si Si6 0.295558 0.654776 0.734801
Si Si7 0.245283 0.684591 0.394013
O O1 0.817240 0.894663 0.235990
O O2 0.028585 0.159546 0.175861
O O3 0.115871 0.069968 0.439934
O O4 0.941126 0.778754 0.080461
O O5 0.579944 0.698248 0.289319
O O6 0.749360 0.569339 0.281813
O O7 0.798311 0.103925 0.913705
O O8 0.089571 0.508713 0.181082
O O9 0.611972 0.319142 0.594083
O O10 0.334499 0.942792 0.479367
O O11 0.591953 0.178149 0.811108
O O12 0.737508 0.235434 0.137266
O O13 0.493535 0.838260 0.837144
O O14 0.208135 0.620805 0.532573
#
# Coordination Sequence:
#
# PCOD9041741 Si02
#       7
#     2   2   2   2   2   2   2
#     4  10  26  42  66 106 130 174 220 276 330 390
#     4  11  24  46  68  96 138 173 220 275 327 398
#     4  11  24  46  68  96 138 173 220 275 327 398
#     4  10  25  44  68 102 132 170 226 273 323 394
#     4  10  25  44  68 102 132 170 226 273 323 394
#     4  10  23  44  67 100 128 179 222 260 339 384
#     4  10  23  44  67 100 128 179 222 260 339 384
#
# _framework density 23.847304999999999
#
# number of rings (size 3 to 8) (size 9 to 14) (size 15 to 20)
#    0.000    1.714    1.429    0.000   14.000    6.857 
#    0.000    0.000    0.000    0.000    0.000    0.000 
#    0.000    0.000    0.000    0.000    0.000    0.000 
#
# Total GULP energy -78370.648085 kJ/mol
# GULP energy per Si atom -5597.903435 kJ/mol
# Density = 2.379303 g / cm^3
# Si number density = 23.847305 Si / 1000 Ang^3
#
#
#
# Elastic Constant Matrix: (Units=GPa)
#
#
# Indices 1 2 3 4 5 6 
#
# 1 64.0617 -9.6625 14.2570 -22.9818 -7.7822 7.6167
# 2 -9.6625 49.4776 25.0341 -8.2123 -9.5340 9.1530
# 3 14.2570 25.0341 117.0082 -9.0422 -24.2649 -0.1433
# 4 -22.9818 -8.2123 -9.0422 31.2756 9.1559 -7.1166
# 5 -7.7822 -9.5340 -24.2649 9.1559 29.4230 -5.0105
# 6 7.6167 9.1530 -0.1433 -7.1166 -5.0105 18.4524
#
#
#
# Elastic Compliance Matrix: (Units=1/GPa)
#
#
# Indices 1 2 3 4 5 6 
#
# 1 0.026531 0.012396 -0.004472 0.019332 -0.000334 -0.009770
# 2 0.012396 0.031299 -0.007075 0.011244 0.001364 -0.015990
# 3 -0.004472 -0.007075 0.012182 -0.002577 0.008526 0.006771
# 4 0.019332 0.011244 -0.002577 0.051890 -0.008828 0.004038
# 5 -0.000334 0.001364 0.008526 -0.008828 0.045566 0.008495
# 6 -0.009770 -0.015990 0.006771 0.004038 0.008495 0.070074
#
#
# Mechanical properties :
#
#
# Convention : Reuss Voigt Hill
#
# Bulk Modulus (GPa) = 13.94497 32.20054 23.07276
# Shear Modulus (GPa) = 19.24945 29.22480 24.23713
#
# Velocity S-wave (km/s) = 2.84420 3.50451 3.19148
# Velocity P-wave (km/s) = 4.07999 5.46878 4.82462
#
# Compressibility (1/GPa) = 0.07171043
#
# Stress axis : x y z
#
# Youngs Moduli (GPa) = 37.69149 31.95032 82.08672
#
# Poissons Ratio (x) = -0.39605 0.36709
# Poissons Ratio (y) = -0.46721 0.58073
# Poissons Ratio (z) = 0.16856 0.22603
#
# Static dielectric constant tensor:
#      x y z
#    x 1.859580 0.018990 0.000890 
#    y 0.018990 1.893580 -0.012780 
#    z 0.000890 -0.012780 1.918170 
# 
# From -- ./inp_files/185413.got.cif
#   From: 2010.05.17/outbox.cif.g08.bks.cpg/sg2_93_cif.got.tgz:185413.got - 2010.06.03 11:33:40.
