data_PCOD9041438
_publ_section_title
;
Structure prediction by ZEFSAII (Michael W. Deem and Ramdas Pophale) SiO2 
 PCOD9041438
Probable space group: P -1
;
_chemical_formula_sum "Si O2"
_cell_formula_units_Z 10
_cell_length_a 5.583675
_cell_length_b 17.024073
_cell_length_c 8.017949
_cell_angle_alpha 32.527931
_cell_angle_beta 80.095107
_cell_angle_gamma 69.776120
_cell_volume 373.624939
_symmetry_space_group_name_H-M "P -1"
_symmetry_group_IT_number 2
_symmetry_cell_setting 'triclinic'
loop_
_space_group_symop_operation_xyz
x,y,z
-x,-y,-z
loop_
_atom_site_type_symbol
_atom_site_label
_atom_site_fract_x
_atom_site_fract_y
_atom_site_fract_z
Si Si1 0.258820 0.117461 0.705912
Si Si2 0.727796 0.624613 0.242345
Si Si3 0.517306 0.626107 0.905765
Si Si4 0.238384 0.809629 0.134432
Si Si5 0.011771 0.827327 0.782473
O O1 0.336992 0.261917 0.381443
O O2 0.979245 0.181853 0.718953
O O3 0.500000 0.000000 0.000000
O O4 0.236766 0.987922 0.809600
O O5 0.538175 0.687422 0.313177
O O6 0.000000 0.500000 0.500000
O O7 0.639147 0.567376 0.181761
O O8 0.758176 0.785015 0.886076
O O9 0.216088 0.737819 0.777490
O O10 0.500000 0.500000 0.000000
O O11 0.143648 0.758704 0.066754
O O12 0.000000 0.000000 0.500000
#
# Coordination Sequence:
#
# PCOD9041438 Si02
#       5
#     2   2   2   2   2
#     4  11  23  44  77 112 149 194 251 318 382 446
#     4  11  26  49  74 105 152 205 252 303 374 455
#     4  11  27  48  74 112 154 196 250 314 380 450
#     4  10  23  43  75 109 144 195 256 310 374 451
#     4  11  23  45  75 105 144 195 253 312 376 447
#
# _framework density 26.764811000000002
#
# number of rings (size 3 to 8) (size 9 to 14) (size 15 to 20)
#    0.000    1.200    0.000    4.800    0.000   13.600 
#    0.000    6.000    0.000    0.000    0.000    0.000 
#    0.000    0.000    0.000    0.000    0.000    0.000 
#
# Total GULP energy -55956.428993 kJ/mol
# GULP energy per Si atom -5595.642899 kJ/mol
# Density = 2.670389 g / cm^3
# Si number density = 26.764811 Si / 1000 Ang^3
#
#
#
# Elastic Constant Matrix: (Units=GPa)
#
#
# Indices 1 2 3 4 5 6 
#
# 1 114.0035 104.2753 66.1638 -17.5165 -26.6922 -8.2646
# 2 104.2753 254.1914 82.6482 -35.6862 -12.2185 -15.3922
# 3 66.1638 82.6482 154.3553 -13.1589 -34.0751 -8.3347
# 4 -17.5165 -35.6862 -13.1589 40.0421 6.2172 1.9652
# 5 -26.6922 -12.2185 -34.0751 6.2172 81.1370 -0.7859
# 6 -8.2646 -15.3922 -8.3347 1.9652 -0.7859 73.3420
#
#
#
# Elastic Compliance Matrix: (Units=1/GPa)
#
#
# Indices 1 2 3 4 5 6 
#
# 1 0.016596 -0.005404 -0.003438 0.000808 0.003144 0.000357
# 2 -0.005404 0.007119 -0.001504 0.003708 -0.001616 0.000598
# 3 -0.003438 -0.001504 0.009331 -0.000197 0.002580 0.000390
# 4 0.000808 0.003708 -0.000197 0.028791 -0.001464 0.000060
# 5 0.003144 -0.001616 0.002580 -0.001464 0.014316 0.000501
# 6 0.000357 0.000598 0.000390 0.000060 0.000501 0.013849
#
#
# Mechanical properties :
#
#
# Convention : Reuss Voigt Hill
#
# Bulk Modulus (GPa) = 80.94114 114.30278 97.62196
# Shear Modulus (GPa) = 43.54945 56.86840 50.20893
#
# Velocity S-wave (km/s) = 4.03813 4.61450 4.33590
# Velocity P-wave (km/s) = 7.21452 8.43745 7.84983
#
# Compressibility (1/GPa) = 0.01235466
#
# Stress axis : x y z
#
# Youngs Moduli (GPa) = 60.25557 140.47240 107.16656
#
# Poissons Ratio (x) = 0.75911 0.36845
# Poissons Ratio (y) = 0.32562 0.16114
# Poissons Ratio (z) = 0.20717 0.21122
#
# Static dielectric constant tensor:
#      x y z
#    x 2.295510 -0.017530 0.056750 
#    y -0.017530 2.022820 0.101160 
#    z 0.056750 0.101160 2.260380 
# 
# From -- ./inp_files/138357.got.cif
#   From: 2010.05.17/outbox.cif.g08.bks.cpg/sg2_70_cif.got.tgz:138357.got - 2010.06.03 11:33:40.
