data_PCOD9041894
_publ_section_title
;
Structure prediction by ZEFSAII (Michael W. Deem and Ramdas Pophale) SiO2 
 PCOD9041894
Probable space group: P -1
;
_chemical_formula_sum "Si O2"
_cell_formula_units_Z 16
_cell_length_a 16.628797
_cell_length_b 9.003552
_cell_length_c 8.704949
_cell_angle_alpha 93.969271
_cell_angle_beta 33.367273
_cell_angle_gamma 90.654034
_cell_volume 712.533684
_symmetry_space_group_name_H-M "P -1"
_symmetry_group_IT_number 2
_symmetry_cell_setting 'triclinic'
loop_
_space_group_symop_operation_xyz
x,y,z
-x,-y,-z
loop_
_atom_site_type_symbol
_atom_site_label
_atom_site_fract_x
_atom_site_fract_y
_atom_site_fract_z
Si Si1 0.436503 0.616561 0.737635
Si Si2 0.040292 0.905625 0.577537
Si Si3 0.079349 0.380680 0.749019
Si Si4 0.898926 0.387392 0.727044
Si Si5 0.587361 0.141394 0.705087
Si Si6 0.634293 0.074640 0.969296
Si Si7 0.861991 0.914711 0.162078
Si Si8 0.368357 0.520090 0.328850
O O1 0.500000 0.500000 0.500000
O O2 0.570642 0.586181 0.640014
O O3 0.272555 0.561638 0.003382
O O4 0.393625 0.797813 0.844069
O O5 0.083965 0.744548 0.431015
O O6 0.200077 0.961153 0.363491
O O7 0.000000 0.000000 0.500000
O O8 0.909031 0.895393 0.906784
O O9 0.128786 0.234802 0.761055
O O10 0.223647 0.463226 0.479685
O O11 0.969280 0.349558 0.781698
O O12 0.000000 0.500000 0.000000
O O13 0.000000 0.500000 0.500000
O O14 0.563549 0.141508 0.928069
O O15 0.637260 0.305524 0.597740
O O16 0.713788 0.018563 0.435284
O O17 0.437867 0.076488 0.879045
O O18 0.000000 0.000000 0.000000
O O19 0.500000 0.500000 0.000000
#
# Coordination Sequence:
#
# PCOD9041894 Si02
#       8
#     2   2   2   2   2   2   2   2
#     4  11  24  45  67 100 141 185 230 297 357 428
#     4  11  25  45  69 101 144 184 230 292 369 435
#     4  12  26  44  71 108 141 188 248 297 351 436
#     4  11  25  43  66  99 145 184 228 294 362 419
#     4  11  24  43  72 103 138 180 246 301 350 419
#     4  10  23  44  68 101 141 181 234 298 357 424
#     4  12  24  42  72 104 141 188 242 298 358 432
#     4  12  25  44  73 100 137 190 248 292 357 428
#
# _framework density 22.455078
#
# number of rings (size 3 to 8) (size 9 to 14) (size 15 to 20)
#    0.000    0.750    2.500    4.500    3.500    4.000 
#    0.000    1.250    0.000    0.000    0.000    0.000 
#    0.000    0.000    0.000    0.000    0.000    0.000 
#
# Total GULP energy -89070.990026 kJ/mol
# GULP energy per Si atom -5566.936877 kJ/mol
# Density = 2.240397 g / cm^3
# Si number density = 22.455078 Si / 1000 Ang^3
#
#
#
# Elastic Constant Matrix: (Units=GPa)
#
#
# Indices 1 2 3 4 5 6 
#
# 1 49.9195 -12.9802 7.8792 -1.2979 -3.4100 7.6123
# 2 -12.9802 96.3731 43.7210 -1.7420 -12.5369 -4.6868
# 3 7.8792 43.7210 117.6226 18.5868 0.4107 19.2410
# 4 -1.2979 -1.7420 18.5868 42.9917 15.0625 -2.2586
# 5 -3.4100 -12.5369 0.4107 15.0625 39.1128 -6.1079
# 6 7.6123 -4.6868 19.2410 -2.2586 -6.1079 28.4468
#
#
#
# Elastic Compliance Matrix: (Units=1/GPa)
#
#
# Indices 1 2 3 4 5 6 
#
# 1 0.022288 0.004580 -0.002957 0.001082 0.002626 -0.002560
# 2 0.004580 0.015811 -0.007962 0.002611 0.005830 0.008224
# 3 -0.002957 -0.007962 0.014556 -0.006522 -0.002225 -0.011362
# 4 0.001082 0.002611 -0.006522 0.029891 -0.009757 0.004830
# 5 0.002626 0.005830 -0.002225 -0.009757 0.032696 0.008008
# 6 -0.002560 0.008224 -0.011362 0.004830 0.008008 0.046981
#
#
# Mechanical properties :
#
#
# Convention : Reuss Voigt Hill
#
# Bulk Modulus (GPa) = 25.01430 37.90614 31.46022
# Shear Modulus (GPa) = 26.56381 37.12994 31.84687
#
# Velocity S-wave (km/s) = 3.44317 4.07076 3.77005
# Velocity P-wave (km/s) = 5.19337 6.24599 5.74384
#
# Compressibility (1/GPa) = 0.03997713
#
# Stress axis : x y z
#
# Youngs Moduli (GPa) = 44.86788 63.24854 68.69864
#
# Poissons Ratio (x) = -0.28967 0.20313
# Poissons Ratio (y) = -0.20549 0.54697
# Poissons Ratio (z) = 0.13266 0.50357
#
# Static dielectric constant tensor:
#      x y z
#    x 1.949410 0.051720 0.037770 
#    y 0.051720 1.787400 -0.008710 
#    z 0.037770 -0.008710 1.961640 
# 
# From -- ./inp_files/328991.got.cif
#   From: 2010.05.17/outbox.cif.g08.bks.cpg/sg2_165_cif.got.tgz:328991.got - 2010.06.03 11:33:40.
