data_PCOD9041419
_publ_section_title
;
Structure prediction by ZEFSAII (Michael W. Deem and Ramdas Pophale) SiO2 
 PCOD9041419
Probable space group: P -1
;
_chemical_formula_sum "Si O2"
_cell_formula_units_Z 16
_cell_length_a 12.587406
_cell_length_b 7.951510
_cell_length_c 14.288472
_cell_angle_alpha 128.325541
_cell_angle_beta 43.583704
_cell_angle_gamma 126.022590
_cell_volume 747.527726
_symmetry_space_group_name_H-M "P -1"
_symmetry_group_IT_number 2
_symmetry_cell_setting 'triclinic'
loop_
_space_group_symop_operation_xyz
x,y,z
-x,-y,-z
loop_
_atom_site_type_symbol
_atom_site_label
_atom_site_fract_x
_atom_site_fract_y
_atom_site_fract_z
Si Si1 0.323713 0.253723 0.381147
Si Si2 0.851956 0.474629 0.155530
Si Si3 0.867437 0.456311 0.649885
Si Si4 0.542504 0.146460 0.669819
Si Si5 0.996763 0.735893 0.322260
Si Si6 0.431267 0.298061 0.596272
Si Si7 0.772387 0.857489 0.795723
Si Si8 0.402991 0.985168 0.879038
O O1 0.431445 0.477821 0.435142
O O2 0.290939 0.290396 0.305770
O O3 0.429080 0.078696 0.247912
O O4 0.153661 0.182052 0.514936
O O5 0.739121 0.643894 0.272556
O O6 0.734726 0.234740 0.130783
O O7 0.923457 0.525034 0.230639
O O8 0.000000 0.500000 0.000000
O O9 0.709727 0.295884 0.650958
O O10 0.918025 0.344319 0.671406
O O11 0.844327 0.703054 0.765025
O O12 0.000000 0.500000 0.500000
O O13 0.475927 0.227841 0.646300
O O14 0.561683 0.900511 0.546739
O O15 0.420523 0.140220 0.830886
O O16 0.107304 0.925091 0.251253
O O17 0.636757 0.921832 0.965332
#
# Coordination Sequence:
#
# PCOD9041419 Si02
#       8
#     2   2   2   2   2   2   2   2
#     4  11  22  44  68 103 134 182 240 282 343 428
#     4  11  24  46  67 100 140 181 236 283 348 428
#     4  12  27  44  71 108 144 178 241 289 345 426
#     4  11  23  45  68 104 137 181 234 295 350 412
#     4  12  25  45  75 100 143 193 228 293 357 407
#     4  10  23  43  74  97 138 182 234 295 348 408
#     4  12  25  45  68 104 145 185 231 289 354 419
#     4  11  25  42  70 101 139 187 232 288 357 414
#
# _framework density 21.403887000000001
#
# number of rings (size 3 to 8) (size 9 to 14) (size 15 to 20)
#    0.000    0.750    3.750    3.000    3.500    4.500 
#    0.000    1.250    0.000    0.000    0.000    0.000 
#    0.000    0.000    0.000    0.000    0.000    0.000 
#
# Total GULP energy -89464.633374 kJ/mol
# GULP energy per Si atom -5591.539586 kJ/mol
# Density = 2.135517 g / cm^3
# Si number density = 21.403887 Si / 1000 Ang^3
#
#
#
# Elastic Constant Matrix: (Units=GPa)
#
#
# Indices 1 2 3 4 5 6 
#
# 1 121.6247 31.4175 46.1169 -11.3118 0.1027 -2.4369
# 2 31.4175 72.4893 29.8065 -17.7523 -2.4801 -11.5971
# 3 46.1169 29.8065 129.8776 -29.8881 13.0163 -6.8302
# 4 -11.3118 -17.7523 -29.8881 31.0481 0.5640 0.2980
# 5 0.1027 -2.4801 13.0163 0.5640 29.4263 5.0908
# 6 -2.4369 -11.5971 -6.8302 0.2980 5.0908 29.3328
#
#
#
# Elastic Compliance Matrix: (Units=1/GPa)
#
#
# Indices 1 2 3 4 5 6 
#
# 1 0.010279 -0.003663 -0.003425 -0.001658 0.001485 -0.001633
# 2 -0.003663 0.018929 -0.000743 0.008697 0.000591 0.006815
# 3 -0.003425 -0.000743 0.012220 0.010173 -0.006212 0.003242
# 4 -0.001658 0.008697 0.010173 0.046414 -0.005722 0.006191
# 5 0.001485 0.000591 -0.006212 -0.005722 0.038211 -0.007663
# 6 -0.001633 0.006815 0.003242 0.006191 -0.007663 0.038672
#
#
# Mechanical properties :
#
#
# Convention : Reuss Voigt Hill
#
# Bulk Modulus (GPa) = 38.81163 59.85260 49.33211
# Shear Modulus (GPa) = 26.45835 32.40482 29.43159
#
# Velocity S-wave (km/s) = 3.51970 3.89520 3.71220
# Velocity P-wave (km/s) = 5.88983 6.94652 6.43989
#
# Compressibility (1/GPa) = 0.02576548
#
# Stress axis : x y z
#
# Youngs Moduli (GPa) = 97.28704 52.83015 81.83010
#
# Poissons Ratio (x) = 0.19351 0.28031
# Poissons Ratio (y) = 0.35636 0.06078
# Poissons Ratio (z) = 0.33325 0.03924
#
# Static dielectric constant tensor:
#      x y z
#    x 1.830300 -0.028480 -0.018420 
#    y -0.028480 1.810690 0.023040 
#    z -0.018420 0.023040 1.772110 
# 
# From -- ./inp_files/516215.got.cif
#   From: 2010.05.17/outbox.cif.g08.bks.cpg/sg2_259_cif.got.tgz:516215.got - 2010.06.03 11:33:40.
