data_PCOD9041204
_publ_section_title
;
Structure prediction by ZEFSAII (Michael W. Deem and Ramdas Pophale) SiO2 
 PCOD9041204
Probable space group: P -1
;
_chemical_formula_sum "Si O2"
_cell_formula_units_Z 16
_cell_length_a 11.465866
_cell_length_b 13.759256
_cell_length_c 12.998161
_cell_angle_alpha 148.185508
_cell_angle_beta 126.025003
_cell_angle_gamma 42.683436
_cell_volume 729.038530
_symmetry_space_group_name_H-M "P -1"
_symmetry_group_IT_number 2
_symmetry_cell_setting 'triclinic'
loop_
_space_group_symop_operation_xyz
x,y,z
-x,-y,-z
loop_
_atom_site_type_symbol
_atom_site_label
_atom_site_fract_x
_atom_site_fract_y
_atom_site_fract_z
Si Si1 0.639830 0.943954 0.255688
Si Si2 0.525168 0.263339 0.285553
Si Si3 0.179135 0.423031 0.471343
Si Si4 0.028120 0.093171 0.271914
Si Si5 0.166237 0.391275 0.113707
Si Si6 0.612143 0.940945 0.608974
Si Si7 0.939579 0.913300 0.482137
Si Si8 0.157419 0.116834 0.022230
O O1 0.741263 0.001505 0.439712
O O2 0.564725 0.129573 0.293420
O O3 0.511723 0.910883 0.227841
O O4 0.781163 0.718447 0.068984
O O5 0.500000 0.500000 0.500000
O O6 0.350340 0.305253 0.185177
O O7 0.679124 0.102666 0.141796
O O8 0.320017 0.302483 0.526215
O O9 0.000000 0.500000 0.500000
O O10 0.129836 0.650167 0.597050
O O11 0.208379 0.235301 0.238005
O O12 0.214394 0.056484 0.312009
O O13 0.031227 0.038299 0.344473
O O14 0.974298 0.940643 0.052435
O O15 0.053280 0.650312 0.294639
O O16 0.078677 0.292274 0.045880
O O17 0.500000 0.000000 0.500000
O O18 0.000000 0.000000 0.500000
#
# Coordination Sequence:
#
# PCOD9041204 Si02
#       8
#     2   2   2   2   2   2   2   2
#     4  11  23  39  67  96 135 182 224 281 356 405
#     4  11  23  40  69 106 138 178 227 293 348 414
#     4  10  23  43  71  95 134 185 231 283 340 402
#     4  11  24  44  71  99 136 183 235 281 341 420
#     4  11  22  42  68  99 138 175 228 291 344 415
#     4  11  23  44  68  95 137 184 225 282 345 409
#     4  12  23  41  66 101 139 179 222 281 355 411
#     4  11  22  41  73 106 137 175 237 289 343 408
#
# _framework density 21.946712999999999
#
# number of rings (size 3 to 8) (size 9 to 14) (size 15 to 20)
#    0.000    1.000    2.500    6.375    1.750    2.000 
#    0.000    0.000    2.750    8.250    0.000    0.000 
#    0.000    0.000    0.000    0.000    0.000    0.000 
#
# Total GULP energy -89344.562402 kJ/mol
# GULP energy per Si atom -5584.035150 kJ/mol
# Density = 2.189676 g / cm^3
# Si number density = 21.946713 Si / 1000 Ang^3
#
#
#
# Elastic Constant Matrix: (Units=GPa)
#
#
# Indices 1 2 3 4 5 6 
#
# 1 124.7938 28.1149 26.3479 6.3456 7.9863 9.8602
# 2 28.1149 94.8383 2.0120 -1.4492 5.3001 -3.4171
# 3 26.3479 2.0120 67.4601 17.1853 12.8429 0.9889
# 4 6.3456 -1.4492 17.1853 23.8872 0.5775 0.7846
# 5 7.9863 5.3001 12.8429 0.5775 36.9790 -6.8375
# 6 9.8602 -3.4171 0.9889 0.7846 -6.8375 28.5410
#
#
#
# Elastic Compliance Matrix: (Units=1/GPa)
#
#
# Indices 1 2 3 4 5 6 
#
# 1 0.009780 -0.002901 -0.003397 -0.000172 -0.001235 -0.003900
# 2 -0.002901 0.011530 0.000692 0.000924 -0.000889 0.002121
# 3 -0.003397 0.000692 0.020935 -0.013937 -0.006539 -0.000652
# 4 -0.000172 0.000924 -0.013937 0.051890 0.003967 0.000177
# 5 -0.001235 -0.000889 -0.006539 0.003967 0.031104 0.007889
# 6 -0.003900 0.002121 -0.000652 0.000177 0.007889 0.038546
#
#
# Mechanical properties :
#
#
# Convention : Reuss Voigt Hill
#
# Bulk Modulus (GPa) = 32.22540 44.44908 38.33724
# Shear Modulus (GPa) = 26.97711 33.25594 30.11652
#
# Velocity S-wave (km/s) = 3.50981 3.89691 3.70842
# Velocity P-wave (km/s) = 5.58036 6.36750 5.98688
#
# Compressibility (1/GPa) = 0.03103142
#
# Stress axis : x y z
#
# Youngs Moduli (GPa) = 102.24956 86.73118 47.76764
#
# Poissons Ratio (x) = 0.25164 0.16227
# Poissons Ratio (y) = 0.29666 -0.03305
# Poissons Ratio (z) = 0.34736 -0.06001
#
# Static dielectric constant tensor:
#      x y z
#    x 2.003390 0.051300 0.057810 
#    y 0.051300 1.892560 0.007980 
#    z 0.057810 0.007980 1.864630 
# 
# From -- ./inp_files/521931.got.cif
#   From: 2010.05.17/outbox.cif.g08.bks.cpg/sg2_261_cif.got.tgz:521931.got - 2010.06.03 11:33:40.
