data_PCOD9041812
_publ_section_title
;
Structure prediction by ZEFSAII (Michael W. Deem and Ramdas Pophale) SiO2 
 PCOD9041812
Probable space group: P -1
;
_chemical_formula_sum "Si O2"
_cell_formula_units_Z 14
_cell_length_a 21.124006
_cell_length_b 17.999770
_cell_length_c 19.416717
_cell_angle_alpha 158.303852
_cell_angle_beta 13.068010
_cell_angle_gamma 161.755302
_cell_volume 521.771600
_symmetry_space_group_name_H-M "P -1"
_symmetry_group_IT_number 2
_symmetry_cell_setting 'triclinic'
loop_
_space_group_symop_operation_xyz
x,y,z
-x,-y,-z
loop_
_atom_site_type_symbol
_atom_site_label
_atom_site_fract_x
_atom_site_fract_y
_atom_site_fract_z
Si Si1 0.757082 0.220599 0.571743
Si Si2 0.349928 0.187420 0.851932
Si Si3 0.300831 0.154008 0.476215
Si Si4 0.143176 0.317731 0.646603
Si Si5 0.707314 0.262398 0.942966
Si Si6 0.044568 0.765437 0.965912
Si Si7 0.841399 0.653167 0.933322
O O1 0.649465 0.296981 0.681969
O O2 0.820891 0.412717 0.727396
O O3 0.894746 0.867558 0.266063
O O4 0.424643 0.967673 0.723440
O O5 0.399816 0.319961 0.840632
O O6 0.059220 0.192700 0.207402
O O7 0.183472 0.905645 0.773076
O O8 0.129101 0.203052 0.636067
O O9 0.659281 0.397930 0.309806
O O10 0.312713 0.924120 0.250395
O O11 0.187088 0.780360 0.130966
O O12 0.383673 0.272981 0.305722
O O13 0.997336 0.528051 0.843943
O O14 0.825051 0.672847 0.049202
#
# Coordination Sequence:
#
# PCOD9041812 Si02
#       7
#     2   2   2   2   2   2   2
#     4  11  24  44  67  94 128 169 213 263 316 372
#     4  10  24  43  69  96 121 167 223 261 308 377
#     4  10  23  44  67  94 131 167 211 266 316 374
#     4  10  24  43  69  96 121 167 223 261 308 377
#     4  11  24  44  67  94 128 169 213 263 316 372
#     4  10  26  40  62 100 132 168 210 256 324 388
#     4  10  23  44  67  94 131 167 211 266 316 374
#
# _framework density 26.831662999999999
#
# number of rings (size 3 to 8) (size 9 to 14) (size 15 to 20)
#    0.000    1.714    0.000    1.714    0.000   26.286 
#    0.000    0.000    0.000    0.000    0.000    0.000 
#    0.000    0.000    0.000    0.000    0.000    0.000 
#
# Total GULP energy -78613.065747 kJ/mol
# GULP energy per Si atom -5615.218982 kJ/mol
# Density = 2.677059 g / cm^3
# Si number density = 26.831663 Si / 1000 Ang^3
#
#
#
# Elastic Constant Matrix: (Units=GPa)
#
#
# Indices 1 2 3 4 5 6 
#
# 1 156.6645 46.4289 61.4146 7.8628 29.8707 16.4471
# 2 46.4289 119.7703 61.3772 19.4327 18.0084 23.6805
# 3 61.4146 61.3772 140.4163 14.3222 27.7618 28.7862
# 4 7.8628 19.4327 14.3222 54.2426 19.8784 7.2809
# 5 29.8707 18.0084 27.7618 19.8784 53.4720 2.8092
# 6 16.4471 23.6805 28.7862 7.2809 2.8092 52.2167
#
#
#
# Elastic Compliance Matrix: (Units=1/GPa)
#
#
# Indices 1 2 3 4 5 6 
#
# 1 0.008425 -0.001670 -0.002283 0.001317 -0.003414 -0.000637
# 2 -0.001670 0.011783 -0.003644 -0.002684 -0.000018 -0.002434
# 3 -0.002283 -0.003644 0.011041 0.000368 -0.003177 -0.003595
# 4 0.001317 -0.002684 0.000368 0.022410 -0.008244 -0.002082
# 5 -0.003414 -0.000018 -0.003177 -0.008244 0.025191 0.002630
# 6 -0.000637 -0.002434 -0.003595 -0.002082 0.002630 0.022586
#
#
# Mechanical properties :
#
#
# Convention : Reuss Voigt Hill
#
# Bulk Modulus (GPa) = 62.28787 83.92139 73.10463
# Shear Modulus (GPa) = 40.98923 48.49496 44.74210
#
# Velocity S-wave (km/s) = 3.91275 4.25594 4.08795
# Velocity P-wave (km/s) = 6.60890 7.44954 7.04177
#
# Compressibility (1/GPa) = 0.01605449
#
# Stress axis : x y z
#
# Youngs Moduli (GPa) = 118.69443 84.86489 90.57198
#
# Poissons Ratio (x) = 0.14172 0.20682
# Poissons Ratio (y) = 0.19822 0.33004
# Poissons Ratio (z) = 0.27104 0.30925
#
# Static dielectric constant tensor:
#      x y z
#    x 2.108580 -0.030240 -0.008260 
#    y -0.030240 2.111040 0.025350 
#    z -0.008260 0.025350 2.146010 
# 
# From -- ./inp_files/601659.got.cif
#   From: 2010.05.17/outbox.cif.g08.bks.cpg/sg2_301_cif.got.tgz:601659.got - 2010.06.03 11:33:40.
