data_PCOD9041480
_publ_section_title
;
Structure prediction by ZEFSAII (Michael W. Deem and Ramdas Pophale) SiO2 
 PCOD9041480
Probable space group: P -1
;
_chemical_formula_sum "Si O2"
_cell_formula_units_Z 16
_cell_length_a 10.191312
_cell_length_b 19.318269
_cell_length_c 9.019720
_cell_angle_alpha 52.631719
_cell_angle_beta 64.161959
_cell_angle_gamma 27.907491
_cell_volume 635.979805
_symmetry_space_group_name_H-M "P -1"
_symmetry_group_IT_number 2
_symmetry_cell_setting 'triclinic'
loop_
_space_group_symop_operation_xyz
x,y,z
-x,-y,-z
loop_
_atom_site_type_symbol
_atom_site_label
_atom_site_fract_x
_atom_site_fract_y
_atom_site_fract_z
Si Si1 0.343720 0.213044 0.337891
Si Si2 0.600612 0.234996 0.534394
Si Si3 0.683805 0.953413 0.259116
Si Si4 0.133293 0.049030 0.356461
Si Si5 0.137704 0.493097 0.186283
Si Si6 0.275550 0.678071 0.458013
Si Si7 0.102728 0.210831 0.941076
Si Si8 0.535602 0.524391 0.109797
O O1 0.269847 0.161973 0.525713
O O2 0.116121 0.409405 0.224172
O O3 0.427582 0.141676 0.221328
O O4 0.647789 0.079663 0.447105
O O5 0.310950 0.376584 0.401209
O O6 0.576420 0.306815 0.594984
O O7 0.826335 0.168901 0.400059
O O8 0.749558 0.065563 0.694370
O O9 0.980138 0.849270 0.295725
O O10 0.685902 0.925198 0.122120
O O11 0.136901 0.142185 0.167925
O O12 0.925339 0.674475 0.135981
O O13 0.335706 0.447521 0.031324
O O14 0.500000 0.500000 0.500000
O O15 0.243977 0.639295 0.676767
O O16 0.794570 0.331114 0.866900
O O17 0.500000 0.500000 0.000000
#
# Coordination Sequence:
#
# PCOD9041480 Si02
#       8
#     2   2   2   2   2   2   2   2
#     4  10  24  42  59  80 121 168 194 221 293 367
#     4  10  17  33  57  88 114 142 195 234 290 344
#     4  11  24  40  58  82 126 161 189 232 300 355
#     4  10  20  34  63  83 109 155 195 239 276 344
#     4  10  19  37  63  88 111 150 202 244 281 341
#     4  12  20  35  58  89 118 149 186 246 299 337
#     4  11  20  36  61  92 114 144 200 253 287 326
#     4  10  18  32  58  91 113 136 190 251 293 325
#
# _framework density 25.158033
#
# number of rings (size 3 to 8) (size 9 to 14) (size 15 to 20)
#    0.000    1.500    6.250    0.750    0.000    1.000 
#    2.250    1.875    0.000    0.000    0.000    0.000 
#    0.000    0.000    0.000    0.000    0.000    0.000 
#
# Total GULP energy -89136.579920 kJ/mol
# GULP energy per Si atom -5571.036245 kJ/mol
# Density = 2.510077 g / cm^3
# Si number density = 25.158033 Si / 1000 Ang^3
#
#
#
# Elastic Constant Matrix: (Units=GPa)
#
#
# Indices 1 2 3 4 5 6 
#
# 1 79.6348 36.7641 8.9986 4.0804 8.9930 39.0770
# 2 36.7641 130.4826 20.8851 11.7744 -1.7773 56.1545
# 3 8.9986 20.8851 52.3710 10.7202 13.0271 16.9020
# 4 4.0804 11.7744 10.7202 29.3398 15.3963 -1.7280
# 5 8.9930 -1.7773 13.0271 15.3963 39.9451 -7.7506
# 6 39.0770 56.1545 16.9020 -1.7280 -7.7506 58.0515
#
#
#
# Elastic Compliance Matrix: (Units=1/GPa)
#
#
# Indices 1 2 3 4 5 6 
#
# 1 0.021525 0.000933 0.004226 -0.001128 -0.009218 -0.017886
# 2 0.000933 0.014339 0.000268 -0.006928 0.000147 -0.014762
# 3 0.004226 0.000268 0.025669 -0.005858 -0.009382 -0.012004
# 4 -0.001128 -0.006928 -0.005858 0.047406 -0.014746 0.008609
# 5 -0.009218 0.000147 -0.009382 -0.014746 0.038478 0.013493
# 6 -0.017886 -0.014762 -0.012004 0.008609 0.013493 0.049099
#
#
# Mechanical properties :
#
#
# Convention : Reuss Voigt Hill
#
# Bulk Modulus (GPa) = 13.81505 43.97597 28.89551
# Shear Modulus (GPa) = 23.83336 38.52332 31.17834
#
# Velocity S-wave (km/s) = 3.08124 3.91737 3.52419
# Velocity P-wave (km/s) = 4.26168 6.16270 5.29815
#
# Compressibility (1/GPa) = 0.07238482
#
# Stress axis : x y z
#
# Youngs Moduli (GPa) = 46.45784 69.74203 38.95800
#
# Poissons Ratio (x) = -0.06504 -0.16464
# Poissons Ratio (y) = -0.04333 -0.01043
# Poissons Ratio (z) = -0.19633 -0.01867
#
# Static dielectric constant tensor:
#      x y z
#    x 2.138310 -0.029730 -0.003400 
#    y -0.029730 2.313450 0.061190 
#    z -0.003400 0.061190 1.986440 
# 
# From -- ./inp_files/281622.got.cif
#   From: 2010.05.17/outbox.cif.g08.bks.cpg/sg2_141_cif.got.tgz:281622.got - 2010.06.03 11:33:40.
