data_PCOD9041721
_publ_section_title
;
Structure prediction by ZEFSAII (Michael W. Deem and Ramdas Pophale) SiO2 
 PCOD9041721
Probable space group: P -1
;
_chemical_formula_sum "Si O2"
_cell_formula_units_Z 14
_cell_length_a 7.913136
_cell_length_b 8.813695
_cell_length_c 14.367852
_cell_angle_alpha 74.518807
_cell_angle_beta 53.077412
_cell_angle_gamma 112.777296
_cell_volume 543.179321
_symmetry_space_group_name_H-M "P -1"
_symmetry_group_IT_number 2
_symmetry_cell_setting 'triclinic'
loop_
_space_group_symop_operation_xyz
x,y,z
-x,-y,-z
loop_
_atom_site_type_symbol
_atom_site_label
_atom_site_fract_x
_atom_site_fract_y
_atom_site_fract_z
Si Si1 0.174590 0.435547 0.306556
Si Si2 0.281591 0.057097 0.441774
Si Si3 0.170833 0.787291 0.183210
Si Si4 0.835891 0.228870 0.006778
Si Si5 0.317881 0.154258 0.811715
Si Si6 0.385925 0.592332 0.881686
Si Si7 0.717926 0.765812 0.396290
O O1 0.849724 0.188454 0.473799
O O2 0.131389 0.587001 0.257688
O O3 0.414182 0.587214 0.286903
O O4 0.357412 0.402316 0.189626
O O5 0.536621 0.247748 0.255782
O O6 0.341931 0.156246 0.508324
O O7 0.000000 0.000000 0.500000
O O8 0.040349 0.849234 0.284785
O O9 0.994221 0.718174 0.154371
O O10 0.500000 0.000000 0.000000
O O11 0.696119 0.328188 0.024631
O O12 0.590378 0.970105 0.159895
O O13 0.078710 0.351966 0.988656
O O14 0.282511 0.139434 0.715697
O O15 0.000000 0.000000 0.000000
O O16 0.500000 0.500000 0.500000
#
# Coordination Sequence:
#
# PCOD9041721 Si02
#       7
#     2   2   2   2   2   2   2
#     4  11  23  42  70  98 145 176 228 301 351 408
#     4  10  24  44  67 101 144 180 229 294 354 411
#     4  12  25  42  68 108 136 179 244 294 353 412
#     4  11  23  42  71  96 139 183 237 286 346 430
#     4  12  22  46  71 101 139 193 238 288 350 429
#     4  10  23  44  66  98 138 187 226 288 355 424
#     4  12  26  47  76 102 143 194 240 287 353 432
#
# _framework density 25.774176000000001
#
# number of rings (size 3 to 8) (size 9 to 14) (size 15 to 20)
#    0.000    0.857    4.286    2.571    4.000    4.000 
#    0.000    7.857    0.000    0.000    0.000    0.000 
#    0.000    0.000    0.000    0.000    0.000    0.000 
#
# Total GULP energy -78248.780569 kJ/mol
# GULP energy per Si atom -5589.198612 kJ/mol
# Density = 2.571551 g / cm^3
# Si number density = 25.774176 Si / 1000 Ang^3
#
#
#
# Elastic Constant Matrix: (Units=GPa)
#
#
# Indices 1 2 3 4 5 6 
#
# 1 63.2754 3.9533 18.9784 -5.4879 14.3653 -6.0798
# 2 3.9533 115.5458 36.7693 -26.4544 10.8082 5.0878
# 3 18.9784 36.7693 101.5725 -15.3877 15.5476 8.2184
# 4 -5.4879 -26.4544 -15.3877 53.9161 -2.0877 0.1017
# 5 14.3653 10.8082 15.5476 -2.0877 49.1333 -2.7186
# 6 -6.0798 5.0878 8.2184 0.1017 -2.7186 49.9157
#
#
#
# Elastic Compliance Matrix: (Units=1/GPa)
#
#
# Indices 1 2 3 4 5 6 
#
# 1 0.017971 0.000938 -0.003038 0.001251 -0.004316 0.002356
# 2 0.000938 0.010803 -0.003138 0.004444 -0.001500 -0.000561
# 3 -0.003038 -0.003138 0.012332 0.001583 -0.002379 -0.002213
# 4 0.001251 0.004444 0.001583 0.021270 -0.000977 -0.000658
# 5 -0.004316 -0.001500 -0.002379 -0.000977 0.022726 0.001259
# 6 0.002356 -0.000561 -0.002213 -0.000658 0.001259 0.020812
#
#
# Mechanical properties :
#
#
# Convention : Reuss Voigt Hill
#
# Bulk Modulus (GPa) = 32.64660 44.42175 38.53418
# Shear Modulus (GPa) = 39.49447 45.30587 42.40017
#
# Velocity S-wave (km/s) = 3.91874 4.19716 4.06034
# Velocity P-wave (km/s) = 5.75928 6.38440 6.07988
#
# Compressibility (1/GPa) = 0.03063106
#
# Stress axis : x y z
#
# Youngs Moduli (GPa) = 55.64465 92.56284 81.09149
#
# Poissons Ratio (x) = -0.08685 0.24635
# Poissons Ratio (y) = -0.05221 0.25446
# Poissons Ratio (z) = 0.16905 0.29046
#
# Static dielectric constant tensor:
#      x y z
#    x 2.118530 0.043290 -0.032570 
#    y 0.043290 2.189930 0.000770 
#    z -0.032570 0.000770 2.056150 
# 
# From -- ./inp_files/494607.got.cif
#   From: 2010.05.17/outbox.cif.g08.bks.cpg/sg2_248_cif.got.tgz:494607.got - 2010.06.03 11:33:40.
