data_PCOD9041650
_publ_section_title
;
Structure prediction by ZEFSAII (Michael W. Deem and Ramdas Pophale) SiO2 
 PCOD9041650
Probable space group: P -1
;
_chemical_formula_sum "Si O2"
_cell_formula_units_Z 16
_cell_length_a 6.523036
_cell_length_b 8.220703
_cell_length_c 13.877459
_cell_angle_alpha 109.101079
_cell_angle_beta 80.006381
_cell_angle_gamma 75.605402
_cell_volume 654.172738
_symmetry_space_group_name_H-M "P -1"
_symmetry_group_IT_number 2
_symmetry_cell_setting 'triclinic'
loop_
_space_group_symop_operation_xyz
x,y,z
-x,-y,-z
loop_
_atom_site_type_symbol
_atom_site_label
_atom_site_fract_x
_atom_site_fract_y
_atom_site_fract_z
Si Si1 0.541687 0.787351 0.343726
Si Si2 0.760272 0.499069 0.964193
Si Si3 0.284544 0.210550 0.463420
Si Si4 0.290823 0.337787 0.277633
Si Si5 0.894517 0.833228 0.213230
Si Si6 0.918285 0.263794 0.630889
Si Si7 0.790437 0.843912 0.921257
Si Si8 0.261231 0.850568 0.870249
O O1 0.647498 0.723427 0.427493
O O2 0.707820 0.737915 0.230130
O O3 0.328404 0.731091 0.344317
O O4 0.447519 0.007710 0.394186
O O5 0.721164 0.684169 0.943905
O O6 0.874994 0.304238 0.867421
O O7 0.500000 0.500000 0.000000
O O8 0.000000 0.500000 0.000000
O O9 0.287558 0.321739 0.389303
O O10 0.038825 0.212324 0.509236
O O11 0.108165 0.526586 0.301114
O O12 0.248170 0.169454 0.192463
O O13 0.534915 0.314545 0.215700
O O14 0.941361 0.875058 0.327632
O O15 0.807983 0.000846 0.181330
O O16 0.052896 0.793907 0.903466
O O17 0.693714 0.035218 0.021147
#
# Coordination Sequence:
#
# PCOD9041650 Si02
#       8
#     2   2   2   2   2   2   2   2
#     4  10  23  44  70  98 143 183 246 304 369 461
#     4  12  28  48  80 110 155 200 259 317 383 454
#     4  10  23  44  66 102 140 184 243 308 375 453
#     4  12  25  43  69 103 144 188 243 311 379 449
#     4  11  24  44  69 106 135 198 244 304 372 454
#     4  11  25  40  72 103 141 185 248 305 381 447
#     4  11  27  46  70 106 147 192 251 308 374 453
#     4  11  26  46  70 102 149 195 248 305 381 448
#
# _framework density 24.458368
#
# number of rings (size 3 to 8) (size 9 to 14) (size 15 to 20)
#    0.000    1.000    3.750    1.125    7.000    2.500 
#    0.000    0.000    0.000    0.000    0.000    0.000 
#    0.000    0.000    0.000    0.000    0.000    0.000 
#
# Total GULP energy -89236.762686 kJ/mol
# GULP energy per Si atom -5577.297668 kJ/mol
# Density = 2.440270 g / cm^3
# Si number density = 24.458368 Si / 1000 Ang^3
#
#
#
# Elastic Constant Matrix: (Units=GPa)
#
#
# Indices 1 2 3 4 5 6 
#
# 1 141.8578 42.8858 49.9606 -5.1538 -37.0638 4.7126
# 2 42.8858 71.5059 29.5979 -12.9426 -4.0197 -16.7900
# 3 49.9606 29.5979 80.6523 -8.3672 -25.9087 -7.5917
# 4 -5.1538 -12.9426 -8.3672 30.7136 -10.7660 -11.0594
# 5 -37.0638 -4.0197 -25.9087 -10.7660 50.6262 2.7014
# 6 4.7126 -16.7900 -7.5917 -11.0594 2.7014 40.5994
#
#
#
# Elastic Compliance Matrix: (Units=1/GPa)
#
#
# Indices 1 2 3 4 5 6 
#
# 1 0.012399 -0.007336 -0.003663 -0.001919 0.006539 -0.006116
# 2 -0.007336 0.025095 -0.002956 0.012657 -0.002963 0.014322
# 3 -0.003663 -0.002956 0.019856 0.008271 0.008760 0.004586
# 4 -0.001919 0.012657 0.008271 0.051948 0.013800 0.020236
# 5 0.006539 -0.002963 0.008760 0.013800 0.031652 0.001307
# 6 -0.006116 0.014322 0.004586 0.020236 0.001307 0.037547
#
#
# Mechanical properties :
#
#
# Convention : Reuss Voigt Hill
#
# Bulk Modulus (GPa) = 33.96577 59.87828 46.92202
# Shear Modulus (GPa) = 23.12458 35.82596 29.47527
#
# Velocity S-wave (km/s) = 3.07818 3.83139 3.47525
# Velocity P-wave (km/s) = 5.15276 6.64135 5.94384
#
# Compressibility (1/GPa) = 0.02944141
#
# Stress axis : x y z
#
# Youngs Moduli (GPa) = 80.65271 39.84795 50.36203
#
# Poissons Ratio (x) = 0.29232 0.18446
# Poissons Ratio (y) = 0.59166 0.14887
# Poissons Ratio (z) = 0.29540 0.11779
#
# Static dielectric constant tensor:
#      x y z
#    x 2.126260 0.002140 0.030210 
#    y 0.002140 1.890260 -0.026020 
#    z 0.030210 -0.026020 1.993040 
# 
# From -- ./inp_files/480726.got.cif
#   From: 2010.05.17/outbox.cif.g08.bks.cpg/sg2_241_cif.got.tgz:480726.got - 2010.06.03 11:33:40.
