data_PCOD9041727
_publ_section_title
;
Structure prediction by ZEFSAII (Michael W. Deem and Ramdas Pophale) SiO2 
 PCOD9041727
Probable space group: P -1
;
_chemical_formula_sum "Si O2"
_cell_formula_units_Z 16
_cell_length_a 9.351261
_cell_length_b 21.026640
_cell_length_c 5.151663
_cell_angle_alpha 96.819573
_cell_angle_beta 96.245105
_cell_angle_gamma 41.609516
_cell_volume 667.582781
_symmetry_space_group_name_H-M "P -1"
_symmetry_group_IT_number 2
_symmetry_cell_setting 'triclinic'
loop_
_space_group_symop_operation_xyz
x,y,z
-x,-y,-z
loop_
_atom_site_type_symbol
_atom_site_label
_atom_site_fract_x
_atom_site_fract_y
_atom_site_fract_z
Si Si1 0.675790 0.762078 0.369607
Si Si2 0.537696 0.274628 0.426816
Si Si3 0.316850 0.041833 0.270375
Si Si4 0.167919 0.593743 0.453635
Si Si5 0.471995 0.584784 0.264154
Si Si6 0.961532 0.057539 0.275003
Si Si7 0.608953 0.860103 0.884084
Si Si8 0.765377 0.558207 0.887943
O O1 0.564426 0.729941 0.352636
O O2 0.677766 0.791193 0.098136
O O3 0.917077 0.686810 0.495364
O O4 0.545008 0.846184 0.599782
O O5 0.586041 0.332935 0.530908
O O6 0.732037 0.169701 0.294849
O O7 0.341985 0.345828 0.222769
O O8 0.128374 0.060479 0.344125
O O9 0.500000 0.000000 0.500000
O O10 0.419002 0.964406 0.026145
O O11 0.231303 0.136248 0.174185
O O12 0.255579 0.614221 0.264869
O O13 0.348785 0.530016 0.682549
O O14 0.182607 0.515023 0.338428
O O15 0.591401 0.581746 0.052196
O O16 0.000000 0.000000 0.500000
O O17 0.000000 0.000000 0.000000
O O18 0.000000 0.500000 0.000000
#
# Coordination Sequence:
#
# PCOD9041727 Si02
#       8
#     2   2   2   2   2   2   2   2
#     4  12  25  43  70 106 138 191 243 297 365 444
#     4  11  27  44  71 104 144 191 246 305 370 453
#     4  11  25  50  76 106 146 195 253 314 380 444
#     4  10  24  42  66 100 140 187 235 303 361 439
#     4  10  23  44  66  98 142 184 243 296 368 432
#     4  12  30  50  77 110 156 202 248 312 387 445
#     4  11  26  42  74 100 144 183 247 303 361 441
#     4  11  23  43  73 105 143 192 244 304 373 445
#
# _framework density 23.967067
#
# number of rings (size 3 to 8) (size 9 to 14) (size 15 to 20)
#    0.000    1.000    1.250    3.375   12.250    3.000 
#    0.000    0.000    0.000    0.000    0.000    0.000 
#    0.000    0.000    0.000    0.000    0.000    0.000 
#
# Total GULP energy -89276.463274 kJ/mol
# GULP energy per Si atom -5579.778955 kJ/mol
# Density = 2.391252 g / cm^3
# Si number density = 23.967067 Si / 1000 Ang^3
#
#
#
# Elastic Constant Matrix: (Units=GPa)
#
#
# Indices 1 2 3 4 5 6 
#
# 1 161.9138 46.6557 27.7830 -17.9754 -21.9572 6.6900
# 2 46.6557 136.5197 32.8556 -5.0515 -0.4094 8.0246
# 3 27.7830 32.8556 102.1430 -7.3886 -16.0725 14.7639
# 4 -17.9754 -5.0515 -7.3886 30.7969 14.4732 -5.4688
# 5 -21.9572 -0.4094 -16.0725 14.4732 34.1727 -5.1583
# 6 6.6900 8.0246 14.7639 -5.4688 -5.1583 37.6960
#
#
#
# Elastic Compliance Matrix: (Units=1/GPa)
#
#
# Indices 1 2 3 4 5 6 
#
# 1 0.007721 -0.002411 -0.000607 0.002254 0.003725 0.000217
# 2 -0.002411 0.008813 -0.002492 0.000732 -0.003044 -0.000782
# 3 -0.000607 -0.002492 0.011996 -0.000889 0.005071 -0.003495
# 4 0.002254 0.000732 -0.000889 0.041944 -0.016173 0.003664
# 5 0.003725 -0.003044 0.005071 -0.016173 0.041047 0.001271
# 6 0.000217 -0.000782 -0.003495 0.003664 0.001271 0.028730
#
#
# Mechanical properties :
#
#
# Convention : Reuss Voigt Hill
#
# Bulk Modulus (GPa) = 57.10938 68.35168 62.73053
# Shear Modulus (GPa) = 31.82543 40.08527 35.95535
#
# Velocity S-wave (km/s) = 3.64796 4.09408 3.87744
# Velocity P-wave (km/s) = 6.45163 7.13649 6.80269
#
# Compressibility (1/GPa) = 0.01751026
#
# Stress axis : x y z
#
# Youngs Moduli (GPa) = 129.51047 113.47499 83.36393
#
# Poissons Ratio (x) = 0.27358 0.05060
# Poissons Ratio (y) = 0.31224 0.20772
# Poissons Ratio (z) = 0.07860 0.28275
#
# Static dielectric constant tensor:
#      x y z
#    x 3.458630 -1.332520 1.217380 
#    y -1.332520 3.177120 -1.095780 
#    z 1.217380 -1.095780 2.985200 
# 
# From -- ./inp_files/53085.got.cif
#   From: 2010.05.17/outbox.cif.g08.bks.cpg/sg2_27_cif.got.tgz:53085.got - 2010.06.03 11:33:40.
