data_PCOD9041022
_publ_section_title
;
Structure prediction by ZEFSAII (Michael W. Deem and Ramdas Pophale) SiO2 
 PCOD9041022
Probable space group: P -1
;
_chemical_formula_sum "Si O2"
_cell_formula_units_Z 16
_cell_length_a 18.722571
_cell_length_b 8.214702
_cell_length_c 8.404641
_cell_angle_alpha 73.181157
_cell_angle_beta 30.088624
_cell_angle_gamma 68.846868
_cell_volume 603.658433
_symmetry_space_group_name_H-M "P -1"
_symmetry_group_IT_number 2
_symmetry_cell_setting 'triclinic'
loop_
_space_group_symop_operation_xyz
x,y,z
-x,-y,-z
loop_
_atom_site_type_symbol
_atom_site_label
_atom_site_fract_x
_atom_site_fract_y
_atom_site_fract_z
Si Si1 0.146671 0.323498 0.885062
Si Si2 0.936090 0.066969 0.292828
Si Si3 0.790757 0.325568 0.926332
Si Si4 0.445917 0.824902 0.664239
Si Si5 0.456362 0.315221 0.138195
Si Si6 0.874876 0.297995 0.107769
Si Si7 0.377161 0.314366 0.946059
Si Si8 0.868950 0.814817 0.710741
O O1 0.284838 0.328515 0.508235
O O2 0.070631 0.528800 0.001765
O O3 0.195792 0.238741 0.986128
O O4 0.049534 0.192045 0.050983
O O5 0.809029 0.201712 0.404477
O O6 0.892391 0.003735 0.562906
O O7 0.009350 0.877115 0.128597
O O8 0.963811 0.301701 0.574831
O O9 0.719334 0.163913 0.077709
O O10 0.769783 0.362995 0.144404
O O11 0.700092 0.480681 0.950360
O O12 0.466243 0.775890 0.825044
O O13 0.531703 0.707305 0.387756
O O14 0.500000 0.000000 0.500000
O O15 0.500000 0.500000 0.000000
O O16 0.465112 0.248348 0.956383
O O17 0.241187 0.225473 0.199907
#
# Coordination Sequence:
#
# PCOD9041022 Si02
#       8
#     2   2   2   2   2   2   2   2
#     4  12  25  47  77 109 157 206 260 325 389 474
#     4  10  25  41  70 113 159 197 254 322 391 472
#     4  11  24  45  81 111 156 203 260 319 401 469
#     4  12  29  53  80 113 157 207 261 329 393 471
#     4  12  29  51  80 112 148 212 273 311 390 477
#     4  10  23  43  70 107 157 198 257 311 396 452
#     4  12  26  50  83 109 159 206 262 325 389 471
#     4  11  25  46  79 118 155 204 258 327 403 464
#
# _framework density 26.505054000000001
#
# number of rings (size 3 to 8) (size 9 to 14) (size 15 to 20)
#    0.000    0.750    3.750    1.500   12.250    2.500 
#    2.250    0.000    0.000    0.000    0.000    0.000 
#    0.000    0.000    0.000    0.000    0.000    0.000 
#
# Total GULP energy -89372.232307 kJ/mol
# GULP energy per Si atom -5585.764519 kJ/mol
# Density = 2.644473 g / cm^3
# Si number density = 26.505054 Si / 1000 Ang^3
#
#
#
# Elastic Constant Matrix: (Units=GPa)
#
#
# Indices 1 2 3 4 5 6 
#
# 1 188.2797 50.8707 41.2547 -12.2299 19.8982 17.9422
# 2 50.8707 143.5661 46.5552 -29.8987 10.1321 5.2848
# 3 41.2547 46.5552 106.2781 -13.1325 8.9377 1.4743
# 4 -12.2299 -29.8987 -13.1325 45.8673 -5.0543 5.4939
# 5 19.8982 10.1321 8.9377 -5.0543 49.0439 -21.0913
# 6 17.9422 5.2848 1.4743 5.4939 -21.0913 48.4395
#
#
#
# Elastic Compliance Matrix: (Units=1/GPa)
#
#
# Indices 1 2 3 4 5 6 
#
# 1 0.006879 -0.001373 -0.001615 0.000538 -0.003930 -0.004121
# 2 -0.001373 0.009591 -0.002933 0.005112 -0.000991 -0.001460
# 3 -0.001615 -0.002933 0.011479 0.000849 -0.000665 0.000183
# 4 0.000538 0.005112 0.000849 0.025941 -0.000440 -0.003916
# 5 -0.003930 -0.000991 -0.000665 -0.000440 0.028259 0.013938
# 6 -0.004121 -0.001460 0.000183 -0.003916 0.013938 0.028838
#
#
# Mechanical properties :
#
#
# Convention : Reuss Voigt Hill
#
# Bulk Modulus (GPa) = 62.08211 79.49835 70.79023
# Shear Modulus (GPa) = 39.00194 48.63304 43.81749
#
# Velocity S-wave (km/s) = 3.84016 4.28817 4.07034
# Velocity P-wave (km/s) = 6.56781 7.38760 6.98973
#
# Compressibility (1/GPa) = 0.01610770
#
# Stress axis : x y z
#
# Youngs Moduli (GPa) = 145.37039 104.26053 87.11337
#
# Poissons Ratio (x) = 0.14313 0.14067
# Poissons Ratio (y) = 0.19957 0.25553
# Poissons Ratio (z) = 0.23474 0.30583
#
# Static dielectric constant tensor:
#      x y z
#    x 2.225950 0.029540 0.072880 
#    y 0.029540 2.085270 0.074410 
#    z 0.072880 0.074410 2.219010 
# 
# From -- ./inp_files/343492.got.cif
#   From: 2010.05.17/outbox.cif.g08.bks.cpg/sg2_172_cif.got.tgz:343492.got - 2010.06.03 11:33:40.
