data_PCOD9041334
_publ_section_title
;
Structure prediction by ZEFSAII (Michael W. Deem and Ramdas Pophale) SiO2 
 PCOD9041334
Probable space group: P -1
;
_chemical_formula_sum "Si O2"
_cell_formula_units_Z 16
_cell_length_a 9.252063
_cell_length_b 9.528473
_cell_length_c 12.249918
_cell_angle_alpha 129.416997
_cell_angle_beta 85.728702
_cell_angle_gamma 122.414595
_cell_volume 643.113933
_symmetry_space_group_name_H-M "P -1"
_symmetry_group_IT_number 2
_symmetry_cell_setting 'triclinic'
loop_
_space_group_symop_operation_xyz
x,y,z
-x,-y,-z
loop_
_atom_site_type_symbol
_atom_site_label
_atom_site_fract_x
_atom_site_fract_y
_atom_site_fract_z
Si Si1 0.628664 0.845956 0.851540
Si Si2 0.959533 0.717595 0.882597
Si Si3 0.790874 0.204585 0.662298
Si Si4 0.962717 0.989390 0.624904
Si Si5 0.753716 0.596350 0.612755
Si Si6 0.540132 0.166083 0.925719
Si Si7 0.718733 0.620939 0.045769
Si Si8 0.368147 0.915230 0.613888
O O1 0.616685 0.647835 0.689308
O O2 0.576930 0.984963 0.856387
O O3 0.504869 0.763464 0.926287
O O4 0.842393 0.050059 0.976865
O O5 0.937928 0.485572 0.791970
O O6 0.910461 0.708818 0.755000
O O7 0.803328 0.687850 0.953230
O O8 0.845355 0.084960 0.679350
O O9 0.765161 0.127489 0.497866
O O10 0.582459 0.108112 0.656236
O O11 0.147674 0.169238 0.774769
O O12 0.000000 0.000000 0.500000
O O13 0.668604 0.327580 0.483462
O O14 0.843500 0.736615 0.564617
O O15 0.365447 0.021290 0.779734
O O16 0.713384 0.407956 0.982368
O O17 0.500000 0.500000 0.000000
#
# Coordination Sequence:
#
# PCOD9041334 Si02
#       8
#     2   2   2   2   2   2   2   2
#     4  11  24  42  70 105 145 181 248 302 364 432
#     4  11  23  45  76 100 136 196 247 293 365 438
#     4  10  23  44  70 104 142 193 244 290 368 444
#     4  12  29  45  71 108 150 189 244 309 372 432
#     4  11  25  44  71 106 143 196 240 301 370 440
#     4  11  25  42  70 109 143 191 243 307 359 430
#     4  12  27  45  75 105 144 192 251 307 363 435
#     4  10  23  43  73 104 148 192 239 298 365 439
#
# _framework density 24.878952000000002
#
# number of rings (size 3 to 8) (size 9 to 14) (size 15 to 20)
#    0.000    1.000    2.500    2.625    3.500    7.000 
#    0.000    2.500    0.000    0.000    0.000    0.000 
#    0.000    0.000    0.000    0.000    0.000    0.000 
#
# Total GULP energy -89626.000374 kJ/mol
# GULP energy per Si atom -5601.625023 kJ/mol
# Density = 2.482233 g / cm^3
# Si number density = 24.878952 Si / 1000 Ang^3
#
#
#
# Elastic Constant Matrix: (Units=GPa)
#
#
# Indices 1 2 3 4 5 6 
#
# 1 79.6575 16.2512 -3.0651 -0.7624 6.3970 -16.2973
# 2 16.2512 125.4278 33.2508 -8.6859 -0.7143 -27.4544
# 3 -3.0651 33.2508 104.5101 0.7028 -3.1038 -7.1645
# 4 -0.7624 -8.6859 0.7028 47.9623 -1.7361 -8.8458
# 5 6.3970 -0.7143 -3.1038 -1.7361 21.7124 1.6806
# 6 -16.2973 -27.4544 -7.1645 -8.8458 1.6806 38.9849
#
#
#
# Elastic Compliance Matrix: (Units=1/GPa)
#
#
# Indices 1 2 3 4 5 6 
#
# 1 0.014356 -0.000726 0.000929 0.001043 -0.004509 0.006092
# 2 -0.000726 0.010712 -0.002945 0.003342 -0.000165 0.007464
# 3 0.000929 -0.002945 0.010574 -0.000621 0.001086 0.000070
# 4 0.001043 0.003342 -0.000621 0.022962 0.000943 0.007845
# 5 -0.004509 -0.000165 0.001086 0.000943 0.047893 -0.003652
# 6 0.006092 0.007464 0.000070 0.007845 -0.003652 0.035404
#
#
# Mechanical properties :
#
#
# Convention : Reuss Voigt Hill
#
# Bulk Modulus (GPa) = 33.16015 44.71881 38.93948
# Shear Modulus (GPa) = 31.75850 39.27583 35.51716
#
# Velocity S-wave (km/s) = 3.57672 3.97757 3.78246
# Velocity P-wave (km/s) = 5.51496 6.25366 5.89589
#
# Compressibility (1/GPa) = 0.03015668
#
# Stress axis : x y z
#
# Youngs Moduli (GPa) = 69.65699 93.35432 94.57253
#
# Poissons Ratio (x) = 0.06780 -0.08784
# Poissons Ratio (y) = 0.05059 0.27852
# Poissons Ratio (z) = -0.06470 0.27493
#
# Static dielectric constant tensor:
#      x y z
#    x 2.037690 -0.024630 -0.055200 
#    y -0.024630 1.940690 -0.059800 
#    z -0.055200 -0.059800 1.973810 
# 
# From -- ./inp_files/500978.got.cif
#   From: 2010.05.17/outbox.cif.g08.bks.cpg/sg2_251_cif.got.tgz:500978.got - 2010.06.03 11:33:40.
