data_PCOD9041666
_publ_section_title
;
Structure prediction by ZEFSAII (Michael W. Deem and Ramdas Pophale) SiO2 
 PCOD9041666
Probable space group: P -1
;
_chemical_formula_sum "Si O2"
_cell_formula_units_Z 16
_cell_length_a 14.667299
_cell_length_b 11.386571
_cell_length_c 14.722787
_cell_angle_alpha 133.256565
_cell_angle_beta 151.759417
_cell_angle_gamma 65.283056
_cell_volume 714.010625
_symmetry_space_group_name_H-M "P -1"
_symmetry_group_IT_number 2
_symmetry_cell_setting 'triclinic'
loop_
_space_group_symop_operation_xyz
x,y,z
-x,-y,-z
loop_
_atom_site_type_symbol
_atom_site_label
_atom_site_fract_x
_atom_site_fract_y
_atom_site_fract_z
Si Si1 0.853045 0.208385 0.354200
Si Si2 0.388443 0.790522 0.538839
Si Si3 0.108146 0.736394 0.099462
Si Si4 0.613476 0.614485 0.538950
Si Si5 0.503001 0.778319 0.831635
Si Si6 0.853438 0.190695 0.134392
Si Si7 0.730339 0.840898 0.578839
Si Si8 0.230402 0.569310 0.955353
O O1 0.656564 0.241619 0.235767
O O2 0.895050 0.256241 0.310140
O O3 0.081911 0.345826 0.684353
O O4 0.741617 0.981508 0.149901
O O5 0.171731 0.738575 0.261030
O O6 0.469990 0.651521 0.503977
O O7 0.373831 0.786175 0.631784
O O8 0.599470 0.001452 0.809103
O O9 0.242963 0.955965 0.300351
O O10 0.184056 0.621423 0.042235
O O11 0.844806 0.651713 0.805632
O O12 0.483318 0.406356 0.267864
O O13 0.694248 0.772302 0.614417
O O14 0.861912 0.338321 0.147853
O O15 0.043167 0.143974 0.250521
O O16 0.502215 0.678351 0.241276
#
# Coordination Sequence:
#
# PCOD9041666 Si02
#       8
#     2   2   2   2   2   2   2   2
#     4  10  23  44  66  88 124 177 228 257 303 368
#     4  11  23  40  67  98 131 166 208 262 323 382
#     4  12  22  38  66 102 133 160 200 262 334 388
#     4  12  22  39  67  98 132 168 203 261 328 383
#     4  10  23  45  67  89 125 178 223 260 304 369
#     4  11  22  40  66  96 131 169 208 263 320 379
#     4  12  23  37  67 102 135 158 203 264 333 387
#     4  12  22  39  67  97 131 169 203 264 327 382
#
# _framework density 22.408631
#
# number of rings (size 3 to 8) (size 9 to 14) (size 15 to 20)
#    0.000    0.750    6.250    2.250    0.000    1.000 
#    0.000    0.625    0.000    0.000    0.000    0.000 
#    0.000    0.000    0.000    0.000    0.000    0.000 
#
# Total GULP energy -89593.204211 kJ/mol
# GULP energy per Si atom -5599.575263 kJ/mol
# Density = 2.235763 g / cm^3
# Si number density = 22.408631 Si / 1000 Ang^3
#
#
#
# Elastic Constant Matrix: (Units=GPa)
#
#
# Indices 1 2 3 4 5 6 
#
# 1 83.9273 3.6398 9.2997 -2.1245 -19.3585 9.4894
# 2 3.6398 43.4465 26.9044 2.5283 -3.5585 0.8003
# 3 9.2997 26.9044 142.5545 12.1556 -6.9316 1.1410
# 4 -2.1245 2.5283 12.1556 38.0616 -1.0664 3.7374
# 5 -19.3585 -3.5585 -6.9316 -1.0664 29.5805 3.1044
# 6 9.4894 0.8003 1.1410 3.7374 3.1044 23.0872
#
#
#
# Elastic Compliance Matrix: (Units=1/GPa)
#
#
# Indices 1 2 3 4 5 6 
#
# 1 0.015477 -0.000009 -0.000596 0.002161 0.010921 -0.008150
# 2 -0.000009 0.026202 -0.004830 -0.000047 0.002112 -0.000942
# 3 -0.000596 -0.004830 0.008203 -0.002335 0.000838 0.000272
# 4 0.002161 -0.000047 -0.002335 0.027761 0.002449 -0.005595
# 5 0.010921 0.002112 0.000838 0.002449 0.042618 -0.010730
# 6 -0.008150 -0.000942 0.000272 -0.005595 -0.010730 0.049031
#
#
# Mechanical properties :
#
#
# Convention : Reuss Voigt Hill
#
# Bulk Modulus (GPa) = 25.63345 38.84623 32.23984
# Shear Modulus (GPa) = 25.88455 33.48485 29.68470
#
# Velocity S-wave (km/s) = 3.40239 3.86979 3.64359
# Velocity P-wave (km/s) = 5.18642 6.11065 5.66741
#
# Compressibility (1/GPa) = 0.03901152
#
# Stress axis : x y z
#
# Youngs Moduli (GPa) = 64.61342 38.16540 121.90526
#
# Poissons Ratio (x) = 0.00033 0.07266
# Poissons Ratio (y) = 0.00056 0.58884
# Poissons Ratio (z) = 0.03851 0.18435
#
# Static dielectric constant tensor:
#      x y z
#    x 1.799520 0.032100 0.000060 
#    y 0.032100 1.826410 0.028200 
#    z 0.000060 0.028200 1.847540 
# 
# From -- ./inp_files/455493.got.cif
#   From: 2010.05.17/outbox.cif.g08.bks.cpg/sg2_228_cif.got.tgz:455493.got - 2010.06.03 11:33:40.
