data_PCOD9041578
_publ_section_title
;
Structure prediction by ZEFSAII (Michael W. Deem and Ramdas Pophale) SiO2 
 PCOD9041578
Probable space group: P -1
;
_chemical_formula_sum "Si O2"
_cell_formula_units_Z 15
_cell_length_a 4.995819
_cell_length_b 8.252863
_cell_length_c 17.023166
_cell_angle_alpha 98.414918
_cell_angle_beta 60.077902
_cell_angle_gamma 103.187882
_cell_volume 591.823620
_symmetry_space_group_name_H-M "P -1"
_symmetry_group_IT_number 2
_symmetry_cell_setting 'triclinic'
loop_
_space_group_symop_operation_xyz
x,y,z
-x,-y,-z
loop_
_atom_site_type_symbol
_atom_site_label
_atom_site_fract_x
_atom_site_fract_y
_atom_site_fract_z
Si Si1 0.237245 0.494916 0.347228
Si Si2 0.500000 0.000000 0.500000
Si Si3 0.751319 0.885730 0.970901
Si Si4 0.567070 0.095333 0.354790
Si Si5 0.058501 0.266192 0.507871
Si Si6 0.980105 0.671554 0.791707
Si Si7 0.644936 0.777142 0.240119
Si Si8 0.730368 0.325509 0.869568
O O1 0.170309 0.384450 0.426416
O O2 0.212398 0.387383 0.263972
O O3 0.555258 0.628981 0.306000
O O4 0.976636 0.617459 0.404352
O O5 0.221909 0.965434 0.611975
O O6 0.277256 0.843475 0.470123
O O7 0.893599 0.820921 0.866739
O O8 0.541101 0.721585 0.029863
O O9 0.500000 0.000000 0.000000
O O10 0.000000 0.000000 0.000000
O O11 0.322918 0.145489 0.462742
O O12 0.693343 0.252465 0.293718
O O13 0.517164 0.942284 0.293190
O O14 0.923651 0.513509 0.846915
O O15 0.455813 0.710201 0.186186
O O16 0.011821 0.793293 0.170562
#
# Coordination Sequence:
#
# PCOD9041578 Si02
#       8
#     2   1   2   2   2   2   2   2
#     4  10  23  44  65 101 139 187 239 292 356 412
#     4  12  24  40  64  96 140 182 246 294 352 406
#     4  12  27  50  78 110 144 183 232 293 363 429
#     4  12  25  41  66 100 134 193 237 292 348 412
#     4  11  24  43  64  95 140 188 241 296 352 412
#     4  11  25  46  74 102 142 183 237 291 354 432
#     4  11  25  43  73 104 143 186 238 290 345 424
#     4  11  25  47  72 108 143 184 229 294 356 421
#
# _framework density 25.345390999999999
#
# number of rings (size 3 to 8) (size 9 to 14) (size 15 to 20)
#    0.000    0.800    2.667    4.000    1.867    5.867 
#    0.000    4.667    0.000    0.000    0.000    0.000 
#    0.000    0.000    0.000    0.000    0.000    0.000 
#
# Total GULP energy -83552.984815 kJ/mol
# GULP energy per Si atom -5570.198988 kJ/mol
# Density = 2.528770 g / cm^3
# Si number density = 25.345391 Si / 1000 Ang^3
#
#
#
# Elastic Constant Matrix: (Units=GPa)
#
#
# Indices 1 2 3 4 5 6 
#
# 1 55.8444 -83.1924 165.0478 -250.6517 91.3807 -135.4230
# 2 -83.1924 -125.9500 345.4541 -640.1632 240.4827 -322.3552
# 3 165.0478 345.4541 -166.2613 733.1416 -291.8542 377.0852
# 4 -250.6517 -640.1632 733.1416-1495.5760 609.1587 -796.6158
# 5 91.3807 240.4827 -291.8542 609.1587 -201.9011 308.6047
# 6 -135.4230 -322.3552 377.0852 -796.6158 308.6047 -387.5074
#
#
#
# Elastic Compliance Matrix: (Units=1/GPa)
#
#
# Indices 1 2 3 4 5 6 
#
# 1 0.011934 -0.001212 -0.002399 -0.002283 0.003179 0.001729
# 2 -0.001212 0.008005 -0.001379 -0.001055 0.002166 -0.003683
# 3 -0.002399 -0.001379 0.006129 0.002273 -0.001283 0.002255
# 4 -0.002283 -0.001055 0.002273 0.008940 0.003461 -0.011735
# 5 0.003179 0.002166 -0.001283 0.003461 0.027031 0.010250
# 6 0.001729 -0.003683 0.002255 -0.011735 0.010250 0.034361
#
#
# Mechanical properties :
#
#
# Convention : Reuss Voigt Hill
#
# Bulk Modulus (GPa) = 62.15209 68.69468 65.42339
# Shear Modulus (GPa) = 44.74560 -461.24201 -208.24820
#
# Velocity S-wave (km/s) = 4.20626 -13.50473 -9.07428
# Velocity P-wave (km/s) = 6.94014 14.69721 9.16085
#
# Compressibility (1/GPa) = 0.01608956
#
# Stress axis : x y z
#
# Youngs Moduli (GPa) = 83.79693 124.91471 163.15400
#
# Poissons Ratio (x) = 0.15140 0.39135
# Poissons Ratio (y) = 0.10156 0.22494
# Poissons Ratio (z) = 0.20100 0.17222
#
# Static dielectric constant tensor:
#      x y z
#    x 2.206910 -0.168570 -0.000190 
#    y -0.168570 2.220850 -0.110630 
#    z -0.000190 -0.110630 2.083600 
# 
# From -- ./inp_files/141118.got.cif
#   From: 2010.05.17/outbox.cif.g08.bks.cpg/sg2_71_cif.got.tgz:141118.got - 2010.06.03 11:33:40.
