data_PCOD9041886
_publ_section_title
;
Structure prediction by ZEFSAII (Michael W. Deem and Ramdas Pophale) SiO2 
 PCOD9041886
Probable space group: P -1
;
_chemical_formula_sum "Si O2"
_cell_formula_units_Z 16
_cell_length_a 11.293623
_cell_length_b 9.670984
_cell_length_c 9.597190
_cell_angle_alpha 137.771217
_cell_angle_beta 80.026452
_cell_angle_gamma 102.933545
_cell_volume 686.576497
_symmetry_space_group_name_H-M "P -1"
_symmetry_group_IT_number 2
_symmetry_cell_setting 'triclinic'
loop_
_space_group_symop_operation_xyz
x,y,z
-x,-y,-z
loop_
_atom_site_type_symbol
_atom_site_label
_atom_site_fract_x
_atom_site_fract_y
_atom_site_fract_z
Si Si1 0.549495 0.193396 0.731572
Si Si2 0.990894 0.280065 0.258051
Si Si3 0.833968 0.750391 0.574878
Si Si4 0.298639 0.888089 0.112917
Si Si5 0.281471 0.948125 0.842755
Si Si6 0.643870 0.605219 0.941472
Si Si7 0.066501 0.546046 0.874576
Si Si8 0.388821 0.548587 0.467583
O O1 0.584859 0.132456 0.834276
O O2 0.665458 0.369682 0.800450
O O3 0.500000 0.000000 0.500000
O O4 0.436696 0.320591 0.863020
O O5 0.855527 0.167044 0.218219
O O6 0.008974 0.332279 0.130038
O O7 0.000000 0.500000 0.500000
O O8 0.083809 0.169415 0.247627
O O9 0.908469 0.656432 0.368367
O O10 0.732358 0.572417 0.525506
O O11 0.768050 0.935313 0.670798
O O12 0.325808 0.963395 0.005684
O O13 0.198701 0.682931 0.970859
O O14 0.363690 0.786947 0.637967
O O15 0.277479 0.173039 0.943886
O O16 0.587792 0.545894 0.757084
O O17 0.000000 0.500000 0.000000
O O18 0.500000 0.500000 0.500000
#
# Coordination Sequence:
#
# PCOD9041886 Si02
#       8
#     2   2   2   2   2   2   2   2
#     4  11  27  49  66  98 153 189 231 296 366 440
#     4   9  19  43  70  98 144 179 243 297 352 411
#     4  11  23  43  71 104 140 189 240 301 350 423
#     4  11  24  44  69 100 139 184 233 294 361 424
#     4  11  22  43  73 107 135 185 243 301 347 424
#     4  11  26  43  70 104 133 190 240 287 361 426
#     4  10  23  44  68 100 142 189 236 296 364 429
#     4  12  24  39  73 107 140 180 239 299 354 419
#
# _framework density 23.304030999999998
#
# number of rings (size 3 to 8) (size 9 to 14) (size 15 to 20)
#    0.000    1.250    5.000    1.500    3.500    5.500 
#    6.750    0.000    0.000    0.000    0.000    0.000 
#    0.000    0.000    0.000    0.000    0.000    0.000 
#
# Total GULP energy -89266.333791 kJ/mol
# GULP energy per Si atom -5579.145862 kJ/mol
# Density = 2.325099 g / cm^3
# Si number density = 23.304031 Si / 1000 Ang^3
#
#
#
# Elastic Constant Matrix: (Units=GPa)
#
#
# Indices 1 2 3 4 5 6 
#
# 1 51.2407 23.6059 29.1847 5.2022 5.5787 -0.8182
# 2 23.6059 105.2778 46.1565 8.8379 12.7296 23.4514
# 3 29.1847 46.1565 143.6730 11.1194 -11.9216 8.2148
# 4 5.2022 8.8379 11.1194 43.7680 -0.4469 -6.5109
# 5 5.5787 12.7296 -11.9216 -0.4469 36.1265 1.0408
# 6 -0.8182 23.4514 8.2148 -6.5109 1.0408 22.0756
#
#
#
# Elastic Compliance Matrix: (Units=1/GPa)
#
#
# Indices 1 2 3 4 5 6 
#
# 1 0.024749 -0.005137 -0.004173 0.000338 -0.003621 0.008197
# 2 -0.005137 0.017547 -0.003664 -0.004832 -0.006123 -0.018604
# 3 -0.004173 -0.003664 0.009521 -0.001190 0.005074 -0.000395
# 4 0.000338 -0.004832 -0.001190 0.026064 0.001199 0.013219
# 5 -0.003621 -0.006123 0.005074 0.001199 0.031990 0.003327
# 6 0.008197 -0.018604 -0.000395 0.013219 0.003327 0.069255
#
#
# Mechanical properties :
#
#
# Convention : Reuss Voigt Hill
#
# Bulk Modulus (GPa) = 38.65401 55.34285 46.99843
# Shear Modulus (GPa) = 23.39771 33.81031 28.60401
#
# Velocity S-wave (km/s) = 3.17207 3.81312 3.50727
# Velocity P-wave (km/s) = 5.48077 6.57162 6.05083
#
# Compressibility (1/GPa) = 0.02587054
#
# Stress axis : x y z
#
# Youngs Moduli (GPa) = 40.40502 56.99020 105.03466
#
# Poissons Ratio (x) = 0.29273 0.43826
# Poissons Ratio (y) = 0.20754 0.38486
# Poissons Ratio (z) = 0.16859 0.20882
#
# Static dielectric constant tensor:
#      x y z
#    x 2.006790 0.017180 -0.048290 
#    y 0.017180 1.981660 0.041450 
#    z -0.048290 0.041450 1.892990 
# 
# From -- ./inp_files/246007.got.cif
#   From: 2010.05.17/outbox.cif.g08.bks.cpg/sg2_124_cif.got.tgz:246007.got - 2010.06.03 11:33:40.
