data_PCOD9041862
_publ_section_title
;
Structure prediction by ZEFSAII (Michael W. Deem and Ramdas Pophale) SiO2 
 PCOD9041862
Probable space group: P -1
;
_chemical_formula_sum "Si O2"
_cell_formula_units_Z 16
_cell_length_a 14.319459
_cell_length_b 14.634830
_cell_length_c 10.810196
_cell_angle_alpha 40.024265
_cell_angle_beta 54.703483
_cell_angle_gamma 29.589754
_cell_volume 691.169478
_symmetry_space_group_name_H-M "P -1"
_symmetry_group_IT_number 2
_symmetry_cell_setting 'triclinic'
loop_
_space_group_symop_operation_xyz
x,y,z
-x,-y,-z
loop_
_atom_site_type_symbol
_atom_site_label
_atom_site_fract_x
_atom_site_fract_y
_atom_site_fract_z
Si Si1 0.962350 0.239202 0.771458
Si Si2 0.264806 0.220754 0.214723
Si Si3 0.047976 0.094809 0.135312
Si Si4 0.351235 0.452065 0.907551
Si Si5 0.171388 0.268972 0.948384
Si Si6 0.641240 0.718668 0.392967
Si Si7 0.669509 0.440242 0.463763
Si Si8 0.665410 0.282841 0.000839
O O1 0.837096 0.497785 0.552630
O O2 0.797740 0.280515 0.855656
O O3 0.032535 0.170215 0.930594
O O4 0.160975 0.999093 0.793614
O O5 0.043677 0.440666 0.209153
O O6 0.442204 0.933025 0.402665
O O7 0.348737 0.290095 0.113446
O O8 0.233211 0.240586 0.070137
O O9 0.828400 0.296035 0.143684
O O10 0.154514 0.838031 0.337675
O O11 0.147630 0.123251 0.105231
O O12 0.299259 0.515101 0.737710
O O13 0.547854 0.330403 0.927824
O O14 0.320870 0.181647 0.824867
O O15 0.622884 0.605654 0.429427
O O16 0.500000 0.500000 0.500000
O O17 0.500000 0.500000 0.000000
#
# Coordination Sequence:
#
# PCOD9041862 Si02
#       8
#     2   2   2   2   2   2   2   2
#     4  11  25  44  65  99 136 179 228 265 334 409
#     4  10  23  44  67  99 136 174 221 274 338 401
#     4  11  24  45  67  99 137 174 228 276 332 403
#     4  11  23  43  70  98 131 177 223 281 342 392
#     4  10  23  44  69  95 137 179 219 275 334 398
#     4  12  25  42  69  98 139 177 222 275 331 400
#     4  12  24  40  68 106 131 169 228 284 340 395
#     4  11  23  44  68  94 137 181 219 279 338 394
#
# _framework density 23.149170999999999
#
# number of rings (size 3 to 8) (size 9 to 14) (size 15 to 20)
#    0.000    1.000    2.500    4.500    3.500    1.500 
#    2.250    1.250    0.000    0.000    0.000    0.000 
#    0.000    0.000    0.000    0.000    0.000    0.000 
#
# Total GULP energy -89471.330008 kJ/mol
# GULP energy per Si atom -5591.958126 kJ/mol
# Density = 2.309648 g / cm^3
# Si number density = 23.149171 Si / 1000 Ang^3
#
#
#
# Elastic Constant Matrix: (Units=GPa)
#
#
# Indices 1 2 3 4 5 6 
#
# 1 88.0177 11.6824 5.5368 -9.9214 5.0551 -8.5829
# 2 11.6824 110.6824 24.0267 -39.9368 10.0015 -7.0126
# 3 5.5368 24.0267 64.2917 -32.6903 15.2345 -0.9710
# 4 -9.9214 -39.9368 -32.6903 39.7568 2.0411 -1.5221
# 5 5.0551 10.0015 15.2345 2.0411 25.5850 5.3221
# 6 -8.5829 -7.0126 -0.9710 -1.5221 5.3221 26.2352
#
#
#
# Elastic Compliance Matrix: (Units=1/GPa)
#
#
# Indices 1 2 3 4 5 6 
#
# 1 0.013535 0.003677 0.007593 0.014250 -0.011616 0.008875
# 2 0.003677 0.023312 0.019477 0.042425 -0.028221 0.016341
# 3 0.007593 0.019477 0.058110 0.073018 -0.054780 0.025190
# 4 0.014250 0.042425 0.073018 0.137285 -0.082875 0.043482
# 5 -0.011616 -0.028221 -0.054780 -0.082875 0.099628 -0.038390
# 6 0.008875 0.016341 0.025190 0.043482 -0.038390 0.056631
#
#
# Mechanical properties :
#
#
# Convention : Reuss Voigt Hill
#
# Bulk Modulus (GPa) = 6.39183 38.38706 22.38945
# Shear Modulus (GPa) = 13.18712 33.09847 23.14280
#
# Velocity S-wave (km/s) = 2.38934 3.78536 3.16527
# Velocity P-wave (km/s) = 3.22166 5.97693 4.80119
#
# Compressibility (1/GPa) = 0.15644972
#
# Stress axis : x y z
#
# Youngs Moduli (GPa) = 73.88511 42.89629 17.20875
#
# Poissons Ratio (x) = -0.15773 -0.13066
# Poissons Ratio (y) = -0.27168 -0.33517
# Poissons Ratio (z) = -0.56098 -0.83549
#
# Static dielectric constant tensor:
#      x y z
#    x 1.863430 0.016690 0.026910 
#    y 0.016690 1.890100 -0.021330 
#    z 0.026910 -0.021330 1.945310 
# 
# From -- ./inp_files/455462.got.cif
#   From: 2010.05.17/outbox.cif.g08.bks.cpg/sg2_228_cif.got.tgz:455462.got - 2010.06.03 11:33:40.
