data_PCOD9041096
_publ_section_title
;
Structure prediction by ZEFSAII (Michael W. Deem and Ramdas Pophale) SiO2 
 PCOD9041096
Probable space group: P -1
;
_chemical_formula_sum "Si O2"
_cell_formula_units_Z 16
_cell_length_a 15.909935
_cell_length_b 8.048249
_cell_length_c 5.796807
_cell_angle_alpha 110.797354
_cell_angle_beta 108.650557
_cell_angle_gamma 96.618872
_cell_volume 635.145340
_symmetry_space_group_name_H-M "P -1"
_symmetry_group_IT_number 2
_symmetry_cell_setting 'triclinic'
loop_
_space_group_symop_operation_xyz
x,y,z
-x,-y,-z
loop_
_atom_site_type_symbol
_atom_site_label
_atom_site_fract_x
_atom_site_fract_y
_atom_site_fract_z
Si Si1 0.141962 0.179502 0.209155
Si Si2 0.079440 0.688237 0.667515
Si Si3 0.374700 0.172388 0.762390
Si Si4 0.964188 0.165453 0.800160
Si Si5 0.413240 0.524316 0.298168
Si Si6 0.572739 0.179112 0.883810
Si Si7 0.740618 0.051480 0.082356
Si Si8 0.690418 0.548067 0.422855
O O1 0.203389 0.357822 0.479792
O O2 0.080640 0.048884 0.283855
O O3 0.072399 0.216848 0.974736
O O4 0.205687 0.072460 0.072502
O O5 0.057187 0.787298 0.456419
O O6 0.190530 0.744810 0.761188
O O7 0.000000 0.500000 0.500000
O O8 0.071889 0.745620 0.960334
O O9 0.354088 0.278396 0.571109
O O10 0.288206 0.026135 0.723798
O O11 0.395444 0.354248 0.027774
O O12 0.466634 0.102678 0.820541
O O13 0.500000 0.500000 0.500000
O O14 0.319600 0.497361 0.340634
O O15 0.435517 0.728157 0.321244
O O16 0.642605 0.053579 0.887477
O O17 0.627103 0.363298 0.163528
#
# Coordination Sequence:
#
# PCOD9041096 Si02
#       8
#     2   2   2   2   2   2   2   2
#     4  10  23  43  70  99 130 179 228 280 338 421
#     4  11  25  47  72 105 143 175 224 292 354 416
#     4  11  21  40  65  89 132 178 225 269 327 404
#     4  10  24  46  75  99 137 185 228 279 357 418
#     4  11  19  40  63  89 127 174 225 269 327 396
#     4  11  24  39  63  96 133 176 223 278 336 387
#     4  11  25  43  63 101 136 169 223 287 339 403
#     4  11  21  39  67  92 124 176 226 273 324 407
#
# _framework density 25.191084
#
# number of rings (size 3 to 8) (size 9 to 14) (size 15 to 20)
#    0.000    1.250    3.750    2.250    1.750    6.500 
#    6.750    1.250    0.000    0.000    0.000    0.000 
#    0.000    0.000    0.000    0.000    0.000    0.000 
#
# Total GULP energy -89188.592770 kJ/mol
# GULP energy per Si atom -5574.287048 kJ/mol
# Density = 2.513375 g / cm^3
# Si number density = 25.191084 Si / 1000 Ang^3
#
#
#
# Elastic Constant Matrix: (Units=GPa)
#
#
# Indices 1 2 3 4 5 6 
#
# 1 113.9411 27.0244 12.1693 5.9365 11.2102 21.0774
# 2 27.0244 44.2328 13.7394 5.6589 -16.0723 19.3528
# 3 12.1693 13.7394 66.4859 9.3693 4.1023 6.8498
# 4 5.9365 5.6589 9.3693 52.7423 6.3305 9.1702
# 5 11.2102 -16.0723 4.1023 6.3305 31.0146 3.3947
# 6 21.0774 19.3528 6.8498 9.1702 3.3947 38.8856
#
#
#
# Elastic Compliance Matrix: (Units=1/GPa)
#
#
# Indices 1 2 3 4 5 6 
#
# 1 0.012621 -0.011947 0.000716 0.001115 -0.011040 -0.000320
# 2 -0.011947 0.057179 -0.009111 -0.003815 0.038432 -0.022832
# 3 0.000716 -0.009111 0.017251 -0.001679 -0.007152 0.002128
# 4 0.001115 -0.003815 -0.001679 0.020755 -0.006091 -0.002773
# 5 -0.011040 0.038432 -0.007152 -0.006091 0.060056 -0.015689
# 6 -0.000320 -0.022832 0.002128 -0.002773 -0.015689 0.038902
#
#
# Mechanical properties :
#
#
# Convention : Reuss Voigt Hill
#
# Bulk Modulus (GPa) = 21.56724 36.72514 29.14619
# Shear Modulus (GPa) = 19.01832 35.97695 27.49763
#
# Velocity S-wave (km/s) = 2.75064 3.78320 3.30746
# Velocity P-wave (km/s) = 4.32066 5.80463 5.11673
#
# Compressibility (1/GPa) = 0.04636661
#
# Stress axis : x y z
#
# Youngs Moduli (GPa) = 79.23265 17.48896 57.96702
#
# Poissons Ratio (x) = 0.20895 -0.04150
# Poissons Ratio (y) = 0.94663 0.52812
# Poissons Ratio (z) = -0.05673 0.15934
#
# Static dielectric constant tensor:
#      x y z
#    x 2.031090 -0.001000 -0.038150 
#    y -0.001000 2.013740 -0.005800 
#    z -0.038150 -0.005800 2.080540 
# 
# From -- ./inp_files/90831.got.cif
#   From: 2010.05.17/outbox.cif.g08.bks.cpg/sg2_46_cif.got.tgz:90831.got - 2010.06.03 11:33:40.
