data_PCOD9041485
_publ_section_title
;
Structure prediction by ZEFSAII (Michael W. Deem and Ramdas Pophale) SiO2 
 PCOD9041485
Probable space group: P -1
;
_chemical_formula_sum "Si O2"
_cell_formula_units_Z 16
_cell_length_a 23.014665
_cell_length_b 13.939289
_cell_length_c 7.256000
_cell_angle_alpha 135.320200
_cell_angle_beta 40.813946
_cell_angle_gamma 157.667003
_cell_volume 577.568983
_symmetry_space_group_name_H-M "P -1"
_symmetry_group_IT_number 2
_symmetry_cell_setting 'triclinic'
loop_
_space_group_symop_operation_xyz
x,y,z
-x,-y,-z
loop_
_atom_site_type_symbol
_atom_site_label
_atom_site_fract_x
_atom_site_fract_y
_atom_site_fract_z
Si Si1 0.382393 0.595760 0.037072
Si Si2 0.208249 0.506717 0.015248
Si Si3 0.516743 0.752050 0.313687
Si Si4 0.173967 0.696623 0.613014
Si Si5 0.261848 0.216361 0.318662
Si Si6 0.166791 0.630045 0.960129
Si Si7 0.281488 0.078681 0.426301
Si Si8 0.885705 0.956246 0.941569
O O1 0.521667 0.673152 0.731369
O O2 0.214417 0.302903 0.097902
O O3 0.344511 0.646346 0.029286
O O4 0.453950 0.739223 0.256542
O O5 0.120517 0.521252 0.348218
O O6 0.252464 0.626854 0.875244
O O7 0.070687 0.213846 0.916951
O O8 0.372102 0.495769 0.428278
O O9 0.646094 0.012348 0.463971
O O10 0.621074 0.756841 0.994434
O O11 0.030635 0.623313 0.879957
O O12 0.188561 0.647415 0.713101
O O13 0.207736 0.092636 0.476913
O O14 0.127168 0.057121 0.266180
O O15 0.225523 0.855183 0.195040
O O16 0.220177 0.054483 0.734762
#
# Coordination Sequence:
#
# PCOD9041485 Si02
#       8
#     2   2   2   2   2   2   2   2
#     4  10  23  44  61  93 131 159 208 261 310 374
#     4  12  26  40  64  93 128 174 199 248 325 375
#     4   9  18  37  61  86 120 161 200 253 307 355
#     4  11  22  42  63  91 127 161 215 260 299 369
#     4   9  19  37  64  92 119 155 210 267 304 349
#     4  11  24  39  64  95 127 163 210 258 303 374
#     4  11  22  42  65  96 123 160 212 263 308 358
#     4  11  23  41  69  92 120 166 213 258 309 365
#
# _framework density 27.702317000000001
#
# number of rings (size 3 to 8) (size 9 to 14) (size 15 to 20)
#    0.000    1.500    3.750    2.625    3.500    1.000 
#    0.000    5.000    0.000    5.250    0.000    0.000 
#    0.000    0.000    0.000    0.000    0.000    0.000 
#
# Total GULP energy -89788.895194 kJ/mol
# GULP energy per Si atom -5611.805950 kJ/mol
# Density = 2.763927 g / cm^3
# Si number density = 27.702317 Si / 1000 Ang^3
#
#
#
# Elastic Constant Matrix: (Units=GPa)
#
#
# Indices 1 2 3 4 5 6 
#
# 1 214.2103 35.9059 28.8177 2.2587 14.4202 1.7677
# 2 35.9059 135.9781 16.2016 11.8618 -1.8325 0.4196
# 3 28.8177 16.2016 74.3851 -6.6767 13.8283 2.4428
# 4 2.2587 11.8618 -6.6767 39.9558 5.2201 -1.7433
# 5 14.4202 -1.8325 13.8283 5.2201 37.2151 1.9783
# 6 1.7677 0.4196 2.4428 -1.7433 1.9783 34.5208
#
#
#
# Elastic Compliance Matrix: (Units=1/GPa)
#
#
# Indices 1 2 3 4 5 6 
#
# 1 0.005170 -0.001215 -0.001451 0.000022 -0.001524 -0.000059
# 2 -0.001215 0.008193 -0.001950 -0.002961 0.002023 -0.000165
# 3 -0.001451 -0.001950 0.015928 0.004086 -0.006000 -0.000479
# 4 0.000022 -0.002961 0.004086 0.027382 -0.005590 0.001449
# 5 -0.001524 0.002023 -0.006000 -0.005590 0.030658 -0.001561
# 6 -0.000059 -0.000165 -0.000479 0.001449 -0.001561 0.029170
#
#
# Mechanical properties :
#
#
# Convention : Reuss Voigt Hill
#
# Bulk Modulus (GPa) = 49.85199 65.15820 57.50509
# Shear Modulus (GPa) = 37.75883 45.24823 41.50353
#
# Velocity S-wave (km/s) = 3.69592 4.04589 3.87485
# Velocity P-wave (km/s) = 6.02061 6.73777 6.38926
#
# Compressibility (1/GPa) = 0.02005938
#
# Stress axis : x y z
#
# Youngs Moduli (GPa) = 193.42548 122.05075 62.78079
#
# Poissons Ratio (x) = 0.14824 0.09110
# Poissons Ratio (y) = 0.23493 0.12245
# Poissons Ratio (z) = 0.28069 0.23806
#
# Static dielectric constant tensor:
#      x y z
#    x 2.120670 -0.010710 -0.061280 
#    y -0.010710 2.125730 -0.031030 
#    z -0.061280 -0.031030 2.140210 
# 
# From -- ./inp_files/354586.got.cif
#   From: 2010.05.17/outbox.cif.g08.bks.cpg/sg2_178_cif.got.tgz:354586.got - 2010.06.03 11:33:40.
