data_PCOD9041765
_publ_section_title
;
Structure prediction by ZEFSAII (Michael W. Deem and Ramdas Pophale) SiO2 
 PCOD9041765
Probable space group: P -1
;
_chemical_formula_sum "Si O2"
_cell_formula_units_Z 16
_cell_length_a 11.344575
_cell_length_b 12.132043
_cell_length_c 11.018072
_cell_angle_alpha 119.087057
_cell_angle_beta 129.248269
_cell_angle_gamma 100.998735
_cell_volume 694.299200
_symmetry_space_group_name_H-M "P -1"
_symmetry_group_IT_number 2
_symmetry_cell_setting 'triclinic'
loop_
_space_group_symop_operation_xyz
x,y,z
-x,-y,-z
loop_
_atom_site_type_symbol
_atom_site_label
_atom_site_fract_x
_atom_site_fract_y
_atom_site_fract_z
Si Si1 0.562523 0.749523 0.178934
Si Si2 0.460859 0.297830 0.244894
Si Si3 0.149124 0.317955 0.636376
Si Si4 0.658442 0.984228 0.140878
Si Si5 0.932149 0.573225 0.582322
Si Si6 0.840937 0.182305 0.912821
Si Si7 0.546274 0.207970 0.619329
Si Si8 0.317368 0.470151 0.250973
O O1 0.759535 0.765248 0.319515
O O2 0.565912 0.839783 0.111302
O O3 0.570532 0.835642 0.351473
O O4 0.331951 0.529061 0.914590
O O5 0.706006 0.403114 0.416647
O O6 0.388515 0.385926 0.184117
O O7 0.497706 0.367734 0.443355
O O8 0.303682 0.089186 0.986946
O O9 0.124394 0.339695 0.490013
O O10 0.897464 0.181916 0.447853
O O11 0.500000 0.000000 0.000000
O O12 0.000000 0.500000 0.500000
O O13 0.117651 0.721543 0.881847
O O14 0.721149 0.202623 0.750982
O O15 0.659956 0.960519 0.690837
O O16 0.085596 0.300427 0.080266
O O17 0.685180 0.413883 0.778008
#
# Coordination Sequence:
#
# PCOD9041765 Si02
#       8
#     2   2   2   2   2   2   2   2
#     4  11  26  47  66 107 143 185 239 290 368 424
#     4  10  23  44  67 101 140 175 239 288 352 429
#     4  11  25  42  72  98 145 189 227 301 356 426
#     4  12  27  43  72 108 143 186 241 305 356 430
#     4  11  21  43  71 102 142 184 235 294 354 414
#     4  10  25  41  67 105 138 183 240 288 344 433
#     4  11  24  42  71  98 140 186 233 291 352 428
#     4  10  23  45  67  96 141 187 224 291 353 420
#
# _framework density 23.044819
#
# number of rings (size 3 to 8) (size 9 to 14) (size 15 to 20)
#    0.000    1.250    1.250    3.000    7.000    3.000 
#    0.000    2.500    0.000    0.000    0.000    0.000 
#    0.000    0.000    0.000    0.000    0.000    0.000 
#
# Total GULP energy -89425.863426 kJ/mol
# GULP energy per Si atom -5589.116464 kJ/mol
# Density = 2.299237 g / cm^3
# Si number density = 23.044819 Si / 1000 Ang^3
#
#
#
# Elastic Constant Matrix: (Units=GPa)
#
#
# Indices 1 2 3 4 5 6 
#
# 1 93.7675 22.4096 41.6009 3.6098 -1.5306 -22.6304
# 2 22.4096 97.0294 19.1238 3.4911 6.6022 -27.4377
# 3 41.6009 19.1238 120.4531 0.3785 3.8611 -12.1444
# 4 3.6098 3.4911 0.3785 23.9571 1.2964 -3.2494
# 5 -1.5306 6.6022 3.8611 1.2964 31.4597 -8.5387
# 6 -22.6304 -27.4377 -12.1444 -3.2494 -8.5387 29.4733
#
#
#
# Elastic Compliance Matrix: (Units=1/GPa)
#
#
# Indices 1 2 3 4 5 6 
#
# 1 0.015398 0.000275 -0.004345 -0.000975 0.004372 0.011448
# 2 0.000275 0.014113 -0.001038 -0.000345 0.000749 0.013101
# 3 -0.004345 -0.001038 0.009956 0.000652 -0.001386 -0.000529
# 4 -0.000975 -0.000345 0.000652 0.042467 -0.000816 0.003644
# 5 0.004372 0.000749 -0.001386 -0.000816 0.035780 0.013759
# 6 0.011448 0.013101 -0.000529 0.003644 0.013759 0.059085
#
#
# Mechanical properties :
#
#
# Convention : Reuss Voigt Hill
#
# Bulk Modulus (GPa) = 34.18451 53.05762 43.62106
# Shear Modulus (GPa) = 25.41084 32.18573 28.79829
#
# Velocity S-wave (km/s) = 3.32425 3.74124 3.53889
# Velocity P-wave (km/s) = 5.44062 6.46035 5.97229
#
# Compressibility (1/GPa) = 0.02925302
#
# Stress axis : x y z
#
# Youngs Moduli (GPa) = 64.94174 70.85500 100.43917
#
# Poissons Ratio (x) = -0.01947 0.43637
# Poissons Ratio (y) = -0.01785 0.10422
# Poissons Ratio (z) = 0.28215 0.07352
#
# Static dielectric constant tensor:
#      x y z
#    x 1.848560 0.011100 0.006230 
#    y 0.011100 1.928250 -0.002980 
#    z 0.006230 -0.002980 1.900720 
# 
# From -- ./inp_files/428802.got.cif
#   From: 2010.05.17/outbox.cif.g08.bks.cpg/sg2_215_cif.got.tgz:428802.got - 2010.06.03 11:33:40.
