data_PCOD9041605
_publ_section_title
;
Structure prediction by ZEFSAII (Michael W. Deem and Ramdas Pophale) SiO2 
 PCOD9041605
Probable space group: P -1
;
_chemical_formula_sum "Si O2"
_cell_formula_units_Z 14
_cell_length_a 9.395773
_cell_length_b 5.151205
_cell_length_c 17.061870
_cell_angle_alpha 125.067296
_cell_angle_beta 131.470744
_cell_angle_gamma 60.378461
_cell_volume 497.645536
_symmetry_space_group_name_H-M "P -1"
_symmetry_group_IT_number 2
_symmetry_cell_setting 'triclinic'
loop_
_space_group_symop_operation_xyz
x,y,z
-x,-y,-z
loop_
_atom_site_type_symbol
_atom_site_label
_atom_site_fract_x
_atom_site_fract_y
_atom_site_fract_z
Si Si1 0.039462 0.517435 0.852154
Si Si2 0.166245 0.696070 0.510771
Si Si3 0.459765 0.815551 0.324741
Si Si4 0.406571 0.409185 0.869840
Si Si5 0.196784 0.605433 0.681200
Si Si6 0.323666 0.564846 0.377337
Si Si7 0.796273 0.235674 0.901034
O O1 0.206108 0.351818 0.824287
O O2 0.869912 0.350730 0.729508
O O3 0.118510 0.511618 0.969036
O O4 0.953566 0.909664 0.885102
O O5 0.239477 0.732678 0.632886
O O6 0.287994 0.682754 0.473081
O O7 0.030790 0.412602 0.403175
O O8 0.000000 0.000000 0.500000
O O9 0.665056 0.744071 0.344239
O O10 0.471434 0.710831 0.401495
O O11 0.312301 0.620396 0.192341
O O12 0.365756 0.181732 0.337360
O O13 0.308019 0.675166 0.813670
O O14 0.598790 0.179381 0.864715
O O15 0.500000 0.500000 0.000000
#
# Coordination Sequence:
#
# PCOD9041605 Si02
#       7
#     2   2   2   2   2   2   2
#     4   9  16  33  59  90 132 171 218 276 328 403
#     4  11  26  42  67  95 132 181 225 276 341 402
#     4  10  24  42  66  97 132 171 224 281 334 402
#     4   9  16  33  64  94 126 173 220 273 340 404
#     4  10  23  44  65  95 134 174 223 283 335 404
#     4  11  24  42  66  96 130 176 226 272 340 401
#     4   8  17  32  58  93 129 171 219 270 338 398
#
# _framework density 28.132472
#
# number of rings (size 3 to 8) (size 9 to 14) (size 15 to 20)
#    0.000    2.286    1.429    0.000    6.000    1.714 
#    0.000    0.000    0.000    2.571    0.000    0.000 
#    0.000    0.000    0.000    0.000    0.000    0.000 
#
# Total GULP energy -77936.835169 kJ/mol
# GULP energy per Si atom -5566.916798 kJ/mol
# Density = 2.806844 g / cm^3
# Si number density = 28.132472 Si / 1000 Ang^3
#
#
#
# Elastic Constant Matrix: (Units=GPa)
#
#
# Indices 1 2 3 4 5 6 
#
# 1 145.8246 12.2011 28.6515 -16.0596 -15.4792 -0.8026
# 2 12.2011 59.6583 10.2533 -0.7386 -24.4011 2.2043
# 3 28.6515 10.2533 192.7377 -34.5934 -25.9521 14.3530
# 4 -16.0596 -0.7386 -34.5934 37.9103 2.8325 -11.7486
# 5 -15.4792 -24.4011 -25.9521 2.8325 48.8370 -8.4004
# 6 -0.8026 2.2043 14.3530 -11.7486 -8.4004 34.7201
#
#
#
# Elastic Compliance Matrix: (Units=1/GPa)
#
#
# Indices 1 2 3 4 5 6 
#
# 1 0.007578 -0.000699 -0.000371 0.003323 0.002004 0.001982
# 2 -0.000699 0.021198 0.000333 -0.000046 0.010736 0.001082
# 3 -0.000371 0.000333 0.006692 0.005686 0.003261 -0.000083
# 4 0.003323 -0.000046 0.005686 0.036051 0.003828 0.010854
# 5 0.002004 0.010736 0.003261 0.003828 0.029078 0.006348
# 6 0.001982 0.001082 -0.000083 0.010854 0.006348 0.034022
#
#
# Mechanical properties :
#
#
# Convention : Reuss Voigt Hill
#
# Bulk Modulus (GPa) = 29.41549 55.60362 42.50956
# Shear Modulus (GPa) = 33.91566 47.43447 40.67507
#
# Velocity S-wave (km/s) = 3.47590 4.11068 3.80655
# Velocity P-wave (km/s) = 5.15635 6.50677 5.87052
#
# Compressibility (1/GPa) = 0.03399569
#
# Stress axis : x y z
#
# Youngs Moduli (GPa) = 131.95296 47.17334 149.44074
#
# Poissons Ratio (x) = 0.03295 0.05540
# Poissons Ratio (y) = 0.09218 -0.04975
# Poissons Ratio (z) = 0.04892 -0.01570
#
# Static dielectric constant tensor:
#      x y z
#    x 2.409200 0.093830 0.116240 
#    y 0.093830 2.365120 0.059270 
#    z 0.116240 0.059270 2.583210 
# 
# From -- ./inp_files/141124.got.cif
#   From: 2010.05.17/outbox.cif.g08.bks.cpg/sg2_71_cif.got.tgz:141124.got - 2010.06.03 11:33:40.
