data_PCOD9041690
_publ_section_title
;
Structure prediction by ZEFSAII (Michael W. Deem and Ramdas Pophale) SiO2 
 PCOD9041690
Probable space group: P -1
;
_chemical_formula_sum "Si O2"
_cell_formula_units_Z 15
_cell_length_a 8.757643
_cell_length_b 27.067932
_cell_length_c 6.698808
_cell_angle_alpha 122.754380
_cell_angle_beta 121.655957
_cell_angle_gamma 30.079777
_cell_volume 663.274751
_symmetry_space_group_name_H-M "P -1"
_symmetry_group_IT_number 2
_symmetry_cell_setting 'triclinic'
loop_
_space_group_symop_operation_xyz
x,y,z
-x,-y,-z
loop_
_atom_site_type_symbol
_atom_site_label
_atom_site_fract_x
_atom_site_fract_y
_atom_site_fract_z
Si Si1 0.854385 0.512662 0.231467
Si Si2 0.168823 0.628957 0.685235
Si Si3 0.714102 0.798374 0.078410
Si Si4 0.500000 0.500000 0.000000
Si Si5 0.774439 0.158390 0.964705
Si Si6 0.987403 0.776886 0.616314
Si Si7 0.767493 0.646076 0.191463
Si Si8 0.566043 0.050453 0.114915
O O1 0.753600 0.589937 0.181777
O O2 0.000000 0.500000 0.500000
O O3 0.577055 0.547167 0.189236
O O4 0.088895 0.407249 0.043680
O O5 0.451702 0.527063 0.777866
O O6 0.940644 0.704780 0.878990
O O7 0.209004 0.677079 0.685867
O O8 0.986708 0.631479 0.429507
O O9 0.450367 0.823322 0.021977
O O10 0.557989 0.893193 0.058181
O O11 0.915854 0.769483 0.335548
O O12 0.896483 0.186234 0.216598
O O13 0.564291 0.237318 0.812322
O O14 0.066953 0.043306 0.839852
O O15 0.651841 0.860802 0.678141
O O16 0.500000 0.000000 0.000000
#
# Coordination Sequence:
#
# PCOD9041690 Si02
#       8
#     2   2   2   1   2   2   2   2
#     4  11  25  45  66  96 130 169 218 271 322 392
#     4  11  24  45  64  97 134 171 218 275 321 390
#     4  11  23  44  65  96 134 169 220 270 319 391
#     4  12  24  42  70  94 128 174 218 266 334 380
#     4  11  22  42  68  96 127 177 214 266 332 379
#     4  10  23  44  66  94 136 170 217 272 323 386
#     4  11  24  46  66  93 138 168 216 274 324 387
#     4   9  22  43  64  99 134 166 220 268 320 391
#
# _framework density 22.615062999999999
#
# number of rings (size 3 to 8) (size 9 to 14) (size 15 to 20)
#    0.000    1.333    2.667    2.000    0.000    4.267 
#    9.600    0.000    0.000    0.000    0.000    0.000 
#    0.000    0.000    0.000    0.000    0.000    0.000 
#
# Total GULP energy -83632.149710 kJ/mol
# GULP energy per Si atom -5575.476647 kJ/mol
# Density = 2.256359 g / cm^3
# Si number density = 22.615063 Si / 1000 Ang^3
#
#
#
# Elastic Constant Matrix: (Units=GPa)
#
#
# Indices 1 2 3 4 5 6 
#
# 1 114.5544 46.5687 39.5349 -8.1099 12.3277 19.5705
# 2 46.5687 88.3350 40.9901 -16.8803 -17.8085 -1.1172
# 3 39.5349 40.9901 168.4700 -18.8470 5.7816 -4.6003
# 4 -8.1099 -16.8803 -18.8470 24.8287 2.1105 1.9687
# 5 12.3277 -17.8085 5.7816 2.1105 34.7313 -5.7677
# 6 19.5705 -1.1172 -4.6003 1.9687 -5.7677 36.2407
#
#
#
# Elastic Compliance Matrix: (Units=1/GPa)
#
#
# Indices 1 2 3 4 5 6 
#
# 1 0.017448 -0.011834 -0.001188 -0.001097 -0.014007 -0.012108
# 2 -0.011834 0.024056 -0.002510 0.008325 0.017979 0.009223
# 3 -0.001188 -0.002510 0.007324 0.003572 -0.002142 0.000959
# 4 -0.001097 0.008325 0.003572 0.048302 0.000934 -0.001173
# 5 -0.014007 0.017979 -0.002142 0.000934 0.045787 0.015083
# 6 -0.012108 0.009223 0.000959 -0.001173 0.015083 0.037002
#
#
# Mechanical properties :
#
#
# Convention : Reuss Voigt Hill
#
# Bulk Modulus (GPa) = 56.28968 69.50519 62.89744
# Shear Modulus (GPa) = 23.05154 35.44451 29.24803
#
# Velocity S-wave (km/s) = 3.19611 3.96320 3.60015
# Velocity P-wave (km/s) = 6.21004 7.19329 6.71967
#
# Compressibility (1/GPa) = 0.01776524
#
# Stress axis : x y z
#
# Youngs Moduli (GPa) = 57.31175 41.57003 136.52879
#
# Poissons Ratio (x) = 0.49194 0.16220
# Poissons Ratio (y) = 0.67823 0.34265
# Poissons Ratio (z) = 0.06809 0.10433
#
# Static dielectric constant tensor:
#      x y z
#    x 1.857050 -0.050150 -0.014230 
#    y -0.050150 1.990040 0.028830 
#    z -0.014230 0.028830 1.838080 
# 
# From -- ./inp_files/56570.got.cif
#   From: 2010.05.17/outbox.cif.g08.bks.cpg/sg2_29_cif.got.tgz:56570.got - 2010.06.03 11:33:40.
