data_PCOD9041343
_publ_section_title
;
Structure prediction by ZEFSAII (Michael W. Deem and Ramdas Pophale) SiO2 
 PCOD9041343
Probable space group: P -1
;
_chemical_formula_sum "Si O2"
_cell_formula_units_Z 9
_cell_length_a 8.979678
_cell_length_b 8.222360
_cell_length_c 6.891560
_cell_angle_alpha 120.489316
_cell_angle_beta 55.766365
_cell_angle_gamma 117.977457
_cell_volume 350.251044
_symmetry_space_group_name_H-M "P -1"
_symmetry_group_IT_number 2
_symmetry_cell_setting 'triclinic'
loop_
_space_group_symop_operation_xyz
x,y,z
-x,-y,-z
loop_
_atom_site_type_symbol
_atom_site_label
_atom_site_fract_x
_atom_site_fract_y
_atom_site_fract_z
Si Si1 0.399746 0.792573 0.535075
Si Si2 0.054738 0.897824 0.708815
Si Si3 0.893321 0.739308 0.369978
Si Si4 0.500000 0.500000 0.000000
Si Si5 0.292247 0.672060 0.939044
O O1 0.184164 0.765745 0.611770
O O2 0.480777 0.624747 0.286287
O O3 0.410412 0.805525 0.767646
O O4 0.500000 0.000000 0.500000
O O5 0.884508 0.770065 0.627261
O O6 0.145430 0.079531 0.610072
O O7 0.000000 0.000000 0.000000
O O8 0.781176 0.533916 0.245888
O O9 0.109527 0.742677 0.172133
O O10 0.600218 0.358428 0.967492
#
# Coordination Sequence:
#
# PCOD9041343 Si02
#       5
#     2   2   2   1   2
#     4  12  27  46  71 107 146 192 239 297 362 430
#     4  11  22  44  73 107 140 187 242 299 358 424
#     4  10  23  43  73 106 139 180 249 296 356 420
#     4  12  26  48  68 106 152 190 236 290 372 430
#     4  11  24  46  71 106 143 189 239 298 354 434
#
# _framework density 25.695855999999999
#
# number of rings (size 3 to 8) (size 9 to 14) (size 15 to 20)
#    0.000    0.889    4.444    2.000    0.000    5.333 
#    0.000    0.000    0.000    0.000    0.000    0.000 
#    0.000    0.000    0.000    0.000    0.000    0.000 
#
# Total GULP energy -50220.353994 kJ/mol
# GULP energy per Si atom -5580.039333 kJ/mol
# Density = 2.563737 g / cm^3
# Si number density = 25.695856 Si / 1000 Ang^3
#
#
#
# Elastic Constant Matrix: (Units=GPa)
#
#
# Indices 1 2 3 4 5 6 
#
# 1 114.1999 21.4368 42.6371 -21.7479 14.8026 -41.1335
# 2 21.4368 68.4650 11.0063 -0.6583 -3.6111 -10.8847
# 3 42.6371 11.0063 151.8015 14.6341 20.5372 -7.3277
# 4 -21.7479 -0.6583 14.6341 48.2094 -18.3170 6.1140
# 5 14.8026 -3.6111 20.5372 -18.3170 46.2673 3.2217
# 6 -41.1335 -10.8847 -7.3277 6.1140 3.2217 39.2692
#
#
#
# Elastic Compliance Matrix: (Units=1/GPa)
#
#
# Indices 1 2 3 4 5 6 
#
# 1 0.018751 -0.002479 -0.004497 0.006520 -0.002822 0.017331
# 2 -0.002479 0.015844 -0.000674 -0.000049 0.002205 0.001496
# 3 -0.004497 -0.000674 0.009141 -0.006544 -0.005140 -0.001751
# 4 0.006520 -0.000049 -0.006544 0.030621 0.012954 -0.000236
# 5 -0.002822 0.002205 -0.005140 0.012954 0.030644 -0.007835
# 6 0.017331 0.001496 -0.001751 -0.000236 -0.007835 0.044387
#
#
# Mechanical properties :
#
#
# Convention : Reuss Voigt Hill
#
# Bulk Modulus (GPa) = 35.16588 53.84741 44.50664
# Shear Modulus (GPa) = 28.70810 44.04159 36.37485
#
# Velocity S-wave (km/s) = 3.34612 4.14449 3.76652
# Velocity P-wave (km/s) = 5.35199 6.62597 6.02276
#
# Compressibility (1/GPa) = 0.02843666
#
# Stress axis : x y z
#
# Youngs Moduli (GPa) = 53.33118 63.11467 109.39485
#
# Poissons Ratio (x) = 0.15645 0.49195
# Poissons Ratio (y) = 0.13220 0.07372
# Poissons Ratio (z) = 0.23983 0.04253
#
# Static dielectric constant tensor:
#      x y z
#    x 2.061860 0.124990 -0.063080 
#    y 0.124990 2.139940 -0.117680 
#    z -0.063080 -0.117680 2.021100 
# 
# From -- ./inp_files/15196.got.cif
#   From: 2010.05.17/outbox.cif.g08.bks.cpg/sg2_8_cif.got.tgz:15196.got - 2010.06.03 11:33:40.
