data_PCOD9041752
_publ_section_title
;
Structure prediction by ZEFSAII (Michael W. Deem and Ramdas Pophale) SiO2 
 PCOD9041752
Probable space group: P -1
;
_chemical_formula_sum "Si O2"
_cell_formula_units_Z 16
_cell_length_a 8.638398
_cell_length_b 14.823492
_cell_length_c 20.015146
_cell_angle_alpha 161.060659
_cell_angle_beta 120.244302
_cell_angle_gamma 69.084376
_cell_volume 650.180136
_symmetry_space_group_name_H-M "P -1"
_symmetry_group_IT_number 2
_symmetry_cell_setting 'triclinic'
loop_
_space_group_symop_operation_xyz
x,y,z
-x,-y,-z
loop_
_atom_site_type_symbol
_atom_site_label
_atom_site_fract_x
_atom_site_fract_y
_atom_site_fract_z
Si Si1 0.299613 0.267614 0.636011
Si Si2 0.122915 0.056206 0.748941
Si Si3 0.741008 0.153039 0.976245
Si Si4 0.293244 0.959526 0.961536
Si Si5 0.979929 0.941997 0.784082
Si Si6 0.604342 0.806281 0.531159
Si Si7 0.345703 0.644054 0.480482
Si Si8 0.412254 0.633843 0.131770
O O1 0.432411 0.364715 0.666162
O O2 0.400776 0.146600 0.628603
O O3 0.292898 0.576018 0.876990
O O4 0.083344 0.049405 0.409810
O O5 0.094951 0.099585 0.851812
O O6 0.190643 0.777329 0.561535
O O7 0.274769 0.360025 0.957976
O O8 0.918815 0.124742 0.955703
O O9 0.766411 0.223135 0.109577
O O10 0.541951 0.842095 0.705106
O O11 0.303743 0.289049 0.220350
O O12 0.121620 0.830660 0.778186
O O13 0.500000 0.000000 0.000000
O O14 0.761297 0.737125 0.561547
O O15 0.412534 0.741893 0.487361
O O16 0.690285 0.164687 0.780790
O O17 0.500000 0.500000 0.000000
#
# Coordination Sequence:
#
# PCOD9041752 Si02
#       8
#     2   2   2   2   2   2   2   2
#     4  11  24  43  68 102 144 181 231 284 345 402
#     4  11  24  44  71 102 141 184 230 283 344 413
#     4  11  22  45  66  98 144 186 230 289 339 411
#     4  12  25  41  71 105 133 186 234 282 353 415
#     4  10  24  43  65  97 138 178 228 285 339 405
#     4  10  23  44  67 100 139 186 222 290 348 406
#     4  11  22  43  68 100 141 179 230 289 347 404
#     4  12  23  45  71 102 143 182 233 283 347 411
#
# _framework density 24.608566
#
# number of rings (size 3 to 8) (size 9 to 14) (size 15 to 20)
#    0.000    1.000    2.500    4.125    1.750    2.500 
#    2.250    9.375    0.000    0.000    0.000    0.000 
#    0.000    0.000    0.000    0.000    0.000    0.000 
#
# Total GULP energy -89432.030753 kJ/mol
# GULP energy per Si atom -5589.501922 kJ/mol
# Density = 2.455256 g / cm^3
# Si number density = 24.608566 Si / 1000 Ang^3
#
#
#
# Elastic Constant Matrix: (Units=GPa)
#
#
# Indices 1 2 3 4 5 6 
#
# 1 169.8699 55.3456 27.1391 -8.3429 -12.3322 6.8638
# 2 55.3456 131.9119 27.0595 -26.1102 -1.6178 1.0625
# 3 27.1391 27.0595 72.8282 0.4691 -2.7240 -14.0494
# 4 -8.3429 -26.1102 0.4691 43.5353 -3.6969 0.1309
# 5 -12.3322 -1.6178 -2.7240 -3.6969 32.7025 3.0351
# 6 6.8638 1.0625 -14.0494 0.1309 3.0351 46.3118
#
#
#
# Elastic Compliance Matrix: (Units=1/GPa)
#
#
# Indices 1 2 3 4 5 6 
#
# 1 0.007324 -0.002592 -0.002017 0.000101 0.002645 -0.001812
# 2 -0.002592 0.010466 -0.003118 0.005818 0.000014 -0.000819
# 3 -0.002017 -0.003118 0.016699 -0.002479 -0.000311 0.005464
# 4 0.000101 0.005818 -0.002479 0.026785 0.003258 -0.001190
# 5 0.002645 0.000014 -0.000311 0.003258 0.032161 -0.002604
# 6 -0.001812 -0.000819 0.005464 -0.001190 -0.002604 0.023712
#
#
# Mechanical properties :
#
#
# Convention : Reuss Voigt Hill
#
# Bulk Modulus (GPa) = 52.53411 65.96649 59.25030
# Shear Modulus (GPa) = 35.98505 42.18098 39.08301
#
# Velocity S-wave (km/s) = 3.82815 4.14463 3.98953
# Velocity P-wave (km/s) = 6.39796 7.05468 6.73433
#
# Compressibility (1/GPa) = 0.01903525
#
# Stress axis : x y z
#
# Youngs Moduli (GPa) = 136.54031 95.54560 59.88209
#
# Poissons Ratio (x) = 0.24766 0.12080
# Poissons Ratio (y) = 0.35392 0.18670
# Poissons Ratio (z) = 0.27544 0.29789
#
# Static dielectric constant tensor:
#      x y z
#    x 1.957870 -0.024140 0.013310 
#    y -0.024140 1.951970 0.020100 
#    z 0.013310 0.020100 2.020500 
# 
# From -- ./inp_files/590559.got.cif
#   From: 2010.05.17/outbox.cif.g08.bks.cpg/sg2_296_cif.got.tgz:590559.got - 2010.06.03 11:33:40.
