data_PCOD9041388
_publ_section_title
;
Structure prediction by ZEFSAII (Michael W. Deem and Ramdas Pophale) SiO2 
 PCOD9041388
Probable space group: P -1
;
_chemical_formula_sum "Si O2"
_cell_formula_units_Z 12
_cell_length_a 9.399115
_cell_length_b 15.051195
_cell_length_c 15.842181
_cell_angle_alpha 18.410349
_cell_angle_beta 45.571510
_cell_angle_gamma 43.150973
_cell_volume 483.767585
_symmetry_space_group_name_H-M "P -1"
_symmetry_group_IT_number 2
_symmetry_cell_setting 'triclinic'
loop_
_space_group_symop_operation_xyz
x,y,z
-x,-y,-z
loop_
_atom_site_type_symbol
_atom_site_label
_atom_site_fract_x
_atom_site_fract_y
_atom_site_fract_z
Si Si1 0.737881 0.248958 0.213996
Si Si2 0.558338 0.079118 0.106630
Si Si3 0.906580 0.495146 0.450490
Si Si4 0.164635 0.173542 0.300517
Si Si5 0.738076 0.367238 0.917235
Si Si6 0.566743 0.277696 0.751117
O O1 0.491254 0.401919 0.190936
O O2 0.782851 0.947552 0.517331
O O3 0.859171 0.475926 0.997521
O O4 0.777567 0.220322 0.124357
O O5 0.699809 0.774639 0.284347
O O6 0.358756 0.059477 0.259106
O O7 0.708530 0.163753 0.035904
O O8 0.485584 0.318102 0.846049
O O9 0.811395 0.230336 0.708493
O O10 0.000000 0.500000 0.500000
O O11 0.076447 0.509545 0.299180
O O12 0.000000 0.000000 0.500000
O O13 0.500000 0.500000 0.500000
O O14 0.500000 0.000000 0.000000
#
# Coordination Sequence:
#
# PCOD9041388 Si02
#       6
#     2   2   2   2   2   2
#     4  10  24  46  67 109 133 183 233 302 338 411
#     4  11  25  45  73 103 146 185 237 300 358 419
#     4  12  24  43  76 108 140 192 241 286 363 430
#     4  11  25  45  72  96 142 187 236 279 358 428
#     4  10  23  43  74 102 144 177 240 297 352 415
#     4  12  27  47  66 102 147 189 233 292 355 424
#
# _framework density 24.805299000000002
#
# number of rings (size 3 to 8) (size 9 to 14) (size 15 to 20)
#    0.000    1.000    3.333    2.000    2.333   10.000 
#    0.000    0.000    0.000    0.000    0.000    0.000 
#    0.000    0.000    0.000    0.000    0.000    0.000 
#
# Total GULP energy -67112.181327 kJ/mol
# GULP energy per Si atom -5592.681777 kJ/mol
# Density = 2.474884 g / cm^3
# Si number density = 24.805299 Si / 1000 Ang^3
#
#
#
# Elastic Constant Matrix: (Units=GPa)
#
#
# Indices 1 2 3 4 5 6 
#
# 1 140.1443 40.2739 55.9945 27.7466 -18.8391 20.5463
# 2 40.2739 75.4698 46.7451 27.8950 -9.6140 22.3676
# 3 55.9945 46.7451 166.2851 34.2510 -4.4167 4.9237
# 4 27.7466 27.8950 34.2510 55.9032 -1.0855 1.3679
# 5 -18.8391 -9.6140 -4.4167 -1.0855 61.4252 18.9816
# 6 20.5463 22.3676 4.9237 1.3679 18.9816 27.4394
#
#
#
# Elastic Compliance Matrix: (Units=1/GPa)
#
#
# Indices 1 2 3 4 5 6 
#
# 1 0.012521 0.004562 -0.003490 -0.005686 0.010135 -0.019195
# 2 0.004562 0.036609 -0.006893 -0.014802 0.020400 -0.045395
# 3 -0.003490 -0.006893 0.008831 -0.000569 -0.004562 0.009831
# 4 -0.005686 -0.014802 -0.000569 0.027695 -0.010508 0.022314
# 5 0.010135 0.020400 -0.004562 -0.010508 0.037058 -0.048511
# 6 -0.019195 -0.045395 0.009831 0.022314 -0.048511 0.118504
#
#
# Mechanical properties :
#
#
# Convention : Reuss Voigt Hill
#
# Bulk Modulus (GPa) = 21.58893 74.21400 47.90146
# Shear Modulus (GPa) = 18.63582 44.87927 31.75755
#
# Velocity S-wave (km/s) = 2.74393 4.25816 3.58197
# Velocity P-wave (km/s) = 4.33141 7.35931 6.03823
#
# Compressibility (1/GPa) = 0.04632003
#
# Stress axis : x y z
#
# Youngs Moduli (GPa) = 79.86360 27.31548 113.23277
#
# Poissons Ratio (x) = -0.12460 0.39517
# Poissons Ratio (y) = -0.36430 0.78046
# Poissons Ratio (z) = 0.27872 0.18827
#
# Static dielectric constant tensor:
#      x y z
#    x 1.995500 0.008710 -0.009400 
#    y 0.008710 1.949100 -0.079830 
#    z -0.009400 -0.079830 2.066270 
# 
# From -- ./inp_files/25657.got.cif
#   From: 2010.05.17/outbox.cif.g08.bks.cpg/sg2_13_cif.got.tgz:25657.got - 2010.06.03 11:33:40.
