data_PCOD9041559
_publ_section_title
;
Structure prediction by ZEFSAII (Michael W. Deem and Ramdas Pophale) SiO2 
 PCOD9041559
Probable space group: P -1
;
_chemical_formula_sum "Si O2"
_cell_formula_units_Z 12
_cell_length_a 8.195271
_cell_length_b 7.970872
_cell_length_c 14.930056
_cell_angle_alpha 31.519529
_cell_angle_beta 84.533168
_cell_angle_gamma 89.134391
_cell_volume 503.436634
_symmetry_space_group_name_H-M "P -1"
_symmetry_group_IT_number 2
_symmetry_cell_setting 'triclinic'
loop_
_space_group_symop_operation_xyz
x,y,z
-x,-y,-z
loop_
_atom_site_type_symbol
_atom_site_label
_atom_site_fract_x
_atom_site_fract_y
_atom_site_fract_z
Si Si1 0.613530 0.736894 0.140859
Si Si2 0.549377 0.612039 0.849247
Si Si3 0.871075 0.240374 0.990927
Si Si4 0.118935 0.815026 0.639208
Si Si5 0.373604 0.667053 0.535078
Si Si6 0.873463 0.774146 0.369844
O O1 0.594876 0.518378 0.153084
O O2 0.516118 0.545332 0.316276
O O3 0.784216 0.940655 0.072075
O O4 0.500000 0.000000 0.000000
O O5 0.567163 0.993924 0.664015
O O6 0.500000 0.500000 0.000000
O O7 0.724305 0.471918 0.893421
O O8 0.917545 0.064189 0.161381
O O9 0.021778 0.481959 0.834015
O O10 0.256216 0.738786 0.594044
O O11 0.159440 0.051746 0.614504
O O12 0.000000 0.000000 0.500000
O O13 0.284216 0.434881 0.570969
O O14 0.000000 0.500000 0.500000
#
# Coordination Sequence:
#
# PCOD9041559 Si02
#       6
#     2   2   2   2   2   2
#     4   9  22  44  67  92 129 174 216 265 318 388
#     4  11  23  43  67  95 128 172 220 268 321 383
#     4  10  23  44  64  97 132 165 222 264 327 388
#     4  12  23  42  69  98 131 171 212 273 330 387
#     4  11  24  45  68  97 131 171 219 268 328 385
#     4  11  23  42  64  99 134 170 210 267 328 390
#
# _framework density 23.836169000000002
#
# number of rings (size 3 to 8) (size 9 to 14) (size 15 to 20)
#    0.000    1.333    3.333    1.000    2.333    4.000 
#    6.000    4.167    0.000    0.000    0.000    0.000 
#    0.000    0.000    0.000    0.000    0.000    0.000 
#
# Total GULP energy -66998.900465 kJ/mol
# GULP energy per Si atom -5583.241705 kJ/mol
# Density = 2.378192 g / cm^3
# Si number density = 23.836169 Si / 1000 Ang^3
#
#
#
# Elastic Constant Matrix: (Units=GPa)
#
#
# Indices 1 2 3 4 5 6 
#
# 1 51.6119 23.1288 28.9214 6.8680 12.8302 -2.6811
# 2 23.1288 180.1987 89.3121 7.8478 -9.1395 21.5008
# 3 28.9214 89.3121 243.6663 -5.7405 10.7949 25.4671
# 4 6.8680 7.8478 -5.7405 39.8135 3.6179 15.2029
# 5 12.8302 -9.1395 10.7949 3.6179 44.0836 1.9391
# 6 -2.6811 21.5008 25.4671 15.2029 1.9391 32.0225
#
#
#
# Elastic Compliance Matrix: (Units=1/GPa)
#
#
# Indices 1 2 3 4 5 6 
#
# 1 0.025800 -0.003205 -0.002856 -0.007633 -0.007316 0.010650
# 2 -0.003205 0.007664 -0.002173 -0.000101 0.003231 -0.003833
# 3 -0.002856 -0.002173 0.005935 0.003899 -0.001160 -0.005280
# 4 -0.007633 -0.000101 0.003899 0.034770 -0.000722 -0.020135
# 5 -0.007316 0.003231 -0.001160 -0.000722 0.025963 -0.003088
# 6 0.010650 -0.003833 -0.005280 -0.020135 -0.003088 0.048639
#
#
# Mechanical properties :
#
#
# Convention : Reuss Voigt Hill
#
# Bulk Modulus (GPa) = 43.61397 84.24463 63.92930
# Shear Modulus (GPa) = 28.92131 45.45823 37.18977
#
# Velocity S-wave (km/s) = 3.48708 4.37179 3.95425
# Velocity P-wave (km/s) = 5.87793 7.80405 6.90845
#
# Compressibility (1/GPa) = 0.02292843
#
# Stress axis : x y z
#
# Youngs Moduli (GPa) = 38.75979 130.48561 168.49878
#
# Poissons Ratio (x) = 0.41824 0.48128
# Poissons Ratio (y) = 0.12423 0.36622
# Poissons Ratio (z) = 0.11071 0.28360
#
# Static dielectric constant tensor:
#      x y z
#    x 2.082270 -0.135180 0.025670 
#    y -0.135180 1.969960 -0.118190 
#    z 0.025670 -0.118190 2.026970 
# 
# From -- ./inp_files/165136.got.cif
#   From: 2010.05.17/outbox.cif.g08.bks.cpg/sg2_83_cif.got.tgz:165136.got - 2010.06.03 11:33:40.
