data_PCOD9041385
_publ_section_title
;
Structure prediction by ZEFSAII (Michael W. Deem and Ramdas Pophale) SiO2 
 PCOD9041385
Probable space group: P -1
;
_chemical_formula_sum "Si O2"
_cell_formula_units_Z 16
_cell_length_a 9.614070
_cell_length_b 6.273267
_cell_length_c 20.452443
_cell_angle_alpha 68.722106
_cell_angle_beta 45.512437
_cell_angle_gamma 74.802246
_cell_volume 819.951014
_symmetry_space_group_name_H-M "P -1"
_symmetry_group_IT_number 2
_symmetry_cell_setting 'triclinic'
loop_
_space_group_symop_operation_xyz
x,y,z
-x,-y,-z
loop_
_atom_site_type_symbol
_atom_site_label
_atom_site_fract_x
_atom_site_fract_y
_atom_site_fract_z
Si Si1 0.923813 0.447626 0.765173
Si Si2 0.843704 0.259848 0.255737
Si Si3 0.359101 0.028734 0.750284
Si Si4 0.773772 0.977977 0.854076
Si Si5 0.407852 0.217541 0.187689
Si Si6 0.739681 0.585183 0.016821
Si Si7 0.101981 0.238332 0.924501
Si Si8 0.355754 0.445360 0.611720
O O1 0.792420 0.640001 0.752543
O O2 0.003696 0.539604 0.797934
O O3 0.131765 0.411939 0.665266
O O4 0.785692 0.234456 0.846960
O O5 0.670703 0.340167 0.352456
O O6 0.000504 0.058414 0.239739
O O7 0.752767 0.180492 0.225848
O O8 0.219111 0.179149 0.826810
O O9 0.418103 0.213295 0.655382
O O10 0.518947 0.918090 0.757835
O O11 0.634675 0.944497 0.842120
O O12 0.727571 0.791177 0.945477
O O13 0.568618 0.401754 0.092939
O O14 0.753603 0.696927 0.071540
O O15 0.937974 0.436553 0.958111
O O16 0.000000 0.000000 0.000000
O O17 0.500000 0.500000 0.500000
#
# Coordination Sequence:
#
# PCOD9041385 Si02
#       8
#     2   2   2   2   2   2   2   2
#     4   9  23  42  66  92 131 167 215 272 334 381
#     4   9  20  41  68  92 125 164 221 263 323 385
#     4  12  23  42  67  97 132 175 211 279 325 382
#     4  11  21  43  63  91 133 186 213 270 322 382
#     4  11  26  39  62  98 136 173 220 269 331 385
#     4  11  25  39  60  96 133 178 240 263 306 386
#     4  11  24  38  62  94 133 175 227 272 318 370
#     4  10  23  43  74 102 121 164 225 271 333 403
#
# _framework density 19.513359000000001
#
# number of rings (size 3 to 8) (size 9 to 14) (size 15 to 20)
#    0.750    0.750    2.500    1.875    5.250    1.000 
#    0.000    0.625    0.000    1.500    0.000    0.000 
#    0.000    0.000    0.000    0.000    0.000    0.000 
#
# Total GULP energy -89074.636891 kJ/mol
# GULP energy per Si atom -5567.164806 kJ/mol
# Density = 1.946895 g / cm^3
# Si number density = 19.513359 Si / 1000 Ang^3
#
#
#
# Elastic Constant Matrix: (Units=GPa)
#
#
# Indices 1 2 3 4 5 6 
#
# 1 150.6013 61.1248 57.9493 -2.3801 17.4591 -0.3015
# 2 61.1248 91.9482 51.3287 -3.9154 15.2150 1.6690
# 3 57.9493 51.3287 103.7132 -11.5845 5.8206 -0.4878
# 4 -2.3801 -3.9154 -11.5845 27.4352 0.2999 8.9057
# 5 17.4591 15.2150 5.8206 0.2999 20.1224 3.3294
# 6 -0.3015 1.6690 -0.4878 8.9057 3.3294 53.0826
#
#
#
# Elastic Compliance Matrix: (Units=1/GPa)
#
#
# Indices 1 2 3 4 5 6 
#
# 1 0.010202 -0.004059 -0.003570 -0.001371 -0.004844 0.000687
# 2 -0.004059 0.018623 -0.006499 -0.000321 -0.008663 -0.000071
# 3 -0.003570 -0.006499 0.015250 0.005427 0.003654 -0.000815
# 4 -0.001371 -0.000321 0.005427 0.040784 0.000382 -0.006814
# 5 -0.004844 -0.008663 0.003654 0.000382 0.059973 -0.003547
# 6 0.000687 -0.000071 -0.000815 -0.006814 -0.003547 0.020203
#
#
# Mechanical properties :
#
#
# Convention : Reuss Voigt Hill
#
# Bulk Modulus (GPa) = 63.20912 76.34091 69.77501
# Shear Modulus (GPa) = 25.18087 31.85205 28.51646
#
# Velocity S-wave (km/s) = 3.59617 4.04458 3.82695
# Velocity P-wave (km/s) = 7.05027 7.81146 7.44060
#
# Compressibility (1/GPa) = 0.01582050
#
# Stress axis : x y z
#
# Youngs Moduli (GPa) = 98.01797 53.69750 65.57299
#
# Poissons Ratio (x) = 0.21794 0.23409
# Poissons Ratio (y) = 0.39783 0.42614
# Poissons Ratio (z) = 0.34991 0.34897
#
# Static dielectric constant tensor:
#      x y z
#    x 1.704780 -0.037620 0.003230 
#    y -0.037620 1.829900 -0.015040 
#    z 0.003230 -0.015040 1.740120 
# 
# From -- ./inp_files/552557.got.cif
#   From: 2010.05.17/outbox.cif.g08.bks.cpg/sg2_277_cif.got.tgz:552557.got - 2010.06.03 11:33:40.
