data_PCOD9041221
_publ_section_title
;
Structure prediction by ZEFSAII (Michael W. Deem and Ramdas Pophale) SiO2 
 PCOD9041221
Probable space group: P -1
;
_chemical_formula_sum "Si O2"
_cell_formula_units_Z 16
_cell_length_a 5.364958
_cell_length_b 16.983399
_cell_length_c 8.734410
_cell_angle_alpha 92.912067
_cell_angle_beta 84.497793
_cell_angle_gamma 58.791944
_cell_volume 672.800958
_symmetry_space_group_name_H-M "P -1"
_symmetry_group_IT_number 2
_symmetry_cell_setting 'triclinic'
loop_
_space_group_symop_operation_xyz
x,y,z
-x,-y,-z
loop_
_atom_site_type_symbol
_atom_site_label
_atom_site_fract_x
_atom_site_fract_y
_atom_site_fract_z
Si Si1 0.691229 0.208897 0.087603
Si Si2 0.824248 0.478785 0.134470
Si Si3 0.755076 0.721832 0.359368
Si Si4 0.822321 0.412725 0.436326
Si Si5 0.603483 0.901513 0.912796
Si Si6 0.665322 0.901319 0.561411
Si Si7 0.744672 0.347785 0.910440
Si Si8 0.717763 0.246729 0.418803
O O1 0.572977 0.145852 0.024733
O O2 0.562106 0.244801 0.270282
O O3 0.044844 0.159644 0.085193
O O4 0.617429 0.288282 0.978443
O O5 0.948992 0.443910 0.292447
O O6 0.502968 0.571234 0.172127
O O7 0.783930 0.399651 0.055983
O O8 0.000000 0.500000 0.000000
O O9 0.680909 0.818214 0.454032
O O10 0.449570 0.727575 0.405914
O O11 0.966054 0.628716 0.435473
O O12 0.941597 0.709228 0.197449
O O13 0.500000 0.500000 0.500000
O O14 0.801490 0.323111 0.386535
O O15 0.529576 0.913923 0.738146
O O16 0.500000 0.000000 0.000000
O O17 0.008700 0.856672 0.577714
O O18 0.500000 0.000000 0.500000
#
# Coordination Sequence:
#
# PCOD9041221 Si02
#       8
#     2   2   2   2   2   2   2   2
#     4  11  24  47  74 101 145 187 237 298 357 439
#     4  11  26  42  64  99 142 184 239 297 352 425
#     4  11  24  43  68  98 136 183 239 287 362 427
#     4  11  23  43  64  97 139 185 239 290 356 425
#     4  11  25  48  74 106 137 189 236 293 373 437
#     4  10  24  45  68 101 141 176 238 300 356 430
#     4  11  26  42  65 104 136 184 241 294 358 417
#     4  10  23  43  71  98 136 195 237 294 366 433
#
# _framework density 23.781179999999999
#
# number of rings (size 3 to 8) (size 9 to 14) (size 15 to 20)
#    0.000    1.250    3.750    0.375    7.000    1.000 
#    0.000    0.000    0.000    0.000    0.000    0.000 
#    0.000    0.000    0.000    0.000    0.000    0.000 
#
# Total GULP energy -89411.091820 kJ/mol
# GULP energy per Si atom -5588.193239 kJ/mol
# Density = 2.372705 g / cm^3
# Si number density = 23.781180 Si / 1000 Ang^3
#
#
#
# Elastic Constant Matrix: (Units=GPa)
#
#
# Indices 1 2 3 4 5 6 
#
# 1 79.7769 35.8334 25.7502 -8.1066 -19.7097 26.4772
# 2 35.8334 152.8888 64.4188 -6.4275 -8.2081 11.1331
# 3 25.7502 64.4188 93.7568 -7.8942 -27.9226 10.1069
# 4 -8.1066 -6.4275 -7.8942 34.9966 4.5046 5.3779
# 5 -19.7097 -8.2081 -27.9226 4.5046 34.9925 -1.7164
# 6 26.4772 11.1331 10.1069 5.3779 -1.7164 41.1053
#
#
#
# Elastic Compliance Matrix: (Units=1/GPa)
#
#
# Indices 1 2 3 4 5 6 
#
# 1 0.021606 -0.004220 0.002366 0.005340 0.011715 -0.013565
# 2 -0.004220 0.010477 -0.008113 -0.000331 -0.006269 0.001657
# 3 0.002366 -0.008113 0.020876 0.002395 0.015577 -0.004123
# 4 0.005340 -0.000331 0.002395 0.031475 0.000395 -0.008041
# 5 0.011715 -0.006269 0.015577 0.000395 0.045701 -0.007821
# 6 -0.013565 0.001657 -0.004123 -0.008041 -0.007821 0.034356
#
#
# Mechanical properties :
#
#
# Convention : Reuss Voigt Hill
#
# Bulk Modulus (GPa) = 30.28003 64.26970 47.27487
# Shear Modulus (GPa) = 25.58428 35.58021 30.58224
#
# Velocity S-wave (km/s) = 3.28353 3.87221 3.58995
# Velocity P-wave (km/s) = 5.20921 6.86120 6.09147
#
# Compressibility (1/GPa) = 0.03302507
#
# Stress axis : x y z
#
# Youngs Moduli (GPa) = 46.28411 95.44701 47.90234
#
# Poissons Ratio (x) = 0.40274 -0.11334
# Poissons Ratio (y) = 0.19530 0.38865
# Poissons Ratio (z) = -0.10951 0.77439
#
# Static dielectric constant tensor:
#      x y z
#    x 2.014150 -0.020290 -0.013020 
#    y -0.020290 1.865060 0.005890 
#    z -0.013020 0.005890 1.957430 
# 
# From -- ./inp_files/138945.got.cif
#   From: 2010.05.17/outbox.cif.g08.bks.cpg/sg2_70_cif.got.tgz:138945.got - 2010.06.03 11:33:40.
