data_PCOD9041189
_publ_section_title
;
Structure prediction by ZEFSAII (Michael W. Deem and Ramdas Pophale) SiO2 
 PCOD9041189
Probable space group: P -1
;
_chemical_formula_sum "Si O2"
_cell_formula_units_Z 16
_cell_length_a 8.247362
_cell_length_b 14.936121
_cell_length_c 11.109045
_cell_angle_alpha 127.169469
_cell_angle_beta 138.498740
_cell_angle_gamma 49.745415
_cell_volume 672.202867
_symmetry_space_group_name_H-M "P -1"
_symmetry_group_IT_number 2
_symmetry_cell_setting 'triclinic'
loop_
_space_group_symop_operation_xyz
x,y,z
-x,-y,-z
loop_
_atom_site_type_symbol
_atom_site_label
_atom_site_fract_x
_atom_site_fract_y
_atom_site_fract_z
Si Si1 0.259087 0.952263 0.820681
Si Si2 0.607169 0.180898 0.963037
Si Si3 0.202856 0.604866 0.790732
Si Si4 0.561734 0.291875 0.394020
Si Si5 0.010050 0.398839 0.070728
Si Si6 0.655468 0.656480 0.417085
Si Si7 0.033463 0.334701 0.770089
Si Si8 0.674356 0.085214 0.668949
O O1 0.332624 0.852119 0.675973
O O2 0.282022 0.882336 0.902482
O O3 0.953025 0.039048 0.715255
O O4 0.500000 0.000000 0.000000
O O5 0.737301 0.100550 0.855650
O O6 0.293448 0.216989 0.807423
O O7 0.648976 0.306771 0.083293
O O8 0.362473 0.461716 0.752519
O O9 0.089704 0.634789 0.887336
O O10 0.963745 0.633523 0.586059
O O11 0.328263 0.348512 0.215601
O O12 0.442396 0.334451 0.493028
O O13 0.808256 0.332255 0.553103
O O14 0.916992 0.542555 0.126269
O O15 0.944061 0.344406 0.868081
O O16 0.504036 0.781345 0.367880
O O17 0.500000 0.000000 0.500000
#
# Coordination Sequence:
#
# PCOD9041189 Si02
#       8
#     2   2   2   2   2   2   2   2
#     4  12  30  50  75 104 151 204 254 318 371 440
#     4  12  27  46  76 106 148 192 247 313 377 447
#     4  10  24  47  73 111 150 189 237 314 387 445
#     4  11  25  45  74 101 150 191 250 305 367 441
#     4  10  23  43  71 108 153 191 238 302 371 456
#     4  10  25  44  77 109 144 195 246 303 379 453
#     4  11  24  41  72 111 145 195 242 294 381 451
#     4  12  28  48  76 109 149 198 263 310 369 453
#
# _framework density 23.802339
#
# number of rings (size 3 to 8) (size 9 to 14) (size 15 to 20)
#    0.000    1.000    1.250    3.000   12.250    4.500 
#    0.000    0.000    0.000    0.000    0.000    0.000 
#    0.000    0.000    0.000    0.000    0.000    0.000 
#
# Total GULP energy -89626.176317 kJ/mol
# GULP energy per Si atom -5601.636020 kJ/mol
# Density = 2.374816 g / cm^3
# Si number density = 23.802339 Si / 1000 Ang^3
#
#
#
# Elastic Constant Matrix: (Units=GPa)
#
#
# Indices 1 2 3 4 5 6 
#
# 1 69.6767 24.6255 22.1276 6.1177 5.6658 -5.8365
# 2 24.6255 113.2699 31.4434 -6.0215 18.9512 -9.2511
# 3 22.1276 31.4434 108.7346 5.9615 24.3078 -6.9287
# 4 6.1177 -6.0215 5.9615 45.6235 0.6938 -1.5310
# 5 5.6658 18.9512 24.3078 0.6938 31.2987 -4.1779
# 6 -5.8365 -9.2511 -6.9287 -1.5310 -4.1779 42.5699
#
#
#
# Elastic Compliance Matrix: (Units=1/GPa)
#
#
# Indices 1 2 3 4 5 6 
#
# 1 0.016445 -0.003080 -0.002485 -0.002262 0.001028 0.001200
# 2 -0.003080 0.010937 -0.001505 0.002170 -0.004768 0.001320
# 3 -0.002485 -0.001505 0.011997 -0.001298 -0.007865 0.000466
# 4 -0.002262 0.002170 -0.001298 0.022707 -0.000301 0.000737
# 5 0.001028 -0.004768 -0.007865 -0.000301 0.041011 0.001839
# 6 0.001200 0.001320 0.000466 0.000737 0.001839 0.024225
#
#
# Mechanical properties :
#
#
# Convention : Reuss Voigt Hill
#
# Bulk Modulus (GPa) = 39.62177 49.78601 44.70389
# Shear Modulus (GPa) = 33.36115 38.13074 35.74594
#
# Velocity S-wave (km/s) = 3.74784 4.00681 3.87949
# Velocity P-wave (km/s) = 5.95069 6.50906 6.23613
#
# Compressibility (1/GPa) = 0.02523865
#
# Stress axis : x y z
#
# Youngs Moduli (GPa) = 60.80773 91.43622 83.35573
#
# Poissons Ratio (x) = 0.28159 0.20718
# Poissons Ratio (y) = 0.18726 0.12544
# Poissons Ratio (z) = 0.15113 0.13761
#
# Static dielectric constant tensor:
#      x y z
#    x 1.933300 -0.032230 0.045700 
#    y -0.032230 1.874480 -0.023530 
#    z 0.045700 -0.023530 1.892710 
# 
# From -- ./inp_files/399690.got.cif
#   From: 2010.05.17/outbox.cif.g08.bks.cpg/sg2_200_cif.got.tgz:399690.got - 2010.06.03 11:33:40.
