data_PCOD9041167
_publ_section_title
;
Structure prediction by ZEFSAII (Michael W. Deem and Ramdas Pophale) SiO2 
 PCOD9041167
Probable space group: P -1
;
_chemical_formula_sum "Si O2"
_cell_formula_units_Z 16
_cell_length_a 9.421128
_cell_length_b 11.572148
_cell_length_c 19.117224
_cell_angle_alpha 157.571674
_cell_angle_beta 67.522221
_cell_angle_gamma 113.205897
_cell_volume 729.875512
_symmetry_space_group_name_H-M "P -1"
_symmetry_group_IT_number 2
_symmetry_cell_setting 'triclinic'
loop_
_space_group_symop_operation_xyz
x,y,z
-x,-y,-z
loop_
_atom_site_type_symbol
_atom_site_label
_atom_site_fract_x
_atom_site_fract_y
_atom_site_fract_z
Si Si1 0.990101 0.274744 0.600371
Si Si2 0.187813 0.817882 0.563378
Si Si3 0.452972 0.247427 0.700618
Si Si4 0.780192 0.321068 0.004187
Si Si5 0.697317 0.389278 0.329675
Si Si6 0.658580 0.622302 0.624753
Si Si7 0.749433 0.693839 0.938869
Si Si8 0.109309 0.295189 0.937420
O O1 0.891637 0.171768 0.491049
O O2 0.897202 0.548261 0.798966
O O3 0.162862 0.398859 0.613616
O O4 0.000000 0.000000 0.500000
O O5 0.239131 0.503126 0.403356
O O6 0.347357 0.046437 0.663798
O O7 0.080745 0.965494 0.721368
O O8 0.601899 0.456836 0.815844
O O9 0.500000 0.000000 0.500000
O O10 0.337014 0.478598 0.824169
O O11 0.942981 0.351006 0.029560
O O12 0.700844 0.984007 0.817687
O O13 0.830389 0.463671 0.998480
O O14 0.697324 0.468015 0.457156
O O15 0.526242 0.443464 0.366182
O O16 0.726073 0.037782 0.114329
O O17 0.770052 0.702893 0.023057
#
# Coordination Sequence:
#
# PCOD9041167 Si02
#       8
#     2   2   2   2   2   2   2   2
#     4  12  30  48  74 105 154 200 245 301 365 443
#     4  11  25  47  73 109 142 200 242 305 364 436
#     4  11  24  46  69 101 149 190 247 291 369 443
#     4  10  23  43  71 105 144 188 245 299 362 429
#     4  11  26  48  70 117 147 190 246 303 378 425
#     4  11  24  45  79 107 150 187 242 315 362 438
#     4  12  25  47  73 105 148 195 238 305 366 437
#     4  10  24  42  73 108 143 188 251 300 358 433
#
# _framework density 21.921544999999998
#
# number of rings (size 3 to 8) (size 9 to 14) (size 15 to 20)
#    0.000    1.000    3.750    1.125   10.500    4.000 
#    0.000    1.250    0.000    0.000    0.000    0.000 
#    0.000    0.000    0.000    0.000    0.000    0.000 
#
# Total GULP energy -89425.607329 kJ/mol
# GULP energy per Si atom -5589.100458 kJ/mol
# Density = 2.187165 g / cm^3
# Si number density = 21.921545 Si / 1000 Ang^3
#
#
#
# Elastic Constant Matrix: (Units=GPa)
#
#
# Indices 1 2 3 4 5 6 
#
# 1 132.4126 73.9788 60.3048 3.2565 -4.4211 0.6710
# 2 73.9788 72.9121 42.5909 1.7013 -2.4334 13.4266
# 3 60.3048 42.5909 146.8273 -10.1729 -11.7431 0.5013
# 4 3.2565 1.7013 -10.1729 28.0321 5.1394 1.5241
# 5 -4.4211 -2.4334 -11.7431 5.1394 40.5852 -1.5651
# 6 0.6710 13.4266 0.5013 1.5241 -1.5651 43.6930
#
#
#
# Elastic Compliance Matrix: (Units=1/GPa)
#
#
# Indices 1 2 3 4 5 6 
#
# 1 0.019601 -0.019376 -0.002561 -0.002487 0.000771 0.005797
# 2 -0.019376 0.037054 -0.002857 -0.000228 -0.001115 -0.011088
# 3 -0.002561 -0.002857 0.009066 0.003395 0.001772 0.000758
# 4 -0.002487 -0.000228 0.003395 0.038050 -0.004175 -0.001408
# 5 0.000771 -0.001115 0.001772 -0.004175 0.025751 0.001378
# 6 0.005797 -0.011088 0.000758 -0.001408 0.001378 0.026295
#
#
# Mechanical properties :
#
#
# Convention : Reuss Voigt Hill
#
# Bulk Modulus (GPa) = 61.98566 78.43345 70.20955
# Shear Modulus (GPa) = 23.72124 34.14722 28.93423
#
# Velocity S-wave (km/s) = 3.29309 3.95105 3.63698
# Velocity P-wave (km/s) = 6.54193 7.52803 7.05224
#
# Compressibility (1/GPa) = 0.01613276
#
# Stress axis : x y z
#
# Youngs Moduli (GPa) = 51.01747 26.98799 110.30758
#
# Poissons Ratio (x) = 0.52292 0.28245
# Poissons Ratio (y) = 0.98851 0.31518
# Poissons Ratio (z) = 0.13063 0.07711
#
# Static dielectric constant tensor:
#      x y z
#    x 1.835010 0.022600 -0.049940 
#    y 0.022600 1.818980 -0.031890 
#    z -0.049940 -0.031890 1.848930 
# 
# From -- ./inp_files/589776.got.cif
#   From: 2010.05.17/outbox.cif.g08.bks.cpg/sg2_295_cif.got.tgz:589776.got - 2010.06.03 11:33:40.
