data_PCOD9041208
_publ_section_title
;
Structure prediction by ZEFSAII (Michael W. Deem and Ramdas Pophale) SiO2 
 PCOD9041208
Probable space group: P -1
;
_chemical_formula_sum "Si O2"
_cell_formula_units_Z 14
_cell_length_a 8.861806
_cell_length_b 15.764519
_cell_length_c 6.777789
_cell_angle_alpha 45.687063
_cell_angle_beta 88.440831
_cell_angle_gamma 89.189164
_cell_volume 677.253200
_symmetry_space_group_name_H-M "P -1"
_symmetry_group_IT_number 2
_symmetry_cell_setting 'triclinic'
loop_
_space_group_symop_operation_xyz
x,y,z
-x,-y,-z
loop_
_atom_site_type_symbol
_atom_site_label
_atom_site_fract_x
_atom_site_fract_y
_atom_site_fract_z
Si Si1 0.399640 0.996520 0.212478
Si Si2 0.088590 0.889080 0.261286
Si Si3 0.111273 0.326638 0.295894
Si Si4 0.550335 0.638035 0.756079
Si Si5 0.308400 0.716611 0.316366
Si Si6 0.092515 0.512564 0.673451
Si Si7 0.485056 0.189877 0.173904
O O1 0.387044 0.123730 0.115804
O O2 0.232564 0.942602 0.283642
O O3 0.485413 0.909550 0.500410
O O4 0.500000 0.000000 0.000000
O O5 0.174455 0.804329 0.240821
O O6 0.964431 0.802742 0.506281
O O7 0.000000 0.000000 0.000000
O O8 0.278602 0.339570 0.360118
O O9 0.001104 0.405740 0.304789
O O10 0.116851 0.389053 0.981870
O O11 0.431699 0.704205 0.508430
O O12 0.556073 0.697453 0.875905
O O13 0.500000 0.500000 0.000000
O O14 0.244762 0.584416 0.508097
O O15 0.373704 0.767834 0.029619
O O16 0.000000 0.500000 0.500000
#
# Coordination Sequence:
#
# PCOD9041208 Si02
#       7
#     2   2   2   2   2   2   2
#     4  11  23  47  71  97 135 185 236 285 346 414
#     4  11  25  44  72  96 141 183 222 293 355 406
#     4  10  25  44  65 102 139 183 226 286 347 408
#     4  12  25  45  71 101 143 185 240 287 342 414
#     4  11  24  45  70 102 136 184 233 291 350 416
#     4  10  23  43  71  96 142 181 226 284 355 416
#     4  11  25  40  76  99 137 181 239 286 348 405
#
# _framework density 20.671738000000001
#
# number of rings (size 3 to 8) (size 9 to 14) (size 15 to 20)
#    0.000    1.143    4.286    0.000    8.000    1.714 
#    2.571    1.429    0.000    0.000    0.000    0.000 
#    0.000    0.000    0.000    0.000    0.000    0.000 
#
# Total GULP energy -78070.039325 kJ/mol
# GULP energy per Si atom -5576.431380 kJ/mol
# Density = 2.062469 g / cm^3
# Si number density = 20.671738 Si / 1000 Ang^3
#
#
#
# Elastic Constant Matrix: (Units=GPa)
#
#
# Indices 1 2 3 4 5 6 
#
# 1 87.0899 18.7405 39.8472 -16.6876 -12.2058 23.4516
# 2 18.7405 106.5431 50.2217 -18.8361 -10.7634 25.3682
# 3 39.8472 50.2217 137.9371 -11.9828 -14.8859 7.5909
# 4 -16.6876 -18.8361 -11.9828 35.0871 6.3587 -2.5688
# 5 -12.2058 -10.7634 -14.8859 6.3587 38.8019 -10.3171
# 6 23.4516 25.3682 7.5909 -2.5688 -10.3171 39.5972
#
#
#
# Elastic Compliance Matrix: (Units=1/GPa)
#
#
# Indices 1 2 3 4 5 6 
#
# 1 0.017453 0.003191 -0.004916 0.007472 0.000378 -0.010855
# 2 0.003191 0.014902 -0.005251 0.007116 -0.000745 -0.010163
# 3 -0.004916 -0.005251 0.010445 -0.001701 0.002568 0.004832
# 4 0.007472 0.007116 -0.001701 0.035496 -0.004121 -0.007429
# 5 0.000378 -0.000745 0.002568 -0.004121 0.029235 0.007111
# 6 -0.010855 -0.010163 0.004832 -0.007429 0.007111 0.038639
#
#
# Mechanical properties :
#
#
# Convention : Reuss Voigt Hill
#
# Bulk Modulus (GPa) = 34.66340 61.02099 47.84219
# Shear Modulus (GPa) = 29.45710 37.54796 33.50253
#
# Velocity S-wave (km/s) = 3.77900 4.26654 4.03015
# Velocity P-wave (km/s) = 5.98716 7.33855 6.69703
#
# Compressibility (1/GPa) = 0.02884888
#
# Stress axis : x y z
#
# Youngs Moduli (GPa) = 57.29677 67.10425 95.73906
#
# Poissons Ratio (x) = -0.21416 0.47070
# Poissons Ratio (y) = -0.18286 0.50269
# Poissons Ratio (z) = 0.28170 0.35234
#
# Static dielectric constant tensor:
#      x y z
#    x 1.774910 0.005100 -0.014940 
#    y 0.005100 1.769990 -0.026340 
#    z -0.014940 -0.026340 1.736010 
# 
# From -- ./inp_files/36748.got.cif
#   From: 2010.05.17/outbox.cif.g08.bks.cpg/sg2_19_cif.got.tgz:36748.got - 2010.06.03 11:33:40.
