data_PCOD9041548
_publ_section_title
;
Structure prediction by ZEFSAII (Michael W. Deem and Ramdas Pophale) SiO2 
 PCOD9041548
Probable space group: P -1
;
_chemical_formula_sum "Si O2"
_cell_formula_units_Z 16
_cell_length_a 8.200604
_cell_length_b 20.903326
_cell_length_c 12.304564
_cell_angle_alpha 39.101020
_cell_angle_beta 146.380732
_cell_angle_gamma 126.424978
_cell_volume 728.178728
_symmetry_space_group_name_H-M "P -1"
_symmetry_group_IT_number 2
_symmetry_cell_setting 'triclinic'
loop_
_space_group_symop_operation_xyz
x,y,z
-x,-y,-z
loop_
_atom_site_type_symbol
_atom_site_label
_atom_site_fract_x
_atom_site_fract_y
_atom_site_fract_z
Si Si1 0.748391 0.996496 0.544471
Si Si2 0.730065 0.894929 0.254360
Si Si3 0.443467 0.470268 0.690777
Si Si4 0.516695 0.412334 0.215194
Si Si5 0.752099 0.926547 0.975918
Si Si6 0.212639 0.787374 0.097444
Si Si7 0.910601 0.713844 0.230464
Si Si8 0.875504 0.385314 0.862079
O O1 0.500000 0.000000 0.500000
O O2 0.953311 0.086922 0.546740
O O3 0.984574 0.892409 0.816395
O O4 0.563106 0.007369 0.316219
O O5 0.775446 0.883907 0.165574
O O6 0.529528 0.809911 0.290139
O O7 0.500000 0.000000 0.000000
O O8 0.483705 0.534701 0.736001
O O9 0.739018 0.437407 0.827707
O O10 0.219956 0.534449 0.394998
O O11 0.315767 0.367330 0.788396
O O12 0.818026 0.332706 0.479544
O O13 0.500000 0.500000 0.000000
O O14 0.226888 0.359632 0.105013
O O15 0.787742 0.828706 0.046454
O O16 0.000000 0.000000 0.000000
O O17 0.051702 0.724002 0.177757
O O18 0.257761 0.717485 0.107506
#
# Coordination Sequence:
#
# PCOD9041548 Si02
#       8
#     2   2   2   2   2   2   2   2
#     4  11  22  44  70  96 132 179 222 274 329 395
#     4  10  23  44  64  95 134 174 222 277 328 389
#     4  11  24  47  68  96 138 171 222 289 332 400
#     4  12  24  44  71  99 130 179 224 275 336 405
#     4  12  24  43  70  99 134 175 222 277 333 396
#     4  11  23  44  67  98 138 176 222 279 333 401
#     4  12  24  44  69  98 133 177 225 274 335 395
#     4  11  24  44  69 100 135 172 222 279 346 399
#
# _framework density 21.972626999999999
#
# number of rings (size 3 to 8) (size 9 to 14) (size 15 to 20)
#    0.000    0.750    5.000    3.000    1.750    2.000 
#    6.750    0.000    0.000    0.000    0.000    0.000 
#    0.000    0.000    0.000    0.000    0.000    0.000 
#
# Total GULP energy -89429.737757 kJ/mol
# GULP energy per Si atom -5589.358610 kJ/mol
# Density = 2.192262 g / cm^3
# Si number density = 21.972627 Si / 1000 Ang^3
#
#
#
# Elastic Constant Matrix: (Units=GPa)
#
#
# Indices 1 2 3 4 5 6 
#
# 1 54.6935 13.9807 -6.8305 -1.3985 -9.2686 -1.5727
# 2 13.9807 112.1334 10.9529 8.2845 7.8063 15.3519
# 3 -6.8305 10.9529 81.4989 9.3357 1.7619 11.8814
# 4 -1.3985 8.2845 9.3357 39.2876 1.6940 8.6706
# 5 -9.2686 7.8063 1.7619 1.6940 27.2378 3.0480
# 6 -1.5727 15.3519 11.8814 8.6706 3.0480 34.7779
#
#
#
# Elastic Compliance Matrix: (Units=1/GPa)
#
#
# Indices 1 2 3 4 5 6 
#
# 1 0.020770 -0.003491 0.001834 0.000471 0.007802 0.001052
# 2 -0.003491 0.010293 -0.000920 -0.001082 -0.003585 -0.003803
# 3 0.001834 -0.000920 0.013301 -0.002137 0.000560 -0.003571
# 4 0.000471 -0.001082 -0.002137 0.027457 -0.000475 -0.005575
# 5 0.007802 -0.003585 0.000560 -0.000475 0.040579 -0.001694
# 6 0.001052 -0.003803 -0.003571 -0.005575 -0.001694 0.033239
#
#
# Mechanical properties :
#
#
# Convention : Reuss Voigt Hill
#
# Bulk Modulus (GPa) = 25.50383 31.61470 28.55926
# Shear Modulus (GPa) = 30.51349 35.60886 33.06117
#
# Velocity S-wave (km/s) = 3.73058 4.03004 3.88319
# Velocity P-wave (km/s) = 5.49441 6.00619 5.75599
#
# Compressibility (1/GPa) = 0.03920980
#
# Stress axis : x y z
#
# Youngs Moduli (GPa) = 48.14747 97.15068 75.18354
#
# Poissons Ratio (x) = 0.33912 -0.13787
# Poissons Ratio (y) = 0.16807 0.06917
# Poissons Ratio (z) = -0.08829 0.08937
#
# Static dielectric constant tensor:
#      x y z
#    x 4.534990 -1.316610 0.637830 
#    y -1.316610 2.479200 -0.304030 
#    z 0.637830 -0.304030 1.968350 
# 
# From -- ./inp_files/89942.got.cif
#   From: 2010.05.17/outbox.cif.g08.bks.cpg/sg2_45_cif.got.tgz:89942.got - 2010.06.03 11:33:40.
