data_PCOD9041509
_publ_section_title
;
Structure prediction by ZEFSAII (Michael W. Deem and Ramdas Pophale) SiO2 
 PCOD9041509
Probable space group: P -1
;
_chemical_formula_sum "Si O2"
_cell_formula_units_Z 16
_cell_length_a 11.348764
_cell_length_b 5.779234
_cell_length_c 15.533994
_cell_angle_alpha 94.988075
_cell_angle_beta 111.652483
_cell_angle_gamma 57.104163
_cell_volume 786.661672
_symmetry_space_group_name_H-M "P -1"
_symmetry_group_IT_number 2
_symmetry_cell_setting 'triclinic'
loop_
_space_group_symop_operation_xyz
x,y,z
-x,-y,-z
loop_
_atom_site_type_symbol
_atom_site_label
_atom_site_fract_x
_atom_site_fract_y
_atom_site_fract_z
Si Si1 0.025859 0.421091 0.404749
Si Si2 0.215093 0.616523 0.262463
Si Si3 0.352191 0.140326 0.405483
Si Si4 0.369200 0.568229 0.842013
Si Si5 0.840630 0.654183 0.913994
Si Si6 0.939181 0.002357 0.305034
Si Si7 0.386575 0.819582 0.226590
Si Si8 0.390769 0.316798 0.010947
O O1 0.202991 0.204513 0.418497
O O2 0.000000 0.500000 0.500000
O O3 0.974338 0.715811 0.351495
O O4 0.945929 0.249906 0.361128
O O5 0.300000 0.441914 0.364706
O O6 0.145724 0.491504 0.177786
O O7 0.343024 0.610314 0.240615
O O8 0.069382 0.904069 0.264317
O O9 0.500000 0.000000 0.500000
O O10 0.382776 0.970447 0.319047
O O11 0.454934 0.326640 0.785650
O O12 0.501549 0.599988 0.914497
O O13 0.229132 0.845786 0.773432
O O14 0.313825 0.485815 0.908234
O O15 0.728820 0.642943 0.950111
O O16 0.748434 0.974973 0.869180
O O17 0.000000 0.500000 0.000000
O O18 0.500000 0.000000 0.000000
#
# Coordination Sequence:
#
# PCOD9041509 Si02
#       8
#     2   2   2   2   2   2   2   2
#     4  11  25  47  69 104 138 171 233 287 341 423
#     4  10  23  44  63  95 138 168 232 280 330 419
#     4  10  24  43  69  96 130 180 220 284 345 402
#     4  11  26  40  67  95 132 189 220 284 347 401
#     4  11  25  39  69  95 131 183 222 288 342 406
#     4  11  26  45  72  99 137 185 223 285 349 406
#     4  11  22  44  62  97 132 170 232 274 339 410
#     4  11  24  43  59  96 140 168 235 279 331 419
#
# _framework density 20.339110000000002
#
# number of rings (size 3 to 8) (size 9 to 14) (size 15 to 20)
#    0.000    1.250    3.750    0.375    7.000    2.000 
#    0.000    0.000    0.000    0.000    0.000    0.000 
#    0.000    0.000    0.000    0.000    0.000    0.000 
#
# Total GULP energy -89164.929182 kJ/mol
# GULP energy per Si atom -5572.808074 kJ/mol
# Density = 2.029282 g / cm^3
# Si number density = 20.339110 Si / 1000 Ang^3
#
#
#
# Elastic Constant Matrix: (Units=GPa)
#
#
# Indices 1 2 3 4 5 6 
#
# 1 59.2174 9.6471 40.5225 -8.1858 -7.6275 -9.5041
# 2 9.6471 81.5301 44.4541 1.2750 4.4649 -13.9525
# 3 40.5225 44.4541 122.9474 -18.0802 4.0767 -22.8786
# 4 -8.1858 1.2750 -18.0802 38.6543 -10.6364 -0.7527
# 5 -7.6275 4.4649 4.0767 -10.6364 30.2969 1.0173
# 6 -9.5041 -13.9525 -22.8786 -0.7527 1.0173 33.1274
#
#
#
# Elastic Compliance Matrix: (Units=1/GPa)
#
#
# Indices 1 2 3 4 5 6 
#
# 1 0.023770 0.001172 -0.007636 0.003680 0.008068 0.001876
# 2 0.001172 0.016203 -0.006188 -0.003872 -0.002716 0.002883
# 3 -0.007636 -0.006188 0.014729 0.005213 -0.001348 0.005535
# 4 0.003680 -0.003872 0.005213 0.032621 0.012134 0.003394
# 5 0.008068 -0.002716 -0.001348 0.012134 0.039903 -0.000710
# 6 0.001876 0.002883 0.005535 0.003394 -0.000710 0.035860
#
#
# Mechanical properties :
#
#
# Convention : Reuss Voigt Hill
#
# Bulk Modulus (GPa) = 34.01377 50.32692 42.17035
# Shear Modulus (GPa) = 25.22847 31.68714 28.45780
#
# Velocity S-wave (km/s) = 3.52574 3.95136 3.74460
# Velocity P-wave (km/s) = 5.77357 6.75391 6.28289
#
# Compressibility (1/GPa) = 0.02939986
#
# Stress axis : x y z
#
# Youngs Moduli (GPa) = 42.06992 61.71604 67.89390
#
# Poissons Ratio (x) = -0.07235 0.51840
# Poissons Ratio (y) = -0.04932 0.42012
# Poissons Ratio (z) = 0.32123 0.38189
#
# Static dielectric constant tensor:
#      x y z
#    x 1.734500 0.049570 -0.021560 
#    y 0.049570 1.810820 0.014240 
#    z -0.021560 0.014240 1.707780 
# 
# From -- ./inp_files/37258.got.cif
#   From: 2010.05.17/outbox.cif.g08.bks.cpg/sg2_19_cif.got.tgz:37258.got - 2010.06.03 11:33:40.
