data_PCOD9041472
_publ_section_title
;
Structure prediction by ZEFSAII (Michael W. Deem and Ramdas Pophale) SiO2 
 PCOD9041472
Probable space group: P -1
;
_chemical_formula_sum "Si O2"
_cell_formula_units_Z 16
_cell_length_a 8.846124
_cell_length_b 5.426400
_cell_length_c 14.164353
_cell_angle_alpha 81.916530
_cell_angle_beta 110.067779
_cell_angle_gamma 89.224955
_cell_volume 630.903699
_symmetry_space_group_name_H-M "P -1"
_symmetry_group_IT_number 2
_symmetry_cell_setting 'triclinic'
loop_
_space_group_symop_operation_xyz
x,y,z
-x,-y,-z
loop_
_atom_site_type_symbol
_atom_site_label
_atom_site_fract_x
_atom_site_fract_y
_atom_site_fract_z
Si Si1 0.731390 0.400653 0.562458
Si Si2 0.642203 0.662405 0.063299
Si Si3 0.399304 0.708314 0.159317
Si Si4 0.248877 0.019714 0.283897
Si Si5 0.490742 0.646073 0.638034
Si Si6 0.074744 0.716020 0.788077
Si Si7 0.014142 0.266253 0.441831
Si Si8 0.161942 0.937615 0.980717
O O1 0.581725 0.444320 0.599101
O O2 0.681032 0.318579 0.451426
O O3 0.809034 0.664772 0.559642
O O4 0.830642 0.178755 0.652342
O O5 0.550702 0.791976 0.127079
O O6 0.804701 0.512484 0.142231
O O7 0.706370 0.859310 0.993646
O O8 0.500000 0.500000 0.000000
O O9 0.478214 0.469263 0.245811
O O10 0.307637 0.888635 0.206849
O O11 0.251508 0.685226 0.055422
O O12 0.413034 0.108802 0.358139
O O13 0.118404 0.256470 0.232120
O O14 0.128731 0.922277 0.862816
O O15 0.088164 0.728359 0.677267
O O16 0.000000 0.500000 0.500000
O O17 0.000000 0.000000 0.500000
O O18 0.000000 0.000000 0.000000
#
# Coordination Sequence:
#
# PCOD9041472 Si02
#       8
#     2   2   2   2   2   2   2   2
#     4  10  23  46  70 115 151 207 270 336 398 493
#     4  12  30  51  76 115 164 205 272 342 421 490
#     4  11  26  46  73 117 153 203 271 332 415 490
#     4  11  23  45  80 114 162 213 275 333 412 502
#     4  10  23  43  78 107 156 202 267 333 405 480
#     4  12  28  48  82 110 164 215 269 343 414 502
#     4  12  29  51  79 118 164 220 280 346 424 508
#     4  12  28  50  84 116 159 216 275 338 418 509
#
# _framework density 25.360446
#
# number of rings (size 3 to 8) (size 9 to 14) (size 15 to 20)
#    0.000    0.750    3.750    1.500    8.750    0.500 
#    0.000    0.000    0.000    0.000    0.000    0.000 
#    0.000    0.000    0.000    0.000    0.000    0.000 
#
# Total GULP energy -89233.122065 kJ/mol
# GULP energy per Si atom -5577.070129 kJ/mol
# Density = 2.530272 g / cm^3
# Si number density = 25.360446 Si / 1000 Ang^3
#
#
#
# Elastic Constant Matrix: (Units=GPa)
#
#
# Indices 1 2 3 4 5 6 
#
# 1 114.5327 55.9485 42.6478 -16.5513 -11.4410 -7.0738
# 2 55.9485 118.9829 65.4225 -4.6551 -2.9980 6.9387
# 3 42.6478 65.4225 184.5357 -0.8106 -2.5207 10.7030
# 4 -16.5513 -4.6551 -0.8106 43.8995 -1.6821 -0.7751
# 5 -11.4410 -2.9980 -2.5207 -1.6821 43.0138 3.0237
# 6 -7.0738 6.9387 10.7030 -0.7751 3.0237 50.7105
#
#
#
# Elastic Compliance Matrix: (Units=1/GPa)
#
#
# Indices 1 2 3 4 5 6 
#
# 1 0.012865 -0.005304 -0.001187 0.004427 0.002969 0.002661
# 2 -0.005304 0.012710 -0.003189 -0.000766 -0.000616 -0.001781
# 3 -0.001187 -0.003189 0.006889 -0.000683 -0.000077 -0.001189
# 4 0.004427 -0.000766 -0.000683 0.024450 0.001961 0.001123
# 5 0.002969 -0.000616 -0.000077 0.001961 0.024130 -0.000894
# 6 0.002661 -0.001781 -0.001189 0.001123 -0.000894 0.020656
#
#
# Mechanical properties :
#
#
# Convention : Reuss Voigt Hill
#
# Bulk Modulus (GPa) = 76.31148 82.89877 79.60513
# Shear Modulus (GPa) = 39.86385 44.46025 42.16205
#
# Velocity S-wave (km/s) = 3.96901 4.19159 4.08182
# Velocity P-wave (km/s) = 7.15263 7.49567 7.32616
#
# Compressibility (1/GPa) = 0.01310419
#
# Stress axis : x y z
#
# Youngs Moduli (GPa) = 77.73240 78.67673 145.16271
#
# Poissons Ratio (x) = 0.41728 0.17234
# Poissons Ratio (y) = 0.41227 0.46290
# Poissons Ratio (z) = 0.09228 0.25089
#
# Static dielectric constant tensor:
#      x y z
#    x 2.147630 -0.068590 0.001810 
#    y -0.068590 2.048600 0.002020 
#    z 0.001810 0.002020 2.142580 
# 
# From -- ./inp_files/488317.got.cif
#   From: 2010.05.17/outbox.cif.g08.bks.cpg/sg2_245_cif.got.tgz:488317.got - 2010.06.03 11:33:40.
