data_PCOD9041989
_publ_section_title
;
Structure prediction by ZEFSAII (Michael W. Deem and Ramdas Pophale) SiO2 
 PCOD9041989
Probable space group: P -1
;
_chemical_formula_sum "Si O2"
_cell_formula_units_Z 13
_cell_length_a 6.622008
_cell_length_b 11.787554
_cell_length_c 9.811411
_cell_angle_alpha 99.013662
_cell_angle_beta 70.963695
_cell_angle_gamma 68.275698
_cell_volume 638.114418
_symmetry_space_group_name_H-M "P -1"
_symmetry_group_IT_number 2
_symmetry_cell_setting 'triclinic'
loop_
_space_group_symop_operation_xyz
x,y,z
-x,-y,-z
loop_
_atom_site_type_symbol
_atom_site_label
_atom_site_fract_x
_atom_site_fract_y
_atom_site_fract_z
Si Si1 0.417454 0.814662 0.559313
Si Si2 0.629689 0.557695 0.885240
Si Si3 0.887482 0.547611 0.383577
Si Si4 0.616420 0.951673 0.743216
Si Si5 0.000000 0.000000 0.500000
Si Si6 0.236383 0.664237 0.764875
Si Si7 0.284253 0.204318 0.027946
O O1 0.668728 0.689046 0.453771
O O2 0.479814 0.912972 0.650475
O O3 0.271037 0.761988 0.675751
O O4 0.259922 0.887438 0.478894
O O5 0.471136 0.601849 0.792868
O O6 0.641432 0.681075 0.971885
O O7 0.898630 0.462173 0.763359
O O8 0.500000 0.500000 0.000000
O O9 0.800038 0.445110 0.329462
O O10 0.000000 0.500000 0.500000
O O11 0.677064 0.850199 0.835676
O O12 0.852908 0.951362 0.629614
O O13 0.442408 0.089044 0.872599
O O14 0.999536 0.737490 0.922596
#
# Coordination Sequence:
#
# PCOD9041989 Si02
#       7
#     2   2   2   2   1   2   2
#     4  12  24  43  69 101 138 176 229 275 340 402
#     4  11  25  43  69 103 133 174 226 283 341 396
#     4  11  24  42  72 102 131 179 227 278 342 406
#     4  11  24  44  67  98 135 183 226 273 334 404
#     4  12  28  42  66 102 136 180 228 280 324 396
#     4  11  22  43  72  97 134 179 220 282 344 399
#     4  10  23  44  68  97 135 178 227 272 339 414
#
# _framework density 20.372523999999999
#
# number of rings (size 3 to 8) (size 9 to 14) (size 15 to 20)
#    0.000    0.923    4.615    1.846    0.000    8.000 
#    0.000    0.000    0.000    0.000    0.000    0.000 
#    0.000    0.000    0.000    0.000    0.000    0.000 
#
# Total GULP energy -72444.409548 kJ/mol
# GULP energy per Si atom -5572.646888 kJ/mol
# Density = 2.032615 g / cm^3
# Si number density = 20.372524 Si / 1000 Ang^3
#
#
#
# Elastic Constant Matrix: (Units=GPa)
#
#
# Indices 1 2 3 4 5 6 
#
# 1 118.1209 64.4607 43.0737 12.5735 -28.4670 -3.9493
# 2 64.4607 117.6109 56.8006 -5.5296 -20.3269 -6.8456
# 3 43.0737 56.8006 57.4486 1.2235 -24.7017 14.8354
# 4 12.5735 -5.5296 1.2235 31.6026 1.7775 -3.2875
# 5 -28.4670 -20.3269 -24.7017 1.7775 25.5984 -16.7612
# 6 -3.9493 -6.8456 14.8354 -3.2875 -16.7612 42.1059
#
#
#
# Elastic Compliance Matrix: (Units=1/GPa)
#
#
# Indices 1 2 3 4 5 6 
#
# 1 0.018297 -0.005730 -0.001055 -0.008505 0.021224 0.008941
# 2 -0.005730 0.023187 -0.023325 0.008563 -0.004230 0.010436
# 3 -0.001055 -0.023325 0.056253 -0.008763 0.025999 -0.014046
# 4 -0.008505 0.008563 -0.008763 0.037743 -0.012706 0.001571
# 5 0.021224 -0.004230 0.025999 -0.012706 0.107505 0.033945
# 6 0.008941 0.010436 -0.014046 0.001571 0.033945 0.044869
#
#
# Mechanical properties :
#
#
# Convention : Reuss Voigt Hill
#
# Bulk Modulus (GPa) = 26.65534 69.09451 47.87492
# Shear Modulus (GPa) = 13.86653 28.45108 21.15880
#
# Velocity S-wave (km/s) = 2.61175 3.74109 3.22622
# Velocity P-wave (km/s) = 4.71247 7.25604 6.11791
#
# Compressibility (1/GPa) = 0.03751593
#
# Stress axis : x y z
#
# Youngs Moduli (GPa) = 54.65447 43.12731 17.77678
#
# Poissons Ratio (x) = 0.24711 0.01876
# Poissons Ratio (y) = 0.31316 0.41465
# Poissons Ratio (z) = 0.05767 1.00597
#
# Static dielectric constant tensor:
#      x y z
#    x 1.707490 -0.017090 -0.002090 
#    y -0.017090 1.710810 -0.002860 
#    z -0.002090 -0.002860 1.732370 
# 
# From -- ./inp_files/19554.got.cif
#   From: 2010.05.17/outbox.cif.g08.bks.cpg/sg2_10_cif.got.tgz:19554.got - 2010.06.03 11:33:40.
