data_PCOD9041863
_publ_section_title
;
Structure prediction by ZEFSAII (Michael W. Deem and Ramdas Pophale) SiO2 
 PCOD9041863
Probable space group: P -1
;
_chemical_formula_sum "Si O2"
_cell_formula_units_Z 16
_cell_length_a 12.523386
_cell_length_b 13.184203
_cell_length_c 11.167973
_cell_angle_alpha 66.154026
_cell_angle_beta 90.359482
_cell_angle_gamma 146.137930
_cell_volume 717.006893
_symmetry_space_group_name_H-M "P -1"
_symmetry_group_IT_number 2
_symmetry_cell_setting 'triclinic'
loop_
_space_group_symop_operation_xyz
x,y,z
-x,-y,-z
loop_
_atom_site_type_symbol
_atom_site_label
_atom_site_fract_x
_atom_site_fract_y
_atom_site_fract_z
Si Si1 0.253296 0.041489 0.227721
Si Si2 0.277909 0.206608 0.913817
Si Si3 0.825069 0.508016 0.408482
Si Si4 0.624963 0.070104 0.347592
Si Si5 0.782839 0.778080 0.701276
Si Si6 0.033806 0.799439 0.766622
Si Si7 0.230087 0.554592 0.849861
Si Si8 0.475923 0.349716 0.591757
O O1 0.165176 0.072661 0.278695
O O2 0.504124 0.247043 0.203923
O O3 0.274993 0.110654 0.061358
O O4 0.104188 0.783406 0.332629
O O5 0.486264 0.498571 0.800831
O O6 0.381073 0.247146 0.774616
O O7 0.000000 0.000000 0.000000
O O8 0.821894 0.507856 0.263084
O O9 0.721947 0.521238 0.466085
O O10 0.611725 0.215693 0.579856
O O11 0.746130 0.293555 0.186414
O O12 0.851165 0.194538 0.310861
O O13 0.500000 0.000000 0.500000
O O14 0.814923 0.678437 0.787442
O O15 0.000000 0.000000 0.500000
O O16 0.972648 0.693194 0.947397
O O17 0.263533 0.099357 0.627507
O O18 0.500000 0.500000 0.500000
#
# Coordination Sequence:
#
# PCOD9041863 Si02
#       8
#     2   2   2   2   2   2   2   2
#     4  12  26  41  69 104 139 182 228 283 353 421
#     4  12  25  42  65  95 149 190 228 282 346 423
#     4  10  23  44  67  99 136 181 226 287 348 406
#     4   9  22  43  73  99 130 182 232 290 353 410
#     4  12  27  41  65 107 142 183 235 285 343 429
#     4  11  22  42  68  96 138 177 231 284 348 412
#     4  11  24  44  72 101 137 179 237 287 348 413
#     4  11  23  39  65  96 132 186 226 272 347 414
#
# _framework density 22.314986999999999
#
# number of rings (size 3 to 8) (size 9 to 14) (size 15 to 20)
#    0.000    1.000    1.250    5.250   10.500    0.500 
#    0.000    0.000    2.750    6.750    0.000    0.000 
#    0.000    0.000    0.000    0.000    0.000    0.000 
#
# Total GULP energy -89152.131510 kJ/mol
# GULP energy per Si atom -5572.008219 kJ/mol
# Density = 2.226420 g / cm^3
# Si number density = 22.314987 Si / 1000 Ang^3
#
#
#
# Elastic Constant Matrix: (Units=GPa)
#
#
# Indices 1 2 3 4 5 6 
#
# 1 114.7003 37.5730 21.3344 1.1613 2.1415 -28.6998
# 2 37.5730 89.0236 20.1955 -20.7462 -7.3023 -11.0372
# 3 21.3344 20.1955 72.1921 -6.1537 3.2413 -10.3182
# 4 1.1613 -20.7462 -6.1537 46.7685 -11.6403 -2.0710
# 5 2.1415 -7.3023 3.2413 -11.6403 31.6311 -4.7701
# 6 -28.6998 -11.0372 -10.3182 -2.0710 -4.7701 33.4782
#
#
#
# Elastic Compliance Matrix: (Units=1/GPa)
#
#
# Indices 1 2 3 4 5 6 
#
# 1 0.012710 -0.004713 -0.001369 -0.002572 -0.001465 0.008552
# 2 -0.004713 0.017040 -0.002570 0.009547 0.008418 0.002575
# 3 -0.001369 -0.002570 0.015468 0.000684 -0.001444 0.002583
# 4 -0.002572 0.009547 0.000684 0.029448 0.013892 0.004954
# 5 -0.001465 0.008418 -0.001444 0.013892 0.040070 0.007642
# 6 0.008552 0.002575 0.002583 0.004954 0.007642 0.040242
#
#
# Mechanical properties :
#
#
# Convention : Reuss Voigt Hill
#
# Bulk Modulus (GPa) = 35.82486 48.23575 42.03031
# Shear Modulus (GPa) = 27.53510 35.49643 31.51576
#
# Velocity S-wave (km/s) = 3.51654 3.99268 3.76215
# Velocity P-wave (km/s) = 5.70764 6.55119 6.14391
#
# Compressibility (1/GPa) = 0.02791358
#
# Stress axis : x y z
#
# Youngs Moduli (GPa) = 78.67638 58.68594 64.65065
#
# Poissons Ratio (x) = 0.27661 0.08849
# Poissons Ratio (y) = 0.37083 0.16616
# Poissons Ratio (z) = 0.10769 0.15083
#
# Static dielectric constant tensor:
#      x y z
#    x 1.646710 0.211960 0.229340 
#    y 0.211960 1.867020 -0.177430 
#    z 0.229340 -0.177430 1.653020 
# 
# From -- ./inp_files/427988.got.cif
#   From: 2010.05.17/outbox.cif.g08.bks.cpg/sg2_214_cif.got.tgz:427988.got - 2010.06.03 11:33:40.
