data_PCOD9041005
_publ_section_title
;
Structure prediction by ZEFSAII (Michael W. Deem and Ramdas Pophale) SiO2 
 PCOD9041005
Probable space group: P -1
;
_chemical_formula_sum "Si O2"
_cell_formula_units_Z 16
_cell_length_a 12.609094
_cell_length_b 11.208096
_cell_length_c 10.792431
_cell_angle_alpha 75.797524
_cell_angle_beta 52.404809
_cell_angle_gamma 35.050692
_cell_volume 575.766402
_symmetry_space_group_name_H-M "P -1"
_symmetry_group_IT_number 2
_symmetry_cell_setting 'triclinic'
loop_
_space_group_symop_operation_xyz
x,y,z
-x,-y,-z
loop_
_atom_site_type_symbol
_atom_site_label
_atom_site_fract_x
_atom_site_fract_y
_atom_site_fract_z
Si Si1 0.715992 0.779481 0.800272
Si Si2 0.702451 0.184076 0.622079
Si Si3 0.471181 0.423578 0.315865
Si Si4 0.359777 0.854528 0.059431
Si Si5 0.204016 0.076193 0.755088
Si Si6 0.880187 0.418910 0.267136
Si Si7 0.446936 0.112534 0.680935
Si Si8 0.878818 0.223121 0.756747
O O1 0.995684 0.583173 0.719879
O O2 0.668367 0.890388 0.679134
O O3 0.627336 0.710562 0.858565
O O4 0.500000 0.000000 0.000000
O O5 0.479997 0.471303 0.713668
O O6 0.637414 0.146214 0.791400
O O7 0.000000 0.000000 0.500000
O O8 0.814333 0.050945 0.443593
O O9 0.688661 0.140961 0.213635
O O10 0.276685 0.585468 0.293015
O O11 0.309110 0.512462 0.530388
O O12 0.278796 0.779028 0.105534
O O13 0.110417 0.142924 0.125860
O O14 0.401613 0.967459 0.531574
O O15 0.241943 0.161660 0.796382
O O16 0.923895 0.263004 0.839747
O O17 0.723130 0.629130 0.227366
#
# Coordination Sequence:
#
# PCOD9041005 Si02
#       8
#     2   2   2   2   2   2   2   2
#     4  10  22  35  57  77 108 148 181 217 268 313
#     4   8  14  28  53  78 109 129 167 225 267 313
#     4   9  16  32  54  82 110 135 175 224 270 316
#     4   9  17  33  53  85 107 134 179 224 264 326
#     4  10  22  35  56  81 109 145 177 222 268 317
#     4  10  17  35  57  76 110 145 169 225 277 300
#     4  10  23  39  51  82 112 138 192 218 250 334
#     4  10  17  33  57  79 110 140 171 223 280 313
#
# _framework density 27.789045000000002
#
# number of rings (size 3 to 8) (size 9 to 14) (size 15 to 20)
#    0.000    2.750    3.750    0.750    1.750    3.500 
#    0.000    6.875    0.000    3.750    0.000    0.000 
#    0.000    0.000    0.000    0.000    0.000    0.000 
#
# Total GULP energy -89498.556517 kJ/mol
# GULP energy per Si atom -5593.659782 kJ/mol
# Density = 2.772580 g / cm^3
# Si number density = 27.789045 Si / 1000 Ang^3
#
#
#
# Elastic Constant Matrix: (Units=GPa)
#
#
# Indices 1 2 3 4 5 6 
#
# 1 108.1949 29.4442 0.8979 -5.9194 -16.4972 -0.2581
# 2 29.4442 174.7637 38.1786 -34.9519 -7.1943 9.0692
# 3 0.8979 38.1786 104.6098 -25.0725 1.8271 7.0311
# 4 -5.9194 -34.9519 -25.0725 35.1734 12.9066 4.8134
# 5 -16.4972 -7.1943 1.8271 12.9066 22.0933 -2.5395
# 6 -0.2581 9.0692 7.0311 4.8134 -2.5395 52.0479
#
#
#
# Elastic Compliance Matrix: (Units=1/GPa)
#
#
# Indices 1 2 3 4 5 6 
#
# 1 0.011302 -0.002430 -0.000792 -0.005343 0.011021 0.001618
# 2 -0.002430 0.008032 -0.000390 0.009461 -0.004978 -0.002477
# 3 -0.000792 -0.000390 0.013208 0.012941 -0.009760 -0.003393
# 4 -0.005343 0.009461 0.012941 0.062206 -0.039596 -0.011108
# 5 0.011021 -0.004978 -0.009760 -0.039596 0.076919 0.009655
# 6 0.001618 -0.002477 -0.003393 -0.011108 0.009655 0.021609
#
#
# Mechanical properties :
#
#
# Convention : Reuss Voigt Hill
#
# Bulk Modulus (GPa) = 39.49464 58.28998 48.89231
# Shear Modulus (GPa) = 23.93016 43.13276 33.53146
#
# Velocity S-wave (km/s) = 2.93770 3.94401 3.47745
# Velocity P-wave (km/s) = 5.07444 6.46233 5.80997
#
# Compressibility (1/GPa) = 0.02531989
#
# Stress axis : x y z
#
# Youngs Moduli (GPa) = 88.47640 124.49860 75.70888
#
# Poissons Ratio (x) = 0.30253 0.05995
# Poissons Ratio (y) = 0.21500 0.02951
# Poissons Ratio (z) = 0.07006 0.04852
#
# Static dielectric constant tensor:
#      x y z
#    x 2.366520 0.034680 0.042750 
#    y 0.034680 2.194230 0.082890 
#    z 0.042750 0.082890 2.157730 
# 
# From -- ./inp_files/451237.got.cif
#   From: 2010.05.17/outbox.cif.g08.bks.cpg/sg2_226_cif.got.tgz:451237.got - 2010.06.03 11:33:40.
