data_PCOD9041965
_publ_section_title
;
Structure prediction by ZEFSAII (Michael W. Deem and Ramdas Pophale) SiO2 
 PCOD9041965
Probable space group: P -1
;
_chemical_formula_sum "Si O2"
_cell_formula_units_Z 14
_cell_length_a 9.112967
_cell_length_b 17.468418
_cell_length_c 5.180340
_cell_angle_alpha 131.207879
_cell_angle_beta 115.185366
_cell_angle_gamma 71.176672
_cell_volume 560.343677
_symmetry_space_group_name_H-M "P -1"
_symmetry_group_IT_number 2
_symmetry_cell_setting 'triclinic'
loop_
_space_group_symop_operation_xyz
x,y,z
-x,-y,-z
loop_
_atom_site_type_symbol
_atom_site_label
_atom_site_fract_x
_atom_site_fract_y
_atom_site_fract_z
Si Si1 0.499505 0.378650 0.252601
Si Si2 0.936194 0.730584 0.470826
Si Si3 0.075433 0.083537 0.426713
Si Si4 0.601413 0.027670 0.385981
Si Si5 0.196165 0.797507 0.167873
Si Si6 0.798108 0.386423 0.855279
Si Si7 0.299629 0.375202 0.594693
O O1 0.500000 0.500000 0.500000
O O2 0.670706 0.354447 0.469327
O O3 0.366165 0.352948 0.310528
O O4 0.437642 0.349972 0.859928
O O5 0.845899 0.821983 0.450503
O O6 0.844690 0.689651 0.556868
O O7 0.017454 0.635986 0.158335
O O8 0.090402 0.787245 0.812402
O O9 0.221319 0.031837 0.590397
O O10 0.923999 0.134017 0.584261
O O11 0.000000 0.000000 0.000000
O O12 0.500000 0.000000 0.500000
O O13 0.644048 0.145328 0.652448
O O14 0.500000 0.000000 0.000000
O O15 0.220011 0.689034 0.086268
O O16 0.754904 0.504054 0.156294
#
# Coordination Sequence:
#
# PCOD9041965 Si02
#       7
#     2   2   2   2   2   2   2
#     4  10  23  44  68  95 140 195 231 283 356 406
#     4  11  26  42  73 104 137 188 242 287 350 424
#     4  11  24  50  74  98 145 190 233 294 367 432
#     4  12  28  47  75 107 138 179 238 300 356 425
#     4  11  26  45  73 102 140 193 232 287 371 422
#     4  10  24  43  69 100 147 186 230 293 347 421
#     4  11  25  44  70 105 142 189 240 286 346 419
#
# _framework density 24.984667000000002
#
# number of rings (size 3 to 8) (size 9 to 14) (size 15 to 20)
#    0.000    1.143    1.429    3.429   14.000    2.857 
#    0.000    0.000    0.000    0.000    0.000    0.000 
#    0.000    0.000    0.000    0.000    0.000    0.000 
#
# Total GULP energy -78392.651384 kJ/mol
# GULP energy per Si atom -5599.475099 kJ/mol
# Density = 2.492780 g / cm^3
# Si number density = 24.984667 Si / 1000 Ang^3
#
#
#
# Elastic Constant Matrix: (Units=GPa)
#
#
# Indices 1 2 3 4 5 6 
#
# 1 111.9672 41.7265 5.3652 12.4391 0.5207 26.0726
# 2 41.7265 172.6623 27.5560 -1.4141 4.1504 12.9205
# 3 5.3652 27.5560 79.2283 -8.2602 14.1209 -5.3672
# 4 12.4391 -1.4141 -8.2602 42.9330 2.5238 2.6150
# 5 0.5207 4.1504 14.1209 2.5238 43.9096 2.8724
# 6 26.0726 12.9205 -5.3672 2.6150 2.8724 52.2160
#
#
#
# Elastic Compliance Matrix: (Units=1/GPa)
#
#
# Indices 1 2 3 4 5 6 
#
# 1 0.011362 -0.002284 -0.000813 -0.003265 0.000862 -0.005076
# 2 -0.002284 0.006758 -0.002220 0.000498 0.000125 -0.000792
# 3 -0.000813 -0.002220 0.014825 0.003145 -0.004899 0.002591
# 4 -0.003265 0.000498 0.003145 0.024963 -0.002501 0.000718
# 5 0.000862 0.000125 -0.004899 -0.002501 0.024615 -0.002194
# 6 -0.005076 -0.000792 0.002591 0.000718 -0.002194 0.022233
#
#
# Mechanical properties :
#
#
# Convention : Reuss Voigt Hill
#
# Bulk Modulus (GPa) = 44.81889 57.01702 50.91796
# Shear Modulus (GPa) = 40.70794 47.09241 43.90017
#
# Velocity S-wave (km/s) = 4.04086 4.34620 4.19631
# Velocity P-wave (km/s) = 6.30467 6.93226 6.62590
#
# Compressibility (1/GPa) = 0.02231202
#
# Stress axis : x y z
#
# Youngs Moduli (GPa) = 88.01414 147.96937 67.45178
#
# Poissons Ratio (x) = 0.33791 0.05484
# Poissons Ratio (y) = 0.20099 0.14974
# Poissons Ratio (z) = 0.07156 0.32849
#
# Static dielectric constant tensor:
#      x y z
#    x 2.066750 -0.059780 -0.045600 
#    y -0.059780 2.027190 0.003350 
#    z -0.045600 0.003350 2.001260 
# 
# From -- ./inp_files/49458.got.cif
#   From: 2010.05.17/outbox.cif.g08.bks.cpg/sg2_25_cif.got.tgz:49458.got - 2010.06.03 11:33:40.
