data_PCOD9041262
_publ_section_title
;
Structure prediction by ZEFSAII (Michael W. Deem and Ramdas Pophale) SiO2 
 PCOD9041262
Probable space group: P -1
;
_chemical_formula_sum "Si O2"
_cell_formula_units_Z 14
_cell_length_a 12.394713
_cell_length_b 9.479011
_cell_length_c 13.219854
_cell_angle_alpha 118.019476
_cell_angle_beta 46.459215
_cell_angle_gamma 147.269252
_cell_volume 584.417648
_symmetry_space_group_name_H-M "P -1"
_symmetry_group_IT_number 2
_symmetry_cell_setting 'triclinic'
loop_
_space_group_symop_operation_xyz
x,y,z
-x,-y,-z
loop_
_atom_site_type_symbol
_atom_site_label
_atom_site_fract_x
_atom_site_fract_y
_atom_site_fract_z
Si Si1 0.773180 0.930069 0.730348
Si Si2 0.462563 0.080948 0.773027
Si Si3 0.255663 0.845435 0.540026
Si Si4 0.780040 0.235426 0.979691
Si Si5 0.388212 0.388604 0.922851
Si Si6 0.705967 0.811420 0.505109
Si Si7 0.054247 0.386007 0.149210
O O1 0.567755 0.634540 0.812030
O O2 0.682181 0.875215 0.653516
O O3 0.033319 0.057545 0.608400
O O4 0.827651 0.128132 0.836343
O O5 0.430882 0.005718 0.884877
O O6 0.210254 0.787681 0.786975
O O7 0.708445 0.238055 0.607507
O O8 0.406565 0.217498 0.835220
O O9 0.009098 0.632786 0.699523
O O10 0.500000 0.000000 0.500000
O O11 0.286090 0.047714 0.539935
O O12 0.741324 0.345039 0.961960
O O13 0.000000 0.500000 0.000000
O O14 0.500000 0.500000 0.000000
O O15 0.128904 0.264819 0.050739
O O16 0.500000 0.500000 0.500000
#
# Coordination Sequence:
#
# PCOD9041262 Si02
#       7
#     2   2   2   2   2   2   2
#     4  11  27  47  75 118 150 196 267 304 390 459
#     4  10  23  43  72 103 148 192 253 303 380 443
#     4  10  24  45  72 110 144 200 257 304 381 455
#     4  10  23  45  75 105 149 192 249 314 372 447
#     4  12  24  43  68 103 151 187 245 317 363 452
#     4  11  28  48  80 107 158 204 251 321 383 454
#     4  10  24  42  72 103 143 197 247 302 379 443
#
# _framework density 23.955472
#
# number of rings (size 3 to 8) (size 9 to 14) (size 15 to 20)
#    0.000    1.429    1.429    1.286   12.000    4.000 
#    0.000    2.143    0.000    0.000    0.000    0.000 
#    0.000    0.000    0.000    0.000    0.000    0.000 
#
# Total GULP energy -78071.328491 kJ/mol
# GULP energy per Si atom -5576.523464 kJ/mol
# Density = 2.390095 g / cm^3
# Si number density = 23.955472 Si / 1000 Ang^3
#
#
#
# Elastic Constant Matrix: (Units=GPa)
#
#
# Indices 1 2 3 4 5 6 
#
# 1 124.5012 69.3181 60.3378 0.4750 20.4366 -21.3351
# 2 69.3181 78.5528 79.8371 4.8801 18.2685 -12.3443
# 3 60.3378 79.8371 192.4335 -1.2915 8.6393 -29.0602
# 4 0.4750 4.8801 -1.2915 39.8793 1.1465 6.8826
# 5 20.4366 18.2685 8.6393 1.1465 50.3260 1.1430
# 6 -21.3351 -12.3443 -29.0602 6.8826 1.1430 52.4932
#
#
#
# Elastic Compliance Matrix: (Units=1/GPa)
#
#
# Indices 1 2 3 4 5 6 
#
# 1 0.016978 -0.016179 0.002088 0.001176 -0.001500 0.004130
# 2 -0.016179 0.040172 -0.011809 -0.004428 -0.005817 -0.002959
# 3 0.002088 -0.011809 0.009883 0.001113 0.001641 0.003361
# 4 0.001176 -0.004428 0.001113 0.026213 0.000419 -0.003393
# 5 -0.001500 -0.005817 0.001641 0.000419 0.022337 -0.001611
# 6 0.004130 -0.002959 0.003361 -0.003393 -0.001611 0.022373
#
#
# Mechanical properties :
#
#
# Convention : Reuss Voigt Hill
#
# Bulk Modulus (GPa) = 65.64974 90.49706 78.07340
# Shear Modulus (GPa) = 25.66288 40.93933 33.30111
#
# Velocity S-wave (km/s) = 3.27658 4.13846 3.73248
# Velocity P-wave (km/s) = 6.46367 7.79070 7.15801
#
# Compressibility (1/GPa) = 0.01523235
#
# Stress axis : x y z
#
# Youngs Moduli (GPa) = 58.90147 24.89270 101.18605
#
# Poissons Ratio (x) = 0.40273 -0.21126
# Poissons Ratio (y) = 0.95295 1.19494
# Poissons Ratio (z) = -0.12298 0.29397
#
# Static dielectric constant tensor:
#      x y z
#    x 1.894550 0.177120 0.062160 
#    y 0.177120 1.438020 -0.042850 
#    z 0.062160 -0.042850 1.962840 
# 
# From -- ./inp_files/419706.got.cif
#   From: 2010.05.17/outbox.cif.g08.bks.cpg/sg2_210_cif.got.tgz:419706.got - 2010.06.03 11:33:40.
