data_PCOD9041366
_publ_section_title
;
Structure prediction by ZEFSAII (Michael W. Deem and Ramdas Pophale) SiO2 
 PCOD9041366
Probable space group: P -1
;
_chemical_formula_sum "Si O2"
_cell_formula_units_Z 16
_cell_length_a 12.207214
_cell_length_b 8.985191
_cell_length_c 17.614337
_cell_angle_alpha 101.366259
_cell_angle_beta 155.805111
_cell_angle_gamma 91.136280
_cell_volume 673.734492
_symmetry_space_group_name_H-M "P -1"
_symmetry_group_IT_number 2
_symmetry_cell_setting 'triclinic'
loop_
_space_group_symop_operation_xyz
x,y,z
-x,-y,-z
loop_
_atom_site_type_symbol
_atom_site_label
_atom_site_fract_x
_atom_site_fract_y
_atom_site_fract_z
Si Si1 0.908287 0.668646 0.201523
Si Si2 0.316637 0.758283 0.185033
Si Si3 0.241780 0.435934 0.735106
Si Si4 0.207868 0.872474 0.964639
Si Si5 0.271112 0.495441 0.418161
Si Si6 0.242669 0.028448 0.379761
Si Si7 0.342768 0.409845 0.175301
Si Si8 0.668753 0.251181 0.254678
O O1 0.874988 0.662910 0.270029
O O2 0.199504 0.647540 0.367208
O O3 0.599406 0.501271 0.960787
O O4 0.969150 0.845818 0.220335
O O5 0.594494 0.857196 0.430661
O O6 0.312850 0.576870 0.146255
O O7 0.313390 0.853769 0.114217
O O8 0.004193 0.720223 0.028004
O O9 0.259426 0.625821 0.761283
O O10 0.005259 0.317815 0.510078
O O11 0.053544 0.683864 0.808340
O O12 0.916748 0.905009 0.774699
O O13 0.483043 0.042204 0.115028
O O14 0.500000 0.500000 0.500000
O O15 0.435888 0.527652 0.605588
O O16 0.500000 0.000000 0.500000
O O17 0.489184 0.320946 0.204683
#
# Coordination Sequence:
#
# PCOD9041366 Si02
#       8
#     2   2   2   2   2   2   2   2
#     4  11  24  44  71 101 133 190 231 281 351 421
#     4  11  26  40  66 103 145 183 224 289 352 421
#     4  10  23  43  73  93 133 181 248 282 336 415
#     4  12  25  43  67 103 143 175 235 290 347 419
#     4  12  24  44  70 104 143 186 224 286 362 424
#     4  12  25  42  69 106 144 180 230 292 353 417
#     4  11  24  43  66  99 143 185 232 276 353 427
#     4  11  23  44  70  97 128 187 237 292 341 406
#
# _framework density 23.748228000000001
#
# number of rings (size 3 to 8) (size 9 to 14) (size 15 to 20)
#    0.000    0.750    5.000    2.250    1.750    1.000 
#    0.000    1.250   11.000    0.000    0.000    0.000 
#    0.000    0.000    0.000    0.000    0.000    0.000 
#
# Total GULP energy -89426.421216 kJ/mol
# GULP energy per Si atom -5589.151326 kJ/mol
# Density = 2.369418 g / cm^3
# Si number density = 23.748228 Si / 1000 Ang^3
#
#
#
# Elastic Constant Matrix: (Units=GPa)
#
#
# Indices 1 2 3 4 5 6 
#
# 1 66.8278 10.1597 3.7732 -1.8841 -12.6228 9.5983
# 2 10.1597 107.3852 27.4360 -4.0502 -7.0886 24.3413
# 3 3.7732 27.4360 119.0328 -0.2995 -7.1448 5.6504
# 4 -1.8841 -4.0502 -0.2995 54.9047 7.1023 1.6258
# 5 -12.6228 -7.0886 -7.1448 7.1023 32.6909 -3.9137
# 6 9.5983 24.3413 5.6504 1.6258 -3.9137 23.5021
#
#
#
# Elastic Compliance Matrix: (Units=1/GPa)
#
#
# Indices 1 2 3 4 5 6 
#
# 1 0.016919 0.000154 0.000069 0.000017 0.005846 -0.006114
# 2 0.000154 0.012888 -0.002330 0.001255 0.000534 -0.012849
# 3 0.000069 -0.002330 0.009008 -0.000346 0.001627 0.000514
# 4 0.000017 0.001255 -0.000346 0.018958 -0.004305 -0.003252
# 5 0.005846 0.000534 0.001627 -0.004305 0.034580 0.002725
# 6 -0.006114 -0.012849 0.000514 -0.003252 0.002725 0.058909
#
#
# Mechanical properties :
#
#
# Convention : Reuss Voigt Hill
#
# Bulk Modulus (GPa) = 28.90047 41.77594 35.33820
# Shear Modulus (GPa) = 29.93830 39.01132 34.47481
#
# Velocity S-wave (km/s) = 3.55442 4.05743 3.81422
# Velocity P-wave (km/s) = 5.38898 6.29124 5.85751
#
# Compressibility (1/GPa) = 0.03460152
#
# Stress axis : x y z
#
# Youngs Moduli (GPa) = 59.10417 77.59076 111.00808
#
# Poissons Ratio (x) = -0.01194 -0.00770
# Poissons Ratio (y) = -0.00909 0.25869
# Poissons Ratio (z) = -0.00410 0.18081
#
# Static dielectric constant tensor:
#      x y z
#    x 1.924140 0.022720 -0.009900 
#    y 0.022720 1.940550 -0.006870 
#    z -0.009900 -0.006870 1.924010 
# 
# From -- ./inp_files/314769.got.cif
#   From: 2010.05.17/outbox.cif.g08.bks.cpg/sg2_158_cif.got.tgz:314769.got - 2010.06.03 11:33:40.
