data_PCOD9041279
_publ_section_title
;
Structure prediction by ZEFSAII (Michael W. Deem and Ramdas Pophale) SiO2 
 PCOD9041279
Probable space group: P -1
;
_chemical_formula_sum "Si O2"
_cell_formula_units_Z 15
_cell_length_a 22.092425
_cell_length_b 5.069546
_cell_length_c 5.216081
_cell_angle_alpha 89.160529
_cell_angle_beta 104.137981
_cell_angle_gamma 108.288025
_cell_volume 536.664614
_symmetry_space_group_name_H-M "P -1"
_symmetry_group_IT_number 2
_symmetry_cell_setting 'triclinic'
loop_
_space_group_symop_operation_xyz
x,y,z
-x,-y,-z
loop_
_atom_site_type_symbol
_atom_site_label
_atom_site_fract_x
_atom_site_fract_y
_atom_site_fract_z
Si Si1 0.861745 0.947710 0.231462
Si Si2 0.264052 0.486114 0.685488
Si Si3 0.621997 0.699881 0.015229
Si Si4 0.100279 0.475083 0.025939
Si Si5 0.557993 0.279283 0.553111
Si Si6 0.037318 0.735210 0.338679
Si Si7 0.305406 0.824863 0.244951
Si Si8 0.500000 0.500000 0.000000
O O1 0.926128 0.985094 0.475098
O O2 0.870014 0.258771 0.137815
O O3 0.798980 0.782077 0.332744
O O4 0.864130 0.749623 0.996879
O O5 0.326509 0.371585 0.747275
O O6 0.276151 0.668795 0.954459
O O7 0.260525 0.684966 0.441571
O O8 0.562379 0.435496 0.835459
O O9 0.668449 0.854435 0.823787
O O10 0.567735 0.833101 0.046024
O O11 0.095258 0.638196 0.274993
O O12 0.022523 0.289318 0.914413
O O13 0.627391 0.231108 0.616709
O O14 0.542198 0.442034 0.295918
O O15 0.500000 0.000000 0.500000
O O16 0.000000 0.500000 0.500000
#
# Coordination Sequence:
#
# PCOD9041279 Si02
#       8
#     2   2   2   2   2   2   2   1
#     4  11  25  45  71 106 149 207 262 321 387 469
#     4  11  28  48  69 103 145 202 256 314 381 466
#     4  11  26  43  69 102 140 189 241 317 386 464
#     4  10  23  43  72 110 150 196 257 320 394 465
#     4  11  24  40  65 103 133 177 233 306 382 462
#     4   9  21  43  73 109 152 195 249 324 394 460
#     4  11  26  47  70  97 145 189 248 309 384 455
#     4  12  22  40  72  96 134 178 238 300 382 452
#
# _framework density 27.950420999999999
#
# number of rings (size 3 to 8) (size 9 to 14) (size 15 to 20)
#    0.000    1.333    2.667    0.800    5.600    7.467 
#    0.000    0.000    0.000    0.000    0.000    0.000 
#    0.000    0.000    0.000    0.000    0.000    0.000 
#
# Total GULP energy -83750.144974 kJ/mol
# GULP energy per Si atom -5583.342998 kJ/mol
# Density = 2.788680 g / cm^3
# Si number density = 27.950421 Si / 1000 Ang^3
#
#
#
# Elastic Constant Matrix: (Units=GPa)
#
#
# Indices 1 2 3 4 5 6 
#
# 1 87.2609 28.8902 -10.2798 3.8233 -5.3050 32.0581
# 2 28.8902 164.3204 41.2749 -10.0708 -1.8134 32.7532
# 3 -10.2798 41.2749 128.5081 -12.5891 -20.5278 20.8102
# 4 3.8233 -10.0708 -12.5891 52.9284 5.6054 0.7617
# 5 -5.3050 -1.8134 -20.5278 5.6054 27.5725 -3.2158
# 6 32.0581 32.7532 20.8102 0.7617 -3.2158 53.5924
#
#
#
# Elastic Compliance Matrix: (Units=1/GPa)
#
#
# Indices 1 2 3 4 5 6 
#
# 1 0.016748 -0.002026 0.004398 -0.000973 0.005377 -0.010151
# 2 -0.002026 0.007636 -0.002416 0.001303 -0.002263 -0.002671
# 3 0.004398 -0.002416 0.011130 0.001076 0.008171 -0.005001
# 4 -0.000973 0.001303 0.001076 0.019851 -0.003467 -0.001123
# 5 0.005377 -0.002263 0.008171 -0.003467 0.043670 -0.002337
# 6 -0.010151 -0.002671 -0.005001 -0.001123 -0.002337 0.028182
#
#
# Mechanical properties :
#
#
# Convention : Reuss Voigt Hill
#
# Bulk Modulus (GPa) = 28.22819 55.54000 41.88410
# Shear Modulus (GPa) = 35.94212 48.16560 42.05386
#
# Velocity S-wave (km/s) = 3.58987 4.15571 3.88311
# Velocity P-wave (km/s) = 5.22534 6.55291 5.92641
#
# Compressibility (1/GPa) = 0.03542558
#
# Stress axis : x y z
#
# Youngs Moduli (GPa) = 59.70979 130.95872 89.84715
#
# Poissons Ratio (x) = 0.26533 -0.39515
# Poissons Ratio (y) = 0.12098 0.21706
# Poissons Ratio (z) = -0.26260 0.31639
#
# Static dielectric constant tensor:
#      x y z
#    x 2.417440 0.040970 -0.196590 
#    y 0.040970 2.342060 0.005770 
#    z -0.196590 0.005770 2.437490 
# 
# From -- ./inp_files/121677.got.cif
#   From: 2010.05.17/outbox.cif.g08.bks.cpg/sg2_61_cif.got.tgz:121677.got - 2010.06.03 11:33:40.
