data_PCOD9041051
_publ_section_title
;
Structure prediction by ZEFSAII (Michael W. Deem and Ramdas Pophale) SiO2 
 PCOD9041051
Probable space group: P -1
;
_chemical_formula_sum "Si O2"
_cell_formula_units_Z 16
_cell_length_a 10.144692
_cell_length_b 9.336847
_cell_length_c 11.659283
_cell_angle_alpha 126.417269
_cell_angle_beta 127.147490
_cell_angle_gamma 54.710225
_cell_volume 665.710182
_symmetry_space_group_name_H-M "P -1"
_symmetry_group_IT_number 2
_symmetry_cell_setting 'triclinic'
loop_
_space_group_symop_operation_xyz
x,y,z
-x,-y,-z
loop_
_atom_site_type_symbol
_atom_site_label
_atom_site_fract_x
_atom_site_fract_y
_atom_site_fract_z
Si Si1 0.817188 0.387611 0.264172
Si Si2 0.854129 0.846189 0.817047
Si Si3 0.323995 0.627610 0.581053
Si Si4 0.514114 0.207313 0.439684
Si Si5 0.948523 0.322851 0.929235
Si Si6 0.005192 0.194665 0.648831
Si Si7 0.329891 0.720815 0.086562
Si Si8 0.304763 0.205866 0.653654
O O1 0.762477 0.308149 0.312028
O O2 0.803074 0.605046 0.382246
O O3 0.003838 0.264867 0.254296
O O4 0.684210 0.379588 0.087952
O O5 0.671855 0.817127 0.681491
O O6 0.813466 0.068921 0.896227
O O7 0.923702 0.768036 0.941458
O O8 0.467290 0.416676 0.568102
O O9 0.411656 0.765298 0.632870
O O10 0.162791 0.640087 0.415679
O O11 0.645456 0.010688 0.468906
O O12 0.750443 0.372243 0.898820
O O13 0.980040 0.195505 0.771647
O O14 0.000000 0.500000 0.000000
O O15 0.184473 0.219668 0.709900
O O16 0.000000 0.000000 0.500000
O O17 0.510052 0.761611 0.216701
#
# Coordination Sequence:
#
# PCOD9041051 Si02
#       8
#     2   2   2   2   2   2   2   2
#     4  11  23  42  69  99 133 172 220 281 333 397
#     4  10  23  43  70  96 131 172 228 268 338 393
#     4  11  25  44  66  93 140 176 223 270 339 401
#     4  10  23  44  63  96 133 181 218 273 333 406
#     4  11  23  43  71  97 133 180 221 275 335 402
#     4  12  26  43  68 100 136 176 229 275 332 402
#     4  10  24  44  70 100 134 170 226 276 338 393
#     4  11  24  44  66  98 135 174 224 281 326 397
#
# _framework density 24.034483000000002
#
# number of rings (size 3 to 8) (size 9 to 14) (size 15 to 20)
#    0.000    1.250    1.250    4.875    3.500    6.500 
#    2.250    2.500    0.000    0.000    0.000    0.000 
#    0.000    0.000    0.000    0.000    0.000    0.000 
#
# Total GULP energy -89512.776852 kJ/mol
# GULP energy per Si atom -5594.548553 kJ/mol
# Density = 2.397978 g / cm^3
# Si number density = 24.034483 Si / 1000 Ang^3
#
#
#
# Elastic Constant Matrix: (Units=GPa)
#
#
# Indices 1 2 3 4 5 6 
#
# 1 176.1929 21.2889 32.1494 -10.4141 -13.0590 16.0791
# 2 21.2889 124.1583 20.2239 30.7290 -5.4736 -7.8688
# 3 32.1494 20.2239 76.6278 6.0187 -22.6223 5.8369
# 4 -10.4141 30.7290 6.0187 27.6168 9.2469 4.7455
# 5 -13.0590 -5.4736 -22.6223 9.2469 44.3306 0.0926
# 6 16.0791 -7.8688 5.8369 4.7455 0.0926 41.6737
#
#
#
# Elastic Compliance Matrix: (Units=1/GPa)
#
#
# Indices 1 2 3 4 5 6 
#
# 1 0.007307 -0.003029 -0.003006 0.007913 -0.001398 -0.003868
# 2 -0.003029 0.013939 0.000104 -0.019344 0.004904 0.005978
# 3 -0.003006 0.000104 0.017945 -0.008457 0.010050 -0.000393
# 4 0.007913 -0.019344 -0.008457 0.071335 -0.019224 -0.013602
# 5 -0.001398 0.004904 0.010050 -0.019224 0.031885 0.002176
# 6 -0.003868 0.005978 -0.000393 -0.013602 0.002176 0.028216
#
#
# Mechanical properties :
#
#
# Convention : Reuss Voigt Hill
#
# Bulk Modulus (GPa) = 36.59039 58.25595 47.42317
# Shear Modulus (GPa) = 26.09604 42.94536 34.52070
#
# Velocity S-wave (km/s) = 3.29868 4.23167 3.79396
# Velocity P-wave (km/s) = 5.45579 6.94025 6.24230
#
# Compressibility (1/GPa) = 0.02732958
#
# Stress axis : x y z
#
# Youngs Moduli (GPa) = 136.85249 71.73921 55.72586
#
# Poissons Ratio (x) = 0.21727 0.16751
# Poissons Ratio (y) = 0.41447 -0.00577
# Poissons Ratio (z) = 0.41138 -0.00743
#
# Static dielectric constant tensor:
#      x y z
#    x 1.890640 -0.041310 0.047070 
#    y -0.041310 1.983750 0.000850 
#    z 0.047070 0.000850 1.893890 
# 
# From -- ./inp_files/383309.got.cif
#   From: 2010.05.17/outbox.cif.g08.bks.cpg/sg2_192_cif.got.tgz:383309.got - 2010.06.03 11:33:40.
