data_PCOD9041459
_publ_section_title
;
Structure prediction by ZEFSAII (Michael W. Deem and Ramdas Pophale) SiO2 
 PCOD9041459
Probable space group: P -1
;
_chemical_formula_sum "Si O2"
_cell_formula_units_Z 12
_cell_length_a 8.313091
_cell_length_b 9.273154
_cell_length_c 11.154819
_cell_angle_alpha 37.800079
_cell_angle_beta 92.378105
_cell_angle_gamma 72.813394
_cell_volume 444.538553
_symmetry_space_group_name_H-M "P -1"
_symmetry_group_IT_number 2
_symmetry_cell_setting 'triclinic'
loop_
_space_group_symop_operation_xyz
x,y,z
-x,-y,-z
loop_
_atom_site_type_symbol
_atom_site_label
_atom_site_fract_x
_atom_site_fract_y
_atom_site_fract_z
Si Si1 0.130045 0.579808 0.126624
Si Si2 0.991585 0.209917 0.458907
Si Si3 0.275540 0.917561 0.857567
Si Si4 0.588626 0.871700 0.718845
Si Si5 0.714674 0.115685 0.762442
Si Si6 0.324392 0.361652 0.685562
O O1 0.118579 0.341137 0.352030
O O2 0.214838 0.423601 0.104336
O O3 0.276586 0.678545 0.092892
O O4 0.919681 0.844853 0.967386
O O5 0.088312 0.025311 0.700067
O O6 0.779205 0.468925 0.309432
O O7 0.000000 0.000000 0.500000
O O8 0.239939 0.186432 0.749675
O O9 0.450414 0.828626 0.830010
O O10 0.500000 0.000000 0.500000
O O11 0.640618 0.065751 0.666046
O O12 0.551861 0.161941 0.819510
O O13 0.716763 0.394453 0.569485
#
# Coordination Sequence:
#
# PCOD9041459 Si02
#       6
#     2   2   2   2   2   2
#     4  12  25  43  73 107 136 186 240 279 351 417
#     4  12  26  43  74 106 138 182 237 293 345 415
#     4  11  25  45  71 101 146 185 226 294 349 408
#     4  11  23  44  70 109 141 185 232 291 345 412
#     4  10  23  43  76  96 143 192 227 287 349 414
#     4  10  23  48  67 101 145 186 227 287 357 404
#
# _framework density 26.994284
#
# number of rings (size 3 to 8) (size 9 to 14) (size 15 to 20)
#    0.000    1.000    3.333    2.500    2.333    1.333 
#    0.000    0.000    0.000    0.000    0.000    0.000 
#    0.000    0.000    0.000    0.000    0.000    0.000 
#
# Total GULP energy -67201.691490 kJ/mol
# GULP energy per Si atom -5600.140958 kJ/mol
# Density = 2.693284 g / cm^3
# Si number density = 26.994284 Si / 1000 Ang^3
#
#
#
# Elastic Constant Matrix: (Units=GPa)
#
#
# Indices 1 2 3 4 5 6 
#
# 1 114.4664 70.4183 49.1454 -13.8659 -27.0186 -27.6075
# 2 70.4183 178.2480 51.1774 -39.6220 -0.5136 -7.5263
# 3 49.1454 51.1774 105.9596 -20.3000 -22.1323 1.5102
# 4 -13.8659 -39.6220 -20.3000 47.6879 -3.9358 7.6450
# 5 -27.0186 -0.5136 -22.1323 -3.9358 65.1026 -15.6716
# 6 -27.6075 -7.5263 1.5102 7.6450 -15.6716 75.4218
#
#
#
# Elastic Compliance Matrix: (Units=1/GPa)
#
#
# Indices 1 2 3 4 5 6 
#
# 1 0.017518 -0.005834 -0.004271 -0.002187 0.007492 0.007694
# 2 -0.005834 0.009472 -0.001374 0.005718 -0.003040 -0.002374
# 3 -0.004271 -0.001374 0.013372 0.003812 0.002554 -0.001824
# 4 -0.002187 0.005718 0.003812 0.027269 0.001414 -0.002777
# 5 0.007492 -0.003040 0.002554 0.001414 0.020990 0.006606
# 6 0.007694 -0.002374 -0.001824 -0.002777 0.006606 0.017529
#
#
# Mechanical properties :
#
#
# Convention : Reuss Voigt Hill
#
# Bulk Modulus (GPa) = 57.46180 82.23959 69.85070
# Shear Modulus (GPa) = 37.06187 52.83799 44.94993
#
# Velocity S-wave (km/s) = 3.70936 4.42903 4.08507
# Velocity P-wave (km/s) = 6.29910 7.52906 6.94137
#
# Compressibility (1/GPa) = 0.01740286
#
# Stress axis : x y z
#
# Youngs Moduli (GPa) = 57.08306 105.57904 74.78302
#
# Poissons Ratio (x) = 0.61596 0.31940
# Poissons Ratio (y) = 0.33303 0.10278
# Poissons Ratio (z) = 0.24381 0.14510
#
# Static dielectric constant tensor:
#      x y z
#    x 2.114510 -0.037650 -0.026630 
#    y -0.037650 2.125090 0.053970 
#    z -0.026630 0.053970 2.202230 
# 
# From -- ./inp_files/149705.got.cif
#   From: 2010.05.17/outbox.cif.g08.bks.cpg/sg2_75_cif.got.tgz:149705.got - 2010.06.03 11:33:40.
