data_PCOD9041137
_publ_section_title
;
Structure prediction by ZEFSAII (Michael W. Deem and Ramdas Pophale) SiO2 
 PCOD9041137
Probable space group: P -1
;
_chemical_formula_sum "Si O2"
_cell_formula_units_Z 13
_cell_length_a 14.354383
_cell_length_b 14.724890
_cell_length_c 11.556845
_cell_angle_alpha 145.864375
_cell_angle_beta 29.406925
_cell_angle_gamma 148.460084
_cell_volume 591.833461
_symmetry_space_group_name_H-M "P -1"
_symmetry_group_IT_number 2
_symmetry_cell_setting 'triclinic'
loop_
_space_group_symop_operation_xyz
x,y,z
-x,-y,-z
loop_
_atom_site_type_symbol
_atom_site_label
_atom_site_fract_x
_atom_site_fract_y
_atom_site_fract_z
Si Si1 0.934637 0.703795 0.959437
Si Si2 0.141465 0.209514 0.110618
Si Si3 0.061792 0.193054 0.693545
Si Si4 0.314484 0.790235 0.980647
Si Si5 0.170478 0.710339 0.305222
Si Si6 0.500000 0.500000 0.500000
Si Si7 0.400359 0.049164 0.769811
O O1 0.815330 0.683428 0.944322
O O2 0.884218 0.499738 0.834381
O O3 0.857845 0.781078 0.232619
O O4 0.184653 0.860453 0.836833
O O5 0.999046 0.257966 0.402082
O O6 0.333724 0.202832 0.964208
O O7 0.000000 0.000000 0.000000
O O8 0.257241 0.343666 0.569369
O O9 0.857674 0.231427 0.954069
O O10 0.000000 0.000000 0.500000
O O11 0.174339 0.745961 0.203169
O O12 0.425045 0.661028 0.725516
O O13 0.500000 0.000000 0.000000
O O14 0.411739 0.855866 0.239749
O O15 0.500000 0.000000 0.500000
#
# Coordination Sequence:
#
# PCOD9041137 Si02
#       7
#     2   2   2   2   2   1   2
#     4  11  25  47  69 106 143 185 240 296 358 441
#     4  10  23  43  71 102 140 185 234 292 359 426
#     4  12  27  48  75 105 150 194 250 308 369 440
#     4  12  27  48  77 108 150 196 250 309 371 439
#     4  12  25  47  70 105 145 183 243 297 356 437
#     4  12  26  50  70 108 142 200 248 298 372 436
#     4  11  24  44  69 101 141 188 233 288 361 424
#
# _framework density 21.965637000000001
#
# number of rings (size 3 to 8) (size 9 to 14) (size 15 to 20)
#    0.000    0.615    6.154    1.846    4.308    0.615 
#    2.769    0.000    0.000    0.000    0.000    0.000 
#    0.000    0.000    0.000    0.000    0.000    0.000 
#
# Total GULP energy -72384.043129 kJ/mol
# GULP energy per Si atom -5568.003318 kJ/mol
# Density = 2.191564 g / cm^3
# Si number density = 21.965637 Si / 1000 Ang^3
#
#
#
# Elastic Constant Matrix: (Units=GPa)
#
#
# Indices 1 2 3 4 5 6 
#
# 1 -3.7647 53.1057 -37.3331 -88.9291 -10.0401 -42.3638
# 2 53.1057 99.1027 53.2473 81.4524 -5.3496 20.8636
# 3 -37.3331 53.2473 62.6646 -33.8431 -7.7266 -30.4183
# 4 -88.9291 81.4524 -33.8431 -48.9544 -3.5552 -40.1878
# 5 -10.0401 -5.3496 -7.7266 -3.5552 41.1886 -14.7467
# 6 -42.3638 20.8636 -30.4183 -40.1878 -14.7467 24.4399
#
#
#
# Elastic Compliance Matrix: (Units=1/GPa)
#
#
# Indices 1 2 3 4 5 6 
#
# 1 0.009120 0.003254 -0.002467 -0.007675 0.000724 -0.002223
# 2 0.003254 0.006539 -0.000358 0.001583 0.003195 0.004143
# 3 -0.002467 -0.000358 0.012472 -0.006497 0.001840 0.001981
# 4 -0.007675 0.001583 -0.006497 0.009615 -0.005785 -0.010421
# 5 0.000724 0.003195 0.001840 -0.005785 0.027556 0.007933
# 6 -0.002223 0.004143 0.001981 -0.010421 0.007933 0.023642
#
#
# Mechanical properties :
#
#
# Convention : Reuss Voigt Hill
#
# Bulk Modulus (GPa) = 34.49518 32.89360 33.69439
# Shear Modulus (GPa) = 51.15205 9.26700 30.20952
#
# Velocity S-wave (km/s) = 4.83093 2.05621 3.71254
# Velocity P-wave (km/s) = 6.84510 4.54367 5.80949
#
# Compressibility (1/GPa) = 0.02898956
#
# Stress axis : x y z
#
# Youngs Moduli (GPa) = 109.65308 152.93673 80.17758
#
# Poissons Ratio (x) = -0.49761 0.19776
# Poissons Ratio (y) = -0.35678 0.02868
# Poissons Ratio (z) = 0.27047 0.05470
#
# Static dielectric constant tensor:
#      x y z
#    x 1.911530 -0.017770 0.027720 
#    y -0.017770 1.791630 -0.022370 
#    z 0.027720 -0.022370 1.801230 
# 
# From -- ./inp_files/455176.got.cif
#   From: 2010.05.17/outbox.cif.g08.bks.cpg/sg2_228_cif.got.tgz:455176.got - 2010.06.03 11:33:40.
