data_PCOD9041136
_publ_section_title
;
Structure prediction by ZEFSAII (Michael W. Deem and Ramdas Pophale) SiO2 
 PCOD9041136
Probable space group: P -1
;
_chemical_formula_sum "Si O2"
_cell_formula_units_Z 14
_cell_length_a 9.728316
_cell_length_b 5.467897
_cell_length_c 18.945034
_cell_angle_alpha 124.497106
_cell_angle_beta 50.855709
_cell_angle_gamma 95.988262
_cell_volume 591.437207
_symmetry_space_group_name_H-M "P -1"
_symmetry_group_IT_number 2
_symmetry_cell_setting 'triclinic'
loop_
_space_group_symop_operation_xyz
x,y,z
-x,-y,-z
loop_
_atom_site_type_symbol
_atom_site_label
_atom_site_fract_x
_atom_site_fract_y
_atom_site_fract_z
Si Si1 0.329461 0.381453 0.053180
Si Si2 0.405749 0.751661 0.508397
Si Si3 0.016804 0.788810 0.650269
Si Si4 0.326778 0.255587 0.182426
Si Si5 0.851558 0.867503 0.558117
Si Si6 0.533990 0.770255 0.714408
Si Si7 0.110884 0.228684 0.977400
O O1 0.262461 0.480911 0.171547
O O2 0.500000 0.500000 0.000000
O O3 0.165933 0.413647 0.054914
O O4 0.456933 0.993245 0.945618
O O5 0.500000 0.500000 0.500000
O O6 0.177673 0.929990 0.629091
O O7 0.431185 0.536392 0.394932
O O8 0.500000 0.000000 0.500000
O O9 0.133106 0.399434 0.550562
O O10 0.836849 0.889709 0.777942
O O11 0.942581 0.801708 0.596867
O O12 0.351450 0.363853 0.270888
O O13 0.629060 0.982139 0.674646
O O14 0.000000 0.000000 0.500000
O O15 0.315000 0.988886 0.838880
O O16 0.000000 0.500000 0.000000
O O17 0.000000 0.000000 0.000000
#
# Coordination Sequence:
#
# PCOD9041136 Si02
#       7
#     2   2   2   2   2   2   2
#     4  10  23  43  71 102 139 182 248 311 351 426
#     4  11  26  46  65  98 147 191 236 291 359 442
#     4   9  20  37  59  95 125 169 230 279 354 418
#     4   9  20  42  69  98 135 174 242 303 366 410
#     4   9  18  36  67  97 124 164 230 298 345 418
#     4   9  22  46  70 106 138 195 240 301 367 430
#     4  11  27  48  74 109 153 196 244 296 373 448
#
# _framework density 23.671150999999998
#
# number of rings (size 3 to 8) (size 9 to 14) (size 15 to 20)
#    0.000    2.286    0.000    0.857   10.000    5.714 
#   10.286    0.000    0.000    0.000    0.000    0.000 
#    0.000    0.000    0.000    0.000    0.000    0.000 
#
# Total GULP energy -77996.879818 kJ/mol
# GULP energy per Si atom -5571.205701 kJ/mol
# Density = 2.361727 g / cm^3
# Si number density = 23.671151 Si / 1000 Ang^3
#
#
#
# Elastic Constant Matrix: (Units=GPa)
#
#
# Indices 1 2 3 4 5 6 
#
# 1 162.0647 75.2290 54.8688 -23.1051 4.0284 3.5823
# 2 75.2290 135.7778 48.2144 -47.7167 -2.2143 20.3983
# 3 54.8688 48.2144 125.3284 -29.0645 -15.6400 2.6243
# 4 -23.1051 -47.7167 -29.0645 47.0730 7.1686 -2.9823
# 5 4.0284 -2.2143 -15.6400 7.1686 57.8928 -11.9113
# 6 3.5823 20.3983 2.6243 -2.9823 -11.9113 42.6762
#
#
#
# Elastic Compliance Matrix: (Units=1/GPa)
#
#
# Indices 1 2 3 4 5 6 
#
# 1 0.009125 -0.005049 -0.002684 -0.002055 -0.001014 0.001386
# 2 -0.005049 0.016205 -0.001121 0.013178 -0.002404 -0.007003
# 3 -0.002684 -0.001121 0.010810 0.003864 0.002823 0.001154
# 4 -0.002055 0.013178 0.003864 0.036249 -0.003804 -0.004893
# 5 -0.001014 -0.002404 0.002823 -0.003804 0.019785 0.006317
# 6 0.001386 -0.007003 0.001154 -0.004893 0.006317 0.028013
#
#
# Mechanical properties :
#
#
# Convention : Reuss Voigt Hill
#
# Bulk Modulus (GPa) = 54.25850 86.64394 70.45122
# Shear Modulus (GPa) = 34.71299 45.85233 40.28266
#
# Velocity S-wave (km/s) = 3.83360 4.40597 4.12972
# Velocity P-wave (km/s) = 6.52433 7.90987 7.25028
#
# Compressibility (1/GPa) = 0.01843029
#
# Stress axis : x y z
#
# Youngs Moduli (GPa) = 109.59363 61.71044 92.51075
#
# Poissons Ratio (x) = 0.31159 0.24833
# Poissons Ratio (y) = 0.55337 0.10368
# Poissons Ratio (z) = 0.29418 0.06916
#
# Static dielectric constant tensor:
#      x y z
#    x 1.773270 0.103990 0.059160 
#    y 0.103990 2.010630 0.050810 
#    z 0.059160 0.050810 1.925230 
# 
# From -- ./inp_files/553793.got.cif
#   From: 2010.05.17/outbox.cif.g08.bks.cpg/sg2_277_cif.got.tgz:553793.got - 2010.06.03 11:33:40.
