data_PCOD9041359
_publ_section_title
;
Structure prediction by ZEFSAII (Michael W. Deem and Ramdas Pophale) SiO2 
 PCOD9041359
Probable space group: P -1
;
_chemical_formula_sum "Si O2"
_cell_formula_units_Z 13
_cell_length_a 8.541640
_cell_length_b 14.501336
_cell_length_c 14.061409
_cell_angle_alpha 31.653243
_cell_angle_beta 144.536961
_cell_angle_gamma 128.107944
_cell_volume 513.422482
_symmetry_space_group_name_H-M "P -1"
_symmetry_group_IT_number 2
_symmetry_cell_setting 'triclinic'
loop_
_space_group_symop_operation_xyz
x,y,z
-x,-y,-z
loop_
_atom_site_type_symbol
_atom_site_label
_atom_site_fract_x
_atom_site_fract_y
_atom_site_fract_z
Si Si1 0.946596 0.886090 0.983962
Si Si2 0.298501 0.450506 0.796968
Si Si3 0.338839 0.726549 0.706061
Si Si4 0.500000 0.000000 0.500000
Si Si5 0.569390 0.421430 0.757693
Si Si6 0.067562 0.966921 0.673487
Si Si7 0.428969 0.250688 0.652237
O O1 0.698976 0.000668 0.697105
O O2 0.862152 0.705405 0.136564
O O3 0.239860 0.831796 0.122277
O O4 0.000000 0.000000 0.000000
O O5 0.175202 0.631455 0.637761
O O6 0.376904 0.479645 0.703385
O O7 0.581795 0.375447 0.066732
O O8 0.208400 0.941504 0.480052
O O9 0.607111 0.767815 0.755141
O O10 0.405672 0.348741 0.656128
O O11 0.663056 0.591909 0.610784
O O12 0.804324 0.243062 0.060896
O O13 0.271236 0.092648 0.696620
O O14 0.000000 0.000000 0.500000
#
# Coordination Sequence:
#
# PCOD9041359 Si02
#       7
#     2   2   2   1   2   2   2
#     4  11  25  47  77 112 152 199 255 316 386 462
#     4  10  23  45  74 107 148 192 253 313 384 437
#     4  10  23  43  73 111 146 194 253 317 371 455
#     4  10  24  46  74 108 150 196 252 308 382 450
#     4  11  25  48  72 109 148 200 247 315 379 461
#     4  12  25  47  76 105 152 202 252 309 380 455
#     4  11  28  47  72 110 152 197 253 308 389 450
#
# _framework density 25.320277999999998
#
# number of rings (size 3 to 8) (size 9 to 14) (size 15 to 20)
#    0.000    1.231    1.538    2.308    8.615    2.462 
#    2.769    0.000    0.000    0.000    0.000    0.000 
#    0.000    0.000    0.000    0.000    0.000    0.000 
#
# Total GULP energy -72620.232732 kJ/mol
# GULP energy per Si atom -5586.171749 kJ/mol
# Density = 2.526265 g / cm^3
# Si number density = 25.320278 Si / 1000 Ang^3
#
#
#
# Elastic Constant Matrix: (Units=GPa)
#
#
# Indices 1 2 3 4 5 6 
#
# 1 107.4892 56.7137 44.0136 25.2012 -6.7285 -10.8499
# 2 56.7137 157.7551 28.4995 16.0526 -3.8579 -8.4380
# 3 44.0136 28.4995 137.3591 1.5573 -18.1675 -2.3709
# 4 25.2012 16.0526 1.5573 36.3241 -6.0348 -9.9071
# 5 -6.7285 -3.8579 -18.1675 -6.0348 41.9621 7.0549
# 6 -10.8499 -8.4380 -2.3709 -9.9071 7.0549 42.4907
#
#
#
# Elastic Compliance Matrix: (Units=1/GPa)
#
#
# Indices 1 2 3 4 5 6 
#
# 1 0.014959 -0.003759 -0.004043 -0.008435 -0.001089 0.001062
# 2 -0.003759 0.007867 -0.000445 -0.000772 -0.000257 0.000440
# 3 -0.004043 -0.000445 0.009126 0.003100 0.003795 -0.000519
# 4 -0.008435 -0.000772 0.003100 0.035784 0.004136 0.005522
# 5 -0.001089 -0.000257 0.003795 0.004136 0.026467 -0.003547
# 6 0.001062 0.000440 -0.000519 0.005522 -0.003547 0.025741
#
#
# Mechanical properties :
#
#
# Convention : Reuss Voigt Hill
#
# Bulk Modulus (GPa) = 64.69950 73.45078 69.07514
# Shear Modulus (GPa) = 35.31316 42.38046 38.84681
#
# Velocity S-wave (km/s) = 3.73856 4.09562 3.92116
# Velocity P-wave (km/s) = 6.65160 7.17197 6.91668
#
# Compressibility (1/GPa) = 0.01545607
#
# Stress axis : x y z
#
# Youngs Moduli (GPa) = 66.85037 127.12051 109.57644
#
# Poissons Ratio (x) = 0.47782 0.44306
# Poissons Ratio (y) = 0.25128 0.04881
# Poissons Ratio (z) = 0.27030 0.05662
#
# Static dielectric constant tensor:
#      x y z
#    x 2.163290 0.087160 0.088550 
#    y 0.087160 2.053690 -0.015040 
#    z 0.088550 -0.015040 2.161610 
# 
# From -- ./inp_files/176431.got.cif
#   From: 2010.05.17/outbox.cif.g08.bks.cpg/sg2_89_cif.got.tgz:176431.got - 2010.06.03 11:33:40.
