data_PCOD9041151
_publ_section_title
;
Structure prediction by ZEFSAII (Michael W. Deem and Ramdas Pophale) SiO2 
 PCOD9041151
Probable space group: P -1
;
_chemical_formula_sum "Si O2"
_cell_formula_units_Z 15
_cell_length_a 13.028192
_cell_length_b 15.801794
_cell_length_c 8.027102
_cell_angle_alpha 109.109847
_cell_angle_beta 76.601630
_cell_angle_gamma 39.933628
_cell_volume 606.784763
_symmetry_space_group_name_H-M "P -1"
_symmetry_group_IT_number 2
_symmetry_cell_setting 'triclinic'
loop_
_space_group_symop_operation_xyz
x,y,z
-x,-y,-z
loop_
_atom_site_type_symbol
_atom_site_label
_atom_site_fract_x
_atom_site_fract_y
_atom_site_fract_z
Si Si1 0.872858 0.144851 0.876671
Si Si2 0.500000 0.000000 0.000000
Si Si3 0.959970 0.451493 0.122036
Si Si4 0.513896 0.041180 0.695786
Si Si5 0.967418 0.786777 0.265472
Si Si6 0.478126 0.817951 0.784506
Si Si7 0.906742 0.183936 0.241902
Si Si8 0.347183 0.465724 0.222129
O O1 0.633340 0.285965 0.959319
O O2 0.776918 0.247843 0.164857
O O3 0.973555 0.158517 0.772697
O O4 0.081649 0.903961 0.681941
O O5 0.591935 0.030625 0.023473
O O6 0.333072 0.128356 0.326044
O O7 0.682314 0.666236 0.457552
O O8 0.996213 0.322406 0.952004
O O9 0.000000 0.500000 0.000000
O O10 0.215812 0.271095 0.029988
O O11 0.500000 0.000000 0.500000
O O12 0.662497 0.016472 0.585679
O O13 0.163467 0.608155 0.224045
O O14 0.614427 0.657667 0.779582
O O15 0.209350 0.974139 0.944855
O O16 0.781376 0.368111 0.487084
#
# Coordination Sequence:
#
# PCOD9041151 Si02
#       8
#     2   1   2   2   2   2   2   2
#     4  10  23  43  71 103 140 182 234 295 357 429
#     4  12  26  46  74 102 146 192 238 300 354 428
#     4  11  26  45  69 102 143 189 241 291 356 435
#     4  10  25  45  68 105 145 188 240 290 355 426
#     4  11  24  44  72 100 145 189 231 297 360 420
#     4  11  26  44  72 103 142 187 236 295 356 429
#     4  10  23  44  72 103 139 183 235 293 365 423
#     4  11  24  46  69 107 137 181 237 293 360 431
#
# _framework density 24.720462999999999
#
# number of rings (size 3 to 8) (size 9 to 14) (size 15 to 20)
#    0.000    1.333    0.000    4.000   11.200    3.200 
#    0.000    0.000    0.000    0.000    0.000    0.000 
#    0.000    0.000    0.000    0.000    0.000    0.000 
#
# Total GULP energy -83698.511835 kJ/mol
# GULP energy per Si atom -5579.900789 kJ/mol
# Density = 2.466420 g / cm^3
# Si number density = 24.720463 Si / 1000 Ang^3
#
#
#
# Elastic Constant Matrix: (Units=GPa)
#
#
# Indices 1 2 3 4 5 6 
#
# 1 131.2847 45.7255 34.4115 -12.1627 -22.3959 15.2678
# 2 45.7255 75.9657 28.1992 -11.4402 -30.0042 15.8740
# 3 34.4115 28.1992 74.5901 -19.4742 -10.9603 8.1983
# 4 -12.1627 -11.4402 -19.4742 26.0162 6.3071 -7.1565
# 5 -22.3959 -30.0042 -10.9603 6.3071 45.2622 -6.7663
# 6 15.2678 15.8740 8.1983 -7.1565 -6.7663 50.9375
#
#
#
# Elastic Compliance Matrix: (Units=1/GPa)
#
#
# Indices 1 2 3 4 5 6 
#
# 1 0.010214 -0.004376 -0.002689 0.000229 0.001312 -0.001059
# 2 -0.004376 0.022667 -0.004247 0.001091 0.011167 -0.003432
# 3 -0.002689 -0.004247 0.019051 0.011542 -0.001060 0.000544
# 4 0.000229 0.001091 0.011542 0.049492 -0.002617 0.004340
# 5 0.001312 0.011167 -0.001060 -0.002617 0.030245 -0.000053
# 6 -0.001059 -0.003432 0.000544 0.004340 -0.000053 0.021534
#
#
# Mechanical properties :
#
#
# Convention : Reuss Voigt Hill
#
# Bulk Modulus (GPa) = 34.12239 55.39033 44.75636
# Shear Modulus (GPa) = 26.94021 36.01014 31.47517
#
# Velocity S-wave (km/s) = 3.30478 3.82081 3.57213
# Velocity P-wave (km/s) = 5.32873 6.47457 5.92940
#
# Compressibility (1/GPa) = 0.02930627
#
# Stress axis : x y z
#
# Youngs Moduli (GPa) = 97.90381 44.11781 52.49136
#
# Poissons Ratio (x) = 0.19307 0.14114
# Poissons Ratio (y) = 0.42845 0.22296
# Poissons Ratio (z) = 0.26325 0.18739
#
# Static dielectric constant tensor:
#      x y z
#    x 2.003410 -0.186420 -0.006620 
#    y -0.186420 1.713520 -0.118580 
#    z -0.006620 -0.118580 2.002580 
# 
# From -- ./inp_files/270646.got.cif
#   From: 2010.05.17/outbox.cif.g08.bks.cpg/sg2_136_cif.got.tgz:270646.got - 2010.06.03 11:33:40.
