data_PCOD9041371
_publ_section_title
;
Structure prediction by ZEFSAII (Michael W. Deem and Ramdas Pophale) SiO2 
 PCOD9041371
Probable space group: P -1
;
_chemical_formula_sum "Si O2"
_cell_formula_units_Z 16
_cell_length_a 16.504036
_cell_length_b 9.327084
_cell_length_c 11.869836
_cell_angle_alpha 106.071512
_cell_angle_beta 116.712064
_cell_angle_gamma 27.361151
_cell_volume 716.039469
_symmetry_space_group_name_H-M "P -1"
_symmetry_group_IT_number 2
_symmetry_cell_setting 'triclinic'
loop_
_space_group_symop_operation_xyz
x,y,z
-x,-y,-z
loop_
_atom_site_type_symbol
_atom_site_label
_atom_site_fract_x
_atom_site_fract_y
_atom_site_fract_z
Si Si1 0.784383 0.882869 0.975603
Si Si2 0.262628 0.772061 0.137129
Si Si3 0.857389 0.891063 0.273866
Si Si4 0.582763 0.133252 0.323938
Si Si5 0.883367 0.240537 0.142029
Si Si6 0.481609 0.063239 0.872270
Si Si7 0.839397 0.240827 0.354865
Si Si8 0.696278 0.744337 0.494428
O O1 0.805545 0.923323 0.121377
O O2 0.000000 0.500000 0.000000
O O3 0.728032 0.084202 0.888412
O O4 0.616762 0.002195 0.906579
O O5 0.425894 0.492916 0.273438
O O6 0.249241 0.672632 0.002223
O O7 0.053727 0.058195 0.132665
O O8 0.094568 0.553313 0.371924
O O9 0.766015 0.906223 0.307785
O O10 0.746409 0.211884 0.296572
O O11 0.465845 0.158699 0.212490
O O12 0.663050 0.950829 0.452443
O O13 0.749872 0.560449 0.186613
O O14 0.948008 0.070247 0.262677
O O15 0.500000 0.000000 0.000000
O O16 0.717472 0.567816 0.386111
O O17 0.000000 0.000000 0.500000
O O18 0.500000 0.000000 0.500000
#
# Coordination Sequence:
#
# PCOD9041371 Si02
#       8
#     2   2   2   2   2   2   2   2
#     4  12  27  42  71 110 146 184 242 296 356 425
#     4  11  26  39  68 108 143 184 230 296 356 418
#     4  11  25  47  72 101 145 189 241 290 358 429
#     4  12  26  45  70 101 146 187 237 294 358 425
#     4  11  22  41  68  97 145 179 235 281 360 419
#     4  12  23  42  69 102 138 186 231 284 359 418
#     4  10  23  43  73  97 136 189 238 285 356 419
#     4  11  27  47  76 104 137 189 246 300 353 422
#
# _framework density 22.345139
#
# number of rings (size 3 to 8) (size 9 to 14) (size 15 to 20)
#    0.000    0.750    5.000    1.125    8.750    1.000 
#    0.000    0.625    0.000    0.000    0.000    0.000 
#    0.000    0.000    0.000    0.000    0.000    0.000 
#
# Total GULP energy -89185.424772 kJ/mol
# GULP energy per Si atom -5574.089048 kJ/mol
# Density = 2.229428 g / cm^3
# Si number density = 22.345139 Si / 1000 Ang^3
#
#
#
# Elastic Constant Matrix: (Units=GPa)
#
#
# Indices 1 2 3 4 5 6 
#
# 1 166.3127 49.3300 22.0507 -7.9582 -19.9530 2.9421
# 2 49.3300 91.8747 15.4508 -12.0927 -10.3064 -4.1514
# 3 22.0507 15.4508 63.6758 -6.8446 -15.7084 -0.3040
# 4 -7.9582 -12.0927 -6.8446 37.4818 4.1865 -3.6332
# 5 -19.9530 -10.3064 -15.7084 4.1865 41.0013 -1.4321
# 6 2.9421 -4.1514 -0.3040 -3.6332 -1.4321 26.4840
#
#
#
# Elastic Compliance Matrix: (Units=1/GPa)
#
#
# Indices 1 2 3 4 5 6 
#
# 1 0.007550 -0.003684 -0.001188 -0.000185 0.002265 -0.001333
# 2 -0.003684 0.013821 -0.001462 0.003614 0.000860 0.003101
# 3 -0.001188 -0.001462 0.018125 0.002004 0.005818 0.000700
# 4 -0.000185 0.003614 0.002004 0.028741 -0.001192 0.004488
# 5 0.002265 0.000860 0.005818 -0.001192 0.028104 0.001306
# 6 -0.001333 0.003101 0.000700 0.004488 0.001306 0.039087
#
#
# Mechanical properties :
#
#
# Convention : Reuss Voigt Hill
#
# Bulk Modulus (GPa) = 37.27656 55.05847 46.16752
# Shear Modulus (GPa) = 31.83939 36.66217 34.25078
#
# Velocity S-wave (km/s) = 3.77887 4.05498 3.91936
# Velocity P-wave (km/s) = 5.97982 6.82769 6.41777
#
# Compressibility (1/GPa) = 0.02682651
#
# Stress axis : x y z
#
# Youngs Moduli (GPa) = 132.45872 72.35468 55.17307
#
# Poissons Ratio (x) = 0.26657 0.06554
# Poissons Ratio (y) = 0.48801 0.08067
# Poissons Ratio (z) = 0.15734 0.10580
#
# Static dielectric constant tensor:
#      x y z
#    x 1.837890 0.105030 -0.004220 
#    y 0.105030 1.881020 -0.060180 
#    z -0.004220 -0.060180 1.829270 
# 
# From -- ./inp_files/447666.got.cif
#   From: 2010.05.17/outbox.cif.g08.bks.cpg/sg2_224_cif.got.tgz:447666.got - 2010.06.03 11:33:40.
