data_PCOD9041988
_publ_section_title
;
Structure prediction by ZEFSAII (Michael W. Deem and Ramdas Pophale) SiO2 
 PCOD9041988
Probable space group: P -1
;
_chemical_formula_sum "Si O2"
_cell_formula_units_Z 16
_cell_length_a 14.149085
_cell_length_b 8.969863
_cell_length_c 15.028306
_cell_angle_alpha 118.193819
_cell_angle_beta 140.565413
_cell_angle_gamma 90.551176
_cell_volume 793.656390
_symmetry_space_group_name_H-M "P -1"
_symmetry_group_IT_number 2
_symmetry_cell_setting 'triclinic'
loop_
_space_group_symop_operation_xyz
x,y,z
-x,-y,-z
loop_
_atom_site_type_symbol
_atom_site_label
_atom_site_fract_x
_atom_site_fract_y
_atom_site_fract_z
Si Si1 0.931976 0.583627 0.291368
Si Si2 0.711458 0.379668 0.379960
Si Si3 0.317820 0.886214 0.959543
Si Si4 0.830944 0.995112 0.951941
Si Si5 0.987598 0.786581 0.568545
Si Si6 0.554118 0.536751 0.700822
Si Si7 0.196615 0.035613 0.268252
Si Si8 0.939055 0.788945 0.175383
O O1 0.103040 0.570991 0.424005
O O2 0.727073 0.336628 0.103267
O O3 0.979845 0.762491 0.450383
O O4 0.930718 0.651592 0.210729
O O5 0.798635 0.544065 0.404670
O O6 0.602627 0.440396 0.375439
O O7 0.541746 0.110859 0.164329
O O8 0.176165 0.827931 0.757760
O O9 0.243784 0.945056 0.005730
O O10 0.681880 0.718384 0.765257
O O11 0.823121 0.072967 0.871422
O O12 0.047649 0.083996 0.158207
O O13 0.003583 0.986266 0.675989
O O14 0.421755 0.271154 0.512391
O O15 0.723304 0.639145 0.928334
O O16 0.101536 0.875652 0.240516
#
# Coordination Sequence:
#
# PCOD9041988 Si02
#       8
#     2   2   2   2   2   2   2   2
#     4  11  25  35  57  82 116 152 185 229 284 331
#     4  10  19  37  61  79 104 153 184 235 272 326
#     4  10  19  39  56  86 114 137 190 236 278 327
#     4   9  18  31  59  88 108 141 187 236 267 334
#     4  11  20  39  58  80 111 151 194 230 272 328
#     4  10  18  35  59  81 116 143 183 234 276 322
#     4  10  17  33  58  84 112 145 188 221 284 328
#     4  11  22  39  53  85 120 146 182 236 277 328
#
# _framework density 20.159859000000001
#
# number of rings (size 3 to 8) (size 9 to 14) (size 15 to 20)
#    0.000    1.750    5.000    3.000    0.000    3.000 
#    0.000    1.250    0.000    3.750    0.000    0.000 
#    0.000    0.000    0.000    0.000    0.000    0.000 
#
# Total GULP energy -89281.527368 kJ/mol
# GULP energy per Si atom -5580.095460 kJ/mol
# Density = 2.011397 g / cm^3
# Si number density = 20.159859 Si / 1000 Ang^3
#
#
#
# Elastic Constant Matrix: (Units=GPa)
#
#
# Indices 1 2 3 4 5 6 
#
# 1 53.5869 -4.7368 12.8228 -7.0864 1.1446 13.4968
# 2 -4.7368 62.5199 22.4103 1.0550 0.6160 22.6399
# 3 12.8228 22.4103 102.2422 23.4869 5.7488 16.1285
# 4 -7.0864 1.0550 23.4869 22.6385 6.7379 -2.0677
# 5 1.1446 0.6160 5.7488 6.7379 25.2839 -0.3511
# 6 13.4968 22.6399 16.1285 -2.0677 -0.3511 24.1824
#
#
#
# Elastic Compliance Matrix: (Units=1/GPa)
#
#
# Indices 1 2 3 4 5 6 
#
# 1 0.028571 0.012119 -0.005493 0.013264 -0.004188 -0.022555
# 2 0.012119 0.029726 -0.003871 0.004103 -0.001926 -0.031689
# 3 -0.005493 -0.003871 0.016810 -0.020078 0.001785 -0.006212
# 4 0.013264 0.004103 -0.020078 0.074440 -0.015858 0.008281
# 5 -0.004188 -0.001926 0.001785 -0.015858 0.043638 0.002228
# 6 -0.022555 -0.031689 -0.006212 0.008281 0.002228 0.088492
#
#
# Mechanical properties :
#
#
# Convention : Reuss Voigt Hill
#
# Bulk Modulus (GPa) = 12.40437 31.03795 21.72116
# Shear Modulus (GPa) = 16.49950 26.94448 21.72199
#
# Velocity S-wave (km/s) = 2.86393 3.65984 3.28607
# Velocity P-wave (km/s) = 4.13552 5.76963 5.01952
#
# Compressibility (1/GPa) = 0.08061675
#
# Stress axis : x y z
#
# Youngs Moduli (GPa) = 35.00000 33.64107 59.48869
#
# Poissons Ratio (x) = -0.40770 0.32678
# Poissons Ratio (y) = -0.42416 0.23027
# Poissons Ratio (z) = 0.19226 0.13022
#
# Static dielectric constant tensor:
#      x y z
#    x 1.739440 0.003430 -0.024420 
#    y 0.003430 1.710390 0.038810 
#    z -0.024420 0.038810 1.736130 
# 
# From -- ./inp_files/217179.got.cif
#   From: 2010.05.17/outbox.cif.g08.bks.cpg/sg2_109_cif.got.tgz:217179.got - 2010.06.03 11:33:40.
