data_PCOD9041347
_publ_section_title
;
Structure prediction by ZEFSAII (Michael W. Deem and Ramdas Pophale) SiO2 
 PCOD9041347
Probable space group: P -1
;
_chemical_formula_sum "Si O2"
_cell_formula_units_Z 14
_cell_length_a 11.886593
_cell_length_b 10.126873
_cell_length_c 5.398655
_cell_angle_alpha 115.433556
_cell_angle_beta 85.623222
_cell_angle_gamma 70.376775
_cell_volume 533.888524
_symmetry_space_group_name_H-M "P -1"
_symmetry_group_IT_number 2
_symmetry_cell_setting 'triclinic'
loop_
_space_group_symop_operation_xyz
x,y,z
-x,-y,-z
loop_
_atom_site_type_symbol
_atom_site_label
_atom_site_fract_x
_atom_site_fract_y
_atom_site_fract_z
Si Si1 0.459233 0.852117 0.713019
Si Si2 0.268729 0.766152 0.375402
Si Si3 0.301286 0.193049 0.167904
Si Si4 0.433033 0.598407 0.841940
Si Si5 0.081530 0.358022 0.050814
Si Si6 0.063247 0.808518 0.761174
Si Si7 0.142366 0.105184 0.471604
O O1 0.385669 0.800460 0.476352
O O2 0.608508 0.779513 0.623914
O O3 0.437746 0.767788 0.901035
O O4 0.402736 0.046287 0.874902
O O5 0.207208 0.733486 0.606457
O O6 0.170106 0.935658 0.437735
O O7 0.297919 0.653774 0.039016
O O8 0.188979 0.356598 0.221449
O O9 0.223458 0.099041 0.216044
O O10 0.500000 0.500000 0.500000
O O11 0.500000 0.500000 0.000000
O O12 0.987251 0.293863 0.141439
O O13 0.170983 0.212439 0.750469
O O14 0.000000 0.500000 0.000000
O O15 0.998187 0.803740 0.508155
O O16 0.000000 0.000000 0.000000
#
# Coordination Sequence:
#
# PCOD9041347 Si02
#       7
#     2   2   2   2   2   2   2
#     4  11  23  45  72 108 150 197 265 311 388 468
#     4  12  23  43  77 110 151 202 262 325 391 471
#     4  10  23  43  73 106 144 203 256 320 372 476
#     4  12  27  49  70 108 158 199 259 328 396 464
#     4  11  25  47  69 107 160 199 255 323 393 458
#     4  11  24  42  74 112 148 196 266 319 380 475
#     4  11  22  43  73 104 144 196 263 310 383 467
#
# _framework density 26.222701000000001
#
# number of rings (size 3 to 8) (size 9 to 14) (size 15 to 20)
#    0.000    0.857    5.714    1.286    0.000    4.000 
#    7.714    0.000    0.000    0.000    0.000    0.000 
#    0.000    0.429    0.000    0.000    0.000    0.000 
#
# Total GULP energy -77938.086614 kJ/mol
# GULP energy per Si atom -5567.006187 kJ/mol
# Density = 2.616302 g / cm^3
# Si number density = 26.222701 Si / 1000 Ang^3
#
#
#
# Elastic Constant Matrix: (Units=GPa)
#
#
# Indices 1 2 3 4 5 6 
#
# 1 132.8006 32.1383 35.2966 -9.9284 -18.6139 -20.3189
# 2 32.1383 169.9097 41.8760 -20.1320 -13.5629 -11.3135
# 3 35.2966 41.8760 140.9109 -2.4101 -15.8687 -5.9248
# 4 -9.9284 -20.1320 -2.4101 40.0763 -5.6364 1.6128
# 5 -18.6139 -13.5629 -15.8687 -5.6364 27.5488 -3.0808
# 6 -20.3189 -11.3135 -5.9248 1.6128 -3.0808 24.3988
#
#
#
# Elastic Compliance Matrix: (Units=1/GPa)
#
#
# Indices 1 2 3 4 5 6 
#
# 1 0.010726 -0.000029 -0.001299 0.003342 0.008222 0.009421
# 2 -0.000029 0.007253 -0.001513 0.003957 0.003847 0.003195
# 3 -0.001299 -0.001513 0.008252 -0.000165 0.003168 0.000632
# 4 0.003342 0.003957 -0.000165 0.029076 0.010505 0.003982
# 5 0.008222 0.003847 0.003168 0.010505 0.049393 0.014942
# 6 0.009421 0.003195 0.000632 0.003982 0.014942 0.052090
#
#
# Mechanical properties :
#
#
# Convention : Reuss Voigt Hill
#
# Bulk Modulus (GPa) = 48.66420 73.58255 61.12338
# Shear Modulus (GPa) = 29.52979 40.69213 35.11096
#
# Velocity S-wave (km/s) = 3.35940 3.94355 3.66314
# Velocity P-wave (km/s) = 5.80050 6.98978 6.42273
#
# Compressibility (1/GPa) = 0.02054899
#
# Stress axis : x y z
#
# Youngs Moduli (GPa) = 93.23111 137.88234 121.18148
#
# Poissons Ratio (x) = 0.00402 0.15740
# Poissons Ratio (y) = 0.00272 0.18332
# Poissons Ratio (z) = 0.12110 0.20859
#
# Static dielectric constant tensor:
#      x y z
#    x 2.163460 -0.065380 -0.012780 
#    y -0.065380 2.176430 -0.060850 
#    z -0.012780 -0.060850 2.503180 
# 
# From -- ./inp_files/71771.got.cif
#   From: 2010.05.17/outbox.cif.g08.bks.cpg/sg2_36_cif.got.tgz:71771.got - 2010.06.03 11:33:40.
