data_PCOD9041089
_publ_section_title
;
Structure prediction by ZEFSAII (Michael W. Deem and Ramdas Pophale) SiO2 
 PCOD9041089
Probable space group: P -1
;
_chemical_formula_sum "Si O2"
_cell_formula_units_Z 14
_cell_length_a 12.504554
_cell_length_b 10.251400
_cell_length_c 9.195601
_cell_angle_alpha 78.188799
_cell_angle_beta 142.053860
_cell_angle_gamma 81.841189
_cell_volume 612.821800
_symmetry_space_group_name_H-M "P -1"
_symmetry_group_IT_number 2
_symmetry_cell_setting 'triclinic'
loop_
_space_group_symop_operation_xyz
x,y,z
-x,-y,-z
loop_
_atom_site_type_symbol
_atom_site_label
_atom_site_fract_x
_atom_site_fract_y
_atom_site_fract_z
Si Si1 0.532295 0.338528 0.502236
Si Si2 0.647254 0.050848 0.215976
Si Si3 0.948260 0.724007 0.642501
Si Si4 0.717740 0.640474 0.168276
Si Si5 0.298465 0.546843 0.565658
Si Si6 0.890411 0.592549 0.038781
Si Si7 0.312136 0.766941 0.023823
O O1 0.500000 0.500000 0.500000
O O2 0.607462 0.354028 0.419667
O O3 0.688938 0.209434 0.809625
O O4 0.328714 0.330188 0.286839
O O5 0.811051 0.899214 0.508829
O O6 0.505503 0.209755 0.109750
O O7 0.741879 0.091119 0.170784
O O8 0.500000 0.000000 0.000000
O O9 0.839283 0.690709 0.399536
O O10 0.997560 0.589507 0.840533
O O11 0.161884 0.706197 0.839498
O O12 0.720210 0.491526 0.277291
O O13 0.821530 0.606780 0.131699
O O14 0.458065 0.368257 0.731343
O O15 0.076421 0.622543 0.238872
#
# Coordination Sequence:
#
# PCOD9041089 Si02
#       7
#     2   2   2   2   2   2   2
#     4  10  20  35  51  82 118 142 182 224 273 327
#     4   9  19  36  56  81 106 146 185 225 276 323
#     4  10  17  33  57  81 110 139 182 230 268 318
#     4   9  20  35  53  86 114 140 184 225 279 319
#     4   9  18  33  51  82 111 143 177 220 280 316
#     4  11  20  36  56  86 114 143 178 233 273 321
#     4  10  19  34  53  84 112 140 187 228 268 326
#
# _framework density 22.845140000000001
#
# number of rings (size 3 to 8) (size 9 to 14) (size 15 to 20)
#    0.000    2.286    2.857    3.000    0.000    2.857 
#   10.286    0.000    0.000    4.286    0.000    0.000 
#    0.000    0.000    0.000    0.000    0.000    0.000 
#
# Total GULP energy -77964.689940 kJ/mol
# GULP energy per Si atom -5568.906424 kJ/mol
# Density = 2.279314 g / cm^3
# Si number density = 22.845140 Si / 1000 Ang^3
#
#
#
# Elastic Constant Matrix: (Units=GPa)
#
#
# Indices 1 2 3 4 5 6 
#
# 1 64.8888 20.6384 23.1495 4.7104 22.7906 6.6472
# 2 20.6384 40.3639 35.2890 2.7809 1.7993 4.5509
# 3 23.1495 35.2890 98.4512 4.0615 19.7063 -5.8908
# 4 4.7104 2.7809 4.0615 35.5346 9.1286 3.4786
# 5 22.7906 1.7993 19.7063 9.1286 27.7983 10.0164
# 6 6.6472 4.5509 -5.8908 3.4786 10.0164 31.0467
#
#
#
# Elastic Compliance Matrix: (Units=1/GPa)
#
#
# Indices 1 2 3 4 5 6 
#
# 1 0.030170 -0.022055 0.007825 0.004586 -0.033435 0.008531
# 2 -0.022055 0.059688 -0.025794 -0.007681 0.042920 -0.021908
# 3 0.007825 -0.025794 0.024072 0.004096 -0.028735 0.015485
# 4 0.004586 -0.007681 0.004096 0.031928 -0.017759 0.003073
# 5 -0.033435 0.042920 -0.028735 -0.017759 0.099287 -0.034628
# 6 0.008531 -0.021908 0.015485 0.003073 -0.034628 0.047360
#
#
# Mechanical properties :
#
#
# Convention : Reuss Voigt Hill
#
# Bulk Modulus (GPa) = 29.51297 40.20641 34.85969
# Shear Modulus (GPa) = 13.02603 27.18437 20.10520
#
# Velocity S-wave (km/s) = 2.39045 3.45329 2.96981
# Velocity P-wave (km/s) = 4.53495 5.79121 5.20115
#
# Compressibility (1/GPa) = 0.03388340
#
# Stress axis : x y z
#
# Youngs Moduli (GPa) = 33.14504 16.75376 41.54165
#
# Poissons Ratio (x) = 0.36950 -0.32506
# Poissons Ratio (y) = 0.73101 1.07151
# Poissons Ratio (z) = -0.25936 0.43214
#
# Static dielectric constant tensor:
#      x y z
#    x 2.002760 -0.123260 -0.036880 
#    y -0.123260 1.232830 -0.048490 
#    z -0.036880 -0.048490 1.924000 
# 
# From -- ./inp_files/258313.got.cif
#   From: 2010.05.17/outbox.cif.g08.bks.cpg/sg2_130_cif.got.tgz:258313.got - 2010.06.03 11:33:40.
