data_PCOD9041421
_publ_section_title
;
Structure prediction by ZEFSAII (Michael W. Deem and Ramdas Pophale) SiO2 
 PCOD9041421
Probable space group: P -1
;
_chemical_formula_sum "Si O2"
_cell_formula_units_Z 12
_cell_length_a 10.308864
_cell_length_b 9.157787
_cell_length_c 8.950713
_cell_angle_alpha 49.569198
_cell_angle_beta 57.359251
_cell_angle_gamma 80.497522
_cell_volume 518.650652
_symmetry_space_group_name_H-M "P -1"
_symmetry_group_IT_number 2
_symmetry_cell_setting 'triclinic'
loop_
_space_group_symop_operation_xyz
x,y,z
-x,-y,-z
loop_
_atom_site_type_symbol
_atom_site_label
_atom_site_fract_x
_atom_site_fract_y
_atom_site_fract_z
Si Si1 0.125876 0.177051 0.389504
Si Si2 0.630693 0.388596 0.553204
Si Si3 0.451292 0.428003 0.911657
Si Si4 0.848372 0.011093 0.181040
Si Si5 0.001989 0.463444 0.845488
Si Si6 0.505196 0.150901 0.534742
O O1 0.055093 0.365847 0.316383
O O2 0.160235 0.101633 0.580451
O O3 0.287716 0.252160 0.142465
O O4 0.000000 0.000000 0.500000
O O5 0.500000 0.500000 0.500000
O O6 0.583568 0.365083 0.772468
O O7 0.814620 0.515875 0.330330
O O8 0.601564 0.183982 0.609457
O O9 0.426931 0.628417 0.722589
O O10 0.500000 0.500000 0.000000
O O11 0.682810 0.906984 0.269667
O O12 0.881027 0.246292 0.033814
O O13 0.000000 0.000000 0.000000
O O14 0.000000 0.500000 0.000000
O O15 0.500000 0.000000 0.500000
#
# Coordination Sequence:
#
# PCOD9041421 Si02
#       6
#     2   2   2   2   2   2
#     4  12  27  45  74 103 142 190 238 295 361 418
#     4  10  23  43  74  98 137 193 229 288 360 416
#     4  11  23  46  68  97 143 178 233 295 343 420
#     4  12  26  45  71 103 143 183 236 297 356 421
#     4  12  24  47  75 104 143 186 239 294 354 429
#     4  11  23  43  69  99 136 182 234 284 356 421
#
# _framework density 23.136963999999999
#
# number of rings (size 3 to 8) (size 9 to 14) (size 15 to 20)
#    0.000    0.667    3.333    6.000    2.333    0.667 
#    3.000    1.667    0.000    0.000    0.000    0.000 
#    0.000    0.000    0.000    0.000    0.000    0.000 
#
# Total GULP energy -67113.746645 kJ/mol
# GULP energy per Si atom -5592.812220 kJ/mol
# Density = 2.308430 g / cm^3
# Si number density = 23.136964 Si / 1000 Ang^3
#
#
#
# Elastic Constant Matrix: (Units=GPa)
#
#
# Indices 1 2 3 4 5 6 
#
# 1 57.8893 10.4830 39.3702 -10.2959 -16.4144 6.0302
# 2 10.4830 120.1258 54.7496 -0.0465 6.3641 14.4169
# 3 39.3702 54.7496 161.0761 -1.2449 -35.0105 1.7659
# 4 -10.2959 -0.0465 -1.2449 60.8745 -6.2350 -1.1619
# 5 -16.4144 6.3641 -35.0105 -6.2350 41.6818 -0.0650
# 6 6.0302 14.4169 1.7659 -1.1619 -0.0650 45.5446
#
#
#
# Elastic Compliance Matrix: (Units=1/GPa)
#
#
# Indices 1 2 3 4 5 6 
#
# 1 0.022945 -0.000108 -0.004158 0.004380 0.006211 -0.002722
# 2 -0.000108 0.011450 -0.005201 -0.000826 -0.006288 -0.003438
# 3 -0.004158 -0.005201 0.010772 0.000394 0.008267 0.001801
# 4 0.004380 -0.000826 0.000394 0.017672 0.004826 0.000124
# 5 0.006211 -0.006288 0.008267 0.004826 0.035064 0.001021
# 6 -0.002722 -0.003438 0.001801 0.000124 0.001021 0.023340
#
#
# Mechanical properties :
#
#
# Convention : Reuss Voigt Hill
#
# Bulk Modulus (GPa) = 38.11834 60.92187 49.52010
# Shear Modulus (GPa) = 33.57464 45.25274 39.41369
#
# Velocity S-wave (km/s) = 3.81350 4.42731 4.13182
# Velocity P-wave (km/s) = 5.99176 7.24727 6.64921
#
# Compressibility (1/GPa) = 0.02623409
#
# Stress axis : x y z
#
# Youngs Moduli (GPa) = 43.58192 87.33728 92.83015
#
# Poissons Ratio (x) = 0.00943 0.38598
# Poissons Ratio (y) = 0.00471 0.48279
# Poissons Ratio (z) = 0.18121 0.45422
#
# Static dielectric constant tensor:
#      x y z
#    x 1.956470 -0.001540 0.094140 
#    y -0.001540 1.968130 0.048320 
#    z 0.094140 0.048320 1.890780 
# 
# From -- ./inp_files/152437.got.cif
#   From: 2010.05.17/outbox.cif.g08.bks.cpg/sg2_77_cif.got.tgz:152437.got - 2010.06.03 11:33:40.
