data_PCOD9041348
_publ_section_title
;
Structure prediction by ZEFSAII (Michael W. Deem and Ramdas Pophale) SiO2 
 PCOD9041348
Probable space group: P -1
;
_chemical_formula_sum "Si O2"
_cell_formula_units_Z 15
_cell_length_a 8.758312
_cell_length_b 12.374313
_cell_length_c 8.144113
_cell_angle_alpha 68.507509
_cell_angle_beta 65.821459
_cell_angle_gamma 110.202038
_cell_volume 608.392377
_symmetry_space_group_name_H-M "P -1"
_symmetry_group_IT_number 2
_symmetry_cell_setting 'triclinic'
loop_
_space_group_symop_operation_xyz
x,y,z
-x,-y,-z
loop_
_atom_site_type_symbol
_atom_site_label
_atom_site_fract_x
_atom_site_fract_y
_atom_site_fract_z
Si Si1 0.140328 0.326088 0.942375
Si Si2 0.073300 0.961907 0.646299
Si Si3 0.458832 0.053997 0.225915
Si Si4 0.457003 0.793606 0.232505
Si Si5 0.795874 0.801729 0.302966
Si Si6 0.499171 0.577641 0.795600
Si Si7 0.809410 0.348525 0.010595
Si Si8 0.000000 0.500000 0.500000
O O1 0.099491 0.253945 0.823001
O O2 0.376457 0.455893 0.780552
O O3 0.998576 0.378282 0.016595
O O4 0.079563 0.205418 0.166154
O O5 0.301640 0.014389 0.465174
O O6 0.075015 0.040969 0.764805
O O7 0.000000 0.000000 0.500000
O O8 0.430570 0.910388 0.260780
O O9 0.436992 0.131089 0.033122
O O10 0.686514 0.179795 0.114490
O O11 0.609992 0.780488 0.287554
O O12 0.236062 0.642572 0.386394
O O13 0.713777 0.701956 0.556283
O O14 0.500000 0.500000 0.000000
O O15 0.366286 0.638788 0.852336
O O16 0.913843 0.448707 0.751276
#
# Coordination Sequence:
#
# PCOD9041348 Si02
#       8
#     2   2   2   2   2   2   2   1
#     4  12  28  44  74 107 143 189 244 294 359 422
#     4  12  26  45  73 104 146 185 246 294 358 428
#     4  10  23  45  71 103 143 191 232 294 362 422
#     4  10  23  43  73 106 145 190 235 292 362 427
#     4  12  26  47  73 101 148 187 238 295 363 428
#     4  12  28  47  73 103 145 191 237 301 368 423
#     4  11  25  46  71 104 143 187 244 296 355 431
#     4  10  24  40  74 104 148 178 240 298 352 426
#
# _framework density 24.655142000000001
#
# number of rings (size 3 to 8) (size 9 to 14) (size 15 to 20)
#    0.000    0.800    1.333    4.400    9.333    4.267 
#    0.000    0.000    0.000    0.000    0.000    0.000 
#    0.000    0.000    0.000    0.000    0.000    0.000 
#
# Total GULP energy -83733.741223 kJ/mol
# GULP energy per Si atom -5582.249415 kJ/mol
# Density = 2.459903 g / cm^3
# Si number density = 24.655142 Si / 1000 Ang^3
#
#
#
# Elastic Constant Matrix: (Units=GPa)
#
#
# Indices 1 2 3 4 5 6 
#
# 1 65.8463 30.4579 -0.0557 4.6910 -2.4617 -4.8073
# 2 30.4579 111.2247 16.2119 -1.1957 -8.2231 -2.1579
# 3 -0.0557 16.2119 86.4057 -2.6423 2.8849 -16.9342
# 4 4.6910 -1.1957 -2.6423 36.0085 7.6624 -7.2744
# 5 -2.4617 -8.2231 2.8849 7.6624 30.2870 -1.5769
# 6 -4.8073 -2.1579 -16.9342 -7.2744 -1.5769 30.4234
#
#
#
# Elastic Compliance Matrix: (Units=1/GPa)
#
#
# Indices 1 2 3 4 5 6 
#
# 1 0.017881 -0.005027 0.001430 -0.001946 0.000592 0.002830
# 2 -0.005027 0.010890 -0.002370 0.000026 0.002705 -0.001195
# 3 0.001430 -0.002370 0.013810 0.002885 -0.002139 0.008324
# 4 -0.001946 0.000026 0.002885 0.031645 -0.007992 0.008453
# 5 0.000592 0.002705 -0.002139 -0.007992 0.035976 -0.000952
# 6 0.002830 -0.001195 0.008324 0.008453 -0.000952 0.039837
#
#
# Mechanical properties :
#
#
# Convention : Reuss Voigt Hill
#
# Bulk Modulus (GPa) = 32.63030 39.63389 36.13210
# Shear Modulus (GPa) = 29.03783 33.80127 31.41955
#
# Velocity S-wave (km/s) = 3.43557 3.70667 3.57369
# Velocity P-wave (km/s) = 5.38525 5.86766 5.63162
#
# Compressibility (1/GPa) = 0.03064636
#
# Stress axis : x y z
#
# Youngs Moduli (GPa) = 55.92570 91.82696 72.41181
#
# Poissons Ratio (x) = 0.46164 -0.10357
# Poissons Ratio (y) = 0.28115 0.17163
# Poissons Ratio (z) = -0.07999 0.21765
#
# Static dielectric constant tensor:
#      x y z
#    x 1.977450 -0.016750 0.002940 
#    y -0.016750 1.987750 0.009870 
#    z 0.002940 0.009870 1.880380 
# 
# From -- ./inp_files/185734.got.cif
#   From: 2010.05.17/outbox.cif.g08.bks.cpg/sg2_93_cif.got.tgz:185734.got - 2010.06.03 11:33:40.
