data_PCOD9041382
_publ_section_title
;
Structure prediction by ZEFSAII (Michael W. Deem and Ramdas Pophale) SiO2 
 PCOD9041382
Probable space group: P -1
;
_chemical_formula_sum "Si O2"
_cell_formula_units_Z 15
_cell_length_a 15.457028
_cell_length_b 25.386336
_cell_length_c 12.747903
_cell_angle_alpha 27.954375
_cell_angle_beta 27.083206
_cell_angle_gamma 17.784526
_cell_volume 672.538789
_symmetry_space_group_name_H-M "P -1"
_symmetry_group_IT_number 2
_symmetry_cell_setting 'triclinic'
loop_
_space_group_symop_operation_xyz
x,y,z
-x,-y,-z
loop_
_atom_site_type_symbol
_atom_site_label
_atom_site_fract_x
_atom_site_fract_y
_atom_site_fract_z
Si Si1 0.442997 0.419302 0.273892
Si Si2 0.477496 0.539819 0.651126
Si Si3 0.117564 0.198898 0.305141
Si Si4 0.796895 0.191112 0.836296
Si Si5 0.999802 0.052413 0.292335
Si Si6 0.000000 0.500000 0.500000
Si Si7 0.658972 0.880016 0.145287
Si Si8 0.456271 0.274411 0.862100
O O1 0.538578 0.401347 0.319711
O O2 0.650613 0.227478 0.333195
O O3 0.104307 0.533848 0.424665
O O4 0.500000 0.500000 0.000000
O O5 0.649198 0.342474 0.813898
O O6 0.647074 0.557395 0.367356
O O7 0.156606 0.665554 0.720540
O O8 0.988183 0.186947 0.562528
O O9 0.386114 0.004297 0.304600
O O10 0.249937 0.261535 0.081934
O O11 0.540642 0.253726 0.928363
O O12 0.000000 0.000000 0.000000
O O13 0.224402 0.890402 0.254491
O O14 0.124519 0.120054 0.050459
O O15 0.000000 0.000000 0.500000
O O16 0.856898 0.677523 0.279564
O O17 0.500000 0.000000 0.000000
#
# Coordination Sequence:
#
# PCOD9041382 Si02
#       8
#     2   2   2   2   2   1   2   2
#     4  12  26  42  65 102 144 182 226 296 353 420
#     4  11  25  45  71 100 137 185 242 285 352 424
#     4  10  24  46  72 102 138 183 235 294 348 425
#     4  11  27  46  70 102 138 186 236 298 354 412
#     4  11  21  42  69  99 140 182 230 287 356 420
#     4  12  28  40  66 106 146 186 236 286 352 432
#     4  11  24  42  68 106 144 185 235 284 361 424
#     4  10  23  43  74 101 132 185 237 287 348 429
#
# _framework density 22.303546999999998
#
# number of rings (size 3 to 8) (size 9 to 14) (size 15 to 20)
#    0.000    1.067    2.667    3.200    9.333    2.667 
#    0.000    0.000    0.000    0.000    0.000    0.000 
#    0.000    0.000    0.000    0.000    0.000    0.000 
#
# Total GULP energy -83561.025035 kJ/mol
# GULP energy per Si atom -5570.735002 kJ/mol
# Density = 2.225278 g / cm^3
# Si number density = 22.303547 Si / 1000 Ang^3
#
#
#
# Elastic Constant Matrix: (Units=GPa)
#
#
# Indices 1 2 3 4 5 6 
#
# 1 110.1380 20.6623 42.7354 -9.0609 -22.1662 -1.2027
# 2 20.6623 73.2473 35.4819 -25.9563 1.8597 12.3406
# 3 42.7354 35.4819 89.9709 -28.0878 -20.4443 -5.1490
# 4 -9.0609 -25.9563 -28.0878 53.2150 -1.4717 -0.8181
# 5 -22.1662 1.8597 -20.4443 -1.4717 39.1083 -7.5284
# 6 -1.2027 12.3406 -5.1490 -0.8181 -7.5284 27.0741
#
#
#
# Elastic Compliance Matrix: (Units=1/GPa)
#
#
# Indices 1 2 3 4 5 6 
#
# 1 0.012008 -0.002522 -0.003597 -0.000894 0.005493 0.002500
# 2 -0.002522 0.023995 -0.009812 0.005564 -0.010507 -0.015669
# 3 -0.003597 -0.009812 0.022515 0.007031 0.012846 0.012379
# 4 -0.000894 0.005564 0.007031 0.025184 0.003973 0.000627
# 5 0.005493 -0.010507 0.012846 0.003973 0.039631 0.018616
# 6 0.002500 -0.015669 0.012379 0.000627 0.018616 0.051739
#
#
# Mechanical properties :
#
#
# Convention : Reuss Voigt Hill
#
# Bulk Modulus (GPa) = 37.51514 52.34617 44.93065
# Shear Modulus (GPa) = 23.16748 35.51124 29.33936
#
# Velocity S-wave (km/s) = 3.22644 3.99454 3.63086
# Velocity P-wave (km/s) = 5.54406 6.69298 6.14543
#
# Compressibility (1/GPa) = 0.02665591
#
# Stress axis : x y z
#
# Youngs Moduli (GPa) = 83.28115 41.67457 44.41460
#
# Poissons Ratio (x) = 0.10512 0.15974
# Poissons Ratio (y) = 0.21006 0.43581
# Poissons Ratio (z) = 0.29952 0.40892
#
# Static dielectric constant tensor:
#      x y z
#    x 1.851130 -0.073380 -0.058300 
#    y -0.073380 1.933560 0.082670 
#    z -0.058300 0.082670 1.865350 
# 
# From -- ./inp_files/458006.got.cif
#   From: 2010.05.17/outbox.cif.g08.bks.cpg/sg2_230_cif.got.tgz:458006.got - 2010.06.03 11:33:40.
