data_PCOD9041004
_publ_section_title
;
Structure prediction by ZEFSAII (Michael W. Deem and Ramdas Pophale) SiO2 
 PCOD9041004
Probable space group: P -1
;
_chemical_formula_sum "Si O2"
_cell_formula_units_Z 16
_cell_length_a 11.508092
_cell_length_b 11.299613
_cell_length_c 10.942161
_cell_angle_alpha 110.406645
_cell_angle_beta 136.606344
_cell_angle_gamma 102.262007
_cell_volume 632.619194
_symmetry_space_group_name_H-M "P -1"
_symmetry_group_IT_number 2
_symmetry_cell_setting 'triclinic'
loop_
_space_group_symop_operation_xyz
x,y,z
-x,-y,-z
loop_
_atom_site_type_symbol
_atom_site_label
_atom_site_fract_x
_atom_site_fract_y
_atom_site_fract_z
Si Si1 0.688527 0.467872 0.558642
Si Si2 0.201658 0.194569 0.619629
Si Si3 0.573739 0.561021 0.881847
Si Si4 0.207363 0.846476 0.722422
Si Si5 0.284692 0.124062 0.254727
Si Si6 0.054192 0.662497 0.277578
Si Si7 0.633192 0.952212 0.449022
Si Si8 0.160103 0.811544 0.942806
O O1 0.848459 0.426989 0.690101
O O2 0.913694 0.685068 0.787756
O O3 0.474392 0.338580 0.448888
O O4 0.526597 0.404640 0.290109
O O5 0.313262 0.293088 0.870624
O O6 0.245736 0.077963 0.565800
O O7 0.920718 0.085793 0.358879
O O8 0.349900 0.361380 0.696292
O O9 0.781270 0.568387 0.009047
O O10 0.105377 0.721477 0.480634
O O11 0.120468 0.745834 0.750314
O O12 0.500000 0.000000 0.000000
O O13 0.348835 0.092591 0.419186
O O14 0.291528 0.019474 0.117376
O O15 0.000000 0.000000 0.000000
O O16 0.223131 0.839957 0.383751
O O17 0.353294 0.821949 0.153595
#
# Coordination Sequence:
#
# PCOD9041004 Si02
#       8
#     2   2   2   2   2   2   2   2
#     4  12  26  48  78 104 148 191 242 302 362 429
#     4  10  23  43  70 103 145 192 228 297 363 431
#     4  10  23  45  68 108 148 183 243 289 363 442
#     4  11  21  41  69 105 145 183 238 286 363 439
#     4  12  28  50  73 102 141 193 248 304 358 424
#     4  11  25  42  72 108 146 194 230 298 369 430
#     4  12  25  47  71 102 149 184 247 305 351 431
#     4  12  26  46  72 106 141 189 240 297 363 429
#
# _framework density 25.291675000000001
#
# number of rings (size 3 to 8) (size 9 to 14) (size 15 to 20)
#    0.000    0.750    3.750    2.625    1.750    5.500 
#    2.250    0.000    0.000    0.000    0.000    0.000 
#    0.000    0.000    0.000    0.000    0.000    0.000 
#
# Total GULP energy -89588.041450 kJ/mol
# GULP energy per Si atom -5599.252591 kJ/mol
# Density = 2.523411 g / cm^3
# Si number density = 25.291675 Si / 1000 Ang^3
#
#
#
# Elastic Constant Matrix: (Units=GPa)
#
#
# Indices 1 2 3 4 5 6 
#
# 1 68.2393 23.0286 32.5747 -0.2709 30.8440 6.2765
# 2 23.0286 141.5190 51.3680 0.5545 2.2454 30.4622
# 3 32.5747 51.3680 134.8763 -11.0210 41.8892 15.2735
# 4 -0.2709 0.5545 -11.0210 47.8706 5.2583 0.7437
# 5 30.8440 2.2454 41.8892 5.2583 51.2079 -8.1447
# 6 6.2765 30.4622 15.2735 0.7437 -8.1447 43.2804
#
#
#
# Elastic Compliance Matrix: (Units=1/GPa)
#
#
# Indices 1 2 3 4 5 6 
#
# 1 0.022378 -0.002823 0.001070 0.002142 -0.015170 -0.004528
# 2 -0.002823 0.009821 -0.003886 -0.001384 0.003895 -0.004375
# 3 0.001070 -0.003886 0.013495 0.004628 -0.012729 -0.004657
# 4 0.002142 -0.001384 0.004628 0.022886 -0.007817 -0.002834
# 5 -0.015170 0.003895 -0.012729 -0.007817 0.041605 0.011915
# 6 -0.004528 -0.004375 -0.004657 -0.002834 0.011915 0.030776
#
#
# Mechanical properties :
#
#
# Convention : Reuss Voigt Hill
#
# Bulk Modulus (GPa) = 29.05619 62.06412 45.56015
# Shear Modulus (GPa) = 30.54148 44.31600 37.42874
#
# Velocity S-wave (km/s) = 3.47878 4.19047 3.85110
# Velocity P-wave (km/s) = 5.25826 6.92863 6.15042
#
# Compressibility (1/GPa) = 0.03441608
#
# Stress axis : x y z
#
# Youngs Moduli (GPa) = 44.68626 101.81756 74.10294
#
# Poissons Ratio (x) = 0.28742 -0.07927
# Poissons Ratio (y) = 0.12614 0.28797
# Poissons Ratio (z) = -0.04780 0.39567
#
# Static dielectric constant tensor:
#      x y z
#    x 2.021780 -0.009860 0.011330 
#    y -0.009860 1.987080 0.015130 
#    z 0.011330 0.015130 1.964130 
# 
# From -- ./inp_files/428488.got.cif
#   From: 2010.05.17/outbox.cif.g08.bks.cpg/sg2_215_cif.got.tgz:428488.got - 2010.06.03 11:33:40.
