data_PCOD9041443
_publ_section_title
;
Structure prediction by ZEFSAII (Michael W. Deem and Ramdas Pophale) SiO2 
 PCOD9041443
Probable space group: P -1
;
_chemical_formula_sum "Si O2"
_cell_formula_units_Z 16
_cell_length_a 7.485610
_cell_length_b 17.220662
_cell_length_c 9.225214
_cell_angle_alpha 114.809801
_cell_angle_beta 88.306318
_cell_angle_gamma 134.364081
_cell_volume 705.041187
_symmetry_space_group_name_H-M "P -1"
_symmetry_group_IT_number 2
_symmetry_cell_setting 'triclinic'
loop_
_space_group_symop_operation_xyz
x,y,z
-x,-y,-z
loop_
_atom_site_type_symbol
_atom_site_label
_atom_site_fract_x
_atom_site_fract_y
_atom_site_fract_z
Si Si1 0.021379 0.502153 0.674270
Si Si2 0.260598 0.052032 0.112744
Si Si3 0.394974 0.777301 0.010497
Si Si4 0.837772 0.783771 0.045521
Si Si5 0.388251 0.864388 0.382890
Si Si6 0.495984 0.534796 0.691375
Si Si7 0.810641 0.708195 0.314361
Si Si8 0.428706 0.217953 0.503798
O O1 0.135100 0.630462 0.842653
O O2 0.247997 0.511577 0.700028
O O3 0.000000 0.500000 0.500000
O O4 0.726616 0.367849 0.635678
O O5 0.480063 0.116225 0.032761
O O6 0.394080 0.171202 0.306675
O O7 0.134043 0.930161 0.115714
O O8 0.000000 0.000000 0.000000
O O9 0.622073 0.785177 0.045309
O O10 0.345978 0.813932 0.183192
O O11 0.806465 0.729162 0.160726
O O12 0.757742 0.685242 0.848529
O O13 0.584422 0.868348 0.459844
O O14 0.090877 0.760878 0.382643
O O15 0.500000 0.000000 0.500000
O O16 0.500000 0.500000 0.500000
O O17 0.435258 0.437495 0.730731
O O18 0.795982 0.793279 0.463109
#
# Coordination Sequence:
#
# PCOD9041443 Si02
#       8
#     2   2   2   2   2   2   2   2
#     4  11  22  44  73 105 144 189 239 296 366 414
#     4  10  23  43  76 102 136 193 239 286 369 426
#     4  10  23  45  72 103 146 188 243 300 355 431
#     4  10  23  44  68 103 144 190 234 292 369 419
#     4  12  28  46  72 110 145 191 243 292 360 438
#     4  11  25  42  71 110 142 186 246 297 349 432
#     4  12  26  45  73 103 146 188 238 294 359 427
#     4  12  25  48  74 105 144 189 235 302 360 427
#
# _framework density 22.693711
#
# number of rings (size 3 to 8) (size 9 to 14) (size 15 to 20)
#    0.000    1.000    3.750    1.875    7.000    4.500 
#    0.000    1.250    0.000    0.000    0.000    0.000 
#    0.000    0.000    0.000    0.000    0.000    0.000 
#
# Total GULP energy -89520.155490 kJ/mol
# GULP energy per Si atom -5595.009718 kJ/mol
# Density = 2.264206 g / cm^3
# Si number density = 22.693711 Si / 1000 Ang^3
#
#
#
# Elastic Constant Matrix: (Units=GPa)
#
#
# Indices 1 2 3 4 5 6 
#
# 1 71.2890 18.3333 20.4091 4.3899 -24.4667 -5.0432
# 2 18.3333 126.4703 32.1556 12.3955 -7.8669 -10.3326
# 3 20.4091 32.1556 86.4412 11.2198 -17.7511 -2.4843
# 4 4.3899 12.3955 11.2198 39.1724 0.0425 4.7713
# 5 -24.4667 -7.8669 -17.7511 0.0425 33.4944 -1.1906
# 6 -5.0432 -10.3326 -2.4843 4.7713 -1.1906 28.8660
#
#
#
# Elastic Compliance Matrix: (Units=1/GPa)
#
#
# Indices 1 2 3 4 5 6 
#
# 1 0.019743 -0.001242 -0.001008 -0.002010 0.013734 0.003817
# 2 -0.001242 0.009289 -0.002772 -0.002404 -0.000076 0.003264
# 3 -0.001008 -0.002772 0.014605 -0.003310 0.006389 0.000899
# 4 -0.002010 -0.002404 -0.003310 0.028238 -0.004048 -0.006331
# 5 0.013734 -0.000076 0.006389 -0.004048 0.043452 0.005383
# 6 0.003817 0.003264 0.000899 -0.006331 0.005383 0.037824
#
#
# Mechanical properties :
#
#
# Convention : Reuss Voigt Hill
#
# Bulk Modulus (GPa) = 29.76913 47.33295 38.55104
# Shear Modulus (GPa) = 28.67073 34.52673 31.59873
#
# Velocity S-wave (km/s) = 3.55826 3.90477 3.73554
# Velocity P-wave (km/s) = 5.47977 6.42123 5.96909
#
# Compressibility (1/GPa) = 0.03359185
#
# Stress axis : x y z
#
# Youngs Moduli (GPa) = 50.65139 107.64923 68.46877
#
# Poissons Ratio (x) = 0.13375 0.06904
# Poissons Ratio (y) = 0.06293 0.18980
# Poissons Ratio (z) = 0.05107 0.29841
#
# Static dielectric constant tensor:
#      x y z
#    x 1.861760 -0.012680 0.039100 
#    y -0.012680 1.856120 0.006330 
#    z 0.039100 0.006330 1.794910 
# 
# From -- ./inp_files/218310.got.cif
#   From: 2010.05.17/outbox.cif.g08.bks.cpg/sg2_110_cif.got.tgz:218310.got - 2010.06.03 11:33:40.
