data_PCOD9041249
_publ_section_title
;
Structure prediction by ZEFSAII (Michael W. Deem and Ramdas Pophale) SiO2 
 PCOD9041249
Probable space group: P -1
;
_chemical_formula_sum "Si O2"
_cell_formula_units_Z 16
_cell_length_a 8.601986
_cell_length_b 8.167366
_cell_length_c 12.914943
_cell_angle_alpha 80.151734
_cell_angle_beta 96.339184
_cell_angle_gamma 49.857962
_cell_volume 653.406729
_symmetry_space_group_name_H-M "P -1"
_symmetry_group_IT_number 2
_symmetry_cell_setting 'triclinic'
loop_
_space_group_symop_operation_xyz
x,y,z
-x,-y,-z
loop_
_atom_site_type_symbol
_atom_site_label
_atom_site_fract_x
_atom_site_fract_y
_atom_site_fract_z
Si Si1 0.324184 0.226888 0.024918
Si Si2 0.905464 0.923994 0.927237
Si Si3 0.632674 0.035239 0.568021
Si Si4 0.483701 0.728347 0.266605
Si Si5 0.942262 0.866525 0.455996
Si Si6 0.748853 0.405680 0.164545
Si Si7 0.342694 0.491442 0.388851
Si Si8 0.528860 0.228620 0.239721
O O1 0.123020 0.243625 0.012963
O O2 0.432010 0.186558 0.147434
O O3 0.291410 0.426802 0.944401
O O4 0.500000 0.000000 0.000000
O O5 0.031505 0.828797 0.837134
O O6 0.666770 0.144425 0.856894
O O7 0.000000 0.000000 0.000000
O O8 0.565901 0.090256 0.675872
O O9 0.541773 0.274676 0.489780
O O10 0.500000 0.000000 0.500000
O O11 0.861857 0.834081 0.558159
O O12 0.715039 0.528128 0.257331
O O13 0.401751 0.625432 0.330994
O O14 0.138735 0.648526 0.430655
O O15 0.745276 0.023556 0.341678
O O16 0.000000 0.000000 0.500000
O O17 0.595516 0.356393 0.175949
O O18 0.342989 0.382583 0.295604
#
# Coordination Sequence:
#
# PCOD9041249 Si02
#       8
#     2   2   2   2   2   2   2   2
#     4  12  25  49  70 100 145 183 230 293 349 412
#     4  12  28  46  71 102 137 184 242 286 344 419
#     4  11  26  44  69 105 144 176 228 290 343 407
#     4  11  24  45  70 100 141 181 228 284 349 406
#     4  11  23  44  74 103 138 184 234 275 340 421
#     4  11  25  45  71 103 140 186 230 286 351 415
#     4  10  23  43  72 101 138 182 227 278 344 418
#     4  10  25  44  72 104 143 182 231 285 353 410
#
# _framework density 24.487043
#
# number of rings (size 3 to 8) (size 9 to 14) (size 15 to 20)
#    0.000    1.000    2.500    2.625   10.500    0.500 
#    4.500    0.000    0.000    0.000    0.000    0.000 
#    0.000    0.000    0.000    0.000    0.000    0.000 
#
# Total GULP energy -89236.736145 kJ/mol
# GULP energy per Si atom -5577.296009 kJ/mol
# Density = 2.443131 g / cm^3
# Si number density = 24.487043 Si / 1000 Ang^3
#
#
#
# Elastic Constant Matrix: (Units=GPa)
#
#
# Indices 1 2 3 4 5 6 
#
# 1 112.0388 41.9779 58.8795 21.0571 -10.2336 -16.5708
# 2 41.9779 122.3883 65.8129 33.9640 -6.9012 -35.3107
# 3 58.8795 65.8129 133.5540 37.7330 9.9627 -3.0818
# 4 21.0571 33.9640 37.7330 71.7315 4.0202 -25.5308
# 5 -10.2336 -6.9012 9.9627 4.0202 51.5939 10.6960
# 6 -16.5708 -35.3107 -3.0818 -25.5308 10.6960 47.7396
#
#
#
# Elastic Compliance Matrix: (Units=1/GPa)
#
#
# Indices 1 2 3 4 5 6 
#
# 1 0.012728 -0.000229 -0.005770 0.000495 0.002843 0.003504
# 2 -0.000229 0.015246 -0.007388 0.000485 0.001160 0.010720
# 3 -0.005770 -0.007388 0.015348 -0.005944 -0.002760 -0.009037
# 4 0.000495 0.000485 -0.005944 0.021159 -0.002846 0.012100
# 5 0.002843 0.001160 -0.002760 -0.002846 0.021840 -0.004749
# 6 0.003504 0.010720 -0.009037 0.012100 -0.004749 0.037043
#
#
# Mechanical properties :
#
#
# Convention : Reuss Voigt Hill
#
# Bulk Modulus (GPa) = 60.42721 77.92464 69.17593
# Shear Modulus (GPa) = 32.12232 47.63371 39.87802
#
# Velocity S-wave (km/s) = 3.62582 4.41530 4.03989
# Velocity P-wave (km/s) = 6.50073 7.60822 7.07618
#
# Compressibility (1/GPa) = 0.01654884
#
# Stress axis : x y z
#
# Youngs Moduli (GPa) = 78.56470 65.59243 65.15308
#
# Poissons Ratio (x) = 0.01504 0.37590
# Poissons Ratio (y) = 0.01802 0.48135
# Poissons Ratio (z) = 0.45328 0.48460
#
# Static dielectric constant tensor:
#      x y z
#    x 2.221650 0.014390 -0.138710 
#    y 0.014390 2.003180 0.020320 
#    z -0.138710 0.020320 2.008900 
# 
# From -- ./inp_files/382369.got.cif
#   From: 2010.05.17/outbox.cif.g08.bks.cpg/sg2_192_cif.got.tgz:382369.got - 2010.06.03 11:33:40.
