data_PCOD9041078
_publ_section_title
;
Structure prediction by ZEFSAII (Michael W. Deem and Ramdas Pophale) SiO2 
 PCOD9041078
Probable space group: P -1
;
_chemical_formula_sum "Si O2"
_cell_formula_units_Z 15
_cell_length_a 8.449294
_cell_length_b 10.934613
_cell_length_c 9.740847
_cell_angle_alpha 96.263613
_cell_angle_beta 128.143747
_cell_angle_gamma 105.909121
_cell_volume 632.880740
_symmetry_space_group_name_H-M "P -1"
_symmetry_group_IT_number 2
_symmetry_cell_setting 'triclinic'
loop_
_space_group_symop_operation_xyz
x,y,z
-x,-y,-z
loop_
_atom_site_type_symbol
_atom_site_label
_atom_site_fract_x
_atom_site_fract_y
_atom_site_fract_z
Si Si1 0.728942 0.431988 0.323339
Si Si2 0.790544 0.100945 0.151623
Si Si3 0.500000 0.000000 0.500000
Si Si4 0.766962 0.718298 0.686308
Si Si5 0.366473 0.682990 0.032083
Si Si6 0.390721 0.545591 0.285718
Si Si7 0.618282 0.866504 0.811777
Si Si8 0.262810 0.057344 0.638953
O O1 0.584927 0.505553 0.322641
O O2 0.603713 0.273358 0.287483
O O3 0.000000 0.500000 0.500000
O O4 0.677946 0.417433 0.131599
O O5 0.053252 0.194419 0.316916
O O6 0.688086 0.040063 0.236386
O O7 0.724168 0.207943 0.049591
O O8 0.730703 0.968319 0.009744
O O9 0.587088 0.943662 0.672505
O O10 0.646965 0.954528 0.462707
O O11 0.522927 0.662581 0.480940
O O12 0.778563 0.582922 0.733646
O O13 0.790105 0.808124 0.843137
O O14 0.282248 0.596366 0.114698
O O15 0.619718 0.788230 0.220944
O O16 0.000000 0.000000 0.500000
#
# Coordination Sequence:
#
# PCOD9041078 Si02
#       8
#     2   2   1   2   2   2   2   2
#     4  11  24  45  70  95 139 194 244 297 361 431
#     4  12  23  44  72 105 143 188 233 302 381 430
#     4  12  24  44  68 114 144 184 234 300 364 444
#     4  10  23  43  70  97 145 189 239 300 361 432
#     4  12  23  43  69 102 143 186 242 300 358 442
#     4  10  23  44  64 100 140 190 243 297 354 432
#     4  11  23  43  70 103 146 181 244 302 366 436
#     4  12  26  45  73 107 148 191 236 299 372 439
#
# _framework density 23.701148
#
# number of rings (size 3 to 8) (size 9 to 14) (size 15 to 20)
#    0.000    0.800    2.667    5.200    0.000    1.600 
#    2.400    0.000    0.000    0.000    0.000    0.000 
#    0.000    0.000    0.000    0.000    0.000    0.000 
#
# Total GULP energy -83547.779756 kJ/mol
# GULP energy per Si atom -5569.851984 kJ/mol
# Density = 2.364720 g / cm^3
# Si number density = 23.701148 Si / 1000 Ang^3
#
#
#
# Elastic Constant Matrix: (Units=GPa)
#
#
# Indices 1 2 3 4 5 6 
#
# 1 62.4308 33.8533 40.7469 15.2616 -15.7987 17.9044
# 2 33.8533 95.8205 33.4559 -20.3209 -11.1082 23.9066
# 3 40.7469 33.4559 118.0023 -8.0590 -27.8889 17.7044
# 4 15.2616 -20.3209 -8.0590 50.3070 14.6028 -8.4844
# 5 -15.7987 -11.1082 -27.8889 14.6028 48.5083 -3.3474
# 6 17.9044 23.9066 17.7044 -8.4844 -3.3474 49.4895
#
#
#
# Elastic Compliance Matrix: (Units=1/GPa)
#
#
# Indices 1 2 3 4 5 6 
#
# 1 0.038352 -0.012358 -0.007255 -0.022605 0.011716 -0.008393
# 2 -0.012358 0.017492 -0.000522 0.011521 -0.003931 -0.002083
# 3 -0.007255 -0.000522 0.012314 0.002749 0.003714 -0.000806
# 4 -0.022605 0.011521 0.002749 0.037024 -0.013803 0.007043
# 5 0.011716 -0.003931 0.003714 -0.013803 0.029543 -0.004036
# 6 -0.008393 -0.002083 -0.000806 0.007043 -0.004036 0.025471
#
#
# Mechanical properties :
#
#
# Convention : Reuss Voigt Hill
#
# Bulk Modulus (GPa) = 35.85854 54.70731 45.28292
# Shear Modulus (GPa) = 23.83654 40.87412 32.35533
#
# Velocity S-wave (km/s) = 3.17474 4.15729 3.69879
# Velocity P-wave (km/s) = 5.34798 6.79532 6.11462
#
# Compressibility (1/GPa) = 0.02788736
#
# Stress axis : x y z
#
# Youngs Moduli (GPa) = 26.07436 57.16998 81.20841
#
# Poissons Ratio (x) = 0.70653 0.58917
# Poissons Ratio (y) = 0.32224 0.04236
# Poissons Ratio (z) = 0.18917 0.02982
#
# Static dielectric constant tensor:
#      x y z
#    x 1.977530 -0.059560 0.029820 
#    y -0.059560 1.951840 -0.014720 
#    z 0.029820 -0.014720 1.904160 
# 
# From -- ./inp_files/180785.got.cif
#   From: 2010.05.17/outbox.cif.g08.bks.cpg/sg2_91_cif.got.tgz:180785.got - 2010.06.03 11:33:40.
