data_PCOD9041851
_publ_section_title
;
Structure prediction by ZEFSAII (Michael W. Deem and Ramdas Pophale) SiO2 
 PCOD9041851
Probable space group: P -1
;
_chemical_formula_sum "Si O2"
_cell_formula_units_Z 16
_cell_length_a 8.719075
_cell_length_b 20.105001
_cell_length_c 11.536289
_cell_angle_alpha 132.565572
_cell_angle_beta 34.308478
_cell_angle_gamma 105.918783
_cell_volume 611.413980
_symmetry_space_group_name_H-M "P -1"
_symmetry_group_IT_number 2
_symmetry_cell_setting 'triclinic'
loop_
_space_group_symop_operation_xyz
x,y,z
-x,-y,-z
loop_
_atom_site_type_symbol
_atom_site_label
_atom_site_fract_x
_atom_site_fract_y
_atom_site_fract_z
Si Si1 0.954225 0.588162 0.034746
Si Si2 0.742313 0.721051 0.911481
Si Si3 0.442764 0.882922 0.071016
Si Si4 0.432696 0.106600 0.591372
Si Si5 0.317294 0.807987 0.845621
Si Si6 0.250068 0.676089 0.063036
Si Si7 0.406752 0.487567 0.917848
Si Si8 0.457639 0.942023 0.801832
O O1 0.584265 0.721109 0.471141
O O2 0.834033 0.549956 0.961739
O O3 0.258209 0.599326 0.862465
O O4 0.000000 0.500000 0.000000
O O5 0.190637 0.617332 0.519944
O O6 0.638355 0.817770 0.992376
O O7 0.543478 0.804260 0.249692
O O8 0.574153 0.667890 0.897347
O O9 0.607623 0.939163 0.989154
O O10 0.477086 0.793006 0.854554
O O11 0.000000 0.000000 0.500000
O O12 0.593571 0.061377 0.308084
O O13 0.500000 0.000000 0.500000
O O14 0.989212 0.196753 0.953227
O O15 0.188993 0.936600 0.034223
O O16 0.883702 0.819643 0.431420
O O17 0.209843 0.613005 0.118313
O O18 0.500000 0.500000 0.000000
#
# Coordination Sequence:
#
# PCOD9041851 Si02
#       8
#     2   2   2   2   2   2   2   2
#     4   9  21  43  67  93 134 178 230 279 340 415
#     4  12  24  43  72 102 142 182 226 293 362 395
#     4  12  22  43  68 102 142 186 225 286 349 418
#     4  12  24  45  66  99 149 177 228 299 346 408
#     4  11  23  42  70  97 136 187 233 276 350 423
#     4  10  23  44  67  98 134 179 240 275 335 434
#     4  11  25  45  70 102 141 178 227 296 354 406
#     4  11  24  44  69 100 136 190 236 278 345 425
#
# _framework density 26.168847
#
# number of rings (size 3 to 8) (size 9 to 14) (size 15 to 20)
#    0.000    1.000    5.000    0.750    5.250    2.500 
#    0.000    1.250    0.000    0.000    0.000    0.000 
#    0.000    0.000    0.000    0.000    0.000    0.000 
#
# Total GULP energy -89360.114167 kJ/mol
# GULP energy per Si atom -5585.007135 kJ/mol
# Density = 2.610929 g / cm^3
# Si number density = 26.168847 Si / 1000 Ang^3
#
#
#
# Elastic Constant Matrix: (Units=GPa)
#
#
# Indices 1 2 3 4 5 6 
#
# 1 167.5274 35.5249 18.5934 2.0551 22.3062 32.1086
# 2 35.5249 78.9163 -3.1510 14.4095 -9.0828 22.3981
# 3 18.5934 -3.1510 66.9565 4.9853 -9.5703 2.0995
# 4 2.0551 14.4095 4.9853 32.7589 0.8658 -4.7070
# 5 22.3062 -9.0828 -9.5703 0.8658 40.9234 -2.5802
# 6 32.1086 22.3981 2.0995 -4.7070 -2.5802 71.1022
#
#
#
# Elastic Compliance Matrix: (Units=1/GPa)
#
#
# Indices 1 2 3 4 5 6 
#
# 1 0.008679 -0.004432 -0.003637 0.001772 -0.006763 -0.002544
# 2 -0.004432 0.018612 0.003996 -0.009334 0.007406 -0.004329
# 3 -0.003637 0.003996 0.017472 -0.004398 0.007038 -0.000168
# 4 0.001772 -0.009334 -0.004398 0.035955 -0.004544 0.004486
# 5 -0.006763 0.007406 0.007038 -0.004544 0.031594 0.001359
# 6 -0.002544 -0.004329 -0.000168 0.004486 0.001359 0.016928
#
#
# Mechanical properties :
#
#
# Convention : Reuss Voigt Hill
#
# Bulk Modulus (GPa) = 27.31110 46.14832 36.72971
# Shear Modulus (GPa) = 33.42445 46.45242 39.93843
#
# Velocity S-wave (km/s) = 3.57776 4.21777 3.91088
# Velocity P-wave (km/s) = 5.24655 6.43370 5.87021
#
# Compressibility (1/GPa) = 0.03661515
#
# Stress axis : x y z
#
# Youngs Moduli (GPa) = 115.22029 53.72986 57.23470
#
# Poissons Ratio (x) = 0.23813 0.20819
# Poissons Ratio (y) = 0.51067 -0.22870
# Poissons Ratio (z) = 0.41911 -0.21470
#
# Static dielectric constant tensor:
#      x y z
#    x 2.208220 0.032360 -0.069820 
#    y 0.032360 2.140370 -0.009350 
#    z -0.069820 -0.009350 2.170170 
# 
# From -- ./inp_files/405499.got.cif
#   From: 2010.05.17/outbox.cif.g08.bks.cpg/sg2_203_cif.got.tgz:405499.got - 2010.06.03 11:33:40.
