data_PCOD9041411
_publ_section_title
;
Structure prediction by ZEFSAII (Michael W. Deem and Ramdas Pophale) SiO2 
 PCOD9041411
Probable space group: P -1
;
_chemical_formula_sum "Si O2"
_cell_formula_units_Z 12
_cell_length_a 9.312142
_cell_length_b 7.168310
_cell_length_c 9.201769
_cell_angle_alpha 112.835917
_cell_angle_beta 121.838907
_cell_angle_gamma 91.426075
_cell_volume 459.770795
_symmetry_space_group_name_H-M "P -1"
_symmetry_group_IT_number 2
_symmetry_cell_setting 'triclinic'
loop_
_space_group_symop_operation_xyz
x,y,z
-x,-y,-z
loop_
_atom_site_type_symbol
_atom_site_label
_atom_site_fract_x
_atom_site_fract_y
_atom_site_fract_z
Si Si1 0.211072 0.076287 0.086736
Si Si2 0.601839 0.318769 0.398155
Si Si3 0.514841 0.622462 0.198485
Si Si4 0.114738 0.219687 0.563010
Si Si5 0.802681 0.486639 0.852381
Si Si6 0.161685 0.702716 0.747623
O O1 0.404891 0.175277 0.300656
O O2 0.207734 0.277997 0.049154
O O3 0.244294 0.887826 0.956880
O O4 0.000000 0.000000 0.000000
O O5 0.731012 0.415239 0.630761
O O6 0.556655 0.492024 0.319877
O O7 0.722311 0.242878 0.321466
O O8 0.692392 0.810321 0.344826
O O9 0.337186 0.667404 0.163900
O O10 0.864061 0.540734 0.289500
O O11 0.500000 0.500000 0.000000
O O12 0.027735 0.261598 0.378485
O O13 0.000000 0.000000 0.500000
O O14 0.000000 0.500000 0.000000
#
# Coordination Sequence:
#
# PCOD9041411 Si02
#       6
#     2   2   2   2   2   2
#     4  11  25  44  76 110 155 202 255 321 394 457
#     4  10  24  49  78 106 158 209 256 317 397 467
#     4  10  23  43  74 112 152 196 259 317 385 467
#     4  10  24  43  76 111 154 195 261 317 386 460
#     4  11  27  49  77 112 157 207 265 324 388 466
#     4  10  24  44  78 112 150 205 260 310 398 469
#
# _framework density 26.099961
#
# number of rings (size 3 to 8) (size 9 to 14) (size 15 to 20)
#    0.000    1.667    0.000    2.500   16.333    1.333 
#    3.000    0.833    0.000    0.000    0.000    0.000 
#    0.000    0.000    0.000    0.000    0.000    0.000 
#
# Total GULP energy -66857.753886 kJ/mol
# GULP energy per Si atom -5571.479490 kJ/mol
# Density = 2.604056 g / cm^3
# Si number density = 26.099961 Si / 1000 Ang^3
#
#
#
# Elastic Constant Matrix: (Units=GPa)
#
#
# Indices 1 2 3 4 5 6 
#
# 1 195.5741 36.7090 97.4333 4.0082 33.7416 16.7599
# 2 36.7090 143.6373 62.8342 9.9132 -3.1447 8.9890
# 3 97.4333 62.8342 202.5181 -14.5672 23.2129 7.7823
# 4 4.0082 9.9132 -14.5672 40.4491 -1.4144 10.0829
# 5 33.7416 -3.1447 23.2129 -1.4144 73.4725 12.9624
# 6 16.7599 8.9890 7.7823 10.0829 12.9624 25.2132
#
#
#
# Elastic Compliance Matrix: (Units=1/GPa)
#
#
# Indices 1 2 3 4 5 6 
#
# 1 0.007333 -0.000276 -0.003225 -0.001336 -0.001995 -0.002221
# 2 -0.000276 0.008607 -0.002845 -0.002593 0.001666 -0.001827
# 3 -0.003225 -0.002845 0.007771 0.003852 -0.000972 -0.000281
# 4 -0.001336 -0.002593 0.003852 0.030054 0.002062 -0.012455
# 5 -0.001995 0.001666 -0.000972 0.002062 0.016395 -0.008222
# 6 -0.002221 -0.001827 -0.000281 -0.012455 -0.008222 0.051084
#
#
# Mechanical properties :
#
#
# Convention : Reuss Voigt Hill
#
# Bulk Modulus (GPa) = 90.74226 103.96471 97.35348
# Shear Modulus (GPa) = 36.33487 50.81051 43.57269
#
# Velocity S-wave (km/s) = 3.73519 4.41700 4.09033
# Velocity P-wave (km/s) = 7.31060 8.11991 7.72586
#
# Compressibility (1/GPa) = 0.01102022
#
# Stress axis : x y z
#
# Youngs Moduli (GPa) = 136.36443 116.18775 128.67995
#
# Poissons Ratio (x) = 0.03206 0.41495
# Poissons Ratio (y) = 0.03763 0.36608
# Poissons Ratio (z) = 0.43973 0.33054
#
# Static dielectric constant tensor:
#      x y z
#    x 2.272210 -0.022260 0.084880 
#    y -0.022260 2.065970 0.009270 
#    z 0.084880 0.009270 2.227720 
# 
# From -- ./inp_files/383412.got.cif
#   From: 2010.05.17/outbox.cif.g08.bks.cpg/sg2_192_cif.got.tgz:383412.got - 2010.06.03 11:33:40.
