data_PCOD9041400
_publ_section_title
;
Structure prediction by ZEFSAII (Michael W. Deem and Ramdas Pophale) SiO2 
 PCOD9041400
Probable space group: P -1
;
_chemical_formula_sum "Si O2"
_cell_formula_units_Z 14
_cell_length_a 5.443900
_cell_length_b 13.663476
_cell_length_c 23.909938
_cell_angle_alpha 21.262027
_cell_angle_beta 108.380463
_cell_angle_gamma 115.156511
_cell_volume 565.787880
_symmetry_space_group_name_H-M "P -1"
_symmetry_group_IT_number 2
_symmetry_cell_setting 'triclinic'
loop_
_space_group_symop_operation_xyz
x,y,z
-x,-y,-z
loop_
_atom_site_type_symbol
_atom_site_label
_atom_site_fract_x
_atom_site_fract_y
_atom_site_fract_z
Si Si1 0.857156 0.786769 0.052848
Si Si2 0.938597 0.878812 0.497165
Si Si3 0.855886 0.159733 0.743861
Si Si4 0.702322 0.190250 0.111918
Si Si5 0.226479 0.191957 0.190630
Si Si6 0.305477 0.726767 0.519544
Si Si7 0.801504 0.476497 0.850491
O O1 0.529708 0.600040 0.141138
O O2 0.046939 0.606904 0.146043
O O3 0.869316 0.978230 0.896544
O O4 0.000000 0.000000 0.000000
O O5 0.605328 0.705607 0.560679
O O6 0.133597 0.724477 0.565837
O O7 0.000000 0.000000 0.500000
O O8 0.034437 0.183714 0.308177
O O9 0.098634 0.470361 0.602611
O O10 0.534544 0.130583 0.739695
O O11 0.838263 0.998319 0.769706
O O12 0.912728 0.187316 0.176767
O O13 0.604586 0.458332 0.978451
O O14 0.819386 0.291792 0.004366
O O15 0.348724 0.026932 0.330490
#
# Coordination Sequence:
#
# PCOD9041400 Si02
#       7
#     2   2   2   2   2   2   2
#     4  11  25  42  72 102 143 181 240 297 358 413
#     4  12  29  50  75 101 143 192 246 294 358 427
#     4  11  26  42  69 106 150 186 235 293 365 416
#     4  10  23  43  74 104 147 184 240 293 351 430
#     4  11  23  45  71 108 142 194 234 292 354 436
#     4  12  29  46  76 105 146 191 237 299 358 427
#     4  11  23  46  71 103 135 186 241 294 346 429
#
# _framework density 24.744253
#
# number of rings (size 3 to 8) (size 9 to 14) (size 15 to 20)
#    0.000    0.857    2.857    2.571   10.000    0.571 
#    0.000    0.000    0.000    0.000    0.000    0.000 
#    0.000    0.000    0.000    0.000    0.000    0.000 
#
# Total GULP energy -78185.451241 kJ/mol
# GULP energy per Si atom -5584.675089 kJ/mol
# Density = 2.468793 g / cm^3
# Si number density = 24.744253 Si / 1000 Ang^3
#
#
#
# Elastic Constant Matrix: (Units=GPa)
#
#
# Indices 1 2 3 4 5 6 
#
# 1 131.4859 41.4993 27.6138 -12.2837 -22.7006 -5.7992
# 2 41.4993 137.2908 -3.5591 -9.4418 -13.3519 -10.4013
# 3 27.6138 -3.5591 43.9106 -14.8113 -14.9507 12.9570
# 4 -12.2837 -9.4418 -14.8113 40.6189 8.2507 -1.0375
# 5 -22.7006 -13.3519 -14.9507 8.2507 23.3665 -13.9638
# 6 -5.7992 -10.4013 12.9570 -1.0375 -13.9638 44.9165
#
#
#
# Elastic Compliance Matrix: (Units=1/GPa)
#
#
# Indices 1 2 3 4 5 6 
#
# 1 0.011445 -0.002329 -0.006166 -0.001143 0.009647 0.005690
# 2 -0.002329 0.009060 0.004228 0.001665 0.006632 0.002678
# 3 -0.006166 0.004228 0.036360 0.009661 0.012593 -0.006167
# 4 -0.001143 0.001665 0.009661 0.029452 -0.006747 -0.003966
# 5 0.009647 0.006632 0.012593 -0.006747 0.080809 0.024115
# 6 0.005690 0.002678 -0.006167 -0.003966 0.024115 0.032803
#
#
# Mechanical properties :
#
#
# Convention : Reuss Voigt Hill
#
# Bulk Modulus (GPa) = 20.69014 49.31060 35.00037
# Shear Modulus (GPa) = 22.26451 38.25594 30.26022
#
# Velocity S-wave (km/s) = 3.00290 3.93625 3.50082
# Velocity P-wave (km/s) = 4.51696 6.37418 5.52418
#
# Compressibility (1/GPa) = 0.04833219
#
# Stress axis : x y z
#
# Youngs Moduli (GPa) = 87.37504 110.37863 27.50259
#
# Poissons Ratio (x) = 0.25704 0.16958
# Poissons Ratio (y) = 0.20347 -0.11629
# Poissons Ratio (z) = 0.53875 -0.46671
#
# Static dielectric constant tensor:
#      x y z
#    x 2.170460 -0.080410 -0.032600 
#    y -0.080410 1.968780 0.033240 
#    z -0.032600 0.033240 1.972320 
# 
# From -- ./inp_files/615650.got.cif
#   From: 2010.05.17/outbox.cif.g08.bks.cpg/sg2_308_cif.got.tgz:615650.got - 2010.06.03 11:33:40.
