data_PCOD9041495
_publ_section_title
;
Structure prediction by ZEFSAII (Michael W. Deem and Ramdas Pophale) SiO2 
 PCOD9041495
Probable space group: P -1
;
_chemical_formula_sum "Si O2"
_cell_formula_units_Z 10
_cell_length_a 6.886740
_cell_length_b 14.088929
_cell_length_c 7.939913
_cell_angle_alpha 39.201605
_cell_angle_beta 59.355231
_cell_angle_gamma 60.321050
_cell_volume 411.754623
_symmetry_space_group_name_H-M "P -1"
_symmetry_group_IT_number 2
_symmetry_cell_setting 'triclinic'
loop_
_space_group_symop_operation_xyz
x,y,z
-x,-y,-z
loop_
_atom_site_type_symbol
_atom_site_label
_atom_site_fract_x
_atom_site_fract_y
_atom_site_fract_z
Si Si1 0.463221 0.093366 0.212756
Si Si2 0.359196 0.665370 0.024341
Si Si3 0.207436 0.569783 0.727609
Si Si4 0.841274 0.656650 0.193621
Si Si5 0.461157 0.792194 0.441465
O O1 0.500000 0.000000 0.500000
O O2 0.472800 0.967805 0.236329
O O3 0.642177 0.207015 0.005149
O O4 0.235439 0.218114 0.094680
O O5 0.555860 0.523447 0.174390
O O6 0.106964 0.638330 0.138511
O O7 0.553202 0.274551 0.273291
O O8 0.204003 0.506814 0.626479
O O9 0.241002 0.742762 0.510620
O O10 0.000000 0.500000 0.000000
O O11 0.682331 0.721866 0.330158
#
# Coordination Sequence:
#
# PCOD9041495 Si02
#       5
#     2   2   2   2   2
#     4   9  22  43  64  95 128 165 210 256 317 377
#     4  10  23  44  62  92 130 166 209 257 318 370
#     4  11  23  44  64  91 131 168 210 260 313 374
#     4  11  23  42  66  94 129 163 212 263 307 379
#     4  11  22  41  66  95 126 167 210 258 315 370
#
# _framework density 24.286311000000001
#
# number of rings (size 3 to 8) (size 9 to 14) (size 15 to 20)
#    0.000    1.600    2.000    1.800    0.000    4.800 
#   10.800    0.000    0.000    0.000    0.000    0.000 
#    0.000    0.000    0.000    0.000    0.000    0.000 
#
# Total GULP energy -55818.253159 kJ/mol
# GULP energy per Si atom -5581.825316 kJ/mol
# Density = 2.423103 g / cm^3
# Si number density = 24.286311 Si / 1000 Ang^3
#
#
#
# Elastic Constant Matrix: (Units=GPa)
#
#
# Indices 1 2 3 4 5 6 
#
# 1 177.1628 52.8271 54.6746 -9.3783 -15.4554 13.0837
# 2 52.8271 174.5751 49.7910 -23.2761 -29.8139 42.2912
# 3 54.6746 49.7910 82.9727 2.4284 2.8325 5.2401
# 4 -9.3783 -23.2761 2.4284 50.7715 9.6260 -22.8374
# 5 -15.4554 -29.8139 2.8325 9.6260 41.6565 -2.0341
# 6 13.0837 42.2912 5.2401 -22.8374 -2.0341 42.3668
#
#
#
# Elastic Compliance Matrix: (Units=1/GPa)
#
#
# Indices 1 2 3 4 5 6 
#
# 1 0.007579 0.000064 -0.005063 0.000480 0.003024 -0.001374
# 2 0.000064 0.011479 -0.006515 -0.000814 0.008347 -0.010710
# 3 -0.005063 -0.006515 0.019299 -0.001403 -0.007306 0.004573
# 4 0.000480 -0.000814 -0.001403 0.027523 -0.005918 0.015390
# 5 0.003024 0.008347 -0.007306 -0.005918 0.032478 -0.009993
# 6 -0.001374 -0.010710 0.004573 0.015390 -0.009993 0.041970
#
#
# Mechanical properties :
#
#
# Convention : Reuss Voigt Hill
#
# Bulk Modulus (GPa) = 65.23574 83.25511 74.24543
# Shear Modulus (GPa) = 29.67981 45.45349 37.56665
#
# Velocity S-wave (km/s) = 3.49962 4.33086 3.93724
# Velocity P-wave (km/s) = 6.57641 7.70477 7.16285
#
# Compressibility (1/GPa) = 0.01532902
#
# Stress axis : x y z
#
# Youngs Moduli (GPa) = 131.95116 87.11923 51.81488
#
# Poissons Ratio (x) = -0.00557 0.26232
# Poissons Ratio (y) = -0.00844 0.33757
# Poissons Ratio (z) = 0.66803 0.56758
#
# Static dielectric constant tensor:
#      x y z
#    x 1.868620 0.061000 0.029890 
#    y 0.061000 2.011770 -0.007050 
#    z 0.029890 -0.007050 2.046300 
# 
# From -- ./inp_files/194805.got.cif
#   From: 2010.05.17/outbox.cif.g08.bks.cpg/sg2_98_cif.got.tgz:194805.got - 2010.06.03 11:33:40.
