data_PCOD9041121
_publ_section_title
;
Structure prediction by ZEFSAII (Michael W. Deem and Ramdas Pophale) SiO2 
 PCOD9041121
Probable space group: P -1
;
_chemical_formula_sum "Si O2"
_cell_formula_units_Z 14
_cell_length_a 15.409503
_cell_length_b 9.096086
_cell_length_c 22.313114
_cell_angle_alpha 151.404744
_cell_angle_beta 152.267545
_cell_angle_gamma 30.392809
_cell_volume 643.315814
_symmetry_space_group_name_H-M "P -1"
_symmetry_group_IT_number 2
_symmetry_cell_setting 'triclinic'
loop_
_space_group_symop_operation_xyz
x,y,z
-x,-y,-z
loop_
_atom_site_type_symbol
_atom_site_label
_atom_site_fract_x
_atom_site_fract_y
_atom_site_fract_z
Si Si1 0.664268 0.117964 0.890685
Si Si2 0.505795 0.721695 0.857697
Si Si3 0.956053 0.264175 0.937969
Si Si4 0.207414 0.380305 0.548711
Si Si5 0.546761 0.768803 0.584924
Si Si6 0.671056 0.789437 0.180569
Si Si7 0.906101 0.575976 0.641234
O O1 0.479588 0.173665 0.843206
O O2 0.613551 0.993738 0.752563
O O3 0.690657 0.469397 0.036816
O O4 0.867999 0.839068 0.941857
O O5 0.732672 0.458634 0.896085
O O6 0.345618 0.568925 0.724179
O O7 0.430151 0.891333 0.807983
O O8 0.500000 0.000000 0.000000
O O9 0.957552 0.910441 0.789363
O O10 0.000000 0.500000 0.000000
O O11 0.160799 0.461960 0.479925
O O12 0.000000 0.500000 0.500000
O O13 0.344940 0.995332 0.507171
O O14 0.500000 0.500000 0.500000
O O15 0.726250 0.623284 0.594664
O O16 0.891232 0.714280 0.315087
#
# Coordination Sequence:
#
# PCOD9041121 Si02
#       7
#     2   2   2   2   2   2   2
#     4  10  23  44  67 103 140 179 235 288 359 411
#     4  12  27  43  74 105 143 184 245 289 364 420
#     4  11  24  43  74 102 141 189 234 300 352 430
#     4  12  29  50  72 102 149 189 239 302 357 432
#     4  12  28  44  72 102 142 190 240 295 354 431
#     4  10  23  43  71 101 140 184 232 296 347 428
#     4  11  27  47  71 103 145 188 243 292 363 425
#
# _framework density 21.762250999999999
#
# number of rings (size 3 to 8) (size 9 to 14) (size 15 to 20)
#    0.000    0.857    2.857    2.143   10.000    1.714 
#    0.000    0.000    0.000    0.000    0.000    0.000 
#    0.000    0.000    0.000    0.000    0.000    0.000 
#
# Total GULP energy -78382.284464 kJ/mol
# GULP energy per Si atom -5598.734605 kJ/mol
# Density = 2.171272 g / cm^3
# Si number density = 21.762251 Si / 1000 Ang^3
#
#
#
# Elastic Constant Matrix: (Units=GPa)
#
#
# Indices 1 2 3 4 5 6 
#
# 1 129.3025 46.8373 56.0298 -21.8912 9.8727 -9.4311
# 2 46.8373 133.6840 27.9915 -46.7711 0.7309 -18.1191
# 3 56.0298 27.9915 101.7675 -21.3831 -6.6068 -13.3503
# 4 -21.8912 -46.7711 -21.3831 35.7521 2.0068 9.3603
# 5 9.8727 0.7309 -6.6068 2.0068 42.4082 -5.1920
# 6 -9.4311 -18.1191 -13.3503 9.3603 -5.1920 35.6202
#
#
#
# Elastic Compliance Matrix: (Units=1/GPa)
#
#
# Indices 1 2 3 4 5 6 
#
# 1 0.011588 -0.002835 -0.005926 0.000377 -0.003742 -0.001239
# 2 -0.002835 0.014716 0.001608 0.017765 0.000146 0.002691
# 3 -0.005926 0.001608 0.014652 0.006055 0.003801 0.003703
# 4 0.000377 0.017765 0.006055 0.056184 -0.002566 -0.003732
# 5 -0.003742 0.000146 0.003801 -0.002566 0.025767 0.004938
# 6 -0.001239 0.002691 0.003703 -0.003732 0.004938 0.032203
#
#
# Mechanical properties :
#
#
# Convention : Reuss Voigt Hill
#
# Bulk Modulus (GPa) = 37.52384 69.60789 53.56587
# Shear Modulus (GPa) = 28.04274 38.34912 33.19593
#
# Velocity S-wave (km/s) = 3.59360 4.20239 3.90986
# Velocity P-wave (km/s) = 5.87355 7.45667 6.71195
#
# Compressibility (1/GPa) = 0.02664972
#
# Stress axis : x y z
#
# Youngs Moduli (GPa) = 86.29793 67.95326 68.25087
#
# Poissons Ratio (x) = 0.19262 0.40449
# Poissons Ratio (y) = 0.24462 -0.10976
# Poissons Ratio (z) = 0.51144 -0.10928
#
# Static dielectric constant tensor:
#      x y z
#    x 1.756350 0.039840 0.012190 
#    y 0.039840 1.799680 0.034500 
#    z 0.012190 0.034500 1.799640 
# 
# From -- ./inp_files/157348.got.cif
#   From: 2010.05.17/outbox.cif.g08.bks.cpg/sg2_79_cif.got.tgz:157348.got - 2010.06.03 11:33:40.
