data_PCOD9041424
_publ_section_title
;
Structure prediction by ZEFSAII (Michael W. Deem and Ramdas Pophale) SiO2 
 PCOD9041424
Probable space group: P -1
;
_chemical_formula_sum "Si O2"
_cell_formula_units_Z 16
_cell_length_a 9.214087
_cell_length_b 5.614114
_cell_length_c 19.209050
_cell_angle_alpha 64.203926
_cell_angle_beta 136.077037
_cell_angle_gamma 99.348961
_cell_volume 602.196446
_symmetry_space_group_name_H-M "P -1"
_symmetry_group_IT_number 2
_symmetry_cell_setting 'triclinic'
loop_
_space_group_symop_operation_xyz
x,y,z
-x,-y,-z
loop_
_atom_site_type_symbol
_atom_site_label
_atom_site_fract_x
_atom_site_fract_y
_atom_site_fract_z
Si Si1 0.483304 0.079274 0.565047
Si Si2 0.011252 0.033685 0.242003
Si Si3 0.098560 0.299624 0.120437
Si Si4 0.688975 0.232577 0.824267
Si Si5 0.533639 0.118410 0.918319
Si Si6 0.635244 0.356861 0.132317
Si Si7 0.077739 0.514148 0.408339
Si Si8 0.750300 0.344323 0.404593
O O1 0.733967 0.037044 0.672737
O O2 0.311363 0.364154 0.479072
O O3 0.500000 0.000000 0.500000
O O4 0.376472 0.889287 0.600960
O O5 0.971303 0.747772 0.287398
O O6 0.927761 0.181927 0.122279
O O7 0.894769 0.266377 0.225901
O O8 0.195526 0.512896 0.174590
O O9 0.242783 0.028343 0.168545
O O10 0.000000 0.500000 0.000000
O O11 0.728929 0.118973 0.931826
O O12 0.437731 0.379484 0.703993
O O13 0.440396 0.440881 0.856727
O O14 0.423507 0.931898 0.854307
O O15 0.500000 0.000000 0.000000
O O16 0.500000 0.500000 0.000000
O O17 0.126498 0.655075 0.479368
O O18 0.921839 0.327424 0.403967
#
# Coordination Sequence:
#
# PCOD9041424 Si02
#       8
#     2   2   2   2   2   2   2   2
#     4  12  25  46  76 113 152 196 253 323 388 470
#     4  12  26  47  78 111 148 209 258 318 394 465
#     4  12  30  47  74 109 156 202 258 323 389 458
#     4  12  26  49  74 110 151 203 253 321 393 458
#     4  10  23  43  74  99 144 194 252 311 372 448
#     4  10  24  45  71 108 145 193 256 314 369 456
#     4  11  26  48  75 110 152 201 261 317 390 473
#     4  11  25  48  75 111 153 200 254 325 391 465
#
# _framework density 26.569403999999999
#
# number of rings (size 3 to 8) (size 9 to 14) (size 15 to 20)
#    0.000    0.750    2.500    3.375    8.750    3.000 
#    2.250    0.000    0.000    0.000    0.000    0.000 
#    0.000    0.000    0.000    0.000    0.000    0.000 
#
# Total GULP energy -89311.876683 kJ/mol
# GULP energy per Si atom -5581.992293 kJ/mol
# Density = 2.650893 g / cm^3
# Si number density = 26.569404 Si / 1000 Ang^3
#
#
#
# Elastic Constant Matrix: (Units=GPa)
#
#
# Indices 1 2 3 4 5 6 
#
# 1 159.2783 59.7805 19.5771 -20.2409 -2.0582 -1.7802
# 2 59.7805 152.7394 26.2695 -20.6809 -1.9104 -11.0553
# 3 19.5771 26.2695 74.1960 -18.3665 -5.7442 4.5041
# 4 -20.2409 -20.6809 -18.3665 42.7173 -6.3907 1.6166
# 5 -2.0582 -1.9104 -5.7442 -6.3907 55.7806 -9.5749
# 6 -1.7802 -11.0553 4.5041 1.6166 -9.5749 59.0705
#
#
#
# Elastic Compliance Matrix: (Units=1/GPa)
#
#
# Indices 1 2 3 4 5 6 
#
# 1 0.007597 -0.002603 -0.000501 0.002185 0.000352 -0.000223
# 2 -0.002603 0.008273 -0.001804 0.002011 0.000513 0.001636
# 3 -0.000501 -0.001804 0.016009 0.006129 0.002028 -0.001412
# 4 0.002185 0.002011 0.006129 0.028664 0.004038 -0.000155
# 5 0.000352 0.000513 0.002028 0.004038 0.019135 0.002943
# 6 -0.000223 0.001636 -0.001412 -0.000155 0.002943 0.017817
#
#
# Mechanical properties :
#
#
# Convention : Reuss Voigt Hill
#
# Bulk Modulus (GPa) = 45.32691 66.38532 55.85611
# Shear Modulus (GPa) = 43.60539 50.21945 46.91242
#
# Velocity S-wave (km/s) = 4.05555 4.35227 4.20653
# Velocity P-wave (km/s) = 6.24715 7.09198 6.68293
#
# Compressibility (1/GPa) = 0.02206195
#
# Stress axis : x y z
#
# Youngs Moduli (GPa) = 131.63864 120.87170 62.46584
#
# Poissons Ratio (x) = 0.31462 0.03131
# Poissons Ratio (y) = 0.34264 0.11270
# Poissons Ratio (z) = 0.06598 0.21807
#
# Static dielectric constant tensor:
#      x y z
#    x 2.180810 0.165580 -0.020360 
#    y 0.165580 2.099200 -0.064980 
#    z -0.020360 -0.064980 2.087100 
# 
# From -- ./inp_files/585562.got.cif
#   From: 2010.05.17/outbox.cif.g08.bks.cpg/sg2_293_cif.got.tgz:585562.got - 2010.06.03 11:33:40.
