data_PCOD9041018
_publ_section_title
;
Structure prediction by ZEFSAII (Michael W. Deem and Ramdas Pophale) SiO2 
 PCOD9041018
Probable space group: P -1
;
_chemical_formula_sum "Si O2"
_cell_formula_units_Z 16
_cell_length_a 7.688312
_cell_length_b 8.565418
_cell_length_c 16.105127
_cell_angle_alpha 139.348983
_cell_angle_beta 74.967970
_cell_angle_gamma 108.850940
_cell_volume 653.682296
_symmetry_space_group_name_H-M "P -1"
_symmetry_group_IT_number 2
_symmetry_cell_setting 'triclinic'
loop_
_space_group_symop_operation_xyz
x,y,z
-x,-y,-z
loop_
_atom_site_type_symbol
_atom_site_label
_atom_site_fract_x
_atom_site_fract_y
_atom_site_fract_z
Si Si1 0.924143 0.026518 0.231214
Si Si2 0.306134 0.942978 0.071928
Si Si3 0.706977 0.356566 0.781500
Si Si4 0.697143 0.606426 0.202126
Si Si5 0.202498 0.102096 0.978204
Si Si6 0.768908 0.446617 0.458262
Si Si7 0.937045 0.710667 0.378436
Si Si8 0.593082 0.864220 0.699256
O O1 0.825962 0.800281 0.206161
O O2 0.117587 0.981789 0.155425
O O3 0.909006 0.265270 0.383766
O O4 0.810002 0.033810 0.162879
O O5 0.323139 0.071655 0.032204
O O6 0.449364 0.057640 0.171221
O O7 0.297099 0.659945 0.941587
O O8 0.510163 0.347154 0.758669
O O9 0.753032 0.607959 0.929695
O O10 0.877037 0.379075 0.706319
O O11 0.693256 0.112412 0.740068
O O12 0.788751 0.640995 0.295274
O O13 0.000000 0.000000 0.000000
O O14 0.845400 0.592474 0.425222
O O15 0.707616 0.647772 0.605389
O O16 0.578691 0.256599 0.384580
O O17 0.000000 0.000000 0.500000
#
# Coordination Sequence:
#
# PCOD9041018 Si02
#       8
#     2   2   2   2   2   2   2   2
#     4  11  22  44  72 103 149 189 244 305 366 440
#     4  11  24  44  73 108 146 189 244 304 376 441
#     4  12  25  48  74 111 146 196 246 305 371 437
#     4  12  27  45  76 114 142 194 250 306 370 442
#     4  10  23  43  70 106 147 190 237 305 368 433
#     4  11  25  48  71 103 152 195 242 307 367 436
#     4  12  26  50  75 104 154 194 242 305 371 440
#     4  11  25  47  72 107 149 195 245 307 366 433
#
# _framework density 24.476723
#
# number of rings (size 3 to 8) (size 9 to 14) (size 15 to 20)
#    0.000    0.750    2.500    5.625    3.500    2.500 
#    2.250    0.000    0.000    0.000    0.000    0.000 
#    0.000    0.000    0.000    0.000    0.000    0.000 
#
# Total GULP energy -89592.650866 kJ/mol
# GULP energy per Si atom -5599.540679 kJ/mol
# Density = 2.442101 g / cm^3
# Si number density = 24.476723 Si / 1000 Ang^3
#
#
#
# Elastic Constant Matrix: (Units=GPa)
#
#
# Indices 1 2 3 4 5 6 
#
# 1 117.8288 -19.0019 15.2544 2.6941 3.2621 0.0473
# 2 -19.0019 110.0658 30.7472 17.8368 13.3762 10.1029
# 3 15.2544 30.7472 150.6393 24.0190 7.2832 -5.4291
# 4 2.6941 17.8368 24.0190 54.6428 -4.4801 -0.6899
# 5 3.2621 13.3762 7.2832 -4.4801 35.1387 -1.0816
# 6 0.0473 10.1029 -5.4291 -0.6899 -1.0816 30.2482
#
#
#
# Elastic Compliance Matrix: (Units=1/GPa)
#
#
# Indices 1 2 3 4 5 6 
#
# 1 0.009088 0.002342 -0.001229 -0.000819 -0.001619 -0.001094
# 2 0.002342 0.011603 -0.001979 -0.003484 -0.004806 -0.004486
# 3 -0.001229 -0.001979 0.007725 -0.002748 -0.001024 0.001950
# 4 -0.000819 -0.003484 -0.002748 0.021088 0.004701 0.001321
# 5 -0.001619 -0.004806 -0.001024 0.004701 0.031332 0.002652
# 6 -0.001094 -0.004486 0.001950 0.001321 0.002652 0.035035
#
#
# Mechanical properties :
#
#
# Convention : Reuss Voigt Hill
#
# Bulk Modulus (GPa) = 37.47684 48.05926 42.76805
# Shear Modulus (GPa) = 39.52654 47.44155 43.48404
#
# Velocity S-wave (km/s) = 4.02289 4.40731 4.21948
# Velocity P-wave (km/s) = 6.07640 6.75104 6.42258
#
# Compressibility (1/GPa) = 0.02668315
#
# Stress axis : x y z
#
# Youngs Moduli (GPa) = 110.03962 86.18359 129.45321
#
# Poissons Ratio (x) = -0.20184 0.15908
# Poissons Ratio (y) = -0.25771 0.25623
# Poissons Ratio (z) = 0.13522 0.17058
#
# Static dielectric constant tensor:
#      x y z
#    x 2.103910 -0.016200 -0.004580 
#    y -0.016200 1.936260 0.154800 
#    z -0.004580 0.154800 2.150840 
# 
# From -- ./inp_files/495801.got.cif
#   From: 2010.05.17/outbox.cif.g08.bks.cpg/sg2_248_cif.got.tgz:495801.got - 2010.06.03 11:33:40.
