data_PCOD9041801
_publ_section_title
;
Structure prediction by ZEFSAII (Michael W. Deem and Ramdas Pophale) SiO2 
 PCOD9041801
Probable space group: P -1
;
_chemical_formula_sum "Si O2"
_cell_formula_units_Z 12
_cell_length_a 9.259131
_cell_length_b 7.963130
_cell_length_c 10.475541
_cell_angle_alpha 56.014105
_cell_angle_beta 125.174021
_cell_angle_gamma 90.705379
_cell_volume 465.649995
_symmetry_space_group_name_H-M "P -1"
_symmetry_group_IT_number 2
_symmetry_cell_setting 'triclinic'
loop_
_space_group_symop_operation_xyz
x,y,z
-x,-y,-z
loop_
_atom_site_type_symbol
_atom_site_label
_atom_site_fract_x
_atom_site_fract_y
_atom_site_fract_z
Si Si1 0.010664 0.186542 0.068850
Si Si2 0.643795 0.613562 0.184228
Si Si3 0.304334 0.973318 0.988762
Si Si4 0.624163 0.876972 0.413404
Si Si5 0.937581 0.428265 0.198807
Si Si6 0.404438 0.773361 0.547291
O O1 0.931824 0.332471 0.097032
O O2 0.860330 0.083591 0.012102
O O3 0.221274 0.980812 0.299264
O O4 0.039698 0.344129 0.912262
O O5 0.414703 0.803975 0.998907
O O6 0.745130 0.483531 0.161737
O O7 0.652089 0.426641 0.368155
O O8 0.757399 0.769147 0.195167
O O9 0.476314 0.909022 0.209881
O O10 0.588182 0.720000 0.569455
O O11 0.857849 0.756242 0.554584
O O12 0.564403 0.116683 0.352953
#
# Coordination Sequence:
#
# PCOD9041801 Si02
#       6
#     2   2   2   2   2   2
#     4  10  23  44  67  93 125 168 212 252 310 383
#     4  11  26  41  64  96 130 165 208 265 316 362
#     4  11  26  42  62  95 130 164 210 263 314 364
#     4  10  23  44  67  93 125 168 212 252 310 383
#     4  10  23  44  68  91 125 170 211 252 311 381
#     4  10  23  44  68  91 125 170 211 252 311 381
#
# _framework density 25.770429
#
# number of rings (size 3 to 8) (size 9 to 14) (size 15 to 20)
#    0.000    1.667    0.000    2.000    0.000   21.333 
#    0.000    0.000    0.000    0.000    0.000    0.000 
#    0.000    0.000    0.000    0.000    0.000    0.000 
#
# Total GULP energy -67219.464625 kJ/mol
# GULP energy per Si atom -5601.622052 kJ/mol
# Density = 2.571177 g / cm^3
# Si number density = 25.770429 Si / 1000 Ang^3
#
#
#
# Elastic Constant Matrix: (Units=GPa)
#
#
# Indices 1 2 3 4 5 6 
#
# 1 137.3531 33.2322 19.2448 -10.7104 -7.5830 -2.1949
# 2 33.2322 94.7907 34.4958 1.3411 -1.4382 5.7858
# 3 19.2448 34.4958 65.0371 -2.4121 -0.1003 7.9860
# 4 -10.7104 1.3411 -2.4121 45.3420 13.2132 -0.2620
# 5 -7.5830 -1.4382 -0.1003 13.2132 31.8108 -7.2149
# 6 -2.1949 5.7858 7.9860 -0.2620 -7.2149 52.5147
#
#
#
# Elastic Compliance Matrix: (Units=1/GPa)
#
#
# Indices 1 2 3 4 5 6 
#
# 1 0.008275 -0.002538 -0.001166 0.001555 0.001437 0.001008
# 2 -0.002538 0.013909 -0.006612 -0.001512 0.000501 -0.000572
# 3 -0.001166 -0.006612 0.019588 0.001439 -0.001685 -0.002523
# 4 0.001555 -0.001512 0.001439 0.025637 -0.010641 -0.001321
# 5 0.001437 0.000501 -0.001685 -0.010641 0.037429 0.005350
# 6 0.001008 -0.000572 -0.002523 -0.001321 0.005350 0.020260
#
#
# Mechanical properties :
#
#
# Convention : Reuss Voigt Hill
#
# Bulk Modulus (GPa) = 47.30274 52.34737 49.82506
# Shear Modulus (GPa) = 32.72749 39.94737 36.33743
#
# Velocity S-wave (km/s) = 3.56752 3.94143 3.75913
# Velocity P-wave (km/s) = 5.94684 6.40861 6.18204
#
# Compressibility (1/GPa) = 0.02114042
#
# Stress axis : x y z
#
# Youngs Moduli (GPa) = 120.85025 71.89368 51.05088
#
# Poissons Ratio (x) = 0.18249 0.05953
# Poissons Ratio (y) = 0.30676 0.33753
# Poissons Ratio (z) = 0.14092 0.47533
#
# Static dielectric constant tensor:
#      x y z
#    x 2.019570 -0.049610 -0.014180 
#    y -0.049610 2.109000 -0.003260 
#    z -0.014180 -0.003260 1.994240 
# 
# From -- ./inp_files/377798.got.cif
#   From: 2010.05.17/outbox.cif.g08.bks.cpg/sg2_189_cif.got.tgz:377798.got - 2010.06.03 11:33:40.
