data_PCOD9041162
_publ_section_title
;
Structure prediction by ZEFSAII (Michael W. Deem and Ramdas Pophale) SiO2 
 PCOD9041162
Probable space group: P -1
;
_chemical_formula_sum "Si O2"
_cell_formula_units_Z 16
_cell_length_a 5.340925
_cell_length_b 14.291389
_cell_length_c 11.421593
_cell_angle_alpha 52.878243
_cell_angle_beta 81.111497
_cell_angle_gamma 105.809494
_cell_volume 608.307222
_symmetry_space_group_name_H-M "P -1"
_symmetry_group_IT_number 2
_symmetry_cell_setting 'triclinic'
loop_
_space_group_symop_operation_xyz
x,y,z
-x,-y,-z
loop_
_atom_site_type_symbol
_atom_site_label
_atom_site_fract_x
_atom_site_fract_y
_atom_site_fract_z
Si Si1 0.211500 0.795004 0.121773
Si Si2 0.065005 0.091316 0.540899
Si Si3 0.359539 0.230747 0.730084
Si Si4 0.125341 0.865674 0.816513
Si Si5 0.806614 0.274156 0.483370
Si Si6 0.482808 0.392008 0.991639
Si Si7 0.257685 0.539028 0.323656
Si Si8 0.347854 0.735953 0.740874
O O1 0.973526 0.818966 0.189502
O O2 0.506987 0.840424 0.138316
O O3 0.114231 0.636597 0.237390
O O4 0.234366 0.851921 0.946956
O O5 0.346189 0.217740 0.376011
O O6 0.852674 0.145998 0.559943
O O7 0.000000 0.000000 0.500000
O O8 0.092081 0.996997 0.707986
O O9 0.501068 0.237333 0.589962
O O10 0.519689 0.382704 0.650546
O O11 0.819774 0.738721 0.906071
O O12 0.321919 0.861255 0.699137
O O13 0.852146 0.331551 0.304464
O O14 0.031396 0.386861 0.466822
O O15 0.691340 0.345175 0.077220
O O16 0.500000 0.500000 0.000000
O O17 0.568968 0.450789 0.813492
#
# Coordination Sequence:
#
# PCOD9041162 Si02
#       8
#     2   2   2   2   2   2   2   2
#     4  10  23  45  75 102 138 191 236 293 362 418
#     4  12  26  45  65  99 143 189 239 290 360 428
#     4  10  24  47  74 106 146 185 242 292 367 427
#     4  12  23  45  67  98 139 186 236 292 355 425
#     4  12  27  44  68 109 139 188 235 297 356 433
#     4  12  24  39  68 105 145 181 232 296 360 435
#     4  10  23  43  71 104 146 181 235 290 366 422
#     4  12  24  41  69  99 141 182 239 292 362 423
#
# _framework density 26.302499000000001
#
# number of rings (size 3 to 8) (size 9 to 14) (size 15 to 20)
#    0.750    0.000    5.000    2.250    3.500    2.500 
#    0.000    1.250    0.000    0.000    0.000    0.000 
#    0.000    0.000    0.000    0.000    0.000    0.000 
#
# Total GULP energy -89521.525126 kJ/mol
# GULP energy per Si atom -5595.095320 kJ/mol
# Density = 2.624263 g / cm^3
# Si number density = 26.302499 Si / 1000 Ang^3
#
#
#
# Elastic Constant Matrix: (Units=GPa)
#
#
# Indices 1 2 3 4 5 6 
#
# 1 68.2241 12.3957 10.1303 1.2242 -2.3973 -14.3857
# 2 12.3957 93.6923 26.1097 10.8717 -17.8114 -6.5231
# 3 10.1303 26.1097 87.7493 20.1059 9.0064 -0.9988
# 4 1.2242 10.8717 20.1059 48.6901 -2.8447 -6.7432
# 5 -2.3973 -17.8114 9.0064 -2.8447 46.2387 7.3723
# 6 -14.3857 -6.5231 -0.9988 -6.7432 7.3723 50.9720
#
#
#
# Elastic Compliance Matrix: (Units=1/GPa)
#
#
# Indices 1 2 3 4 5 6 
#
# 1 0.016097 -0.001520 -0.001628 0.001224 -0.000074 0.004489
# 2 -0.001520 0.013238 -0.004160 -0.000831 0.005741 0.000243
# 3 -0.001628 -0.004160 0.014540 -0.005413 -0.004734 -0.000738
# 4 0.001224 -0.000831 -0.005413 0.023444 0.001765 0.002979
# 5 -0.000074 0.005741 -0.004734 0.001765 0.025313 -0.002807
# 6 0.004489 0.000243 -0.000738 0.002979 -0.002807 0.021702
#
#
# Mechanical properties :
#
#
# Convention : Reuss Voigt Hill
#
# Bulk Modulus (GPa) = 34.17570 38.54857 36.36213
# Shear Modulus (GPa) = 36.04845 42.58217 39.31531
#
# Velocity S-wave (km/s) = 3.70609 4.02797 3.87038
# Velocity P-wave (km/s) = 5.59777 6.02664 5.81616
#
# Compressibility (1/GPa) = 0.02926056
#
# Stress axis : x y z
#
# Youngs Moduli (GPa) = 62.12146 75.53883 68.77807
#
# Poissons Ratio (x) = 0.11479 0.11197
# Poissons Ratio (y) = 0.09440 0.28609
# Poissons Ratio (z) = 0.10114 0.31422
#
# Static dielectric constant tensor:
#      x y z
#    x 2.211120 0.017520 0.044970 
#    y 0.017520 2.079910 -0.039440 
#    z 0.044970 -0.039440 2.040820 
# 
# From -- ./inp_files/367469.got.cif
#   From: 2010.05.17/outbox.cif.g08.bks.cpg/sg2_184_cif.got.tgz:367469.got - 2010.06.03 11:33:40.
