data_PCOD9041895
_publ_section_title
;
Structure prediction by ZEFSAII (Michael W. Deem and Ramdas Pophale) SiO2 
 PCOD9041895
Probable space group: P -1
;
_chemical_formula_sum "Si O2"
_cell_formula_units_Z 16
_cell_length_a 16.508253
_cell_length_b 14.030242
_cell_length_c 10.587557
_cell_angle_alpha 126.447729
_cell_angle_beta 146.533999
_cell_angle_gamma 32.671047
_cell_volume 680.103438
_symmetry_space_group_name_H-M "P -1"
_symmetry_group_IT_number 2
_symmetry_cell_setting 'triclinic'
loop_
_space_group_symop_operation_xyz
x,y,z
-x,-y,-z
loop_
_atom_site_type_symbol
_atom_site_label
_atom_site_fract_x
_atom_site_fract_y
_atom_site_fract_z
Si Si1 0.449956 0.370765 0.930179
Si Si2 0.895154 0.518350 0.747867
Si Si3 0.760933 0.317092 0.745797
Si Si4 0.167667 0.690923 0.602185
Si Si5 0.727067 0.078016 0.464970
Si Si6 0.558152 0.051860 0.455488
Si Si7 0.256001 0.027304 0.096398
Si Si8 0.747570 0.574335 0.039237
O O1 0.627776 0.351028 0.214487
O O2 0.281942 0.552237 0.763728
O O3 0.308050 0.377842 0.848354
O O4 0.622413 0.175643 0.923507
O O5 0.903213 0.373085 0.628747
O O6 0.627834 0.729297 0.575637
O O7 0.038951 0.489024 0.797185
O O8 0.000000 0.500000 0.000000
O O9 0.500000 0.500000 0.500000
O O10 0.775815 0.168573 0.677578
O O11 0.787763 0.407722 0.948621
O O12 0.980734 0.196287 0.842075
O O13 0.941961 0.908324 0.521072
O O14 0.690902 0.000482 0.461104
O O15 0.486835 0.245076 0.204042
O O16 0.404069 0.031753 0.218513
O O17 0.718246 0.945003 0.703281
#
# Coordination Sequence:
#
# PCOD9041895 Si02
#       8
#     2   2   2   2   2   2   2   2
#     4  11  26  47  70 105 146 183 236 296 356 429
#     4  12  25  46  69 101 142 185 237 295 351 424
#     4  10  23  44  68 101 142 181 241 286 356 421
#     4  11  27  46  71 104 144 188 233 295 362 419
#     4  11  25  45  68 104 139 188 237 292 356 423
#     4  11  25  42  73 104 140 189 242 294 351 426
#     4  11  23  46  70 103 143 189 238 294 356 421
#     4  11  26  43  69 102 140 190 232 293 357 422
#
# _framework density 23.525831
#
# number of rings (size 3 to 8) (size 9 to 14) (size 15 to 20)
#    0.000    1.000    5.000    0.000    5.250    4.000 
#    0.000    0.000    0.000    0.000    0.000    0.000 
#    0.000    0.000    0.000    0.000    0.000    0.000 
#
# Total GULP energy -89469.107732 kJ/mol
# GULP energy per Si atom -5591.819233 kJ/mol
# Density = 2.347229 g / cm^3
# Si number density = 23.525831 Si / 1000 Ang^3
#
#
#
# Elastic Constant Matrix: (Units=GPa)
#
#
# Indices 1 2 3 4 5 6 
#
# 1 73.0910 -30.7718 12.3705 -3.9857 11.7299 3.6544
# 2 -30.7718 91.5485 20.1342 -7.4608 6.2955 -4.8324
# 3 12.3705 20.1342 75.2142 5.6522 11.7912 -6.2740
# 4 -3.9857 -7.4608 5.6522 33.2336 -2.1270 14.4882
# 5 11.7299 6.2955 11.7912 -2.1270 22.0560 0.3370
# 6 3.6544 -4.8324 -6.2740 14.4882 0.3370 24.5853
#
#
#
# Elastic Compliance Matrix: (Units=1/GPa)
#
#
# Indices 1 2 3 4 5 6 
#
# 1 0.020888 0.009196 -0.005572 0.008091 -0.009862 -0.007352
# 2 0.009196 0.016037 -0.005743 0.006922 -0.005674 -0.003682
# 3 -0.005572 -0.005743 0.018359 -0.010005 -0.006335 0.010367
# 4 0.008091 0.006922 -0.010005 0.047978 0.004166 -0.030726
# 5 -0.009862 -0.005674 -0.006335 0.004166 0.056061 -0.004490
# 6 -0.007352 -0.003682 0.010367 -0.030726 -0.004490 0.061858
#
#
# Mechanical properties :
#
#
# Convention : Reuss Voigt Hill
#
# Bulk Modulus (GPa) = 19.59071 27.03549 23.31310
# Shear Modulus (GPa) = 20.62413 31.84969 26.23691
#
# Velocity S-wave (km/s) = 2.96405 3.68342 3.34314
# Velocity P-wave (km/s) = 4.47879 5.44122 4.98329
#
# Compressibility (1/GPa) = 0.05104461
#
# Stress axis : x y z
#
# Youngs Moduli (GPa) = 47.87502 62.35493 54.46885
#
# Poissons Ratio (x) = -0.57341 0.30352
# Poissons Ratio (y) = -0.44025 0.31283
# Poissons Ratio (z) = 0.26678 0.35812
#
# Static dielectric constant tensor:
#      x y z
#    x 1.878210 0.013160 -0.026700 
#    y 0.013160 1.875410 0.002780 
#    z -0.026700 0.002780 1.953750 
# 
# From -- ./inp_files/352269.got.cif
#   From: 2010.05.17/outbox.cif.g08.bks.cpg/sg2_177_cif.got.tgz:352269.got - 2010.06.03 11:33:40.
