data_PCOD9041253
_publ_section_title
;
Structure prediction by ZEFSAII (Michael W. Deem and Ramdas Pophale) SiO2 
 PCOD9041253
Probable space group: P -1
;
_chemical_formula_sum "Si O2"
_cell_formula_units_Z 12
_cell_length_a 13.660688
_cell_length_b 13.943541
_cell_length_c 5.254523
_cell_angle_alpha 102.079117
_cell_angle_beta 70.872169
_cell_angle_gamma 149.812270
_cell_volume 469.687994
_symmetry_space_group_name_H-M "P -1"
_symmetry_group_IT_number 2
_symmetry_cell_setting 'triclinic'
loop_
_space_group_symop_operation_xyz
x,y,z
-x,-y,-z
loop_
_atom_site_type_symbol
_atom_site_label
_atom_site_fract_x
_atom_site_fract_y
_atom_site_fract_z
Si Si1 0.647806 0.323129 0.679504
Si Si2 0.946946 0.693953 0.930453
Si Si3 0.625232 0.913632 0.720927
Si Si4 0.933980 0.029854 0.313688
Si Si5 0.259138 0.811338 0.534314
Si Si6 0.259694 0.318477 0.592644
O O1 0.787054 0.527005 0.760774
O O2 0.527894 0.234198 0.466988
O O3 0.786918 0.339531 0.555400
O O4 0.495831 0.179950 0.965986
O O5 0.076325 0.892659 0.838307
O O6 0.109300 0.737892 0.830080
O O7 0.812752 0.632580 0.232699
O O8 0.786223 0.956862 0.615469
O O9 0.736793 0.106765 0.655355
O O10 0.156238 0.209773 0.350799
O O11 0.841235 0.848503 0.234696
O O12 0.500000 0.000000 0.500000
O O13 0.500000 0.500000 0.500000
#
# Coordination Sequence:
#
# PCOD9041253 Si02
#       6
#     2   2   2   2   2   2
#     4  11  23  42  70 107 141 188 231 287 345 419
#     4  11  24  42  69  98 143 179 238 289 348 421
#     4  10  23  43  72 101 144 185 234 283 352 412
#     4  10  25  44  69 102 137 185 233 291 354 416
#     4   9  21  43  66 102 138 189 230 284 348 414
#     4  11  25  46  70 100 138 181 241 289 356 414
#
# _framework density 25.548877999999998
#
# number of rings (size 3 to 8) (size 9 to 14) (size 15 to 20)
#    0.000    1.667    0.000    2.500   11.667    0.667 
#    3.000    4.167    0.000    0.000    0.000    0.000 
#    0.000    0.000    0.000    0.000    0.000    0.000 
#
# Total GULP energy -67088.295414 kJ/mol
# GULP energy per Si atom -5590.691285 kJ/mol
# Density = 2.549073 g / cm^3
# Si number density = 25.548878 Si / 1000 Ang^3
#
#
#
# Elastic Constant Matrix: (Units=GPa)
#
#
# Indices 1 2 3 4 5 6 
#
# 1 94.2172 40.0207 54.7230 11.5927 -30.2481 2.0309
# 2 40.0207 129.3982 37.9331 19.7017 -0.0849 13.7009
# 3 54.7230 37.9331 127.8454 19.6697 -18.9846 19.2020
# 4 11.5927 19.7017 19.6697 37.8360 4.9278 -4.1454
# 5 -30.2481 -0.0849 -18.9846 4.9278 53.8932 -2.8186
# 6 2.0309 13.7009 19.2020 -4.1454 -2.8186 61.6242
#
#
#
# Elastic Compliance Matrix: (Units=1/GPa)
#
#
# Indices 1 2 3 4 5 6 
#
# 1 0.018493 -0.004108 -0.005518 -0.001537 0.008691 0.002317
# 2 -0.004108 0.009964 -0.000668 -0.003523 -0.002319 -0.002215
# 3 -0.005518 -0.000668 0.011840 -0.004684 0.001312 -0.003614
# 4 -0.001537 -0.003523 -0.004684 0.032317 -0.005252 0.004227
# 5 0.008691 -0.002319 0.001312 -0.005252 0.024402 0.000583
# 6 0.002317 -0.002215 -0.003614 0.004227 0.000583 0.018081
#
#
# Mechanical properties :
#
#
# Convention : Reuss Voigt Hill
#
# Bulk Modulus (GPa) = 50.73528 68.53493 59.63510
# Shear Modulus (GPa) = 35.14851 45.25627 40.20239
#
# Velocity S-wave (km/s) = 3.71312 4.21332 3.97110
# Velocity P-wave (km/s) = 6.18742 7.11004 6.66472
#
# Compressibility (1/GPa) = 0.01971015
#
# Stress axis : x y z
#
# Youngs Moduli (GPa) = 54.07526 100.36480 84.45727
#
# Poissons Ratio (x) = 0.41226 0.46604
# Poissons Ratio (y) = 0.22212 0.05639
# Poissons Ratio (z) = 0.29839 0.06701
#
# Static dielectric constant tensor:
#      x y z
#    x 1.997540 -0.017260 -0.003230 
#    y -0.017260 2.059400 0.003710 
#    z -0.003230 0.003710 2.174730 
# 
# From -- ./inp_files/76431.got.cif
#   From: 2010.05.17/outbox.cif.g08.bks.cpg/sg2_39_cif.got.tgz:76431.got - 2010.06.03 11:33:40.
