data_PCOD9041755
_publ_section_title
;
Structure prediction by ZEFSAII (Michael W. Deem and Ramdas Pophale) SiO2 
 PCOD9041755
Probable space group: P -1
;
_chemical_formula_sum "Si O2"
_cell_formula_units_Z 14
_cell_length_a 20.943660
_cell_length_b 14.701063
_cell_length_c 11.893459
_cell_angle_alpha 19.128701
_cell_angle_beta 31.402928
_cell_angle_gamma 30.870447
_cell_volume 595.630802
_symmetry_space_group_name_H-M "P -1"
_symmetry_group_IT_number 2
_symmetry_cell_setting 'triclinic'
loop_
_space_group_symop_operation_xyz
x,y,z
-x,-y,-z
loop_
_atom_site_type_symbol
_atom_site_label
_atom_site_fract_x
_atom_site_fract_y
_atom_site_fract_z
Si Si1 0.048882 0.455433 0.351092
Si Si2 0.708681 0.101538 0.321497
Si Si3 0.763291 0.407678 0.241845
Si Si4 0.081925 0.728637 0.618484
Si Si5 0.371432 0.928108 0.301694
Si Si6 0.527489 0.805849 0.574122
Si Si7 0.806650 0.443739 0.582341
O O1 0.000000 0.500000 0.500000
O O2 0.929847 0.493621 0.400442
O O3 0.155329 0.139210 0.573889
O O4 0.122114 0.667147 0.936123
O O5 0.646837 0.262909 0.341065
O O6 0.583519 0.030712 0.539260
O O7 0.750713 0.285690 0.947497
O O8 0.798984 0.381552 0.348655
O O9 0.674239 0.214204 0.569578
O O10 0.709277 0.751946 0.911255
O O11 0.136196 0.746837 0.391404
O O12 0.000000 0.000000 0.500000
O O13 0.000000 0.500000 0.000000
O O14 0.500000 0.000000 0.000000
O O15 0.680708 0.714413 0.420496
O O16 0.500000 0.000000 0.500000
O O17 0.500000 0.500000 0.000000
#
# Coordination Sequence:
#
# PCOD9041755 Si02
#       7
#     2   2   2   2   2   2   2
#     4  11  22  39  74 107 145 186 240 305 368 438
#     4  10  24  43  70 104 141 184 243 298 369 427
#     4  11  25  46  69 103 143 184 246 296 366 426
#     4  12  27  46  72 104 151 195 246 299 367 445
#     4  11  25  47  72 101 141 189 240 302 361 441
#     4  10  23  44  67 100 142 181 235 295 362 431
#     4  11  24  44  73 108 147 195 243 305 366 440
#
# _framework density 23.504491999999999
#
# number of rings (size 3 to 8) (size 9 to 14) (size 15 to 20)
#    0.000    1.143    1.429    3.429    6.000    5.714 
#    5.143    0.000    0.000    0.000    0.000    0.000 
#    0.000    0.000    0.000    0.000    0.000    0.000 
#
# Total GULP energy -77996.927378 kJ/mol
# GULP energy per Si atom -5571.209098 kJ/mol
# Density = 2.345100 g / cm^3
# Si number density = 23.504492 Si / 1000 Ang^3
#
#
#
# Elastic Constant Matrix: (Units=GPa)
#
#
# Indices 1 2 3 4 5 6 
#
# 1 159.9141 36.9643 43.6387 25.9286 -33.1875 13.2700
# 2 36.9643 142.4885 41.6599 32.1527 -19.7486 7.7644
# 3 43.6387 41.6599 85.3840 22.6823 -21.0460 8.2761
# 4 25.9286 32.1527 22.6823 46.7648 5.3111 -4.8901
# 5 -33.1875 -19.7486 -21.0460 5.3111 45.1584 10.8398
# 6 13.2700 7.7644 8.2761 -4.8901 10.8398 49.9463
#
#
#
# Elastic Compliance Matrix: (Units=1/GPa)
#
#
# Indices 1 2 3 4 5 6 
#
# 1 0.009850 0.000929 -0.000629 -0.007449 0.009538 -0.005457
# 2 0.000929 0.010010 -0.001395 -0.007811 0.006213 -0.003685
# 3 -0.000629 -0.001395 0.018118 -0.009185 0.009807 -0.005646
# 4 -0.007449 -0.007811 -0.009185 0.039081 -0.020906 0.013079
# 5 0.009538 0.006213 0.009807 -0.020906 0.042855 -0.016473
# 6 -0.005457 -0.003685 -0.005646 0.013079 -0.016473 0.027835
#
#
# Mechanical properties :
#
#
# Convention : Reuss Voigt Hill
#
# Bulk Modulus (GPa) = 27.94218 70.25694 49.09956
# Shear Modulus (GPa) = 30.88940 46.07547 38.48244
#
# Velocity S-wave (km/s) = 3.62911 4.43231 4.05067
# Velocity P-wave (km/s) = 5.42903 7.49330 6.54309
#
# Compressibility (1/GPa) = 0.03578818
#
# Stress axis : x y z
#
# Youngs Moduli (GPa) = 101.51970 99.90499 55.19316
#
# Poissons Ratio (x) = -0.09277 0.03470
# Poissons Ratio (y) = -0.09427 0.07698
# Poissons Ratio (z) = 0.06383 0.13934
#
# Static dielectric constant tensor:
#      x y z
#    x 2.105560 -0.031650 0.227440 
#    y -0.031650 1.879210 0.085770 
#    z 0.227440 0.085770 2.126070 
# 
# From -- ./inp_files/83825.got.cif
#   From: 2010.05.17/outbox.cif.g08.bks.cpg/sg2_42_cif.got.tgz:83825.got - 2010.06.03 11:33:40.
