data_PCOD9041516
_publ_section_title
;
Structure prediction by ZEFSAII (Michael W. Deem and Ramdas Pophale) SiO2 
 PCOD9041516
Probable space group: P -1
;
_chemical_formula_sum "Si O2"
_cell_formula_units_Z 14
_cell_length_a 15.943499
_cell_length_b 12.750384
_cell_length_c 13.628150
_cell_angle_alpha 32.680182
_cell_angle_beta 151.486759
_cell_angle_gamma 154.554899
_cell_volume 552.269140
_symmetry_space_group_name_H-M "P -1"
_symmetry_group_IT_number 2
_symmetry_cell_setting 'triclinic'
loop_
_space_group_symop_operation_xyz
x,y,z
-x,-y,-z
loop_
_atom_site_type_symbol
_atom_site_label
_atom_site_fract_x
_atom_site_fract_y
_atom_site_fract_z
Si Si1 0.055432 0.434664 0.006205
Si Si2 0.491875 0.784015 0.353344
Si Si3 0.652472 0.708350 0.075859
Si Si4 0.658863 0.161795 0.668992
Si Si5 0.605813 0.266520 0.046643
Si Si6 0.951767 0.552474 0.514985
Si Si7 0.161884 0.190387 0.432052
O O1 0.032989 0.197105 0.202667
O O2 0.295205 0.620857 0.048444
O O3 0.000000 0.500000 0.000000
O O4 0.869571 0.378242 0.784090
O O5 0.537567 0.863592 0.452997
O O6 0.333925 0.481808 0.416233
O O7 0.698628 0.881257 0.417750
O O8 0.870971 0.720185 0.301359
O O9 0.500000 0.500000 0.000000
O O10 0.519232 0.647802 0.090482
O O11 0.670415 0.940098 0.869205
O O12 0.727822 0.283789 0.538307
O O13 0.563371 0.036491 0.885142
O O14 0.826708 0.355800 0.266979
O O15 0.000000 0.500000 0.500000
O O16 0.000000 0.000000 0.500000
#
# Coordination Sequence:
#
# PCOD9041516 Si02
#       7
#     2   2   2   2   2   2   2
#     4  11  22  43  67  97 141 188 233 303 350 429
#     4  10  23  44  63  99 140 181 239 299 347 433
#     4  11  24  47  71 103 143 189 246 307 371 435
#     4  10  25  44  68 105 137 186 249 287 368 442
#     4  10  24  46  68 106 141 187 252 294 367 443
#     4  11  24  46  72 100 145 189 235 316 365 426
#     4  11  24  41  67  99 141 192 239 288 364 426
#
# _framework density 25.349955999999999
#
# number of rings (size 3 to 8) (size 9 to 14) (size 15 to 20)
#    0.000    1.429    2.857    0.857    6.000    1.714 
#    7.714    0.000    0.000    0.000    0.000    0.000 
#    0.000    0.000    0.000    0.000    0.000    0.000 
#
# Total GULP energy -78154.648456 kJ/mol
# GULP energy per Si atom -5582.474890 kJ/mol
# Density = 2.529226 g / cm^3
# Si number density = 25.349956 Si / 1000 Ang^3
#
#
#
# Elastic Constant Matrix: (Units=GPa)
#
#
# Indices 1 2 3 4 5 6 
#
# 1 237.2729 71.6529 67.0902 -26.4252 32.5605 38.6391
# 2 71.6529 91.6779 18.8927 -18.3766 4.0533 25.4932
# 3 67.0902 18.8927 107.1141 0.6066 23.8653 6.7273
# 4 -26.4252 -18.3766 0.6066 47.7079 2.4420 -9.5405
# 5 32.5605 4.0533 23.8653 2.4420 55.8806 -9.4091
# 6 38.6391 25.4932 6.7273 -9.5405 -9.4091 50.6652
#
#
#
# Elastic Compliance Matrix: (Units=1/GPa)
#
#
# Indices 1 2 3 4 5 6 
#
# 1 0.007510 -0.003590 -0.003060 0.002247 -0.003538 -0.003749
# 2 -0.003590 0.015634 -0.000289 0.003135 0.000192 -0.004465
# 3 -0.003060 -0.000289 0.012047 -0.001806 -0.003274 -0.000069
# 4 0.002247 0.003135 -0.001806 0.023743 -0.001615 0.001119
# 5 -0.003538 0.000192 -0.003274 -0.001615 0.022578 0.006925
# 6 -0.003749 -0.004465 -0.000069 0.001119 0.006925 0.026349
#
#
# Mechanical properties :
#
#
# Convention : Reuss Voigt Hill
#
# Bulk Modulus (GPa) = 46.91733 83.48183 65.19958
# Shear Modulus (GPa) = 38.80676 49.41268 44.10972
#
# Velocity S-wave (km/s) = 3.91684 4.41979 4.17589
# Velocity P-wave (km/s) = 6.24528 7.68435 7.00189
#
# Compressibility (1/GPa) = 0.02131409
#
# Stress axis : x y z
#
# Youngs Moduli (GPa) = 133.15438 63.96144 83.00643
#
# Poissons Ratio (x) = 0.22961 0.25397
# Poissons Ratio (y) = 0.47799 0.02402
# Poissons Ratio (z) = 0.40741 0.01851
#
# Static dielectric constant tensor:
#      x y z
#    x 2.097180 0.097560 0.027790 
#    y 0.097560 2.281750 0.158450 
#    z 0.027790 0.158450 2.104970 
# 
# From -- ./inp_files/534189.got.cif
#   From: 2010.05.17/outbox.cif.g08.bks.cpg/sg2_268_cif.got.tgz:534189.got - 2010.06.03 11:33:40.
