data_PCOD9041534
_publ_section_title
;
Structure prediction by ZEFSAII (Michael W. Deem and Ramdas Pophale) SiO2 
 PCOD9041534
Probable space group: P -1
;
_chemical_formula_sum "Si O2"
_cell_formula_units_Z 12
_cell_length_a 11.003000
_cell_length_b 11.903473
_cell_length_c 5.805526
_cell_angle_alpha 81.015066
_cell_angle_beta 57.305973
_cell_angle_gamma 49.990917
_cell_volume 468.096725
_symmetry_space_group_name_H-M "P -1"
_symmetry_group_IT_number 2
_symmetry_cell_setting 'triclinic'
loop_
_space_group_symop_operation_xyz
x,y,z
-x,-y,-z
loop_
_atom_site_type_symbol
_atom_site_label
_atom_site_fract_x
_atom_site_fract_y
_atom_site_fract_z
Si Si1 0.354129 0.918019 0.837916
Si Si2 0.201756 0.198517 0.213720
Si Si3 0.287114 0.758018 0.259573
Si Si4 0.559817 0.746086 0.278074
Si Si5 0.788677 0.405528 0.317543
Si Si6 0.984631 0.840300 0.210935
O O1 0.515722 0.852904 0.500441
O O2 0.393490 0.770834 0.943297
O O3 0.146817 0.026514 0.882298
O O4 0.321565 0.032064 0.024905
O O5 0.998534 0.320474 0.244606
O O6 0.144989 0.190688 0.530544
O O7 0.322523 0.249026 0.038613
O O8 0.352844 0.806740 0.381807
O O9 0.324614 0.613932 0.375241
O O10 0.072290 0.858868 0.336909
O O11 0.681824 0.574809 0.295508
O O12 0.837838 0.306642 0.069787
#
# Coordination Sequence:
#
# PCOD9041534 Si02
#       6
#     2   2   2   2   2   2
#     4  11  24  41  66  94 128 165 210 262 311 370
#     4  10  24  44  66  92 126 170 211 254 314 376
#     4  11  24  41  67  96 127 165 210 261 315 371
#     4  12  25  41  65  98 129 162 210 263 314 370
#     4  10  24  44  66  92 127 169 210 256 312 377
#     4  10  23  44  64  92 128 167 212 254 312 378
#
# _framework density 25.635725000000001
#
# number of rings (size 3 to 8) (size 9 to 14) (size 15 to 20)
#    0.000    1.333    0.000    4.000    0.000   19.333 
#    0.000    0.000    0.000    0.000    0.000    0.000 
#    0.000    0.000    0.000    0.000    0.000    0.000 
#
# Total GULP energy -67094.175811 kJ/mol
# GULP energy per Si atom -5591.181318 kJ/mol
# Density = 2.557738 g / cm^3
# Si number density = 25.635725 Si / 1000 Ang^3
#
#
#
# Elastic Constant Matrix: (Units=GPa)
#
#
# Indices 1 2 3 4 5 6 
#
# 1 127.3715 48.1824 11.6569 -11.8386 -11.5052 -7.8783
# 2 48.1824 127.2485 55.8374 -24.4948 7.5868 -0.4012
# 3 11.6569 55.8374 110.0681 -36.0083 -8.3343 -2.7862
# 4 -11.8386 -24.4948 -36.0083 49.1877 11.7821 -3.1740
# 5 -11.5052 7.5868 -8.3343 11.7821 34.4941 -11.2134
# 6 -7.8783 -0.4012 -2.7862 -3.1740 -11.2134 16.5081
#
#
#
# Elastic Compliance Matrix: (Units=1/GPa)
#
#
# Indices 1 2 3 4 5 6 
#
# 1 0.011700 -0.006314 0.003195 0.000420 0.010121 0.012925
# 2 -0.006314 0.014456 -0.006960 0.002615 -0.011479 -0.011131
# 3 0.003195 -0.006960 0.015586 0.007680 0.007078 0.010271
# 4 0.000420 0.002615 0.007680 0.029398 -0.008055 0.001741
# 5 0.010121 -0.011479 0.007078 -0.008055 0.052256 0.039693
# 6 0.012925 -0.011131 0.010271 0.001741 0.039693 0.095504
#
#
# Mechanical properties :
#
#
# Convention : Reuss Voigt Hill
#
# Bulk Modulus (GPa) = 46.33036 66.22684 56.27860
# Shear Modulus (GPa) = 20.30424 36.63873 28.47148
#
# Velocity S-wave (km/s) = 2.81735 3.78459 3.33621
# Velocity P-wave (km/s) = 5.35678 6.70726 6.06970
#
# Compressibility (1/GPa) = 0.02158412
#
# Stress axis : x y z
#
# Youngs Moduli (GPa) = 85.47125 69.17332 64.15829
#
# Poissons Ratio (x) = 0.43675 -0.20499
# Poissons Ratio (y) = 0.53966 0.44657
# Poissons Ratio (z) = -0.27308 0.48147
#
# Static dielectric constant tensor:
#      x y z
#    x 2.034740 -0.006430 0.007730 
#    y -0.006430 1.951870 -0.021470 
#    z 0.007730 -0.021470 1.979260 
# 
# From -- ./inp_files/57540.got.cif
#   From: 2010.05.17/outbox.cif.g08.bks.cpg/sg2_29_cif.got.tgz:57540.got - 2010.06.03 11:33:40.
