data_PCOD9041674
_publ_section_title
;
Structure prediction by ZEFSAII (Michael W. Deem and Ramdas Pophale) SiO2 
 PCOD9041674
Probable space group: P -1
;
_chemical_formula_sum "Si O2"
_cell_formula_units_Z 16
_cell_length_a 8.777737
_cell_length_b 9.697578
_cell_length_c 10.727300
_cell_angle_alpha 98.962709
_cell_angle_beta 97.585617
_cell_angle_gamma 95.263547
_cell_volume 888.194363
_symmetry_space_group_name_H-M "P -1"
_symmetry_group_IT_number 2
_symmetry_cell_setting 'triclinic'
loop_
_space_group_symop_operation_xyz
x,y,z
-x,-y,-z
loop_
_atom_site_type_symbol
_atom_site_label
_atom_site_fract_x
_atom_site_fract_y
_atom_site_fract_z
Si Si1 0.515240 0.643731 0.950069
Si Si2 0.273988 0.286532 0.584932
Si Si3 0.739381 0.805281 0.823466
Si Si4 0.642515 0.932404 0.063207
Si Si5 0.232847 0.982028 0.646994
Si Si6 0.482569 0.795102 0.589354
Si Si7 0.723575 0.410497 0.284222
Si Si8 0.017076 0.263308 0.351242
O O1 0.648777 0.666519 0.860706
O O2 0.356774 0.655088 0.859503
O O3 0.500000 0.500000 0.000000
O O4 0.568287 0.773637 0.064793
O O5 0.215533 0.138636 0.622808
O O6 0.432376 0.258015 0.529043
O O7 0.289708 0.423872 0.691792
O O8 0.151487 0.318988 0.469607
O O9 0.618476 0.846530 0.711041
O O10 0.895006 0.781145 0.768344
O O11 0.755290 0.913248 0.955856
O O12 0.713745 0.009742 0.201761
O O13 0.500000 0.000000 0.000000
O O14 0.367995 0.914346 0.577261
O O15 0.080008 0.872048 0.614725
O O16 0.377841 0.665543 0.625233
O O17 0.895634 0.370812 0.317870
#
# Coordination Sequence:
#
# PCOD9041674 Si02
#       8
#     2   2   2   2   2   2   2   2
#     4   9  18  34  55  78 105 128 169 223 259 292
#     4  11  21  33  54  78 108 133 176 221 254 299
#     4   8  18  33  56  74 103 137 172 206 255 307
#     4  10  17  33  58  77 102 133 176 212 255 310
#     4  11  20  33  55  79 105 139 170 215 268 296
#     4   9  18  35  53  80 102 135 174 216 256 311
#     4  10  19  35  57  77 100 145 175 202 264 313
#     4  10  21  37  51  72 110 144 174 204 251 320
#
# _framework density 18.014075999999999
#
# number of rings (size 3 to 8) (size 9 to 14) (size 15 to 20)
#    0.750    1.500    1.250    3.000    0.000    0.500 
#    0.000    0.625    2.750    0.000    0.000    0.000 
#    0.000    0.000    0.000    0.000    0.000    0.000 
#
# Total GULP energy -89088.644352 kJ/mol
# GULP energy per Si atom -5568.040272 kJ/mol
# Density = 1.797307 g / cm^3
# Si number density = 18.014076 Si / 1000 Ang^3
#
#
#
# Elastic Constant Matrix: (Units=GPa)
#
#
# Indices 1 2 3 4 5 6 
#
# 1 83.7415 8.2180 17.8979 5.7128 -14.2494 -13.0620
# 2 8.2180 65.7815 -18.6365 -1.1408 -4.8924 -7.9961
# 3 17.8979 -18.6365 31.0479 6.6460 -4.5091 -9.5540
# 4 5.7128 -1.1408 6.6460 27.2198 0.5125 1.5799
# 5 -14.2494 -4.8924 -4.5091 0.5125 22.5535 3.2682
# 6 -13.0620 -7.9961 -9.5540 1.5799 3.2682 16.6966
#
#
#
# Elastic Compliance Matrix: (Units=1/GPa)
#
#
# Indices 1 2 3 4 5 6 
#
# 1 0.016173 -0.003201 -0.008172 -0.001972 0.007178 0.005225
# 2 -0.003201 0.027263 0.028673 -0.006833 0.005948 0.026441
# 3 -0.008172 0.028673 0.074826 -0.018433 0.009175 0.050103
# 4 -0.001972 -0.006833 -0.018433 0.042526 -0.004704 -0.018466
# 5 0.007178 0.005948 0.009175 -0.004704 0.051515 0.004075
# 6 0.005225 0.026441 0.050103 -0.018466 0.004075 0.106262
#
#
# Mechanical properties :
#
#
# Convention : Reuss Voigt Hill
#
# Bulk Modulus (GPa) = 6.54192 21.72551 14.13372
# Shear Modulus (GPa) = 14.92894 24.83341 19.88117
#
# Velocity S-wave (km/s) = 2.88190 3.71692 3.32572
# Velocity P-wave (km/s) = 3.83579 5.52333 4.75502
#
# Compressibility (1/GPa) = 0.15286039
#
# Stress axis : x y z
#
# Youngs Moduli (GPa) = 61.83104 36.67982 13.36436
#
# Poissons Ratio (x) = 0.11742 0.10922
# Poissons Ratio (y) = 0.19793 -0.38319
# Poissons Ratio (z) = 0.50531 -1.05171
#
# Static dielectric constant tensor:
#      x y z
#    x 1.604300 -0.004560 0.000700 
#    y -0.004560 1.639110 0.008790 
#    z 0.000700 0.008790 1.616210 
# 
# From -- ./inp_files/302732.got.cif
#   From: 2010.05.17/outbox.cif.g08.bks.cpg/sg2_152_cif.got.tgz:302732.got - 2010.06.03 11:33:40.
