data_PCOD9041073
_publ_section_title
;
Structure prediction by ZEFSAII (Michael W. Deem and Ramdas Pophale) SiO2 
 PCOD9041073
Probable space group: P -1
;
_chemical_formula_sum "Si O2"
_cell_formula_units_Z 12
_cell_length_a 7.085522
_cell_length_b 5.435364
_cell_length_c 18.702277
_cell_angle_alpha 93.959973
_cell_angle_beta 103.868690
_cell_angle_gamma 43.917600
_cell_volume 479.256359
_symmetry_space_group_name_H-M "P -1"
_symmetry_group_IT_number 2
_symmetry_cell_setting 'triclinic'
loop_
_space_group_symop_operation_xyz
x,y,z
-x,-y,-z
loop_
_atom_site_type_symbol
_atom_site_label
_atom_site_fract_x
_atom_site_fract_y
_atom_site_fract_z
Si Si1 0.437975 0.976859 0.868839
Si Si2 0.336460 0.610218 0.373532
Si Si3 0.207910 0.873437 0.952014
Si Si4 0.705323 0.218778 0.844856
Si Si5 0.723161 0.597145 0.488205
Si Si6 0.291390 0.837757 0.718792
O O1 0.266462 0.090719 0.928667
O O2 0.649325 0.545516 0.878024
O O3 0.268301 0.071674 0.782247
O O4 0.595750 0.086106 0.876008
O O5 0.579866 0.588972 0.409016
O O6 0.247359 0.609761 0.445362
O O7 0.519189 0.251528 0.334030
O O8 0.029004 0.952516 0.319588
O O9 0.500000 0.500000 0.000000
O O10 0.047082 0.889639 0.869708
O O11 0.000000 0.000000 0.000000
O O12 0.505739 0.430330 0.761666
O O13 0.000000 0.500000 0.500000
O O14 0.500000 0.000000 0.500000
#
# Coordination Sequence:
#
# PCOD9041073 Si02
#       6
#     2   2   2   2   2   2
#     4  10  25  47  70 103 144 183 235 298 354 419
#     4  11  23  44  65 101 136 181 236 283 350 419
#     4  12  24  48  73 108 141 191 238 293 359 430
#     4  10  25  47  70 103 144 183 235 298 354 419
#     4  11  24  41  66 100 140 181 227 290 343 416
#     4  10  23  43  70  97 135 189 232 291 353 421
#
# _framework density 25.038792000000001
#
# number of rings (size 3 to 8) (size 9 to 14) (size 15 to 20)
#    1.000    0.333    1.667    3.000    0.000    9.333 
#    0.000    0.000    0.000    0.000    0.000    0.000 
#    0.000    0.000    0.000    0.000    0.000    0.000 
#
# Total GULP energy -66866.432016 kJ/mol
# GULP energy per Si atom -5572.202668 kJ/mol
# Density = 2.498180 g / cm^3
# Si number density = 25.038792 Si / 1000 Ang^3
#
#
#
# Elastic Constant Matrix: (Units=GPa)
#
#
# Indices 1 2 3 4 5 6 
#
# 1 203.1683 49.3471 62.9270 -23.6694 17.3717 -27.5464
# 2 49.3471 77.6967 29.0802 -11.4872 17.8242 -30.4390
# 3 62.9270 29.0802 118.3755 -16.7324 33.9120 -14.9808
# 4 -23.6694 -11.4872 -16.7324 41.9266 -15.4303 3.7873
# 5 17.3717 17.8242 33.9120 -15.4303 40.5713 -10.3818
# 6 -27.5464 -30.4390 -14.9808 3.7873 -10.3818 54.1323
#
#
#
# Elastic Compliance Matrix: (Units=1/GPa)
#
#
# Indices 1 2 3 4 5 6 
#
# 1 0.006833 -0.002816 -0.003032 0.002549 0.002144 0.001288
# 2 -0.002816 0.019349 -0.000900 0.001136 -0.003972 0.008357
# 3 -0.003032 -0.000900 0.012855 -0.000186 -0.009183 -0.000240
# 4 0.002549 0.001136 -0.000186 0.029076 0.010080 0.001783
# 5 0.002144 -0.003972 -0.009183 0.010080 0.037712 0.002844
# 6 0.001288 0.008357 -0.000240 0.001783 0.002844 0.024182
#
#
# Mechanical properties :
#
#
# Convention : Reuss Voigt Hill
#
# Bulk Modulus (GPa) = 39.15297 75.77212 57.46255
# Shear Modulus (GPa) = 32.89131 44.51846 38.70488
#
# Velocity S-wave (km/s) = 3.62831 4.22118 3.93593
# Velocity P-wave (km/s) = 5.76400 7.35428 6.60716
#
# Compressibility (1/GPa) = 0.02554085
#
# Stress axis : x y z
#
# Youngs Moduli (GPa) = 146.34460 51.68243 77.79277
#
# Poissons Ratio (x) = 0.14553 0.23585
# Poissons Ratio (y) = 0.41207 0.07005
# Poissons Ratio (z) = 0.44368 0.04654
#
# Static dielectric constant tensor:
#      x y z
#    x 1.963720 -0.040690 0.033070 
#    y -0.040690 2.084380 0.101290 
#    z 0.033070 0.101290 2.460630 
# 
# From -- ./inp_files/580970.got.cif
#   From: 2010.05.17/outbox.cif.g08.bks.cpg/sg2_291_cif.got.tgz:580970.got - 2010.06.03 11:33:40.
