data_PCOD9041337
_publ_section_title
;
Structure prediction by ZEFSAII (Michael W. Deem and Ramdas Pophale) SiO2 
 PCOD9041337
Probable space group: P -1
;
_chemical_formula_sum "Si O2"
_cell_formula_units_Z 16
_cell_length_a 14.482117
_cell_length_b 11.258031
_cell_length_c 7.364880
_cell_angle_alpha 102.574028
_cell_angle_beta 134.341382
_cell_angle_gamma 55.090279
_cell_volume 669.364726
_symmetry_space_group_name_H-M "P -1"
_symmetry_group_IT_number 2
_symmetry_cell_setting 'triclinic'
loop_
_space_group_symop_operation_xyz
x,y,z
-x,-y,-z
loop_
_atom_site_type_symbol
_atom_site_label
_atom_site_fract_x
_atom_site_fract_y
_atom_site_fract_z
Si Si1 0.294013 0.724784 0.139463
Si Si2 0.367928 0.318230 0.961885
Si Si3 0.597369 0.416813 0.360485
Si Si4 0.814747 0.778336 0.165625
Si Si5 0.314177 0.985195 0.223128
Si Si6 0.332458 0.225742 0.494946
Si Si7 0.063900 0.653484 0.771654
Si Si8 0.113014 0.579987 0.242499
O O1 0.452077 0.598067 0.195510
O O2 0.346981 0.634206 0.371984
O O3 0.253962 0.887638 0.162987
O O4 0.135711 0.745673 0.863725
O O5 0.335997 0.229257 0.034780
O O6 0.378603 0.240524 0.764059
O O7 0.200484 0.487880 0.816903
O O8 0.512794 0.334547 0.175025
O O9 0.760601 0.387543 0.499758
O O10 0.897469 0.734208 0.462322
O O11 0.962087 0.657729 0.195642
O O12 0.752506 0.936598 0.039646
O O13 0.504401 0.859912 0.424040
O O14 0.278176 0.117395 0.351973
O O15 0.208251 0.399217 0.318997
O O16 0.065814 0.630892 0.983947
#
# Coordination Sequence:
#
# PCOD9041337 Si02
#       8
#     2   2   2   2   2   2   2   2
#     4   9  19  42  70  99 138 185 231 292 344 414
#     4  11  24  42  71 107 139 182 239 297 338 413
#     4   9  20  41  74 104 134 179 243 291 341 409
#     4  12  27  44  70 110 147 183 229 292 360 418
#     4  11  26  43  66 103 149 188 228 286 362 423
#     4  11  25  43  70 102 144 189 237 286 349 421
#     4  10  23  43  73 105 139 179 240 292 348 412
#     4  11  23  46  77 104 136 189 239 292 342 417
#
# _framework density 23.903262000000002
#
# number of rings (size 3 to 8) (size 9 to 14) (size 15 to 20)
#    0.000    1.500    2.500    1.875    5.250    3.500 
#    0.000    2.500    0.000    0.000    0.000    0.000 
#    0.000    0.000    0.000    0.000    0.000    0.000 
#
# Total GULP energy -89397.308725 kJ/mol
# GULP energy per Si atom -5587.331795 kJ/mol
# Density = 2.384886 g / cm^3
# Si number density = 23.903262 Si / 1000 Ang^3
#
#
#
# Elastic Constant Matrix: (Units=GPa)
#
#
# Indices 1 2 3 4 5 6 
#
# 1 109.2897 40.8722 54.8023 17.2376 8.5883 -3.1599
# 2 40.8722 89.0961 33.8524 8.8321 15.7234 7.9900
# 3 54.8023 33.8524 124.5122 12.5105 9.3485 -8.7361
# 4 17.2376 8.8321 12.5105 39.8564 12.4692 3.5664
# 5 8.5883 15.7234 9.3485 12.4692 34.9002 14.0935
# 6 -3.1599 7.9900 -8.7361 3.5664 14.0935 24.8559
#
#
#
# Elastic Compliance Matrix: (Units=1/GPa)
#
#
# Indices 1 2 3 4 5 6 
#
# 1 0.013603 -0.004484 -0.004269 -0.003848 0.000381 0.002006
# 2 -0.004484 0.015074 -0.002229 0.000828 -0.003677 -0.004233
# 3 -0.004269 -0.002229 0.011247 -0.000753 -0.003111 0.005999
# 4 -0.003848 0.000828 -0.000753 0.029924 -0.010077 0.000400
# 5 0.000381 -0.003677 -0.003111 -0.010077 0.044111 -0.023428
# 6 0.002006 -0.004233 0.005999 0.000400 -0.023428 0.057183
#
#
# Mechanical properties :
#
#
# Convention : Reuss Voigt Hill
#
# Bulk Modulus (GPa) = 55.68060 64.66131 60.17095
# Shear Modulus (GPa) = 25.11420 32.81392 28.96406
#
# Velocity S-wave (km/s) = 3.24491 3.70912 3.48475
# Velocity P-wave (km/s) = 6.11424 6.74192 6.43573
#
# Compressibility (1/GPa) = 0.01795958
#
# Stress axis : x y z
#
# Youngs Moduli (GPa) = 73.51584 66.33907 88.91654
#
# Poissons Ratio (x) = 0.29744 0.37960
# Poissons Ratio (y) = 0.32962 0.19819
# Poissons Ratio (z) = 0.31385 0.14787
#
# Static dielectric constant tensor:
#      x y z
#    x 1.979190 0.024060 0.013860 
#    y 0.024060 1.877990 0.030930 
#    z 0.013860 0.030930 1.962980 
# 
# From -- ./inp_files/346317.got.cif
#   From: 2010.05.17/outbox.cif.g08.bks.cpg/sg2_174_cif.got.tgz:346317.got - 2010.06.03 11:33:40.
