data_PCOD9041845
_publ_section_title
;
Structure prediction by ZEFSAII (Michael W. Deem and Ramdas Pophale) SiO2 
 PCOD9041845
Probable space group: P -1
;
_chemical_formula_sum "Si O2"
_cell_formula_units_Z 16
_cell_length_a 14.966996
_cell_length_b 12.845145
_cell_length_c 18.044735
_cell_angle_alpha 149.132239
_cell_angle_beta 31.084077
_cell_angle_gamma 126.297174
_cell_volume 773.244114
_symmetry_space_group_name_H-M "P -1"
_symmetry_group_IT_number 2
_symmetry_cell_setting 'triclinic'
loop_
_space_group_symop_operation_xyz
x,y,z
-x,-y,-z
loop_
_atom_site_type_symbol
_atom_site_label
_atom_site_fract_x
_atom_site_fract_y
_atom_site_fract_z
Si Si1 0.671361 0.632334 0.702794
Si Si2 0.256464 0.948296 0.099102
Si Si3 0.565962 0.465897 0.823972
Si Si4 0.178589 0.819608 0.397711
Si Si5 0.788754 0.725918 0.317172
Si Si6 0.987116 0.234171 0.120959
Si Si7 0.265624 0.614295 0.757661
Si Si8 0.549524 0.930221 0.337737
O O1 0.656690 0.498111 0.703584
O O2 0.847976 0.449825 0.408846
O O3 0.704796 0.847157 0.832700
O O4 0.457776 0.755780 0.884248
O O5 0.214368 0.810341 0.979175
O O6 0.060414 0.084196 0.376296
O O7 0.723780 0.385326 0.731752
O O8 0.519543 0.257596 0.734646
O O9 0.341086 0.700852 0.143155
O O10 0.180081 0.057429 0.559350
O O11 0.741805 0.613994 0.350938
O O12 0.597469 0.834623 0.463363
O O13 0.000000 0.500000 0.000000
O O14 0.882889 0.277829 0.141159
O O15 0.214022 0.184201 0.920399
O O16 0.000000 0.000000 0.000000
O O17 0.500000 0.500000 0.500000
O O18 0.500000 0.000000 0.500000
#
# Coordination Sequence:
#
# PCOD9041845 Si02
#       8
#     2   2   2   2   2   2   2   2
#     4  11  26  45  66  99 136 175 224 275 334 391
#     4  11  25  44  67  98 134 175 224 273 329 401
#     4  10  24  44  67  95 132 173 218 275 331 397
#     4  10  23  44  67  98 129 170 224 269 334 397
#     4  11  23  41  68  99 129 173 216 272 330 394
#     4  12  26  44  68 101 137 176 223 277 336 394
#     4  12  25  43  67  98 138 176 221 272 335 400
#     4  11  24  41  68  98 134 170 221 272 329 391
#
# _framework density 20.692042000000001
#
# number of rings (size 3 to 8) (size 9 to 14) (size 15 to 20)
#    0.000    1.000    2.500    3.000    7.000    2.000 
#    2.250    0.000    0.000    0.000    0.000    0.000 
#    0.000    0.000    0.000    0.000    0.000    0.000 
#
# Total GULP energy -89354.607192 kJ/mol
# GULP energy per Si atom -5584.662950 kJ/mol
# Density = 2.064495 g / cm^3
# Si number density = 20.692042 Si / 1000 Ang^3
#
#
#
# Elastic Constant Matrix: (Units=GPa)
#
#
# Indices 1 2 3 4 5 6 
#
# 1 79.1963 36.9067 28.0950 3.6465 -12.3705 -16.4980
# 2 36.9067 126.0593 28.1682 -4.3098 -16.3314 -18.7432
# 3 28.0950 28.1682 130.0082 -17.3629 -9.1087 -5.1313
# 4 3.6465 -4.3098 -17.3629 44.9513 5.7106 -2.9765
# 5 -12.3705 -16.3314 -9.1087 5.7106 36.1295 3.3660
# 6 -16.4980 -18.7432 -5.1313 -2.9765 3.3660 27.9423
#
#
#
# Elastic Compliance Matrix: (Units=1/GPa)
#
#
# Indices 1 2 3 4 5 6 
#
# 1 0.017175 -0.002985 -0.002917 -0.002808 0.003600 0.006870
# 2 -0.002985 0.010105 -0.001072 0.000753 0.002731 0.004570
# 3 -0.002917 -0.001072 0.009032 0.003559 0.000272 -0.000436
# 4 -0.002808 0.000753 0.003559 0.024581 -0.003850 0.002582
# 5 0.003600 0.002731 0.000272 -0.003850 0.030833 -0.000117
# 6 0.006870 0.004570 -0.000436 0.002582 -0.000117 0.043119
#
#
# Mechanical properties :
#
#
# Convention : Reuss Voigt Hill
#
# Bulk Modulus (GPa) = 44.71305 57.95596 51.33451
# Shear Modulus (GPa) = 32.00041 37.94420 34.97230
#
# Velocity S-wave (km/s) = 3.93683 4.28689 4.11558
# Velocity P-wave (km/s) = 6.50543 7.25071 6.88816
#
# Compressibility (1/GPa) = 0.02236484
#
# Stress axis : x y z
#
# Youngs Moduli (GPa) = 58.22308 98.95777 110.72317
#
# Poissons Ratio (x) = 0.29538 0.32293
# Poissons Ratio (y) = 0.17379 0.11872
# Poissons Ratio (z) = 0.16981 0.10610
#
# Static dielectric constant tensor:
#      x y z
#    x 1.793170 0.000330 0.002520 
#    y 0.000330 1.572530 -0.000550 
#    z 0.002520 -0.000550 1.724630 
# 
# From -- ./inp_files/298473.got.cif
#   From: 2010.05.17/outbox.cif.g08.bks.cpg/sg2_150_cif.got.tgz:298473.got - 2010.06.03 11:33:40.
