data_PCOD9041384
_publ_section_title
;
Structure prediction by ZEFSAII (Michael W. Deem and Ramdas Pophale) SiO2 
 PCOD9041384
Probable space group: P -1
;
_chemical_formula_sum "Si O2"
_cell_formula_units_Z 16
_cell_length_a 12.577054
_cell_length_b 8.364989
_cell_length_c 15.162863
_cell_angle_alpha 93.513145
_cell_angle_beta 40.645068
_cell_angle_gamma 64.441032
_cell_volume 703.117859
_symmetry_space_group_name_H-M "P -1"
_symmetry_group_IT_number 2
_symmetry_cell_setting 'triclinic'
loop_
_space_group_symop_operation_xyz
x,y,z
-x,-y,-z
loop_
_atom_site_type_symbol
_atom_site_label
_atom_site_fract_x
_atom_site_fract_y
_atom_site_fract_z
Si Si1 0.303517 0.908665 0.938039
Si Si2 0.418877 0.876903 0.407062
Si Si3 0.945764 0.212932 0.620004
Si Si4 0.867773 0.020089 0.241559
Si Si5 0.520182 0.448562 0.342784
Si Si6 0.791475 0.654665 0.713128
Si Si7 0.143630 0.233950 0.901191
Si Si8 0.004469 0.163422 0.375457
O O1 0.404307 0.719055 0.791429
O O2 0.527342 0.821400 0.845319
O O3 0.159862 0.149273 0.984893
O O4 0.103508 0.950744 0.115962
O O5 0.566423 0.603733 0.303634
O O6 0.585600 0.910551 0.301999
O O7 0.254092 0.982222 0.600766
O O8 0.233942 0.012988 0.446690
O O9 0.841499 0.455452 0.729266
O O10 0.897625 0.242115 0.546531
O O11 0.869759 0.101579 0.709668
O O12 0.943793 0.836520 0.113834
O O13 0.667076 0.274916 0.327661
O O14 0.228236 0.654116 0.534964
O O15 0.000000 0.500000 0.500000
O O16 0.831666 0.798085 0.737185
O O17 0.000000 0.500000 0.000000
#
# Coordination Sequence:
#
# PCOD9041384 Si02
#       8
#     2   2   2   2   2   2   2   2
#     4  11  21  38  60  87 116 155 201 252 290 350
#     4  11  22  37  59  90 123 157 188 246 307 366
#     4   9  18  31  55  85 116 146 203 242 298 349
#     4  11  24  38  56  89 127 158 188 237 319 362
#     4  10  19  36  62  83 117 154 203 243 290 359
#     4  10  17  33  57  85 114 146 202 256 291 336
#     4  11  22  39  60  88 118 153 209 246 284 352
#     4   9  17  31  55  92 107 148 206 256 285 339
#
# _framework density 22.755787999999999
#
# number of rings (size 3 to 8) (size 9 to 14) (size 15 to 20)
#    0.000    1.750    2.500    5.250    1.750    0.000 
#    2.250    0.625    0.000    3.000    0.000    0.000 
#    0.000    0.000    0.000    0.000    0.000    0.000 
#
# Total GULP energy -89389.666264 kJ/mol
# GULP energy per Si atom -5586.854141 kJ/mol
# Density = 2.270400 g / cm^3
# Si number density = 22.755788 Si / 1000 Ang^3
#
#
#
# Elastic Constant Matrix: (Units=GPa)
#
#
# Indices 1 2 3 4 5 6 
#
# 1 72.3415 37.6513 40.2313 -9.2856 -34.2290 3.7854
# 2 37.6513 128.7034 10.8943 2.2768 -6.7248 26.7115
# 3 40.2313 10.8943 76.5337 -13.2676 -21.7041 0.2828
# 4 -9.2856 2.2768 -13.2676 32.4533 12.7086 -6.1781
# 5 -34.2290 -6.7248 -21.7041 12.7086 35.6393 -8.8977
# 6 3.7854 26.7115 0.2828 -6.1781 -8.8977 40.2459
#
#
#
# Elastic Compliance Matrix: (Units=1/GPa)
#
#
# Indices 1 2 3 4 5 6 
#
# 1 0.041430 -0.011624 -0.010826 -0.003334 0.034967 0.011113
# 2 -0.011624 0.012593 0.001272 -0.001686 -0.009835 -0.009707
# 3 -0.010826 0.001272 0.019463 0.004861 0.000166 0.000820
# 4 -0.003334 -0.001686 0.004861 0.037875 -0.012982 0.004342
# 5 0.034967 -0.009835 0.000166 -0.012982 0.068615 0.016415
# 6 0.011113 -0.009707 0.000820 0.004342 0.016415 0.034534
#
#
# Mechanical properties :
#
#
# Convention : Reuss Voigt Hill
#
# Bulk Modulus (GPa) = 32.12399 50.57027 41.34713
# Shear Modulus (GPa) = 18.70957 34.25449 26.48203
#
# Velocity S-wave (km/s) = 2.87050 3.88404 3.41508
# Velocity P-wave (km/s) = 5.01336 6.51042 5.81031
#
# Compressibility (1/GPa) = 0.03112939
#
# Stress axis : x y z
#
# Youngs Moduli (GPa) = 24.13734 79.40806 51.37970
#
# Poissons Ratio (x) = 0.92304 0.55626
# Poissons Ratio (y) = 0.28057 -0.06536
# Poissons Ratio (z) = 0.26132 -0.10102
#
# Static dielectric constant tensor:
#      x y z
#    x 1.893550 0.024300 0.006890 
#    y 0.024300 1.857590 0.006280 
#    z 0.006890 0.006280 1.856240 
# 
# From -- ./inp_files/572871.got.cif
#   From: 2010.05.17/outbox.cif.g08.bks.cpg/sg2_287_cif.got.tgz:572871.got - 2010.06.03 11:33:40.
