data_PCOD9041520
_publ_section_title
;
Structure prediction by ZEFSAII (Michael W. Deem and Ramdas Pophale) SiO2 
 PCOD9041520
Probable space group: P -1
;
_chemical_formula_sum "Si O2"
_cell_formula_units_Z 15
_cell_length_a 17.227846
_cell_length_b 7.854034
_cell_length_c 14.912979
_cell_angle_alpha 69.100736
_cell_angle_beta 19.170518
_cell_angle_gamma 62.846973
_cell_volume 570.195699
_symmetry_space_group_name_H-M "P -1"
_symmetry_group_IT_number 2
_symmetry_cell_setting 'triclinic'
loop_
_space_group_symop_operation_xyz
x,y,z
-x,-y,-z
loop_
_atom_site_type_symbol
_atom_site_label
_atom_site_fract_x
_atom_site_fract_y
_atom_site_fract_z
Si Si1 0.583735 0.412657 0.327750
Si Si2 0.646090 0.484850 0.938955
Si Si3 0.704536 0.866676 0.882176
Si Si4 0.578837 0.739600 0.633294
Si Si5 0.000000 0.000000 0.000000
Si Si6 0.922219 0.577337 0.847315
Si Si7 0.158199 0.115969 0.458660
Si Si8 0.080738 0.094070 0.099946
O O1 0.500000 0.500000 0.500000
O O2 0.426604 0.321424 0.453671
O O3 0.843909 0.226815 0.097577
O O4 0.650263 0.566434 0.164891
O O5 0.615147 0.699962 0.967165
O O6 0.950257 0.341015 0.636356
O O7 0.500000 0.500000 0.000000
O O8 0.535935 0.379024 0.153345
O O9 0.818928 0.943198 0.660281
O O10 0.904883 0.734377 0.760263
O O11 0.464846 0.043082 0.156670
O O12 0.389899 0.968456 0.797033
O O13 0.874911 0.640754 0.356405
O O14 0.996625 0.930147 0.911000
O O15 0.985948 0.679477 0.845114
O O16 0.052356 0.002954 0.666075
#
# Coordination Sequence:
#
# PCOD9041520 Si02
#       8
#     2   2   2   2   1   2   2   2
#     4  11  25  45  72  99 137 179 228 289 345 408
#     4  11  22  41  66  95 139 186 224 278 339 405
#     4  11  24  41  66 104 137 183 228 285 338 412
#     4  10  23  44  64 101 137 176 228 280 341 406
#     4  10  24  46  70  94 138 178 224 286 344 396
#     4  12  25  43  74 102 136 180 233 278 348 412
#     4  10  24  41  67 100 144 180 231 279 344 403
#     4  10  24  44  69 101 136 187 225 289 340 408
#
# _framework density 26.306757999999999
#
# number of rings (size 3 to 8) (size 9 to 14) (size 15 to 20)
#    0.000    1.333    1.333    2.800    1.867    9.600 
#    0.000    2.667    0.000    0.000    0.000    0.000 
#    0.000    0.000    0.000    0.000    0.000    0.000 
#
# Total GULP energy -83608.997541 kJ/mol
# GULP energy per Si atom -5573.933169 kJ/mol
# Density = 2.624688 g / cm^3
# Si number density = 26.306758 Si / 1000 Ang^3
#
#
#
# Elastic Constant Matrix: (Units=GPa)
#
#
# Indices 1 2 3 4 5 6 
#
# 1 142.1750 21.5716 26.6680 -6.5648 16.7626 -15.1852
# 2 21.5716 74.8192 16.6701 36.8933 -11.9854 -4.2896
# 3 26.6680 16.6701 81.1815 42.4781 -4.0562 -7.0416
# 4 -6.5648 36.8933 42.4781 27.9291 3.9678 -11.2552
# 5 16.7626 -11.9854 -4.0562 3.9678 7.0158 15.6318
# 6 -15.1852 -4.2896 -7.0416 -11.2552 15.6318 39.6024
#
#
#
# Elastic Compliance Matrix: (Units=1/GPa)
#
#
# Indices 1 2 3 4 5 6 
#
# 1 0.004693 0.003297 0.002532 -0.008884 0.006024 -0.002296
# 2 0.003297 0.009047 -0.004896 0.003503 -0.020845 0.010597
# 3 0.002532 -0.004896 0.015922 -0.007294 -0.031140 0.013490
# 4 -0.008884 0.003503 -0.007294 0.020419 0.067609 -0.025207
# 5 0.006024 -0.020845 -0.031140 0.067609 0.047281 -0.004933
# 6 -0.002296 0.010597 0.013490 -0.025207 -0.004933 0.022700
#
#
# Mechanical properties :
#
#
# Convention : Reuss Voigt Hill
#
# Bulk Modulus (GPa) = 31.71824 47.55501 39.63663
# Shear Modulus (GPa) = 38.84821 30.46055 34.65438
#
# Velocity S-wave (km/s) = 3.84700 3.40648 3.63343
# Velocity P-wave (km/s) = 5.64055 5.79556 5.71858
#
# Compressibility (1/GPa) = 0.03152760
#
# Stress axis : x y z
#
# Youngs Moduli (GPa) = 213.09544 110.53532 62.80477
#
# Poissons Ratio (x) = -0.36443 -0.15901
# Poissons Ratio (y) = -0.70257 0.30749
# Poissons Ratio (z) = -0.53951 0.54118
#
# Static dielectric constant tensor:
#      x y z
#    x 2.103770 0.026060 -0.067070 
#    y 0.026060 1.962410 -0.006930 
#    z -0.067070 -0.006930 2.155640 
# 
# From -- ./inp_files/536989.got.cif
#   From: 2010.05.17/outbox.cif.g08.bks.cpg/sg2_269_cif.got.tgz:536989.got - 2010.06.03 11:33:40.
