data_PCOD9041594
_publ_section_title
;
Structure prediction by ZEFSAII (Michael W. Deem and Ramdas Pophale) SiO2 
 PCOD9041594
Probable space group: P -1
;
_chemical_formula_sum "Si O2"
_cell_formula_units_Z 16
_cell_length_a 19.068698
_cell_length_b 10.392365
_cell_length_c 17.739688
_cell_angle_alpha 44.690392
_cell_angle_beta 158.168216
_cell_angle_gamma 147.043945
_cell_volume 669.817019
_symmetry_space_group_name_H-M "P -1"
_symmetry_group_IT_number 2
_symmetry_cell_setting 'triclinic'
loop_
_space_group_symop_operation_xyz
x,y,z
-x,-y,-z
loop_
_atom_site_type_symbol
_atom_site_label
_atom_site_fract_x
_atom_site_fract_y
_atom_site_fract_z
Si Si1 0.570265 0.143597 0.110047
Si Si2 0.516509 0.343090 0.638113
Si Si3 0.951323 0.120027 0.338517
Si Si4 0.031474 0.851627 0.437532
Si Si5 0.563840 0.277827 0.213602
Si Si6 0.469336 0.381425 0.327525
Si Si7 0.609744 0.967577 0.483819
Si Si8 0.221291 0.318758 0.947938
O O1 0.786341 0.130247 0.327039
O O2 0.522997 0.133270 0.157625
O O3 0.671627 0.403410 0.070389
O O4 0.295603 0.913149 0.894372
O O5 0.500000 0.500000 0.500000
O O6 0.613865 0.507091 0.743886
O O7 0.598932 0.246440 0.698186
O O8 0.242747 0.075490 0.499921
O O9 0.227602 0.390996 0.484653
O O10 0.880170 0.928695 0.281193
O O11 0.000000 0.000000 0.500000
O O12 0.823878 0.560653 0.333134
O O13 0.349628 0.279033 0.027331
O O14 0.609172 0.180847 0.372928
O O15 0.453964 0.177517 0.441013
O O16 0.308903 0.298453 0.125233
O O17 0.913305 0.116220 0.718072
#
# Coordination Sequence:
#
# PCOD9041594 Si02
#       8
#     2   2   2   2   2   2   2   2
#     4  12  23  37  65  98 122 167 217 263 318 380
#     4   9  20  40  65  88 125 172 209 256 314 374
#     4  11  23  43  62  91 135 167 212 265 319 384
#     4  11  21  39  65  94 127 164 213 266 320 373
#     4  12  24  38  66 101 128 162 220 271 322 371
#     4  10  23  44  65  92 132 177 208 260 328 382
#     4  11  23  44  68  92 131 170 217 266 315 385
#     4  12  24  41  66  97 130 169 214 268 326 376
#
# _framework density 23.887121
#
# number of rings (size 3 to 8) (size 9 to 14) (size 15 to 20)
#    0.000    1.000    5.000    1.875    3.500    1.000 
#    0.000    4.375    0.000    0.000    0.000    0.000 
#    0.000    0.000    0.000    0.000    0.000    0.000 
#
# Total GULP energy -89164.358013 kJ/mol
# GULP energy per Si atom -5572.772376 kJ/mol
# Density = 2.383275 g / cm^3
# Si number density = 23.887121 Si / 1000 Ang^3
#
#
#
# Elastic Constant Matrix: (Units=GPa)
#
#
# Indices 1 2 3 4 5 6 
#
# 1 65.9227 14.7016 25.5022 -6.0542 -19.8829 2.3054
# 2 14.7016 125.7793 28.0008 -30.6761 -8.7346 34.3352
# 3 25.5022 28.0008 111.9020 -7.0964 -0.7064 -0.2551
# 4 -6.0542 -30.6761 -7.0964 28.1613 2.5934 -14.2067
# 5 -19.8829 -8.7346 -0.7064 2.5934 44.5167 -7.4059
# 6 2.3054 34.3352 -0.2551 -14.2067 -7.4059 35.1729
#
#
#
# Elastic Compliance Matrix: (Units=1/GPa)
#
#
# Indices 1 2 3 4 5 6 
#
# 1 0.019756 -0.000767 -0.004072 0.002788 0.008848 0.002413
# 2 -0.000767 0.013392 -0.002624 0.009024 0.000160 -0.009364
# 3 -0.004072 -0.002624 0.010545 0.000457 -0.001740 0.002724
# 4 0.002788 0.009024 0.000457 0.052181 0.002067 0.012524
# 5 0.008848 0.000160 -0.001740 0.002067 0.027268 0.005827
# 6 0.002413 -0.009364 0.002724 0.012524 0.005827 0.043719
#
#
# Mechanical properties :
#
#
# Convention : Reuss Voigt Hill
#
# Bulk Modulus (GPa) = 34.76288 48.89036 41.82662
# Shear Modulus (GPa) = 26.12640 37.26347 31.69493
#
# Velocity S-wave (km/s) = 3.31077 3.95395 3.64656
# Velocity P-wave (km/s) = 5.40365 6.43091 5.93953
#
# Compressibility (1/GPa) = 0.02876632
#
# Stress axis : x y z
#
# Youngs Moduli (GPa) = 50.61783 74.66999 94.82837
#
# Poissons Ratio (x) = 0.05727 0.38616
# Poissons Ratio (y) = 0.03882 0.24887
# Poissons Ratio (z) = 0.20613 0.19596
#
# Static dielectric constant tensor:
#      x y z
#    x 2.120310 -0.047920 -0.028900 
#    y -0.047920 1.899290 -0.012830 
#    z -0.028900 -0.012830 1.895250 
# 
# From -- ./inp_files/333884.got.cif
#   From: 2010.05.17/outbox.cif.g08.bks.cpg/sg2_167_cif.got.tgz:333884.got - 2010.06.03 11:33:40.
