data_PCOD9041778
_publ_section_title
;
Structure prediction by ZEFSAII (Michael W. Deem and Ramdas Pophale) SiO2 
 PCOD9041778
Probable space group: P -1
;
_chemical_formula_sum "Si O2"
_cell_formula_units_Z 16
_cell_length_a 6.678400
_cell_length_b 5.597383
_cell_length_c 19.962037
_cell_angle_alpha 116.544963
_cell_angle_beta 106.019032
_cell_angle_gamma 76.833888
_cell_volume 636.876912
_symmetry_space_group_name_H-M "P -1"
_symmetry_group_IT_number 2
_symmetry_cell_setting 'triclinic'
loop_
_space_group_symop_operation_xyz
x,y,z
-x,-y,-z
loop_
_atom_site_type_symbol
_atom_site_label
_atom_site_fract_x
_atom_site_fract_y
_atom_site_fract_z
Si Si1 0.106780 0.532984 0.863412
Si Si2 0.953084 0.034351 0.759990
Si Si3 0.117959 0.034879 0.629611
Si Si4 0.327253 0.916561 0.421504
Si Si5 0.388292 0.801862 0.014138
Si Si6 0.676968 0.859031 0.815354
Si Si7 0.712719 0.459701 0.258872
Si Si8 0.484637 0.356112 0.408715
O O1 0.176341 0.733737 0.950021
O O2 0.279917 0.500317 0.816005
O O3 0.074233 0.230309 0.843208
O O4 0.881298 0.656119 0.829321
O O5 0.000846 0.124517 0.700603
O O6 0.734460 0.020029 0.774889
O O7 0.077889 0.739767 0.733169
O O8 0.260715 0.274311 0.663295
O O9 0.910445 0.014510 0.564752
O O10 0.283750 0.768683 0.609434
O O11 0.372243 0.592619 0.381474
O O12 0.500000 0.000000 0.500000
O O13 0.354961 0.109202 0.384537
O O14 0.500000 0.500000 0.000000
O O15 0.500000 0.000000 0.000000
O O16 0.365572 0.945202 0.101315
O O17 0.482725 0.697140 0.764188
O O18 0.500000 0.500000 0.500000
#
# Coordination Sequence:
#
# PCOD9041778 Si02
#       8
#     2   2   2   2   2   2   2   2
#     4  10  23  44  67 104 139 189 250 308 377 433
#     4  10  25  43  68 104 143 197 248 308 379 449
#     4  11  26  46  75 107 157 196 256 310 386 458
#     4  10  25  47  76 115 151 194 250 308 381 452
#     4  12  26  44  77 104 143 196 252 308 381 443
#     4  11  24  44  74  99 149 189 255 310 375 443
#     4  10  23  45  66 102 145 194 243 308 371 454
#     4  10  25  46  77 114 151 195 248 305 383 450
#
# _framework density 25.122589999999999
#
# number of rings (size 3 to 8) (size 9 to 14) (size 15 to 20)
#    0.000    1.500    1.250    1.125    7.000   10.500 
#    0.000    0.000    0.000    0.000    0.000    0.000 
#    0.000    0.000    0.000    0.000    0.000    0.000 
#
# Total GULP energy -89450.726422 kJ/mol
# GULP energy per Si atom -5590.670401 kJ/mol
# Density = 2.506541 g / cm^3
# Si number density = 25.122590 Si / 1000 Ang^3
#
#
#
# Elastic Constant Matrix: (Units=GPa)
#
#
# Indices 1 2 3 4 5 6 
#
# 1 162.0261 47.7343 50.1545 11.3552 -1.2021 17.6368
# 2 47.7343 141.4886 21.4082 22.4651 -14.7974 9.1427
# 3 50.1545 21.4082 109.6419 7.3943 -9.9447 10.2264
# 4 11.3552 22.4651 7.3943 35.9407 1.5483 -3.6797
# 5 -1.2021 -14.7974 -9.9447 1.5483 42.1732 1.0465
# 6 17.6368 9.1427 10.2264 -3.6797 1.0465 54.4059
#
#
#
# Elastic Compliance Matrix: (Units=1/GPa)
#
#
# Indices 1 2 3 4 5 6 
#
# 1 0.007994 -0.002133 -0.003149 -0.000663 -0.001197 -0.001663
# 2 -0.002133 0.009053 -0.000019 -0.005252 0.003335 -0.001246
# 3 -0.003149 -0.000019 0.011011 -0.001492 0.002585 -0.001196
# 4 -0.000663 -0.005252 -0.001492 0.032144 -0.003484 0.003619
# 5 -0.001197 0.003335 0.002585 -0.003484 0.025620 -0.001386
# 6 -0.001663 -0.001246 -0.001196 0.003619 -0.001386 0.019625
#
#
# Mechanical properties :
#
#
# Convention : Reuss Voigt Hill
#
# Bulk Modulus (GPa) = 57.28513 72.41674 64.85094
# Shear Modulus (GPa) = 41.02817 46.09458 43.56137
#
# Velocity S-wave (km/s) = 4.04557 4.28809 4.16859
# Velocity P-wave (km/s) = 6.68386 7.30786 7.00281
#
# Compressibility (1/GPa) = 0.01745654
#
# Stress axis : x y z
#
# Youngs Moduli (GPa) = 125.10136 110.45570 90.81463
#
# Poissons Ratio (x) = 0.23558 0.28597
# Poissons Ratio (y) = 0.26682 0.00174
# Poissons Ratio (z) = 0.39393 0.00212
#
# Static dielectric constant tensor:
#      x y z
#    x 2.033820 0.013390 0.092720 
#    y 0.013390 2.051240 -0.080570 
#    z 0.092720 -0.080570 2.121190 
# 
# From -- ./inp_files/14813.got.cif
#   From: 2010.05.17/outbox.cif.g08.bks.cpg/sg2_8_cif.got.tgz:14813.got - 2010.06.03 11:33:40.
