data_PCOD9041251
_publ_section_title
;
Structure prediction by ZEFSAII (Michael W. Deem and Ramdas Pophale) SiO2 
 PCOD9041251
Probable space group: P -1
;
_chemical_formula_sum "Si O2"
_cell_formula_units_Z 16
_cell_length_a 11.332934
_cell_length_b 17.318539
_cell_length_c 8.771321
_cell_angle_alpha 125.968772
_cell_angle_beta 116.578791
_cell_angle_gamma 29.296210
_cell_volume 672.594313
_symmetry_space_group_name_H-M "P -1"
_symmetry_group_IT_number 2
_symmetry_cell_setting 'triclinic'
loop_
_space_group_symop_operation_xyz
x,y,z
-x,-y,-z
loop_
_atom_site_type_symbol
_atom_site_label
_atom_site_fract_x
_atom_site_fract_y
_atom_site_fract_z
Si Si1 0.203996 0.349983 0.566880
Si Si2 0.853685 0.236907 0.451622
Si Si3 0.515882 0.446260 0.750064
Si Si4 0.992930 0.828227 0.868593
Si Si5 0.844178 0.115084 0.768757
Si Si6 0.960627 0.666062 0.251120
Si Si7 0.626934 0.601270 0.045526
Si Si8 0.479680 0.012499 0.186796
O O1 0.104129 0.348341 0.648382
O O2 0.412032 0.158756 0.383719
O O3 0.000000 0.500000 0.500000
O O4 0.284560 0.398088 0.751729
O O5 0.588311 0.385933 0.545645
O O6 0.899437 0.193048 0.249583
O O7 0.951467 0.281975 0.593491
O O8 0.025303 0.054907 0.421202
O O9 0.226664 0.620818 0.809645
O O10 0.674819 0.276488 0.742371
O O11 0.609145 0.496530 0.905442
O O12 0.749383 0.915278 0.815533
O O13 0.969664 0.923935 0.093205
O O14 0.656127 0.195994 0.887489
O O15 0.186957 0.482586 0.076866
O O16 0.725340 0.822994 0.187766
O O17 0.500000 0.000000 0.000000
#
# Coordination Sequence:
#
# PCOD9041251 Si02
#       8
#     2   2   2   2   2   2   2   2
#     4  12  26  45  71 105 138 186 239 290 346 422
#     4  11  23  45  72 104 136 177 236 284 356 414
#     4  10  24  43  75  98 139 181 227 295 346 408
#     4  11  24  45  67  98 141 182 229 283 352 412
#     4  11  24  42  73 100 137 182 228 297 340 412
#     4  11  25  47  72 100 145 191 227 294 351 412
#     4  10  23  43  72 101 141 182 235 281 358 408
#     4  12  28  46  72 101 147 188 234 286 351 421
#
# _framework density 23.788487
#
# number of rings (size 3 to 8) (size 9 to 14) (size 15 to 20)
#    0.000    1.000    1.250    4.875   10.500    0.000 
#    2.250    1.250    0.000    0.000    0.000    0.000 
#    0.000    0.000    0.000    0.000    0.000    0.000 
#
# Total GULP energy -89486.645721 kJ/mol
# GULP energy per Si atom -5592.915358 kJ/mol
# Density = 2.373434 g / cm^3
# Si number density = 23.788487 Si / 1000 Ang^3
#
#
#
# Elastic Constant Matrix: (Units=GPa)
#
#
# Indices 1 2 3 4 5 6 
#
# 1 68.2448 14.9260 33.2222 9.2086 -7.4639 -5.1367
# 2 14.9260 72.8662 20.1666 1.8743 -6.0148 1.3840
# 3 33.2222 20.1666 108.5706 7.9137 -12.9308 3.3528
# 4 9.2086 1.8743 7.9137 42.4797 -3.3700 1.3618
# 5 -7.4639 -6.0148 -12.9308 -3.3700 46.0670 -2.0585
# 6 -5.1367 1.3840 3.3528 1.3618 -2.0585 37.9840
#
#
#
# Elastic Compliance Matrix: (Units=1/GPa)
#
#
# Indices 1 2 3 4 5 6 
#
# 1 0.018316 -0.002274 -0.004920 -0.002959 0.001215 0.003166
# 2 -0.002274 0.014814 -0.001937 0.000301 0.001016 -0.000632
# 3 -0.004920 -0.001937 0.011419 -0.000767 0.002034 -0.001465
# 4 -0.002959 0.000301 -0.000767 0.024435 0.001080 -0.001161
# 5 0.001215 0.001016 0.002034 0.001080 0.022738 0.001141
# 6 0.003166 -0.000632 -0.001465 -0.001161 0.001141 0.027011
#
#
# Mechanical properties :
#
#
# Convention : Reuss Voigt Hill
#
# Bulk Modulus (GPa) = 38.04143 42.92347 40.48245
# Shear Modulus (GPa) = 34.30387 37.39726 35.85056
#
# Velocity S-wave (km/s) = 3.80154 3.96924 3.88629
# Velocity P-wave (km/s) = 5.94097 6.25216 6.09855
#
# Compressibility (1/GPa) = 0.02628713
#
# Stress axis : x y z
#
# Youngs Moduli (GPa) = 54.59767 67.50431 87.57200
#
# Poissons Ratio (x) = 0.15351 0.43082
# Poissons Ratio (y) = 0.12416 0.16965
# Poissons Ratio (z) = 0.26860 0.13077
#
# Static dielectric constant tensor:
#      x y z
#    x 1.975040 0.038040 -0.051740 
#    y 0.038040 1.928440 -0.008780 
#    z -0.051740 -0.008780 1.950170 
# 
# From -- ./inp_files/279954.got.cif
#   From: 2010.05.17/outbox.cif.g08.bks.cpg/sg2_140_cif.got.tgz:279954.got - 2010.06.03 11:33:40.
