data_PCOD9041993
_publ_section_title
;
Structure prediction by ZEFSAII (Michael W. Deem and Ramdas Pophale) SiO2 
 PCOD9041993
Probable space group: P -1
;
_chemical_formula_sum "Si O2"
_cell_formula_units_Z 14
_cell_length_a 18.799442
_cell_length_b 10.906649
_cell_length_c 11.261853
_cell_angle_alpha 125.917296
_cell_angle_beta 158.081524
_cell_angle_gamma 44.466697
_cell_volume 578.115917
_symmetry_space_group_name_H-M "P -1"
_symmetry_group_IT_number 2
_symmetry_cell_setting 'triclinic'
loop_
_space_group_symop_operation_xyz
x,y,z
-x,-y,-z
loop_
_atom_site_type_symbol
_atom_site_label
_atom_site_fract_x
_atom_site_fract_y
_atom_site_fract_z
Si Si1 0.639973 0.535665 0.641695
Si Si2 0.092614 0.168521 0.645552
Si Si3 0.538356 0.115257 0.292439
Si Si4 0.321262 0.443476 0.715031
Si Si5 0.896102 0.958611 0.157820
Si Si6 0.820435 0.794211 0.723015
Si Si7 0.403077 0.686119 0.717428
O O1 0.500000 0.500000 0.500000
O O2 0.578061 0.732525 0.694902
O O3 0.549584 0.505528 0.361879
O O4 0.910195 0.371487 0.967942
O O5 0.187377 0.045865 0.842712
O O6 0.930726 0.376482 0.553857
O O7 0.321338 0.119994 0.906366
O O8 0.929734 0.124020 0.297755
O O9 0.626542 0.190899 0.371571
O O10 0.730683 0.928075 0.546538
O O11 0.311283 0.307733 0.532406
O O12 0.500000 0.500000 0.000000
O O13 0.401856 0.343620 0.910357
O O14 0.163419 0.788420 0.472747
O O15 0.788659 0.914083 0.857736
#
# Coordination Sequence:
#
# PCOD9041993 Si02
#       7
#     2   2   2   2   2   2   2
#     4   9  21  43  65 102 138 175 223 277 333 410
#     4  11  24  44  67  99 141 174 233 281 334 405
#     4  11  24  44  69 103 140 176 226 288 332 410
#     4  12  25  44  69 100 135 184 228 282 338 406
#     4  10  24  44  66 100 133 182 226 279 338 408
#     4  11  25  44  71 102 136 180 228 277 350 393
#     4  10  23  44  68  97 139 179 224 278 349 396
#
# _framework density 24.216597
#
# number of rings (size 3 to 8) (size 9 to 14) (size 15 to 20)
#    0.000    1.429    2.857    0.857    4.000   10.286 
#    2.571    0.000    0.000    0.000    0.000    0.000 
#    0.000    0.000    0.000    0.000    0.000    0.000 
#
# Total GULP energy -78246.355562 kJ/mol
# GULP energy per Si atom -5589.025397 kJ/mol
# Density = 2.416148 g / cm^3
# Si number density = 24.216597 Si / 1000 Ang^3
#
#
#
# Elastic Constant Matrix: (Units=GPa)
#
#
# Indices 1 2 3 4 5 6 
#
# 1 62.3101 11.0045 22.9635 11.2066 1.6619 0.7577
# 2 11.0045 113.2467 42.2965 33.8367 -19.5767 -15.1465
# 3 22.9635 42.2965 103.4732 18.8705 -8.4462 5.2429
# 4 11.2066 33.8367 18.8705 49.9799 -4.5228 0.5321
# 5 1.6619 -19.5767 -8.4462 -4.5228 33.5537 1.4710
# 6 0.7577 -15.1465 5.2429 0.5321 1.4710 28.4616
#
#
#
# Elastic Compliance Matrix: (Units=1/GPa)
#
#
# Indices 1 2 3 4 5 6 
#
# 1 0.017971 0.000244 -0.003743 -0.002978 -0.002114 0.000506
# 2 0.000244 0.015263 -0.004751 -0.008126 0.006215 0.008822
# 3 -0.003743 -0.004751 0.012869 -0.000682 0.000773 -0.004826
# 4 -0.002978 -0.008126 -0.000682 0.026392 -0.001008 -0.004561
# 5 -0.002114 0.006215 0.000773 -0.001008 0.033526 0.001508
# 6 0.000506 0.008822 -0.004826 -0.004561 0.001508 0.040713
#
#
# Mechanical properties :
#
#
# Convention : Reuss Voigt Hill
#
# Bulk Modulus (GPa) = 33.78070 47.95098 40.86584
# Shear Modulus (GPa) = 28.88468 35.91675 32.40071
#
# Velocity S-wave (km/s) = 3.45739 3.85534 3.66177
# Velocity P-wave (km/s) = 5.46971 6.29778 5.89830
#
# Compressibility (1/GPa) = 0.02960270
#
# Stress axis : x y z
#
# Youngs Moduli (GPa) = 55.64542 65.51700 77.70607
#
# Poissons Ratio (x) = -0.01596 0.29085
# Poissons Ratio (y) = -0.01356 0.36918
# Poissons Ratio (z) = 0.20828 0.31127
#
# Static dielectric constant tensor:
#      x y z
#    x 1.923570 -0.036840 -0.034710 
#    y -0.036840 2.019000 0.069140 
#    z -0.034710 0.069140 1.930070 
# 
# From -- ./inp_files/244563.got.cif
#   From: 2010.05.17/outbox.cif.g08.bks.cpg/sg2_123_cif.got.tgz:244563.got - 2010.06.03 11:33:40.
