data_PCOD9041893
_publ_section_title
;
Structure prediction by ZEFSAII (Michael W. Deem and Ramdas Pophale) SiO2 
 PCOD9041893
Probable space group: P -1
;
_chemical_formula_sum "Si O2"
_cell_formula_units_Z 13
_cell_length_a 13.500214
_cell_length_b 5.670110
_cell_length_c 11.859475
_cell_angle_alpha 65.679638
_cell_angle_beta 143.135514
_cell_angle_gamma 111.543028
_cell_volume 495.107559
_symmetry_space_group_name_H-M "P -1"
_symmetry_group_IT_number 2
_symmetry_cell_setting 'triclinic'
loop_
_space_group_symop_operation_xyz
x,y,z
-x,-y,-z
loop_
_atom_site_type_symbol
_atom_site_label
_atom_site_fract_x
_atom_site_fract_y
_atom_site_fract_z
Si Si1 0.606658 0.695551 0.692915
Si Si2 0.134299 0.889223 0.063282
Si Si3 0.000000 0.500000 0.500000
Si Si4 0.727986 0.561782 0.597471
Si Si5 0.362480 0.332790 0.840411
Si Si6 0.333924 0.772246 0.011150
Si Si7 0.990433 0.107555 0.307809
O O1 0.698374 0.924409 0.802462
O O2 0.643108 0.724303 0.586884
O O3 0.410728 0.643408 0.538745
O O4 0.670950 0.422871 0.849967
O O5 0.153259 0.608866 0.188527
O O6 0.069483 0.905762 0.874421
O O7 0.000000 0.000000 0.000000
O O8 0.197938 0.480859 0.646359
O O9 0.990280 0.177629 0.572533
O O10 0.833351 0.733243 0.571201
O O11 0.324128 0.080402 0.933990
O O12 0.500000 0.500000 0.000000
O O13 0.480667 0.254411 0.861214
O O14 0.148571 0.712864 0.796238
#
# Coordination Sequence:
#
# PCOD9041893 Si02
#       7
#     2   2   1   2   2   2   2
#     4  11  24  41  68 106 143 187 234 300 365 434
#     4  12  23  41  70 103 141 191 239 293 364 427
#     4  10  26  46  74 108 132 194 250 300 364 440
#     4  11  24  44  66 104 149 182 239 298 365 436
#     4  10  24  47  72  99 142 186 245 304 364 431
#     4  10  23  44  68 101 138 190 233 298 366 429
#     4  11  23  47  73 103 147 192 249 302 360 443
#
# _framework density 26.256920999999998
#
# number of rings (size 3 to 8) (size 9 to 14) (size 15 to 20)
#    0.000    1.231    3.077    1.846    6.462    1.231 
#    5.538    2.308    0.000    0.000    0.000    0.000 
#    0.000    0.000    0.000    0.000    0.000    0.000 
#
# Total GULP energy -72383.995568 kJ/mol
# GULP energy per Si atom -5567.999659 kJ/mol
# Density = 2.619716 g / cm^3
# Si number density = 26.256921 Si / 1000 Ang^3
#
#
#
# Elastic Constant Matrix: (Units=GPa)
#
#
# Indices 1 2 3 4 5 6 
#
# 1 99.5430 23.7871 53.2065 -7.8977 27.0308 16.8588
# 2 23.7871 81.0759 37.9974 2.2667 15.0840 19.4301
# 3 53.2065 37.9974 179.1990 -6.2989 42.9101 3.8534
# 4 -7.8977 2.2667 -6.2989 59.7845 1.3445 8.3024
# 5 27.0308 15.0840 42.9101 1.3445 58.5641 7.3009
# 6 16.8588 19.4301 3.8534 8.3024 7.3009 37.2176
#
#
#
# Elastic Compliance Matrix: (Units=1/GPa)
#
#
# Indices 1 2 3 4 5 6 
#
# 1 0.013831 -0.000832 -0.002912 0.002377 -0.003419 -0.005389
# 2 -0.000832 0.015794 -0.002765 0.000051 -0.000730 -0.007451
# 3 -0.002912 -0.002765 0.007971 0.000280 -0.004125 0.002684
# 4 0.002377 0.000051 0.000280 0.017771 -0.001115 -0.004878
# 5 -0.003419 -0.000730 -0.004125 -0.001115 0.022105 -0.001731
# 6 -0.005389 -0.007451 0.002684 -0.004878 -0.001731 0.034349
#
#
# Mechanical properties :
#
#
# Convention : Reuss Voigt Hill
#
# Bulk Modulus (GPa) = 40.68717 65.53336 53.11026
# Shear Modulus (GPa) = 37.58470 47.43502 42.50986
#
# Velocity S-wave (km/s) = 3.78752 4.25499 4.02804
# Velocity P-wave (km/s) = 5.88697 7.01089 6.47337
#
# Compressibility (1/GPa) = 0.02457777
#
# Stress axis : x y z
#
# Youngs Moduli (GPa) = 72.30217 63.31468 125.45009
#
# Poissons Ratio (x) = 0.05268 0.36533
# Poissons Ratio (y) = 0.06016 0.34688
# Poissons Ratio (z) = 0.21055 0.17507
#
# Static dielectric constant tensor:
#      x y z
#    x 2.041860 -0.225340 -0.285020 
#    y -0.225340 2.002260 -0.087720 
#    z -0.285020 -0.087720 1.642620 
# 
# From -- ./inp_files/525241.got.cif
#   From: 2010.05.17/outbox.cif.g08.bks.cpg/sg2_263_cif.got.tgz:525241.got - 2010.06.03 11:33:40.
