data_PCOD9041646
_publ_section_title
;
Structure prediction by ZEFSAII (Michael W. Deem and Ramdas Pophale) SiO2 
 PCOD9041646
Probable space group: P -1
;
_chemical_formula_sum "Si O2"
_cell_formula_units_Z 14
_cell_length_a 10.029971
_cell_length_b 11.359902
_cell_length_c 9.462175
_cell_angle_alpha 63.805296
_cell_angle_beta 134.503413
_cell_angle_gamma 120.163640
_cell_volume 657.809868
_symmetry_space_group_name_H-M "P -1"
_symmetry_group_IT_number 2
_symmetry_cell_setting 'triclinic'
loop_
_space_group_symop_operation_xyz
x,y,z
-x,-y,-z
loop_
_atom_site_type_symbol
_atom_site_label
_atom_site_fract_x
_atom_site_fract_y
_atom_site_fract_z
Si Si1 0.879870 0.414087 0.587537
Si Si2 0.544863 0.314340 0.743606
Si Si3 0.452209 0.107488 0.017077
Si Si4 0.006979 0.993452 0.840201
Si Si5 0.660049 0.113360 0.465829
Si Si6 0.943987 0.293198 0.978574
Si Si7 0.772354 0.592972 0.644166
O O1 0.731917 0.268653 0.500561
O O2 0.001176 0.369989 0.830364
O O3 0.783050 0.515301 0.546643
O O4 0.000000 0.500000 0.500000
O O5 0.706684 0.253952 0.823237
O O6 0.641618 0.477703 0.714462
O O7 0.335805 0.292342 0.524267
O O8 0.513317 0.253176 0.906895
O O9 0.569383 0.113783 0.244549
O O10 0.500000 0.000000 0.000000
O O11 0.222761 0.064899 0.903331
O O12 0.850519 0.060935 0.627423
O O13 0.970582 0.832694 0.876259
O O14 0.000000 0.000000 0.000000
O O15 0.500000 0.000000 0.500000
O O16 0.019404 0.367161 0.143962
#
# Coordination Sequence:
#
# PCOD9041646 Si02
#       7
#     2   2   2   2   2   2   2
#     4  11  25  43  70 108 144 181 241 296 356 430
#     4  10  23  44  66 102 134 173 245 285 347 411
#     4  12  27  45  74 105 141 182 248 297 342 435
#     4  12  25  47  71 108 141 188 236 297 364 425
#     4  12  28  48  74 104 150 195 231 298 373 422
#     4  11  23  45  74  96 141 187 236 292 355 424
#     4  10  25  44  73  94 141 191 229 291 357 421
#
# _framework density 21.282745999999999
#
# number of rings (size 3 to 8) (size 9 to 14) (size 15 to 20)
#    0.000    0.857    4.286    1.714   10.000    1.714 
#    0.000    0.714    0.000    0.000    0.000    0.000 
#    0.000    0.000    0.000    0.000    0.000    0.000 
#
# Total GULP energy -78109.555084 kJ/mol
# GULP energy per Si atom -5579.253935 kJ/mol
# Density = 2.123431 g / cm^3
# Si number density = 21.282746 Si / 1000 Ang^3
#
#
#
# Elastic Constant Matrix: (Units=GPa)
#
#
# Indices 1 2 3 4 5 6 
#
# 1 142.5304 55.9038 80.1516 -2.4307 -5.8141 15.2532
# 2 55.9038 83.8492 54.4422 -2.2936 -17.0896 1.7550
# 3 80.1516 54.4422 178.6441 -10.1520 -7.3639 2.8445
# 4 -2.4307 -2.2936 -10.1520 32.2530 1.9184 -12.7800
# 5 -5.8141 -17.0896 -7.3639 1.9184 44.8120 -11.2316
# 6 15.2532 1.7550 2.8445 -12.7800 -11.2316 39.4452
#
#
#
# Elastic Compliance Matrix: (Units=1/GPa)
#
#
# Indices 1 2 3 4 5 6 
#
# 1 0.011922 -0.006064 -0.003680 -0.002810 -0.002692 -0.005752
# 2 -0.006064 0.019192 -0.002834 0.001220 0.007041 0.004096
# 3 -0.003680 -0.002834 0.008251 0.002874 0.000159 0.001930
# 4 -0.002810 0.001220 0.002874 0.036986 0.002369 0.013483
# 5 -0.002692 0.007041 0.000159 0.002369 0.026865 0.009133
# 6 -0.005752 0.004096 0.001930 0.013483 0.009133 0.034223
#
#
# Mechanical properties :
#
#
# Convention : Reuss Voigt Hill
#
# Bulk Modulus (GPa) = 70.37522 87.33544 78.85533
# Shear Modulus (GPa) = 29.88075 37.60376 33.74226
#
# Velocity S-wave (km/s) = 3.75105 4.20797 3.98606
# Velocity P-wave (km/s) = 7.20410 8.04576 7.63653
#
# Compressibility (1/GPa) = 0.01420955
#
# Stress axis : x y z
#
# Youngs Moduli (GPa) = 83.87980 52.10546 121.19151
#
# Poissons Ratio (x) = 0.31599 0.44597
# Poissons Ratio (y) = 0.50868 0.34340
# Poissons Ratio (z) = 0.30867 0.14764
#
# Static dielectric constant tensor:
#      x y z
#    x 1.779380 -0.007410 0.036400 
#    y -0.007410 1.854890 0.039410 
#    z 0.036400 0.039410 1.789730 
# 
# From -- ./inp_files/186231.got.cif
#   From: 2010.05.17/outbox.cif.g08.bks.cpg/sg2_94_cif.got.tgz:186231.got - 2010.06.03 11:33:40.
