data_PCOD9041769
_publ_section_title
;
Structure prediction by ZEFSAII (Michael W. Deem and Ramdas Pophale) SiO2 
 PCOD9041769
Probable space group: P -1
;
_chemical_formula_sum "Si O2"
_cell_formula_units_Z 16
_cell_length_a 8.155277
_cell_length_b 6.673095
_cell_length_c 16.252441
_cell_angle_alpha 99.575229
_cell_angle_beta 66.194794
_cell_angle_gamma 117.777426
_cell_volume 715.714660
_symmetry_space_group_name_H-M "P -1"
_symmetry_group_IT_number 2
_symmetry_cell_setting 'triclinic'
loop_
_space_group_symop_operation_xyz
x,y,z
-x,-y,-z
loop_
_atom_site_type_symbol
_atom_site_label
_atom_site_fract_x
_atom_site_fract_y
_atom_site_fract_z
Si Si1 0.127046 0.693198 0.237178
Si Si2 0.256967 0.749027 0.738403
Si Si3 0.137413 0.473645 0.398384
Si Si4 0.453093 0.466255 0.602875
Si Si5 0.543187 0.226010 0.958598
Si Si6 0.140490 0.377310 0.980838
Si Si7 0.065628 0.996240 0.677049
Si Si8 0.207245 0.028629 0.891719
O O1 0.137688 0.609859 0.323450
O O2 0.307235 0.716640 0.144723
O O3 0.930206 0.491234 0.224205
O O4 0.099068 0.921991 0.256626
O O5 0.412803 0.674457 0.659528
O O6 0.332176 0.920906 0.810973
O O7 0.160305 0.882951 0.713643
O O8 0.363586 0.548647 0.387944
O O9 0.000000 0.500000 0.500000
O O10 0.037551 0.204883 0.381066
O O11 0.500000 0.500000 0.500000
O O12 0.251872 0.231555 0.631465
O O13 0.651740 0.430513 0.013852
O O14 0.330195 0.154741 0.955734
O O15 0.500000 0.000000 0.000000
O O16 0.998841 0.184642 0.060592
O O17 0.000000 0.500000 0.000000
O O18 0.163505 0.238280 0.886904
#
# Coordination Sequence:
#
# PCOD9041769 Si02
#       8
#     2   2   2   2   2   2   2   2
#     4  10  24  45  68 102 141 179 234 289 343 422
#     4  10  23  44  67 102 137 181 237 287 345 415
#     4  11  25  46  72 104 138 180 233 289 349 418
#     4  11  25  44  70 103 141 182 230 284 348 431
#     4  12  25  45  69 100 140 183 230 285 348 417
#     4  11  24  46  66  96 133 180 233 284 344 419
#     4  10  24  44  69  98 141 184 220 291 349 406
#     4  11  25  42  70  96 133 182 226 296 347 399
#
# _framework density 22.355277000000001
#
# number of rings (size 3 to 8) (size 9 to 14) (size 15 to 20)
#    0.000    1.250    2.500    2.625    5.250    4.000 
#    4.500    0.000    0.000    0.000    0.000    0.000 
#    0.000    0.000    0.000    0.000    0.000    0.000 
#
# Total GULP energy -89234.518323 kJ/mol
# GULP energy per Si atom -5577.157395 kJ/mol
# Density = 2.230440 g / cm^3
# Si number density = 22.355277 Si / 1000 Ang^3
#
#
#
# Elastic Constant Matrix: (Units=GPa)
#
#
# Indices 1 2 3 4 5 6 
#
# 1 79.7895 14.5362 17.2080 9.1294 -2.3971 0.3728
# 2 14.5362 126.6063 47.0388 32.5332 3.5507 -5.7805
# 3 17.2080 47.0388 92.9542 20.8415 -13.6214 -12.4544
# 4 9.1294 32.5332 20.8415 46.4888 -5.6815 -1.4235
# 5 -2.3971 3.5507 -13.6214 -5.6815 32.3675 5.6224
# 6 0.3728 -5.7805 -12.4544 -1.4235 5.6224 43.3500
#
#
#
# Elastic Compliance Matrix: (Units=1/GPa)
#
#
# Indices 1 2 3 4 5 6 
#
# 1 0.013213 -0.000455 -0.001999 -0.001395 0.000082 -0.000805
# 2 -0.000455 0.011571 -0.004956 -0.006332 -0.004589 0.000510
# 3 -0.001999 -0.004956 0.015404 -0.002225 0.005978 0.002933
# 4 -0.001395 -0.006332 -0.002225 0.027755 0.004731 -0.001174
# 5 0.000082 -0.004589 0.005978 0.004731 0.035328 -0.003322
# 6 -0.000805 0.000510 0.002933 -0.001174 -0.003322 0.024378
#
#
# Mechanical properties :
#
#
# Convention : Reuss Voigt Hill
#
# Bulk Modulus (GPa) = 39.41904 50.76845 45.09374
# Shear Modulus (GPa) = 33.12954 39.14576 36.13765
#
# Velocity S-wave (km/s) = 3.85379 4.18912 4.02495
# Velocity P-wave (km/s) = 6.12157 6.79393 6.46649
#
# Compressibility (1/GPa) = 0.02536845
#
# Stress axis : x y z
#
# Youngs Moduli (GPa) = 75.68439 86.42398 64.92010
#
# Poissons Ratio (x) = 0.03933 0.12976
# Poissons Ratio (y) = 0.03444 0.32171
# Poissons Ratio (z) = 0.15128 0.42828
#
# Static dielectric constant tensor:
#      x y z
#    x 3.348710 -0.701820 -0.839630 
#    y -0.701820 2.124030 0.442430 
#    z -0.839630 0.442430 2.434570 
# 
# From -- ./inp_files/53326.got.cif
#   From: 2010.05.17/outbox.cif.g08.bks.cpg/sg2_27_cif.got.tgz:53326.got - 2010.06.03 11:33:40.
