data_PCOD9041322
_publ_section_title
;
Structure prediction by ZEFSAII (Michael W. Deem and Ramdas Pophale) SiO2 
 PCOD9041322
Probable space group: P -1
;
_chemical_formula_sum "Si O2"
_cell_formula_units_Z 16
_cell_length_a 7.991106
_cell_length_b 9.830911
_cell_length_c 15.406958
_cell_angle_alpha 33.375863
_cell_angle_beta 79.275629
_cell_angle_gamma 89.919412
_cell_volume 627.117528
_symmetry_space_group_name_H-M "P -1"
_symmetry_group_IT_number 2
_symmetry_cell_setting 'triclinic'
loop_
_space_group_symop_operation_xyz
x,y,z
-x,-y,-z
loop_
_atom_site_type_symbol
_atom_site_label
_atom_site_fract_x
_atom_site_fract_y
_atom_site_fract_z
Si Si1 0.725613 0.931753 0.353411
Si Si2 0.859327 0.290056 0.752430
Si Si3 0.626169 0.314628 0.966845
Si Si4 0.030383 0.873286 0.474102
Si Si5 0.487672 0.581680 0.255565
Si Si6 0.203121 0.501200 0.976623
Si Si7 0.816035 0.912801 0.152654
Si Si8 0.268853 0.989653 0.243412
O O1 0.591463 0.688029 0.543146
O O2 0.756927 0.867357 0.284345
O O3 0.911505 0.968671 0.365027
O O4 0.693222 0.212222 0.218677
O O5 0.647516 0.240252 0.814030
O O6 0.949270 0.566280 0.639358
O O7 0.987396 0.116983 0.857133
O O8 0.843365 0.261055 0.664230
O O9 0.537393 0.443740 0.832178
O O10 0.713935 0.508414 0.930940
O O11 0.475370 0.081521 0.150610
O O12 0.782064 0.189271 0.990413
O O13 0.223154 0.939983 0.375336
O O14 0.000000 0.000000 0.500000
O O15 0.677839 0.718466 0.205426
O O16 0.213049 0.234230 0.078711
O O17 0.000000 0.500000 0.000000
#
# Coordination Sequence:
#
# PCOD9041322 Si02
#       8
#     2   2   2   2   2   2   2   2
#     4  10  23  43  73 101 147 201 243 306 379 442
#     4  11  25  44  78 111 144 203 252 302 385 445
#     4  11  26  46  70 112 154 198 249 320 377 444
#     4  11  25  46  75 114 155 194 250 317 377 450
#     4  11  25  45  71 108 161 184 258 316 370 437
#     4  11  23  45  71 102 147 199 255 297 376 458
#     4  11  22  45  74 113 147 201 254 310 379 449
#     4  12  23  46  76 105 149 202 249 306 383 448
#
# _framework density 25.513556999999999
#
# number of rings (size 3 to 8) (size 9 to 14) (size 15 to 20)
#    0.000    1.000    3.750    2.250    5.250    2.500 
#    4.500    0.625    0.000    0.000    0.000    0.000 
#    0.000    0.000    0.000    0.000    0.000    0.000 
#
# Total GULP energy -89349.419973 kJ/mol
# GULP energy per Si atom -5584.338748 kJ/mol
# Density = 2.545549 g / cm^3
# Si number density = 25.513557 Si / 1000 Ang^3
#
#
#
# Elastic Constant Matrix: (Units=GPa)
#
#
# Indices 1 2 3 4 5 6 
#
# 1 136.5341 48.1273 29.0828 1.7540 -3.0895 2.5772
# 2 48.1273 130.1708 52.0048 3.5423 -0.4107 23.5102
# 3 29.0828 52.0048 125.5135 8.5584 -8.7590 7.7811
# 4 1.7540 3.5423 8.5584 41.4940 3.9042 6.5331
# 5 -3.0895 -0.4107 -8.7590 3.9042 38.0226 3.1895
# 6 2.5772 23.5102 7.7811 6.5331 3.1895 53.7428
#
#
#
# Elastic Compliance Matrix: (Units=1/GPa)
#
#
# Indices 1 2 3 4 5 6 
#
# 1 0.008547 -0.003042 -0.000744 -0.000149 0.000420 0.001022
# 2 -0.003042 0.011018 -0.003696 0.000674 -0.000698 -0.004179
# 3 -0.000744 -0.003696 0.009952 -0.001978 0.002369 0.000311
# 4 -0.000149 0.000674 -0.001978 0.025176 -0.002803 -0.002896
# 5 0.000420 -0.000698 0.002369 -0.002803 0.027272 -0.001336
# 6 0.001022 -0.004179 0.000311 -0.002896 -0.001336 0.020773
#
#
# Mechanical properties :
#
#
# Convention : Reuss Voigt Hill
#
# Bulk Modulus (GPa) = 68.71364 72.29422 70.50393
# Shear Modulus (GPa) = 40.79903 44.18546 42.49225
#
# Velocity S-wave (km/s) = 4.00323 4.16606 4.08545
# Velocity P-wave (km/s) = 6.95402 7.17903 7.06742
#
# Compressibility (1/GPa) = 0.01455315
#
# Stress axis : x y z
#
# Youngs Moduli (GPa) = 116.99951 90.76306 100.48423
#
# Poissons Ratio (x) = 0.27610 0.07475
# Poissons Ratio (y) = 0.35591 0.37137
# Poissons Ratio (z) = 0.08704 0.33544
#
# Static dielectric constant tensor:
#      x y z
#    x 2.036830 -0.065830 -0.013140 
#    y -0.065830 2.177230 0.083610 
#    z -0.013140 0.083610 2.077080 
# 
# From -- ./inp_files/494260.got.cif
#   From: 2010.05.17/outbox.cif.g08.bks.cpg/sg2_248_cif.got.tgz:494260.got - 2010.06.03 11:33:40.
