data_PCOD9041238
_publ_section_title
;
Structure prediction by ZEFSAII (Michael W. Deem and Ramdas Pophale) SiO2 
 PCOD9041238
Probable space group: P -1
;
_chemical_formula_sum "Si O2"
_cell_formula_units_Z 14
_cell_length_a 20.832270
_cell_length_b 16.281248
_cell_length_c 9.410502
_cell_angle_alpha 31.090454
_cell_angle_beta 28.791552
_cell_angle_gamma 29.235566
_cell_volume 691.519205
_symmetry_space_group_name_H-M "P -1"
_symmetry_group_IT_number 2
_symmetry_cell_setting 'triclinic'
loop_
_space_group_symop_operation_xyz
x,y,z
-x,-y,-z
loop_
_atom_site_type_symbol
_atom_site_label
_atom_site_fract_x
_atom_site_fract_y
_atom_site_fract_z
Si Si1 0.922598 0.143008 0.314405
Si Si2 0.625631 0.994691 0.656069
Si Si3 0.861605 0.696370 0.434234
Si Si4 0.422489 0.555962 0.409469
Si Si5 0.431743 0.374529 0.376248
Si Si6 0.704488 0.547566 0.752521
Si Si7 0.159500 0.879602 0.795044
O O1 0.758010 0.309458 0.430458
O O2 0.873013 0.073424 0.376043
O O3 0.000000 0.000000 0.500000
O O4 0.049693 0.195825 0.941001
O O5 0.737961 0.807728 0.632609
O O6 0.536886 0.158602 0.472806
O O7 0.727624 0.057544 0.453996
O O8 0.500000 0.000000 0.000000
O O9 0.777260 0.653132 0.535154
O O10 0.000000 0.500000 0.500000
O O11 0.500000 0.500000 0.500000
O O12 0.425971 0.408220 0.507543
O O13 0.527292 0.630677 0.022456
O O14 0.288663 0.439419 0.451083
O O15 0.500000 0.500000 0.000000
O O16 0.780155 0.335508 0.971890
O O17 0.000000 0.000000 0.000000
#
# Coordination Sequence:
#
# PCOD9041238 Si02
#       7
#     2   2   2   2   2   2   2
#     4  12  28  42  72 106 146 184 239 294 364 427
#     4  12  27  43  74 107 140 179 246 296 352 423
#     4  12  26  48  67 105 147 189 231 297 362 423
#     4  11  21  43  73  99 137 188 241 275 356 431
#     4  10  23  43  72 100 136 181 240 291 344 417
#     4  11  24  43  75  96 138 193 238 288 353 426
#     4  12  23  46  69  98 141 195 226 285 367 428
#
# _framework density 20.245280000000001
#
# number of rings (size 3 to 8) (size 9 to 14) (size 15 to 20)
#    0.000    0.571    7.143    0.000   12.000    1.714 
#    0.000    0.714    0.000    0.000    0.000    0.000 
#    0.000    0.000    0.000    0.000    0.000    0.000 
#
# Total GULP energy -78048.423220 kJ/mol
# GULP energy per Si atom -5574.887373 kJ/mol
# Density = 2.019920 g / cm^3
# Si number density = 20.245280 Si / 1000 Ang^3
#
#
#
# Elastic Constant Matrix: (Units=GPa)
#
#
# Indices 1 2 3 4 5 6 
#
# 1 174.3500 45.0963 19.3976 -6.7464 6.9305 0.3801
# 2 45.0963 134.5052 34.5447 19.6491 11.8998 -0.0767
# 3 19.3976 34.5447 73.2782 8.9823 -0.3998 -15.0900
# 4 -6.7464 19.6491 8.9823 31.6753 -8.9429 -3.9784
# 5 6.9305 11.8998 -0.3998 -8.9429 40.0433 -2.0316
# 6 0.3801 -0.0767 -15.0900 -3.9784 -2.0316 28.2935
#
#
#
# Elastic Compliance Matrix: (Units=1/GPa)
#
#
# Indices 1 2 3 4 5 6 
#
# 1 0.006600 -0.002457 -0.001022 0.003286 0.000304 -0.000157
# 2 -0.002457 0.010953 -0.004332 -0.007919 -0.004830 -0.003708
# 3 -0.001022 -0.004332 0.018067 -0.000895 0.001934 0.009651
# 4 0.003286 -0.007919 -0.000895 0.041400 0.011331 0.006092
# 5 0.000304 -0.004830 0.001934 0.011331 0.029144 0.004700
# 6 -0.000157 -0.003708 0.009651 0.006092 0.004700 0.041677
#
#
# Mechanical properties :
#
#
# Convention : Reuss Voigt Hill
#
# Bulk Modulus (GPa) = 50.00736 64.46784 57.23760
# Shear Modulus (GPa) = 29.38901 38.87541 34.13221
#
# Velocity S-wave (km/s) = 3.81418 4.38679 4.11047
# Velocity P-wave (km/s) = 6.64467 7.58756 7.13172
#
# Compressibility (1/GPa) = 0.01999706
#
# Stress axis : x y z
#
# Youngs Moduli (GPa) = 151.50702 91.29760 55.34883
#
# Poissons Ratio (x) = 0.22436 0.05657
# Poissons Ratio (y) = 0.37232 0.23979
# Poissons Ratio (z) = 0.15486 0.39553
#
# Static dielectric constant tensor:
#      x y z
#    x 1.723140 -0.030110 0.010840 
#    y -0.030110 1.715970 -0.000570 
#    z 0.010840 -0.000570 1.719890 
# 
# From -- ./inp_files/242819.got.cif
#   From: 2010.05.17/outbox.cif.g08.bks.cpg/sg2_122_cif.got.tgz:242819.got - 2010.06.03 11:33:40.
