data_PCOD9041394
_publ_section_title
;
Structure prediction by ZEFSAII (Michael W. Deem and Ramdas Pophale) SiO2 
 PCOD9041394
Probable space group: P -1
;
_chemical_formula_sum "Si O2"
_cell_formula_units_Z 13
_cell_length_a 9.793938
_cell_length_b 12.626744
_cell_length_c 6.390399
_cell_angle_alpha 83.773924
_cell_angle_beta 107.632946
_cell_angle_gamma 47.090540
_cell_volume 492.384187
_symmetry_space_group_name_H-M "P -1"
_symmetry_group_IT_number 2
_symmetry_cell_setting 'triclinic'
loop_
_space_group_symop_operation_xyz
x,y,z
-x,-y,-z
loop_
_atom_site_type_symbol
_atom_site_label
_atom_site_fract_x
_atom_site_fract_y
_atom_site_fract_z
Si Si1 0.500000 0.000000 0.000000
Si Si2 0.026716 0.089986 0.851147
Si Si3 0.945649 0.638922 0.330326
Si Si4 0.032543 0.794144 0.624048
Si Si5 0.380727 0.594875 0.169329
Si Si6 0.616128 0.613043 0.568315
Si Si7 0.379047 0.965954 0.316113
O O1 0.301510 0.200066 0.878283
O O2 0.484980 0.011673 0.715122
O O3 0.999826 0.097855 0.590480
O O4 0.825385 0.272898 0.796533
O O5 0.267031 0.006771 0.017441
O O6 0.000000 0.000000 0.000000
O O7 0.006688 0.700965 0.500610
O O8 0.000000 0.500000 0.500000
O O9 0.124100 0.532487 0.252475
O O10 0.842417 0.904830 0.684416
O O11 0.261385 0.669186 0.877448
O O12 0.539467 0.600994 0.314679
O O13 0.464725 0.429990 0.296855
O O14 0.513795 0.787281 0.485346
#
# Coordination Sequence:
#
# PCOD9041394 Si02
#       7
#     1   2   2   2   2   2   2
#     4  12  24  50  78  98 152 200 242 326 364 428
#     4  11  21  44  69 106 151 192 235 308 376 440
#     4  12  25  47  76 103 147 197 249 310 378 430
#     4  11  25  47  75 113 142 197 256 298 372 465
#     4  10  23  43  74 103 154 191 241 306 373 449
#     4  11  22  48  69 109 156 193 238 315 381 429
#     4  11  24  44  74 108 147 198 248 303 375 435
#
# _framework density 26.402145999999998
#
# number of rings (size 3 to 8) (size 9 to 14) (size 15 to 20)
#    0.000    0.923    6.154    0.923    0.000    3.692 
#    5.538    1.538    0.000    0.000    0.000    0.000 
#    0.000    0.000    0.000    0.000    0.000    0.000 
#
# Total GULP energy -72462.063876 kJ/mol
# GULP energy per Si atom -5574.004914 kJ/mol
# Density = 2.634205 g / cm^3
# Si number density = 26.402146 Si / 1000 Ang^3
#
#
#
# Elastic Constant Matrix: (Units=GPa)
#
#
# Indices 1 2 3 4 5 6 
#
# 1 60.5665 39.2168 24.0176 -20.1131 -10.4230 0.7475
# 2 39.2168 129.6967 26.7431 -41.9239 -25.2273 -7.5764
# 3 24.0176 26.7431 134.8599 -28.5504 -16.7942 -8.9529
# 4 -20.1131 -41.9239 -28.5504 55.9289 -6.6908 -2.7743
# 5 -10.4230 -25.2273 -16.7942 -6.6908 63.5337 -11.1783
# 6 0.7475 -7.5764 -8.9529 -2.7743 -11.1783 54.9792
#
#
#
# Elastic Compliance Matrix: (Units=1/GPa)
#
#
# Indices 1 2 3 4 5 6 
#
# 1 0.021840 -0.004967 -0.002153 0.003130 0.001208 -0.000929
# 2 -0.004967 0.013843 0.001467 0.010369 0.006890 0.004138
# 3 -0.002153 0.001467 0.009377 0.005707 0.003805 0.002820
# 4 0.003130 0.010369 0.005707 0.031245 0.010490 0.006025
# 5 0.001208 0.006890 0.003805 0.010490 0.021935 0.006542
# 6 -0.000929 0.004138 0.002820 0.006025 0.006542 0.020865
#
#
# Mechanical properties :
#
#
# Convention : Reuss Voigt Hill
#
# Bulk Modulus (GPa) = 29.62653 56.11978 42.87316
# Shear Modulus (GPa) = 35.29505 50.56473 42.92989
#
# Velocity S-wave (km/s) = 3.66023 4.38102 4.03674
# Velocity P-wave (km/s) = 5.39524 6.84785 6.16448
#
# Compressibility (1/GPa) = 0.03375353
#
# Stress axis : x y z
#
# Youngs Moduli (GPa) = 45.78834 72.23665 106.64417
#
# Poissons Ratio (x) = 0.35883 0.22962
# Poissons Ratio (y) = 0.22745 -0.15649
# Poissons Ratio (z) = 0.09859 -0.10600
#
# Static dielectric constant tensor:
#      x y z
#    x 1.592920 0.056490 0.048320 
#    y 0.056490 2.136320 0.180570 
#    z 0.048320 0.180570 2.311460 
# 
# From -- ./inp_files/75981.got.cif
#   From: 2010.05.17/outbox.cif.g08.bks.cpg/sg2_38_cif.got.tgz:75981.got - 2010.06.03 11:33:40.
