data_PCOD9041823
_publ_section_title
;
Structure prediction by ZEFSAII (Michael W. Deem and Ramdas Pophale) SiO2 
 PCOD9041823
Probable space group: P -1
;
_chemical_formula_sum "Si O2"
_cell_formula_units_Z 14
_cell_length_a 17.944371
_cell_length_b 11.317604
_cell_length_c 7.175004
_cell_angle_alpha 94.096884
_cell_angle_beta 94.994427
_cell_angle_gamma 151.280171
_cell_volume 663.466230
_symmetry_space_group_name_H-M "P -1"
_symmetry_group_IT_number 2
_symmetry_cell_setting 'triclinic'
loop_
_space_group_symop_operation_xyz
x,y,z
-x,-y,-z
loop_
_atom_site_type_symbol
_atom_site_label
_atom_site_fract_x
_atom_site_fract_y
_atom_site_fract_z
Si Si1 0.933958 0.527382 0.398048
Si Si2 0.119826 0.881702 0.175420
Si Si3 0.528972 0.523257 0.727264
Si Si4 0.437620 0.606275 0.971715
Si Si5 0.135784 0.293627 0.042426
Si Si6 0.691586 0.285319 0.625411
Si Si7 0.747069 0.175604 0.954320
O O1 0.813029 0.423548 0.499157
O O2 0.000000 0.500000 0.500000
O O3 0.085410 0.816756 0.381263
O O4 0.833397 0.351381 0.172353
O O5 0.152000 0.796795 0.090193
O O6 0.968668 0.740480 0.045904
O O7 0.278737 0.177966 0.183106
O O8 0.500000 0.500000 0.500000
O O9 0.431813 0.485283 0.819337
O O10 0.504245 0.364752 0.811440
O O11 0.266551 0.430161 0.938354
O O12 0.571468 0.881758 0.948989
O O13 0.248608 0.502168 0.260184
O O14 0.000000 0.000000 0.000000
O O15 0.723430 0.234068 0.789144
O O16 0.500000 0.000000 0.500000
#
# Coordination Sequence:
#
# PCOD9041823 Si02
#       7
#     2   2   2   2   2   2   2
#     4  12  24  42  73 104 132 181 238 296 356 411
#     4  11  23  44  69 100 139 182 231 294 353 413
#     4  10  23  44  67  95 134 181 237 281 336 433
#     4  10  24  42  68  95 133 188 225 278 361 410
#     4  12  25  47  69 102 149 186 228 296 359 412
#     4  12  28  46  72 106 143 188 242 291 354 428
#     4  11  24  46  71  99 143 183 239 298 350 420
#
# _framework density 21.101302
#
# number of rings (size 3 to 8) (size 9 to 14) (size 15 to 20)
#    0.000    0.857    4.286    2.143    4.000    4.571 
#    0.000    1.429    0.000    0.000    0.000    0.000 
#    0.000    0.000    0.000    0.000    0.000    0.000 
#
# Total GULP energy -78202.459544 kJ/mol
# GULP energy per Si atom -5585.889967 kJ/mol
# Density = 2.105327 g / cm^3
# Si number density = 21.101302 Si / 1000 Ang^3
#
#
#
# Elastic Constant Matrix: (Units=GPa)
#
#
# Indices 1 2 3 4 5 6 
#
# 1 111.9460 67.8997 48.5868 0.9805 -11.9117 27.6502
# 2 67.8997 125.1906 28.6073 -23.6635 -18.2243 10.1044
# 3 48.5868 28.6073 115.9187 -11.8375 -6.5722 5.2433
# 4 0.9805 -23.6635 -11.8375 39.5283 8.5887 0.0076
# 5 -11.9117 -18.2243 -6.5722 8.5887 30.3224 -13.1647
# 6 27.6502 10.1044 5.2433 0.0076 -13.1647 43.0086
#
#
#
# Elastic Compliance Matrix: (Units=1/GPa)
#
#
# Indices 1 2 3 4 5 6 
#
# 1 0.020874 -0.010862 -0.006572 -0.008561 -0.001958 -0.010665
# 2 -0.010862 0.015532 0.001709 0.009016 0.004891 0.004622
# 3 -0.006572 0.001709 0.011334 0.004400 0.000825 0.002693
# 4 -0.008561 0.009016 0.004400 0.033543 -0.006063 0.000988
# 5 -0.001958 0.004891 0.000825 -0.006063 0.042728 0.013089
# 6 -0.010665 0.004622 0.002693 0.000988 0.013089 0.032700
#
#
# Mechanical properties :
#
#
# Convention : Reuss Voigt Hill
#
# Bulk Modulus (GPa) = 61.38859 71.47144 66.43001
# Shear Modulus (GPa) = 25.82766 36.43597 31.13182
#
# Velocity S-wave (km/s) = 3.50234 4.15989 3.84520
# Velocity P-wave (km/s) = 6.74616 7.55096 7.15988
#
# Compressibility (1/GPa) = 0.01628967
#
# Stress axis : x y z
#
# Youngs Moduli (GPa) = 47.90571 64.38341 88.23199
#
# Poissons Ratio (x) = 0.69936 0.57982
# Poissons Ratio (y) = 0.52037 -0.15077
# Poissons Ratio (z) = 0.31481 -0.11002
#
# Static dielectric constant tensor:
#      x y z
#    x 1.752490 -0.032760 0.004090 
#    y -0.032760 1.838880 0.005620 
#    z 0.004090 0.005620 1.768040 
# 
# From -- ./inp_files/109690.got.cif
#   From: 2010.05.17/outbox.cif.g08.bks.cpg/sg2_55_cif.got.tgz:109690.got - 2010.06.03 11:33:40.
