data_PCOD9041876
_publ_section_title
;
Structure prediction by ZEFSAII (Michael W. Deem and Ramdas Pophale) SiO2 
 PCOD9041876
Probable space group: P -1
;
_chemical_formula_sum "Si O2"
_cell_formula_units_Z 13
_cell_length_a 15.152381
_cell_length_b 9.281787
_cell_length_c 9.928648
_cell_angle_alpha 37.661449
_cell_angle_beta 138.659826
_cell_angle_gamma 132.801507
_cell_volume 550.877398
_symmetry_space_group_name_H-M "P -1"
_symmetry_group_IT_number 2
_symmetry_cell_setting 'triclinic'
loop_
_space_group_symop_operation_xyz
x,y,z
-x,-y,-z
loop_
_atom_site_type_symbol
_atom_site_label
_atom_site_fract_x
_atom_site_fract_y
_atom_site_fract_z
Si Si1 0.396490 0.792330 0.616668
Si Si2 0.735439 0.921747 0.560250
Si Si3 0.003298 0.221181 0.938641
Si Si4 0.069464 0.737511 0.650852
Si Si5 0.500000 0.500000 0.500000
Si Si6 0.849667 0.072662 0.127281
Si Si7 0.417943 0.320011 0.845116
O O1 0.362852 0.551416 0.667228
O O2 0.500000 0.000000 0.500000
O O3 0.279092 0.920760 0.441256
O O4 0.464521 0.716006 0.888958
O O5 0.595684 0.740732 0.500609
O O6 0.794337 0.109106 0.372616
O O7 0.852778 0.770222 0.825519
O O8 0.020110 0.487061 0.704210
O O9 0.000000 0.000000 0.000000
O O10 0.879949 0.175597 0.937308
O O11 0.950574 0.886474 0.394924
O O12 0.104071 0.722691 0.859051
O O13 0.464297 0.377313 0.703093
O O14 0.699145 0.921590 0.095020
#
# Coordination Sequence:
#
# PCOD9041876 Si02
#       7
#     2   2   2   2   1   2   2
#     4  11  26  45  66 102 143 190 230 291 354 427
#     4  11  26  44  67 102 141 181 243 288 355 428
#     4  11  27  42  69 101 138 189 235 293 353 421
#     4  10  23  45  68  98 137 179 231 297 349 415
#     4  12  24  48  70 112 138 186 238 294 360 422
#     4  10  23  44  68 100 132 182 231 290 354 417
#     4  11  26  44  73 101 141 183 239 292 354 423
#
# _framework density 23.598718000000002
#
# number of rings (size 3 to 8) (size 9 to 14) (size 15 to 20)
#    0.000    1.231    3.077    0.462    8.615    3.077 
#    0.000    0.000    0.000    0.000    0.000    0.000 
#    0.000    0.000    0.000    0.000    0.000    0.000 
#
# Total GULP energy -72454.228480 kJ/mol
# GULP energy per Si atom -5573.402191 kJ/mol
# Density = 2.354501 g / cm^3
# Si number density = 23.598718 Si / 1000 Ang^3
#
#
#
# Elastic Constant Matrix: (Units=GPa)
#
#
# Indices 1 2 3 4 5 6 
#
# 1 89.3344 3.6401 36.3108 1.5178 -14.6335 3.2361
# 2 3.6401 101.8772 20.0672 -17.8323 5.0355 -6.7862
# 3 36.3108 20.0672 49.5868 -4.6966 -5.2387 -10.6469
# 4 1.5178 -17.8323 -4.6966 30.4992 -8.9307 -7.5783
# 5 -14.6335 5.0355 -5.2387 -8.9307 28.2549 -7.2103
# 6 3.2361 -6.7862 -10.6469 -7.5783 -7.2103 37.5273
#
#
#
# Elastic Compliance Matrix: (Units=1/GPa)
#
#
# Indices 1 2 3 4 5 6 
#
# 1 0.017991 0.001247 -0.014544 -0.002405 0.004336 -0.005105
# 2 0.001247 0.012019 -0.004594 0.006938 0.000417 0.002244
# 3 -0.014544 -0.004594 0.037316 0.009288 0.006760 0.014185
# 4 -0.002405 0.006938 0.009288 0.048296 0.018970 0.017495
# 5 0.004336 0.000417 0.006760 0.018970 0.048586 0.014785
# 6 -0.005105 0.002244 0.014185 0.017495 0.014785 0.037891
#
#
# Mechanical properties :
#
#
# Convention : Reuss Voigt Hill
#
# Bulk Modulus (GPa) = 31.70328 40.09273 35.89800
# Shear Modulus (GPa) = 20.12912 31.30831 25.71871
#
# Velocity S-wave (km/s) = 2.92374 3.64633 3.30485
# Velocity P-wave (km/s) = 4.98610 5.89525 5.45963
#
# Compressibility (1/GPa) = 0.03154248
#
# Stress axis : x y z
#
# Youngs Moduli (GPa) = 55.58375 83.19958 26.79822
#
# Poissons Ratio (x) = -0.10373 0.38977
# Poissons Ratio (y) = -0.06930 0.12311
# Poissons Ratio (z) = 0.80844 0.38223
#
# Static dielectric constant tensor:
#      x y z
#    x 1.888690 0.003870 0.015720 
#    y 0.003870 1.817780 0.028180 
#    z 0.015720 0.028180 1.927530 
# 
# From -- ./inp_files/23861.got.cif
#   From: 2010.05.17/outbox.cif.g08.bks.cpg/sg2_12_cif.got.tgz:23861.got - 2010.06.03 11:33:40.
