data_PCOD9041184
_publ_section_title
;
Structure prediction by ZEFSAII (Michael W. Deem and Ramdas Pophale) SiO2 
 PCOD9041184
Probable space group: P -1
;
_chemical_formula_sum "Si O2"
_cell_formula_units_Z 14
_cell_length_a 10.510316
_cell_length_b 12.250702
_cell_length_c 5.333279
_cell_angle_alpha 77.906280
_cell_angle_beta 76.259602
_cell_angle_gamma 59.651838
_cell_volume 572.357921
_symmetry_space_group_name_H-M "P -1"
_symmetry_group_IT_number 2
_symmetry_cell_setting 'triclinic'
loop_
_space_group_symop_operation_xyz
x,y,z
-x,-y,-z
loop_
_atom_site_type_symbol
_atom_site_label
_atom_site_fract_x
_atom_site_fract_y
_atom_site_fract_z
Si Si1 0.458242 0.582624 0.721854
Si Si2 0.627624 0.900143 0.238254
Si Si3 0.063351 0.244274 0.071521
Si Si4 0.923805 0.389355 0.584270
Si Si5 0.438168 0.845499 0.002660
Si Si6 0.679340 0.676778 0.646679
Si Si7 0.190614 0.768015 0.027145
O O1 0.500000 0.500000 0.500000
O O2 0.544075 0.662796 0.595970
O O3 0.286865 0.678735 0.797855
O O4 0.500000 0.500000 0.000000
O O5 0.690750 0.795250 0.475498
O O6 0.592236 0.043309 0.239092
O O7 0.761839 0.848268 0.994667
O O8 0.480668 0.900395 0.197635
O O9 0.010741 0.323120 0.318568
O O10 0.974512 0.167383 0.054849
O O11 0.017492 0.346990 0.819331
O O12 0.822061 0.541264 0.588759
O O13 0.820261 0.322657 0.712253
O O14 0.597844 0.718204 0.936490
O O15 0.294072 0.824754 0.060512
#
# Coordination Sequence:
#
# PCOD9041184 Si02
#       7
#     2   2   2   2   2   2   2
#     4  11  21  35  63 100 134 168 213 272 336 399
#     4  11  26  44  68  93 142 184 234 271 339 401
#     4  10  24  45  70 102 139 177 223 281 343 410
#     4  10  23  43  71 108 135 172 225 281 354 400
#     4  10  25  46  65 101 129 187 234 280 330 400
#     4  11  24  39  70  96 142 173 224 282 342 409
#     4   9  22  40  68 100 136 169 231 280 340 395
#
# _framework density 24.460221000000001
#
# number of rings (size 3 to 8) (size 9 to 14) (size 15 to 20)
#    0.857    0.857    1.429    1.286    8.000    2.857 
#    0.000    0.714    0.000    0.000    0.000    0.000 
#    0.000    0.000    0.000    0.000    0.000    0.000 
#
# Total GULP energy -77940.687878 kJ/mol
# GULP energy per Si atom -5567.191991 kJ/mol
# Density = 2.440455 g / cm^3
# Si number density = 24.460221 Si / 1000 Ang^3
#
#
#
# Elastic Constant Matrix: (Units=GPa)
#
#
# Indices 1 2 3 4 5 6 
#
# 1 130.8012 41.9534 42.0660 6.5381 1.9884 10.5919
# 2 41.9534 108.4266 53.3230 0.5634 -14.9073 -0.9987
# 3 42.0660 53.3230 125.6105 17.6718 -0.3069 -9.6130
# 4 6.5381 0.5634 17.6718 39.5793 -1.8900 -7.3103
# 5 1.9884 -14.9073 -0.3069 -1.8900 25.4289 3.0162
# 6 10.5919 -0.9987 -9.6130 -7.3103 3.0162 43.0493
#
#
#
# Elastic Compliance Matrix: (Units=1/GPa)
#
#
# Indices 1 2 3 4 5 6 
#
# 1 0.009605 -0.003104 -0.001942 -0.001328 -0.002345 -0.002930
# 2 -0.003104 0.014309 -0.005470 0.003134 0.008823 -0.000212
# 3 -0.001942 -0.005470 0.011755 -0.004567 -0.003543 0.002449
# 4 -0.001328 0.003134 -0.004567 0.028378 0.003526 0.003952
# 5 -0.002345 0.008823 -0.003543 0.003526 0.045206 -0.002578
# 6 -0.002930 -0.000212 0.002449 0.003952 -0.002578 0.025344
#
#
# Mechanical properties :
#
#
# Convention : Reuss Voigt Hill
#
# Bulk Modulus (GPa) = 68.32414 71.05812 69.69113
# Shear Modulus (GPa) = 31.15128 36.77789 33.96458
#
# Velocity S-wave (km/s) = 3.57255 3.88181 3.73039
# Velocity P-wave (km/s) = 6.70902 7.01461 6.86352
#
# Compressibility (1/GPa) = 0.01463611
#
# Stress axis : x y z
#
# Youngs Moduli (GPa) = 104.11709 69.88674 85.07076
#
# Poissons Ratio (x) = 0.21691 0.16521
# Poissons Ratio (y) = 0.32316 0.46537
# Poissons Ratio (z) = 0.20219 0.38231
#
# Static dielectric constant tensor:
#      x y z
#    x 2.070140 0.142050 0.100570 
#    y 0.142050 2.100620 -0.039760 
#    z 0.100570 -0.039760 1.803380 
# 
# From -- ./inp_files/66144.got.cif
#   From: 2010.05.17/outbox.cif.g08.bks.cpg/sg2_34_cif.got.tgz:66144.got - 2010.06.03 11:33:40.
