data_PCOD9041834
_publ_section_title
;
Structure prediction by ZEFSAII (Michael W. Deem and Ramdas Pophale) SiO2 
 PCOD9041834
Probable space group: P -1
;
_chemical_formula_sum "Si O2"
_cell_formula_units_Z 14
_cell_length_a 10.666339
_cell_length_b 11.533578
_cell_length_c 10.624214
_cell_angle_alpha 100.941751
_cell_angle_beta 34.236130
_cell_angle_gamma 80.368654
_cell_volume 584.502381
_symmetry_space_group_name_H-M "P -1"
_symmetry_group_IT_number 2
_symmetry_cell_setting 'triclinic'
loop_
_space_group_symop_operation_xyz
x,y,z
-x,-y,-z
loop_
_atom_site_type_symbol
_atom_site_label
_atom_site_fract_x
_atom_site_fract_y
_atom_site_fract_z
Si Si1 0.169971 0.819285 0.628652
Si Si2 0.901925 0.424591 0.311384
Si Si3 0.508148 0.419693 0.102418
Si Si4 0.350726 0.186327 0.726864
Si Si5 0.922002 0.677027 0.268803
Si Si6 0.455019 0.981284 0.806886
Si Si7 0.303263 0.861692 0.253262
O O1 0.196393 0.681134 0.637878
O O2 0.368021 0.838550 0.550225
O O3 0.269659 0.798416 0.397655
O O4 0.857055 0.962097 0.905948
O O5 0.836941 0.565449 0.320120
O O6 0.780765 0.488796 0.563814
O O7 0.210791 0.306395 0.981524
O O8 0.577934 0.264066 0.973918
O O9 0.765613 0.392593 0.963365
O O10 0.500000 0.500000 0.000000
O O11 0.130729 0.258070 0.813888
O O12 0.438987 0.039453 0.690861
O O13 0.706257 0.812904 0.565639
O O14 0.521211 0.073428 0.858692
O O15 0.000000 0.000000 0.500000
#
# Coordination Sequence:
#
# PCOD9041834 Si02
#       7
#     2   2   2   2   2   2   2
#     4  10  23  44  67  96 139 182 225 282 346 397
#     4  11  25  43  70  99 138 182 226 278 346 401
#     4  12  27  46  69 104 141 180 229 284 342 413
#     4  10  24  47  69 100 141 179 229 286 341 405
#     4  12  26  43  70 107 137 178 235 281 339 417
#     4  10  24  43  71 101 135 184 224 285 346 401
#     4  11  23  45  68  97 141 179 230 286 338 406
#
# _framework density 23.951999000000001
#
# number of rings (size 3 to 8) (size 9 to 14) (size 15 to 20)
#    0.000    1.143    2.857    1.714    6.000    6.286 
#    0.000    0.000    0.000    0.000    0.000    0.000 
#    0.000    0.000    0.000    0.000    0.000    0.000 
#
# Total GULP energy -78117.848167 kJ/mol
# GULP energy per Si atom -5579.846298 kJ/mol
# Density = 2.389748 g / cm^3
# Si number density = 23.951999 Si / 1000 Ang^3
#
#
#
# Elastic Constant Matrix: (Units=GPa)
#
#
# Indices 1 2 3 4 5 6 
#
# 1 93.4314 16.9720 35.2204 -1.8656 -30.3792 -7.8331
# 2 16.9720 99.5856 14.4438 8.3014 -0.6304 0.9036
# 3 35.2204 14.4438 106.9063 6.6819 -0.9959 13.4560
# 4 -1.8656 8.3014 6.6819 36.9610 2.2747 8.8783
# 5 -30.3792 -0.6304 -0.9959 2.2747 31.7954 3.2099
# 6 -7.8331 0.9036 13.4560 8.8783 3.2099 33.5694
#
#
#
# Elastic Compliance Matrix: (Units=1/GPa)
#
#
# Indices 1 2 3 4 5 6 
#
# 1 0.020234 -0.002407 -0.006906 0.000302 0.018471 0.005708
# 2 -0.002407 0.010713 -0.000548 -0.002351 -0.001954 0.000178
# 3 -0.006906 -0.000548 0.012434 -0.000723 -0.005577 -0.005856
# 4 0.000302 -0.002351 -0.000723 0.029550 -0.001159 -0.007281
# 5 0.018471 -0.001954 -0.005577 -0.001159 0.048742 0.002244
# 6 0.005708 0.000178 -0.005856 -0.007281 0.002244 0.035175
#
#
# Mechanical properties :
#
#
# Convention : Reuss Voigt Hill
#
# Bulk Modulus (GPa) = 42.26827 48.13285 45.20056
# Shear Modulus (GPa) = 27.10670 36.01765 31.56218
#
# Velocity S-wave (km/s) = 3.36774 3.88202 3.63399
# Velocity P-wave (km/s) = 5.72779 6.34292 6.04319
#
# Compressibility (1/GPa) = 0.02365841
#
# Stress axis : x y z
#
# Youngs Moduli (GPa) = 49.42166 93.34180 80.42669
#
# Poissons Ratio (x) = 0.22466 0.55545
# Poissons Ratio (y) = 0.11895 0.04409
# Poissons Ratio (z) = 0.34132 0.05117
#
# Static dielectric constant tensor:
#      x y z
#    x 1.976960 0.024480 0.066720 
#    y 0.024480 1.928240 0.000580 
#    z 0.066720 0.000580 1.921170 
# 
# From -- ./inp_files/77531.got.cif
#   From: 2010.05.17/outbox.cif.g08.bks.cpg/sg2_39_cif.got.tgz:77531.got - 2010.06.03 11:33:40.
