data_PCOD9041819
_publ_section_title
;
Structure prediction by ZEFSAII (Michael W. Deem and Ramdas Pophale) SiO2 
 PCOD9041819
Probable space group: P -1
;
_chemical_formula_sum "Si O2"
_cell_formula_units_Z 14
_cell_length_a 9.214430
_cell_length_b 8.954411
_cell_length_c 14.672563
_cell_angle_alpha 46.102518
_cell_angle_beta 50.798633
_cell_angle_gamma 45.043141
_cell_volume 592.848973
_symmetry_space_group_name_H-M "P -1"
_symmetry_group_IT_number 2
_symmetry_cell_setting 'triclinic'
loop_
_space_group_symop_operation_xyz
x,y,z
-x,-y,-z
loop_
_atom_site_type_symbol
_atom_site_label
_atom_site_fract_x
_atom_site_fract_y
_atom_site_fract_z
Si Si1 0.483255 0.493745 0.289772
Si Si2 0.979433 0.179192 0.722905
Si Si3 0.779871 0.014970 0.462582
Si Si4 0.104836 0.206008 0.303678
Si Si5 0.480675 0.962904 0.130642
Si Si6 0.899064 0.337018 0.071781
Si Si7 0.908653 0.736441 0.158209
O O1 0.248829 0.595205 0.298691
O O2 0.573014 0.259802 0.414720
O O3 0.470307 0.719970 0.251121
O O4 0.664933 0.432280 0.166716
O O5 0.062597 0.190126 0.784755
O O6 0.140232 0.147094 0.590381
O O7 0.968263 0.933475 0.830908
O O8 0.972754 0.072511 0.385167
O O9 0.766844 0.890046 0.612245
O O10 0.929850 0.477572 0.268224
O O11 0.276683 0.165748 0.175121
O O12 0.692264 0.919895 0.117587
O O13 0.500000 0.000000 0.000000
O O14 0.000000 0.500000 0.000000
O O15 0.911547 0.310703 0.969030
#
# Coordination Sequence:
#
# PCOD9041819 Si02
#       7
#     2   2   2   2   2   2   2
#     4  11  22  39  68  94 129 174 217 268 321 387
#     4  11  25  42  65  97 136 170 211 272 337 384
#     4  10  23  44  67  95 131 169 229 273 312 390
#     4  11  24  42  69  98 125 175 226 272 318 385
#     4  12  24  39  70  99 127 173 222 268 328 391
#     4  11  22  40  66  94 131 171 220 269 314 389
#     4  12  25  42  63 100 135 169 213 274 336 385
#
# _framework density 23.614782999999999
#
# number of rings (size 3 to 8) (size 9 to 14) (size 15 to 20)
#    0.000    0.857    4.286    3.000    2.000    5.143 
#    0.000    1.429    0.000    0.000    0.000    0.000 
#    0.000    0.000    0.000    0.000    0.000    0.000 
#
# Total GULP energy -78350.885087 kJ/mol
# GULP energy per Si atom -5596.491792 kJ/mol
# Density = 2.356104 g / cm^3
# Si number density = 23.614783 Si / 1000 Ang^3
#
#
#
# Elastic Constant Matrix: (Units=GPa)
#
#
# Indices 1 2 3 4 5 6 
#
# 1 114.1094 63.7276 42.8331 3.6474 46.8082 -6.2951
# 2 63.7276 116.2791 37.9271 3.0560 19.8095 -11.9391
# 3 42.8331 37.9271 92.4138 5.7119 39.6303 4.6164
# 4 3.6474 3.0560 5.7119 15.5532 3.5960 21.4374
# 5 46.8082 19.8095 39.6303 3.5960 46.9173 -0.7425
# 6 -6.2951 -11.9391 4.6164 21.4374 -0.7425 40.3369
#
#
#
# Elastic Compliance Matrix: (Units=1/GPa)
#
#
# Indices 1 2 3 4 5 6 
#
# 1 0.020428 -0.008857 0.002047 0.001846 -0.018527 -0.000990
# 2 -0.008857 0.016362 -0.005821 -0.026305 0.009151 0.018275
# 3 0.002047 -0.005821 0.019315 0.010775 -0.016879 -0.009651
# 4 0.001846 -0.026305 0.010775 0.313879 -0.026681 -0.176036
# 5 -0.018527 0.009151 -0.016879 -0.026681 0.052504 0.016895
# 6 -0.000990 0.018275 -0.009651 -0.176036 0.016895 0.125018
#
#
# Mechanical properties :
#
#
# Convention : Reuss Voigt Hill
#
# Bulk Modulus (GPa) = 32.42193 67.97533 50.19863
# Shear Modulus (GPa) = 8.57562 32.44911 20.51236
#
# Velocity S-wave (km/s) = 1.90771 3.71091 2.95044
# Velocity P-wave (km/s) = 4.31414 6.87086 5.73674
#
# Compressibility (1/GPa) = 0.03084332
#
# Stress axis : x y z
#
# Youngs Moduli (GPa) = 48.95258 61.11788 51.77282
#
# Poissons Ratio (x) = 0.54134 -0.10600
# Poissons Ratio (y) = 0.43359 0.30136
# Poissons Ratio (z) = -0.10022 0.35576
#
# Static dielectric constant tensor:
#      x y z
#    x 1.910630 -0.001300 -0.024780 
#    y -0.001300 1.893030 -0.031630 
#    z -0.024780 -0.031630 1.947310 
# 
# From -- ./inp_files/491969.got.cif
#   From: 2010.05.17/outbox.cif.g08.bks.cpg/sg2_246_cif.got.tgz:491969.got - 2010.06.03 11:33:40.
