data_PCOD9041750
_publ_section_title
;
Structure prediction by ZEFSAII (Michael W. Deem and Ramdas Pophale) SiO2 
 PCOD9041750
Probable space group: P -1
;
_chemical_formula_sum "Si O2"
_cell_formula_units_Z 10
_cell_length_a 9.308897
_cell_length_b 9.322429
_cell_length_c 5.586545
_cell_angle_alpha 100.514801
_cell_angle_beta 105.884888
_cell_angle_gamma 111.264393
_cell_volume 412.521402
_symmetry_space_group_name_H-M "P -1"
_symmetry_group_IT_number 2
_symmetry_cell_setting 'triclinic'
loop_
_space_group_symop_operation_xyz
x,y,z
-x,-y,-z
loop_
_atom_site_type_symbol
_atom_site_label
_atom_site_fract_x
_atom_site_fract_y
_atom_site_fract_z
Si Si1 0.499809 0.663121 0.956592
Si Si2 0.637471 0.855560 0.674983
Si Si3 0.027481 0.599801 0.293579
Si Si4 0.339795 0.821201 0.226909
Si Si5 0.849637 0.823924 0.383336
O O1 0.348212 0.692000 0.001816
O O2 0.692539 0.794204 0.133810
O O3 0.500000 0.500000 0.000000
O O4 0.503157 0.694023 0.687930
O O5 0.529223 0.880288 0.418397
O O6 0.777445 0.813286 0.614917
O O7 0.693420 0.035286 0.865646
O O8 0.211458 0.742436 0.360104
O O9 0.000000 0.500000 0.500000
O O10 0.911510 0.691748 0.298604
O O11 0.000000 0.500000 0.000000
O O12 0.000000 0.000000 0.500000
#
# Coordination Sequence:
#
# PCOD9041750 Si02
#       5
#     2   2   2   2   2
#     4  11  25  41  70 102 143 189 245 303 369 432
#     4  10  23  44  70  96 137 190 245 296 353 446
#     4  12  29  47  74 109 150 190 242 310 376 434
#     4  10  23  44  67 100 138 188 243 290 364 432
#     4  11  25  46  68 105 142 190 245 299 371 440
#
# _framework density 24.241166
#
# number of rings (size 3 to 8) (size 9 to 14) (size 15 to 20)
#    0.000    1.200    2.000    1.800   11.200    4.000 
#    0.000    0.000    0.000    0.000    0.000    0.000 
#    0.000    0.000    0.000    0.000    0.000    0.000 
#
# Total GULP energy -55683.180746 kJ/mol
# GULP energy per Si atom -5568.318075 kJ/mol
# Density = 2.418599 g / cm^3
# Si number density = 24.241166 Si / 1000 Ang^3
#
#
#
# Elastic Constant Matrix: (Units=GPa)
#
#
# Indices 1 2 3 4 5 6 
#
# 1 153.3534 50.9395 27.3486 -5.1012 -50.5481 -19.2806
# 2 50.9395 149.9522 44.1707 -17.0800 -30.6642 -17.5034
# 3 27.3486 44.1707 37.6852 -2.3755 -30.1554 -18.4208
# 4 -5.1012 -17.0800 -2.3755 35.5644 10.6559 -5.8466
# 5 -50.5481 -30.6642 -30.1554 10.6559 62.9190 13.4688
# 6 -19.2806 -17.5034 -18.4208 -5.8466 13.4688 46.9487
#
#
#
# Elastic Compliance Matrix: (Units=1/GPa)
#
#
# Indices 1 2 3 4 5 6 
#
# 1 0.009557 -0.002529 0.003005 -0.001702 0.007808 0.001709
# 2 -0.002529 0.011716 -0.015577 0.005452 -0.004540 -0.000801
# 3 0.003005 -0.015577 0.070788 -0.008042 0.027018 0.014449
# 4 -0.001702 0.005452 -0.008042 0.033578 -0.009329 0.005036
# 5 0.007808 -0.004540 0.027018 -0.009329 0.034241 0.001130
# 6 0.001709 -0.000801 0.014449 0.005036 0.001130 0.027675
#
#
# Mechanical properties :
#
#
# Convention : Reuss Voigt Hill
#
# Bulk Modulus (GPa) = 16.16607 65.10091 40.63349
# Shear Modulus (GPa) = 20.97518 43.65522 32.31520
#
# Velocity S-wave (km/s) = 2.94474 4.24827 3.65509
# Velocity P-wave (km/s) = 4.27145 7.13986 5.88315
#
# Compressibility (1/GPa) = 0.06185797
#
# Stress axis : x y z
#
# Youngs Moduli (GPa) = 104.63492 85.35693 14.12664
#
# Poissons Ratio (x) = 0.21590 -0.04245
# Poissons Ratio (y) = 0.26466 0.22005
# Poissons Ratio (z) = -0.31441 1.32959
#
# Static dielectric constant tensor:
#      x y z
#    x 2.078160 -0.192660 -0.398760 
#    y -0.192660 2.698240 0.869970 
#    z -0.398760 0.869970 3.648150 
# 
# From -- ./inp_files/15274.got.cif
#   From: 2010.05.17/outbox.cif.g08.bks.cpg/sg2_8_cif.got.tgz:15274.got - 2010.06.03 11:33:40.
