data_PCOD9041916
_publ_section_title
;
Structure prediction by ZEFSAII (Michael W. Deem and Ramdas Pophale) SiO2 
 PCOD9041916
Probable space group: P -1
;
_chemical_formula_sum "Si O2"
_cell_formula_units_Z 15
_cell_length_a 7.777583
_cell_length_b 11.739243
_cell_length_c 7.888479
_cell_angle_alpha 76.551396
_cell_angle_beta 72.791252
_cell_angle_gamma 107.745733
_cell_volume 612.644310
_symmetry_space_group_name_H-M "P -1"
_symmetry_group_IT_number 2
_symmetry_cell_setting 'triclinic'
loop_
_space_group_symop_operation_xyz
x,y,z
-x,-y,-z
loop_
_atom_site_type_symbol
_atom_site_label
_atom_site_fract_x
_atom_site_fract_y
_atom_site_fract_z
Si Si1 0.135951 0.293174 0.816938
Si Si2 0.074219 0.166291 0.249886
Si Si3 0.830369 0.054293 0.824392
Si Si4 0.670024 0.580314 0.794107
Si Si5 0.046522 0.531574 0.676431
Si Si6 0.425979 0.004616 0.778413
Si Si7 0.321324 0.805352 0.613519
Si Si8 0.500000 0.500000 0.500000
O O1 0.359945 0.357586 0.672503
O O2 0.075101 0.413801 0.792836
O O3 0.102237 0.228141 0.032074
O O4 0.995049 0.193149 0.759043
O O5 0.086672 0.031957 0.273206
O O6 0.257633 0.267557 0.262139
O O7 0.867810 0.160324 0.383149
O O8 0.630637 0.051216 0.802975
O O9 0.749596 0.994407 0.054892
O O10 0.861168 0.553122 0.792414
O O11 0.611201 0.542015 0.633547
O O12 0.500000 0.500000 0.000000
O O13 0.000000 0.500000 0.500000
O O14 0.241673 0.657790 0.627500
O O15 0.367058 0.860108 0.773698
O O16 0.483905 0.104939 0.573716
#
# Coordination Sequence:
#
# PCOD9041916 Si02
#       8
#     2   2   2   2   2   2   2   1
#     4  12  25  46  71 104 141 192 239 292 364 426
#     4  11  25  47  70 100 146 188 237 294 357 426
#     4  11  25  46  70 100 141 190 232 296 355 425
#     4  11  25  47  72 109 146 187 242 298 360 434
#     4  11  24  45  75 102 144 187 236 300 364 430
#     4  10  23  44  70 105 137 181 241 284 359 428
#     4  10  23  44  68 104 137 179 233 297 351 428
#     4  12  26  48  70 110 144 186 246 296 366 432
#
# _framework density 24.484027999999999
#
# number of rings (size 3 to 8) (size 9 to 14) (size 15 to 20)
#    0.000    1.067    4.000    1.200    1.867    8.000 
#    2.400    0.000    0.000    0.000    0.000    0.000 
#    0.000    0.000    0.000    0.000    0.000    0.000 
#
# Total GULP energy -83719.263786 kJ/mol
# GULP energy per Si atom -5581.284252 kJ/mol
# Density = 2.442830 g / cm^3
# Si number density = 24.484028 Si / 1000 Ang^3
#
#
#
# Elastic Constant Matrix: (Units=GPa)
#
#
# Indices 1 2 3 4 5 6 
#
# 1 41.4213 46.5128 3.7827 -0.8963 -5.1423 12.5270
# 2 46.5128 204.2481 9.8103 -17.1461 -8.2510 34.4288
# 3 3.7827 9.8103 79.7719 -2.4306 -19.6930 0.2083
# 4 -0.8963 -17.1461 -2.4306 29.9959 10.1810 -0.1434
# 5 -5.1423 -8.2510 -19.6930 10.1810 37.9504 -0.4153
# 6 12.5270 34.4288 0.2083 -0.1434 -0.4153 56.1331
#
#
#
# Elastic Compliance Matrix: (Units=1/GPa)
#
#
# Indices 1 2 3 4 5 6 
#
# 1 0.033791 -0.007426 0.000241 -0.004695 0.004316 -0.002967
# 2 -0.007426 0.007427 -0.000647 0.004264 -0.000902 -0.002891
# 3 0.000241 -0.000647 0.014502 -0.001875 0.007924 0.000343
# 4 -0.004695 0.004264 -0.001875 0.039290 -0.011240 -0.001543
# 5 0.004316 -0.000902 0.007924 -0.011240 0.033864 -0.000217
# 6 -0.002967 -0.002891 0.000343 -0.001543 -0.000217 0.020244
#
#
# Mechanical properties :
#
#
# Convention : Reuss Voigt Hill
#
# Bulk Modulus (GPa) = 24.96469 49.51699 37.24084
# Shear Modulus (GPa) = 28.06894 42.50493 35.28694
#
# Velocity S-wave (km/s) = 3.38955 4.17109 3.80046
# Velocity P-wave (km/s) = 5.05344 6.59283 5.87378
#
# Compressibility (1/GPa) = 0.04005658
#
# Stress axis : x y z
#
# Youngs Moduli (GPa) = 29.59383 134.64249 68.95598
#
# Poissons Ratio (x) = 0.99989 -0.01663
# Poissons Ratio (y) = 0.21977 0.04458
# Poissons Ratio (z) = -0.00714 0.08705
#
# Static dielectric constant tensor:
#      x y z
#    x 1.959880 -0.013620 -0.001770 
#    y -0.013620 1.952780 0.046490 
#    z -0.001770 0.046490 1.976960 
# 
# From -- ./inp_files/177603.got.cif
#   From: 2010.05.17/outbox.cif.g08.bks.cpg/sg2_89_cif.got.tgz:177603.got - 2010.06.03 11:33:40.
