data_PCOD9041791
_publ_section_title
;
Structure prediction by ZEFSAII (Michael W. Deem and Ramdas Pophale) SiO2 
 PCOD9041791
Probable space group: P -1
;
_chemical_formula_sum "Si O2"
_cell_formula_units_Z 14
_cell_length_a 11.672252
_cell_length_b 7.509252
_cell_length_c 13.762064
_cell_angle_alpha 121.810875
_cell_angle_beta 46.191642
_cell_angle_gamma 144.218132
_cell_volume 507.279184
_symmetry_space_group_name_H-M "P -1"
_symmetry_group_IT_number 2
_symmetry_cell_setting 'triclinic'
loop_
_space_group_symop_operation_xyz
x,y,z
-x,-y,-z
loop_
_atom_site_type_symbol
_atom_site_label
_atom_site_fract_x
_atom_site_fract_y
_atom_site_fract_z
Si Si1 0.364731 0.274852 0.812825
Si Si2 0.693654 0.427067 0.344363
Si Si3 0.719151 0.357307 0.532418
Si Si4 0.841645 0.280705 0.905015
Si Si5 0.857370 0.868392 0.898168
Si Si6 0.476091 0.171686 0.203386
Si Si7 0.931826 0.119085 0.386547
O O1 0.495467 0.189043 0.682619
O O2 0.543028 0.610498 0.757918
O O3 0.319896 0.292726 0.955642
O O4 0.112648 0.064320 0.850337
O O5 0.334387 0.626456 0.540744
O O6 0.493979 0.198862 0.316116
O O7 0.892267 0.453037 0.201909
O O8 0.794057 0.764332 0.367468
O O9 0.792411 0.186312 0.451308
O O10 0.944990 0.702311 0.534520
O O11 0.825338 0.056939 0.915543
O O12 0.707500 0.136270 0.839338
O O13 0.721820 0.338425 0.058415
O O14 0.856772 0.702148 0.763840
#
# Coordination Sequence:
#
# PCOD9041791 Si02
#       7
#     2   2   2   2   2   2   2
#     4  11  23  43  70 102 134 186 238 285 360 423
#     4  11  23  47  74  98 148 189 229 300 352 427
#     4  11  26  44  73 105 145 191 235 291 363 424
#     4  10  23  44  67 110 136 180 240 297 349 428
#     4  10  23  44  71  96 142 181 234 306 342 412
#     4  11  23  42  71 104 138 184 241 282 367 420
#     4  10  23  48  69 107 143 187 240 292 355 422
#
# _framework density 27.598217000000002
#
# number of rings (size 3 to 8) (size 9 to 14) (size 15 to 20)
#    0.000    1.429    2.857    2.571    2.000    4.571 
#   12.857    0.000    0.000    0.000    0.000    0.000 
#    0.000    0.000    0.000    0.000    0.000    0.000 
#
# Total GULP energy -78479.030487 kJ/mol
# GULP energy per Si atom -5605.645035 kJ/mol
# Density = 2.753540 g / cm^3
# Si number density = 27.598217 Si / 1000 Ang^3
#
#
#
# Elastic Constant Matrix: (Units=GPa)
#
#
# Indices 1 2 3 4 5 6 
#
# 1 197.5876 63.0909 80.2159 9.2118 28.5040 16.1304
# 2 63.0909 92.9682 25.0135 5.6730 15.1576 33.8070
# 3 80.2159 25.0135 157.9982 -1.3932 -12.8581 4.7539
# 4 9.2118 5.6730 -1.3932 41.1501 5.3924 9.1914
# 5 28.5040 15.1576 -12.8581 5.3924 60.6091 13.5457
# 6 16.1304 33.8070 4.7539 9.1914 13.5457 44.6623
#
#
#
# Elastic Compliance Matrix: (Units=1/GPa)
#
#
# Indices 1 2 3 4 5 6 
#
# 1 0.008800 -0.005063 -0.004102 -0.001455 -0.004209 0.002667
# 2 -0.005063 0.018642 0.000050 0.001343 0.000449 -0.012700
# 3 -0.004102 0.000050 0.008753 0.000888 0.003884 -0.000849
# 4 -0.001455 0.001343 0.000888 0.025820 -0.000474 -0.005756
# 5 -0.004209 0.000449 0.003884 -0.000474 0.020424 -0.005330
# 6 0.002667 -0.012700 -0.000849 -0.005756 -0.005330 0.033932
#
#
# Mechanical properties :
#
#
# Convention : Reuss Voigt Hill
#
# Bulk Modulus (GPa) = 55.66368 87.24385 71.45377
# Shear Modulus (GPa) = 35.56410 47.96656 41.76533
#
# Velocity S-wave (km/s) = 3.59365 4.17349 3.89438
# Velocity P-wave (km/s) = 6.11819 7.40978 6.79474
#
# Compressibility (1/GPa) = 0.01796503
#
# Stress axis : x y z
#
# Youngs Moduli (GPa) = 113.62992 53.64128 114.24110
#
# Poissons Ratio (x) = 0.27160 0.46862
# Poissons Ratio (y) = 0.57535 -0.00569
# Poissons Ratio (z) = 0.46612 -0.00267
#
# Static dielectric constant tensor:
#      x y z
#    x 2.077450 0.000490 0.011040 
#    y 0.000490 2.220370 -0.028140 
#    z 0.011040 -0.028140 2.167190 
# 
# From -- ./inp_files/597729.got.cif
#   From: 2010.05.17/outbox.cif.g08.bks.cpg/sg2_299_cif.got.tgz:597729.got - 2010.06.03 11:33:40.
