data_PCOD9041163
_publ_section_title
;
Structure prediction by ZEFSAII (Michael W. Deem and Ramdas Pophale) SiO2 
 PCOD9041163
Probable space group: P -1
;
_chemical_formula_sum "Si O2"
_cell_formula_units_Z 14
_cell_length_a 8.952364
_cell_length_b 11.802492
_cell_length_c 15.675423
_cell_angle_alpha 30.281624
_cell_angle_beta 49.503998
_cell_angle_gamma 54.614870
_cell_volume 634.387444
_symmetry_space_group_name_H-M "P -1"
_symmetry_group_IT_number 2
_symmetry_cell_setting 'triclinic'
loop_
_space_group_symop_operation_xyz
x,y,z
-x,-y,-z
loop_
_atom_site_type_symbol
_atom_site_label
_atom_site_fract_x
_atom_site_fract_y
_atom_site_fract_z
Si Si1 0.982860 0.696310 0.309503
Si Si2 0.575425 0.743286 0.343594
Si Si3 0.197691 0.844709 0.503976
Si Si4 0.895349 0.528861 0.763661
Si Si5 0.282870 0.066950 0.005480
Si Si6 0.711667 0.002613 0.458445
Si Si7 0.967335 0.324563 0.049788
O O1 0.748202 0.738271 0.353714
O O2 0.000000 0.500000 0.500000
O O3 0.080170 0.630743 0.223627
O O4 0.115959 0.886781 0.174303
O O5 0.500000 0.500000 0.500000
O O6 0.381095 0.897882 0.341676
O O7 0.681959 0.843485 0.159154
O O8 0.106893 0.631209 0.634605
O O9 0.293107 0.822620 0.575015
O O10 0.000000 0.000000 0.500000
O O11 0.765434 0.751223 0.638103
O O12 0.854364 0.422236 0.942016
O O13 0.183068 0.249097 0.986664
O O14 0.500000 0.000000 0.000000
O O15 0.500000 0.000000 0.500000
O O16 0.863549 0.108168 0.267838
O O17 0.000000 0.500000 0.000000
#
# Coordination Sequence:
#
# PCOD9041163 Si02
#       7
#     2   2   2   2   2   2   2
#     4  12  26  46  76 107 157 196 254 316 380 453
#     4  12  24  45  76 105 145 196 247 308 380 446
#     4  10  23  43  71 104 147 194 243 305 375 443
#     4  11  24  48  73 110 151 197 254 314 374 451
#     4  12  29  46  74 114 149 199 257 314 383 454
#     4  11  27  44  74 111 150 199 253 306 384 451
#     4  12  26  48  79 106 151 197 253 314 378 456
#
# _framework density 22.068532000000001
#
# number of rings (size 3 to 8) (size 9 to 14) (size 15 to 20)
#    0.000    0.571    4.286    2.143    8.000    1.714 
#    0.000    0.000    0.000    0.000    0.000    0.000 
#    0.000    0.000    0.000    0.000    0.000    0.000 
#
# Total GULP energy -78063.564384 kJ/mol
# GULP energy per Si atom -5575.968885 kJ/mol
# Density = 2.201830 g / cm^3
# Si number density = 22.068532 Si / 1000 Ang^3
#
#
#
# Elastic Constant Matrix: (Units=GPa)
#
#
# Indices 1 2 3 4 5 6 
#
# 1 153.9617 54.1385 26.0402 -7.9703 -4.3097 -3.3683
# 2 54.1385 146.3961 39.2050 18.0632 -2.3935 -1.0967
# 3 26.0402 39.2050 102.6320 13.7600 7.4244 -8.4190
# 4 -7.9703 18.0632 13.7600 34.2555 4.2058 -1.3310
# 5 -4.3097 -2.3935 7.4244 4.2058 44.6917 1.9846
# 6 -3.3683 -1.0967 -8.4190 -1.3310 1.9846 40.0322
#
#
#
# Elastic Compliance Matrix: (Units=1/GPa)
#
#
# Indices 1 2 3 4 5 6 
#
# 1 0.008047 -0.003087 -0.001401 0.004024 0.000447 0.000410
# 2 -0.003087 0.009170 -0.002205 -0.004823 0.001044 -0.000684
# 3 -0.001401 -0.002205 0.011746 -0.003551 -0.001971 0.002272
# 4 0.004024 -0.004823 -0.003551 0.034440 -0.002554 0.000731
# 5 0.000447 0.001044 -0.001971 -0.002554 0.023112 -0.001579
# 6 0.000410 -0.000684 0.002272 0.000731 -0.001579 0.025576
#
#
# Mechanical properties :
#
#
# Convention : Reuss Voigt Hill
#
# Bulk Modulus (GPa) = 64.19094 71.30635 67.74864
# Shear Modulus (GPa) = 38.26447 42.70294 40.48371
#
# Velocity S-wave (km/s) = 4.16852 4.40365 4.28770
# Velocity P-wave (km/s) = 7.23319 7.63136 7.43494
#
# Compressibility (1/GPa) = 0.01557852
#
# Stress axis : x y z
#
# Youngs Moduli (GPa) = 124.26536 109.05413 85.13387
#
# Poissons Ratio (x) = 0.33664 0.11925
# Poissons Ratio (y) = 0.38360 0.18769
# Poissons Ratio (z) = 0.17407 0.24042
#
# Static dielectric constant tensor:
#      x y z
#    x 1.615590 -0.051040 0.028010 
#    y -0.051040 1.936360 -0.078410 
#    z 0.028010 -0.078410 1.848200 
# 
# From -- ./inp_files/499622.got.cif
#   From: 2010.05.17/outbox.cif.g08.bks.cpg/sg2_250_cif.got.tgz:499622.got - 2010.06.03 11:33:40.
