data_PCOD9041564
_publ_section_title
;
Structure prediction by ZEFSAII (Michael W. Deem and Ramdas Pophale) SiO2 
 PCOD9041564
Probable space group: P -1
;
_chemical_formula_sum "Si O2"
_cell_formula_units_Z 15
_cell_length_a 6.870401
_cell_length_b 5.017094
_cell_length_c 22.312998
_cell_angle_alpha 97.489315
_cell_angle_beta 75.631727
_cell_angle_gamma 132.463588
_cell_volume 548.890236
_symmetry_space_group_name_H-M "P -1"
_symmetry_group_IT_number 2
_symmetry_cell_setting 'triclinic'
loop_
_space_group_symop_operation_xyz
x,y,z
-x,-y,-z
loop_
_atom_site_type_symbol
_atom_site_label
_atom_site_fract_x
_atom_site_fract_y
_atom_site_fract_z
Si Si1 0.305784 0.366345 0.883723
Si Si2 0.089083 0.489768 0.095083
Si Si3 0.873558 0.657143 0.540125
Si Si4 0.912904 0.540998 0.775028
Si Si5 0.579794 0.468979 0.381375
Si Si6 0.281184 0.369711 0.755325
Si Si7 0.500000 0.500000 0.000000
Si Si8 0.864979 0.347709 0.642063
O O1 0.430908 0.480998 0.810796
O O2 0.070944 0.381705 0.902790
O O3 0.503322 0.582462 0.930364
O O4 0.145876 0.946783 0.895886
O O5 0.294488 0.569221 0.032198
O O6 0.223781 0.625892 0.155054
O O7 0.551563 0.431873 0.560902
O O8 0.932872 0.671646 0.607207
O O9 0.000000 0.500000 0.500000
O O10 0.000000 0.000000 0.500000
O O11 0.172382 0.573866 0.762303
O O12 0.784399 0.335560 0.716391
O O13 0.029940 0.943136 0.770193
O O14 0.866995 0.595633 0.376649
O O15 0.585424 0.585729 0.316315
O O16 0.369347 0.032443 0.382456
#
# Coordination Sequence:
#
# PCOD9041564 Si02
#       8
#     2   2   2   2   2   2   1   2
#     4  10  23  44  64  97 140 177 235 296 353 430
#     4  10  23  44  64  97 140 177 235 296 353 430
#     4  12  28  51  76 112 154 203 244 301 362 442
#     4   9  21  43  71 102 139 183 235 305 370 426
#     4  11  27  50  79 112 148 195 249 309 368 441
#     4   9  21  43  71 102 139 183 235 305 370 426
#     4  12  24  40  68 100 128 202 228 286 360 428
#     4  11  27  50  79 112 148 195 249 309 368 441
#
# _framework density 27.327867000000001
#
# number of rings (size 3 to 8) (size 9 to 14) (size 15 to 20)
#    0.000    1.600    1.333    0.800    7.467    4.267 
#   14.400    0.000    0.000    0.000    0.000    0.000 
#    0.000    0.000    0.000    0.000    0.000    0.000 
#
# Total GULP energy -83842.547899 kJ/mol
# GULP energy per Si atom -5589.503193 kJ/mol
# Density = 2.726567 g / cm^3
# Si number density = 27.327867 Si / 1000 Ang^3
#
#
#
# Elastic Constant Matrix: (Units=GPa)
#
#
# Indices 1 2 3 4 5 6 
#
# 1 107.0339 55.8816 40.5242 41.6944 2.3370 -1.7954
# 2 55.8816 106.7933 8.6129 -15.3732 -3.1962 -15.0342
# 3 40.5242 8.6129 169.0526 9.3542 -1.0594 0.1543
# 4 41.6944 -15.3732 9.3542 -73.5228 -31.5373 -27.7348
# 5 2.3370 -3.1962 -1.0594 -31.5373 63.5457 -9.7807
# 6 -1.7954 -15.0342 0.1543 -27.7348 -9.7807 21.8739
#
#
#
# Elastic Compliance Matrix: (Units=1/GPa)
#
#
# Indices 1 2 3 4 5 6 
#
# 1 0.010927 -0.004230 -0.002628 0.004223 0.002100 0.004302
# 2 -0.004230 0.010987 0.000690 -0.004421 -0.001320 0.001004
# 3 -0.002628 0.000690 0.006540 -0.000550 -0.000115 -0.000537
# 4 0.004223 -0.004421 -0.000550 -0.004591 -0.004269 -0.010418
# 5 0.002100 -0.001320 -0.000115 -0.004269 0.013452 -0.000131
# 6 0.004302 0.001004 -0.000537 -0.010418 -0.000131 0.033496
#
#
# Mechanical properties :
#
#
# Convention : Reuss Voigt Hill
#
# Bulk Modulus (GPa) = 62.04253 65.87968 63.96110
# Shear Modulus (GPa) = 56.48350 20.90342 38.69346
#
# Velocity S-wave (km/s) = 4.55123 2.76871 3.76692
# Velocity P-wave (km/s) = 7.09722 5.86348 6.50965
#
# Compressibility (1/GPa) = 0.01611798
#
# Stress axis : x y z
#
# Youngs Moduli (GPa) = 91.51338 91.01728 152.89417
#
# Poissons Ratio (x) = 0.38496 0.40187
# Poissons Ratio (y) = 0.38706 -0.10543
# Poissons Ratio (z) = 0.24053 -0.06276
#
# Static dielectric constant tensor:
#      x y z
#    x 2.127130 -0.002440 0.018210 
#    y -0.002440 2.139470 0.079370 
#    z 0.018210 0.079370 2.135030 
# 
# From -- ./inp_files/584915.got.cif
#   From: 2010.05.17/outbox.cif.g08.bks.cpg/sg2_293_cif.got.tgz:584915.got - 2010.06.03 11:33:40.
