data_PCOD9041944
_publ_section_title
;
Structure prediction by ZEFSAII (Michael W. Deem and Ramdas Pophale) SiO2 
 PCOD9041944
Probable space group: P -1
;
_chemical_formula_sum "Si O2"
_cell_formula_units_Z 12
_cell_length_a 6.371982
_cell_length_b 5.190281
_cell_length_c 17.206051
_cell_angle_alpha 74.189073
_cell_angle_beta 109.841113
_cell_angle_gamma 94.201094
_cell_volume 514.897709
_symmetry_space_group_name_H-M "P -1"
_symmetry_group_IT_number 2
_symmetry_cell_setting 'triclinic'
loop_
_space_group_symop_operation_xyz
x,y,z
-x,-y,-z
loop_
_atom_site_type_symbol
_atom_site_label
_atom_site_fract_x
_atom_site_fract_y
_atom_site_fract_z
Si Si1 0.415107 0.212868 0.033586
Si Si2 0.097953 0.368240 0.287670
Si Si3 0.016225 0.732118 0.115036
Si Si4 0.268243 0.219867 0.168635
Si Si5 0.184923 0.912405 0.594083
Si Si6 0.522088 0.565350 0.406264
O O1 0.456490 0.147157 0.134904
O O2 0.500000 0.500000 0.000000
O O3 0.154063 0.235208 0.978405
O O4 0.500000 0.000000 0.000000
O O5 0.259113 0.201878 0.261700
O O6 0.272452 0.551011 0.340806
O O7 0.945918 0.549184 0.195012
O O8 0.950247 0.192739 0.339668
O O9 0.217315 0.538555 0.124874
O O10 0.079472 0.014908 0.135191
O O11 0.330330 0.668898 0.596334
O O12 0.343307 0.162315 0.609842
O O13 0.000000 0.000000 0.500000
O O14 0.500000 0.500000 0.500000
#
# Coordination Sequence:
#
# PCOD9041944 Si02
#       6
#     2   2   2   2   2   2
#     4  12  24  42  70 102 136 180 240 283 347 436
#     4  10  28  45  74 104 152 180 246 299 360 408
#     4  10  23  44  68  92 139 184 224 285 365 398
#     4  10  23  44  68  92 139 184 224 285 365 398
#     4  12  27  46  77 104 141 191 244 292 361 432
#     4  12  27  46  77 104 141 191 244 292 361 432
#
# _framework density 23.305599999999998
#
# number of rings (size 3 to 8) (size 9 to 14) (size 15 to 20)
#    1.000    0.000    1.667    4.000    4.667    1.333 
#    0.000    0.000    0.000    0.000    0.000    0.000 
#    0.000    0.000    0.000    0.000    0.000    0.000 
#
# Total GULP energy -66951.579323 kJ/mol
# GULP energy per Si atom -5579.298277 kJ/mol
# Density = 2.325256 g / cm^3
# Si number density = 23.305600 Si / 1000 Ang^3
#
#
#
# Elastic Constant Matrix: (Units=GPa)
#
#
# Indices 1 2 3 4 5 6 
#
# 1 97.4867 60.7011 55.5637 -3.4515 -43.7435 6.7312
# 2 60.7011 174.1537 42.5301 17.8232 -21.4765 15.0447
# 3 55.5637 42.5301 125.9049 2.6430 -46.8912 12.4323
# 4 -3.4515 17.8232 2.6430 35.3218 -0.4984 -1.4590
# 5 -43.7435 -21.4765 -46.8912 -0.4984 58.7464 -1.6811
# 6 6.7312 15.0447 12.4323 -1.4590 -1.6811 55.2753
#
#
#
# Elastic Compliance Matrix: (Units=1/GPa)
#
#
# Indices 1 2 3 4 5 6 
#
# 1 0.020630 -0.005610 -0.003368 0.005259 0.010674 0.000236
# 2 -0.005610 0.008278 -0.000747 -0.004761 -0.001833 -0.001583
# 3 -0.003368 -0.000747 0.012578 -0.000875 0.007194 -0.002020
# 4 0.005259 -0.004761 -0.000875 0.031390 0.001793 0.001735
# 5 0.010674 -0.001833 0.007194 0.001793 0.030016 -0.001459
# 6 0.000236 -0.001583 -0.002020 0.001735 -0.001459 0.018949
#
#
# Mechanical properties :
#
#
# Convention : Reuss Voigt Hill
#
# Bulk Modulus (GPa) = 45.37943 79.45944 62.41943
# Shear Modulus (GPa) = 33.63939 45.78540 39.71240
#
# Velocity S-wave (km/s) = 3.80334 4.43715 4.13241
# Velocity P-wave (km/s) = 6.22904 7.77301 7.04346
#
# Compressibility (1/GPa) = 0.02203642
#
# Stress axis : x y z
#
# Youngs Moduli (GPa) = 48.47315 120.80433 79.50397
#
# Poissons Ratio (x) = 0.67777 0.26773
# Poissons Ratio (y) = 0.27196 0.05936
# Poissons Ratio (z) = 0.16324 0.09020
#
# Static dielectric constant tensor:
#      x y z
#    x 1.959760 -0.026870 -0.041470 
#    y -0.026870 1.853640 0.003620 
#    z -0.041470 0.003620 1.983780 
# 
# From -- ./inp_files/545606.got.cif
#   From: 2010.05.17/outbox.cif.g08.bks.cpg/sg2_273_cif.got.tgz:545606.got - 2010.06.03 11:33:40.
