data_PCOD9041260
_publ_section_title
;
Structure prediction by ZEFSAII (Michael W. Deem and Ramdas Pophale) SiO2 
 PCOD9041260
Probable space group: P -1
;
_chemical_formula_sum "Si O2"
_cell_formula_units_Z 12
_cell_length_a 8.911565
_cell_length_b 12.045384
_cell_length_c 9.319928
_cell_angle_alpha 77.881544
_cell_angle_beta 122.302682
_cell_angle_gamma 141.502973
_cell_volume 483.355189
_symmetry_space_group_name_H-M "P -1"
_symmetry_group_IT_number 2
_symmetry_cell_setting 'triclinic'
loop_
_space_group_symop_operation_xyz
x,y,z
-x,-y,-z
loop_
_atom_site_type_symbol
_atom_site_label
_atom_site_fract_x
_atom_site_fract_y
_atom_site_fract_z
Si Si1 0.236547 0.384634 0.508347
Si Si2 0.858972 0.689862 0.099689
Si Si3 0.690372 0.201961 0.855937
Si Si4 0.365185 0.238074 0.216896
Si Si5 0.362051 0.798666 0.855987
Si Si6 0.163004 0.969570 0.426680
O O1 0.500000 0.500000 0.500000
O O2 0.384215 0.543490 0.657668
O O3 0.959205 0.309852 0.317358
O O4 0.111495 0.200361 0.558124
O O5 0.977758 0.644239 0.083501
O O6 0.090140 0.830388 0.312334
O O7 0.500000 0.500000 0.000000
O O8 0.873101 0.812079 0.980479
O O9 0.593256 0.023534 0.897366
O O10 0.462331 0.119643 0.636059
O O11 0.651895 0.247865 0.972891
O O12 0.539113 0.241808 0.199786
O O13 0.203210 0.097887 0.309929
#
# Coordination Sequence:
#
# PCOD9041260 Si02
#       6
#     2   2   2   2   2   2
#     4  11  25  47  73 109 145 185 240 299 354 422
#     4  12  24  44  75 107 145 187 240 299 355 419
#     4  10  23  46  71 102 145 194 235 290 361 421
#     4  12  25  45  76 106 142 186 243 292 359 422
#     4  10  23  43  72 103 147 187 238 295 356 424
#     4  11  25  47  76 103 143 192 237 292 359 425
#
# _framework density 24.826463
#
# number of rings (size 3 to 8) (size 9 to 14) (size 15 to 20)
#    0.000    1.000    3.333    2.500    2.333    2.000 
#    3.000    1.667    0.000    0.000    0.000    0.000 
#    0.000    0.000    0.000    0.000    0.000    0.000 
#
# Total GULP energy -67122.365770 kJ/mol
# GULP energy per Si atom -5593.530481 kJ/mol
# Density = 2.476996 g / cm^3
# Si number density = 24.826463 Si / 1000 Ang^3
#
#
#
# Elastic Constant Matrix: (Units=GPa)
#
#
# Indices 1 2 3 4 5 6 
#
# 1 132.2238 58.0827 55.2483 2.8328 -5.0230 27.7912
# 2 58.0827 129.5365 55.2647 -11.2981 0.5674 19.1723
# 3 55.2483 55.2647 147.1478 -14.8914 -14.3307 19.1887
# 4 2.8328 -11.2981 -14.8914 43.1331 5.2435 -5.0260
# 5 -5.0230 0.5674 -14.3307 5.2435 25.9114 8.9861
# 6 27.7912 19.1723 19.1887 -5.0260 8.9861 37.4217
#
#
#
# Elastic Compliance Matrix: (Units=1/GPa)
#
#
# Indices 1 2 3 4 5 6 
#
# 1 0.011882 -0.003709 -0.002027 -0.003895 0.004662 -0.007527
# 2 -0.003709 0.010793 -0.002623 0.002448 -0.002749 -0.000441
# 3 -0.002027 -0.002623 0.009714 0.001705 0.005838 -0.003305
# 4 -0.003895 0.002448 0.001705 0.026257 -0.007273 0.006038
# 5 0.004662 -0.002749 0.005838 -0.007273 0.050558 -0.018165
# 6 -0.007527 -0.000441 -0.003305 0.006038 -0.018165 0.039406
#
#
# Mechanical properties :
#
#
# Convention : Reuss Voigt Hill
#
# Bulk Modulus (GPa) = 63.81363 82.89995 73.35679
# Shear Modulus (GPa) = 29.31657 37.31407 33.31532
#
# Velocity S-wave (km/s) = 3.44009 3.88105 3.66721
# Velocity P-wave (km/s) = 6.44505 7.31763 6.89516
#
# Compressibility (1/GPa) = 0.01567063
#
# Stress axis : x y z
#
# Youngs Moduli (GPa) = 84.16274 92.65283 102.94205
#
# Poissons Ratio (x) = 0.34366 0.20863
# Poissons Ratio (y) = 0.31217 0.27006
# Poissons Ratio (z) = 0.17057 0.24306
#
# Static dielectric constant tensor:
#      x y z
#    x 1.961260 0.039770 -0.061260 
#    y 0.039770 2.060530 -0.025100 
#    z -0.061260 -0.025100 1.979270 
# 
# From -- ./inp_files/187005.got.cif
#   From: 2010.05.17/outbox.cif.g08.bks.cpg/sg2_94_cif.got.tgz:187005.got - 2010.06.03 11:33:40.
