data_PCOD9041063
_publ_section_title
;
Structure prediction by ZEFSAII (Michael W. Deem and Ramdas Pophale) SiO2 
 PCOD9041063
Probable space group: P -1
;
_chemical_formula_sum "Si O2"
_cell_formula_units_Z 16
_cell_length_a 13.314097
_cell_length_b 9.794206
_cell_length_c 14.109101
_cell_angle_alpha 131.862370
_cell_angle_beta 134.064013
_cell_angle_gamma 34.304614
_cell_volume 725.243197
_symmetry_space_group_name_H-M "P -1"
_symmetry_group_IT_number 2
_symmetry_cell_setting 'triclinic'
loop_
_space_group_symop_operation_xyz
x,y,z
-x,-y,-z
loop_
_atom_site_type_symbol
_atom_site_label
_atom_site_fract_x
_atom_site_fract_y
_atom_site_fract_z
Si Si1 0.336539 0.061554 0.774421
Si Si2 0.631268 0.491021 0.656385
Si Si3 0.381494 0.823178 0.360169
Si Si4 0.267550 0.611002 0.699444
Si Si5 0.795868 0.704571 0.410592
Si Si6 0.223730 0.856260 0.068332
Si Si7 0.977721 0.915124 0.347233
Si Si8 0.478996 0.724391 0.004781
O O1 0.229000 0.197809 0.666545
O O2 0.188258 0.086225 0.753801
O O3 0.431192 0.165467 0.917850
O O4 0.509820 0.770271 0.736664
O O5 0.500000 0.500000 0.500000
O O6 0.678860 0.307737 0.686466
O O7 0.830582 0.357375 0.678253
O O8 0.609437 0.594877 0.397216
O O9 0.292211 0.890963 0.227614
O O10 0.322771 0.053731 0.487322
O O11 0.268054 0.450958 0.702991
O O12 0.072456 0.871644 0.657695
O O13 0.378900 0.689209 0.844054
O O14 0.000000 0.500000 0.500000
O O15 0.317818 0.890249 0.058591
O O16 0.339267 0.566250 0.989921
O O17 0.000000 0.000000 0.000000
O O18 0.000000 0.000000 0.500000
#
# Coordination Sequence:
#
# PCOD9041063 Si02
#       8
#     2   2   2   2   2   2   2   2
#     4  12  25  46  69  98 145 181 231 281 340 419
#     4  12  23  44  67 101 141 175 226 284 344 415
#     4  11  22  42  68 103 135 177 229 285 349 402
#     4  11  24  46  70  98 142 178 231 285 343 414
#     4  12  25  39  69 106 134 174 229 288 347 408
#     4  10  23  43  70  96 143 182 228 285 339 407
#     4  12  24  44  72  98 136 185 222 286 353 407
#     4  10  25  46  66  99 138 189 228 279 342 404
#
# _framework density 22.061565000000002
#
# number of rings (size 3 to 8) (size 9 to 14) (size 15 to 20)
#    0.000    0.750    3.750    4.125    5.250    1.500 
#    2.250    0.625    0.000    0.000    0.000    0.000 
#    0.000    0.000    0.000    0.000    0.000    0.000 
#
# Total GULP energy -89312.242346 kJ/mol
# GULP energy per Si atom -5582.015147 kJ/mol
# Density = 2.201135 g / cm^3
# Si number density = 22.061565 Si / 1000 Ang^3
#
#
#
# Elastic Constant Matrix: (Units=GPa)
#
#
# Indices 1 2 3 4 5 6 
#
# 1 92.6266 46.8897 2.9141 3.5629 13.6205 -3.3327
# 2 46.8897 123.9773 20.4257 1.7843 7.5488 -14.9864
# 3 2.9141 20.4257 72.2708 13.5549 13.1703 12.3537
# 4 3.5629 1.7843 13.5549 26.7424 6.6580 8.4143
# 5 13.6205 7.5488 13.1703 6.6580 35.1481 0.5422
# 6 -3.3327 -14.9864 12.3537 8.4143 0.5422 45.3709
#
#
#
# Elastic Compliance Matrix: (Units=1/GPa)
#
#
# Indices 1 2 3 4 5 6 
#
# 1 0.014296 -0.005613 0.002324 -0.001099 -0.004979 -0.001173
# 2 -0.005613 0.011293 -0.003975 0.000376 0.001101 0.004317
# 3 0.002324 -0.003975 0.017850 -0.006222 -0.005483 -0.004783
# 4 -0.001099 0.000376 -0.006222 0.044059 -0.005571 -0.006367
# 5 -0.004979 0.001101 -0.005483 -0.005571 0.033221 0.002127
# 6 -0.001173 0.004317 -0.004783 -0.006367 0.002127 0.025838
#
#
# Mechanical properties :
#
#
# Convention : Reuss Voigt Hill
#
# Bulk Modulus (GPa) = 34.58654 47.70374 41.14514
# Shear Modulus (GPa) = 29.28724 36.02863 32.65794
#
# Velocity S-wave (km/s) = 3.64747 4.04554 3.85165
# Velocity P-wave (km/s) = 5.78360 6.59483 6.20249
#
# Compressibility (1/GPa) = 0.02891298
#
# Stress axis : x y z
#
# Youngs Moduli (GPa) = 69.94722 88.55002 56.02147
#
# Poissons Ratio (x) = 0.49701 -0.13019
# Poissons Ratio (y) = 0.39260 0.22266
# Poissons Ratio (z) = -0.16256 0.35195
#
# Static dielectric constant tensor:
#      x y z
#    x 1.916140 0.042810 0.016120 
#    y 0.042810 1.815450 -0.034970 
#    z 0.016120 -0.034970 1.826760 
# 
# From -- ./inp_files/516282.got.cif
#   From: 2010.05.17/outbox.cif.g08.bks.cpg/sg2_259_cif.got.tgz:516282.got - 2010.06.03 11:33:40.
