data_PCOD9041181
_publ_section_title
;
Structure prediction by ZEFSAII (Michael W. Deem and Ramdas Pophale) SiO2 
 PCOD9041181
Probable space group: P -1
;
_chemical_formula_sum "Si O2"
_cell_formula_units_Z 16
_cell_length_a 5.148186
_cell_length_b 14.845286
_cell_length_c 24.063601
_cell_angle_alpha 22.357046
_cell_angle_beta 124.640349
_cell_angle_gamma 122.987864
_cell_volume 574.508274
_symmetry_space_group_name_H-M "P -1"
_symmetry_group_IT_number 2
_symmetry_cell_setting 'triclinic'
loop_
_space_group_symop_operation_xyz
x,y,z
-x,-y,-z
loop_
_atom_site_type_symbol
_atom_site_label
_atom_site_fract_x
_atom_site_fract_y
_atom_site_fract_z
Si Si1 0.241469 0.797339 0.570513
Si Si2 0.243674 0.325578 0.101257
Si Si3 0.596423 0.093054 0.141896
Si Si4 0.090802 0.522189 0.562682
Si Si5 0.529831 0.133464 0.852780
Si Si6 0.643638 0.381966 0.827910
Si Si7 0.255853 0.582446 0.812526
Si Si8 0.663108 0.820967 0.415039
O O1 0.393183 0.581615 0.679873
O O2 0.152921 0.694435 0.678700
O O3 0.959864 0.902225 0.442664
O O4 0.500000 0.000000 0.500000
O O5 0.488431 0.242865 0.224846
O O6 0.977403 0.133698 0.155333
O O7 0.500000 0.500000 0.000000
O O8 0.000000 0.500000 0.000000
O O9 0.441316 0.900289 0.190392
O O10 0.562872 0.011902 0.248417
O O11 0.428181 0.335331 0.971020
O O12 0.209906 0.272601 0.740130
O O13 0.394497 0.708122 0.486689
O O14 0.000000 0.500000 0.500000
O O15 0.811914 0.621406 0.508020
O O16 0.755081 0.292122 0.831332
O O17 0.500610 0.866001 0.023917
O O18 0.906694 0.487480 0.843903
#
# Coordination Sequence:
#
# PCOD9041181 Si02
#       8
#     2   2   2   2   2   2   2   2
#     4  12  27  51  74 110 155 203 257 319 388 469
#     4  10  23  43  71 107 148 189 250 319 373 440
#     4  11  24  45  75 114 149 205 253 325 384 458
#     4  12  26  47  73 108 154 203 251 320 384 465
#     4  11  23  44  73 107 154 194 255 313 378 458
#     4  11  25  46  74 112 144 204 255 315 380 463
#     4  11  25  46  77 107 151 197 263 311 385 453
#     4  12  28  49  74 113 157 201 263 311 397 456
#
# _framework density 27.849906000000001
#
# number of rings (size 3 to 8) (size 9 to 14) (size 15 to 20)
#    0.000    0.750    3.750    2.625    3.500    3.000 
#    2.250    0.000    0.000    0.000    0.000    0.000 
#    0.000    0.000    0.000    0.000    0.000    0.000 
#
# Total GULP energy -89567.800912 kJ/mol
# GULP energy per Si atom -5597.987557 kJ/mol
# Density = 2.778652 g / cm^3
# Si number density = 27.849906 Si / 1000 Ang^3
#
#
#
# Elastic Constant Matrix: (Units=GPa)
#
#
# Indices 1 2 3 4 5 6 
#
# 1 106.2281 4.0488 39.9563 -4.9081 -2.8888 18.0221
# 2 4.0488 128.6968 15.7216 8.4451 -17.7661 11.2913
# 3 39.9563 15.7216 138.2284 -0.5151 7.2766 -3.3984
# 4 -4.9081 8.4451 -0.5151 53.0475 -5.0875 -2.9369
# 5 -2.8888 -17.7661 7.2766 -5.0875 50.8036 1.4181
# 6 18.0221 11.2913 -3.3984 -2.9369 1.4181 41.1635
#
#
#
# Elastic Compliance Matrix: (Units=1/GPa)
#
#
# Indices 1 2 3 4 5 6 
#
# 1 0.011842 0.000770 -0.003738 0.000785 0.001716 -0.005708
# 2 0.000770 0.008722 -0.001466 -0.001187 0.003270 -0.003048
# 3 -0.003738 -0.001466 0.008659 -0.000069 -0.002051 0.002819
# 4 0.000785 -0.001187 -0.000069 0.019332 0.001539 0.001302
# 5 0.001716 0.003270 -0.002051 0.001539 0.021441 -0.002446
# 6 -0.005708 -0.003048 0.002819 0.001302 -0.002446 0.028038
#
#
# Mechanical properties :
#
#
# Convention : Reuss Voigt Hill
#
# Bulk Modulus (GPa) = 49.13062 54.73409 51.93235
# Shear Modulus (GPa) = 43.98073 49.89803 46.93938
#
# Velocity S-wave (km/s) = 3.97823 4.23741 4.10987
# Velocity P-wave (km/s) = 6.22746 6.60581 6.41943
#
# Compressibility (1/GPa) = 0.02035390
#
# Stress axis : x y z
#
# Youngs Moduli (GPa) = 84.44719 114.65555 115.48960
#
# Poissons Ratio (x) = -0.08831 0.43174
# Poissons Ratio (y) = -0.06505 0.16932
# Poissons Ratio (z) = 0.31569 0.16810
#
# Static dielectric constant tensor:
#      x y z
#    x 2.371260 -0.158270 -0.135930 
#    y -0.158270 2.421240 0.021570 
#    z -0.135930 0.021570 2.275890 
# 
# From -- ./inp_files/615838.got.cif
#   From: 2010.05.17/outbox.cif.g08.bks.cpg/sg2_308_cif.got.tgz:615838.got - 2010.06.03 11:33:40.
