data_PCOD9041924
_publ_section_title
;
Structure prediction by ZEFSAII (Michael W. Deem and Ramdas Pophale) SiO2 
 PCOD9041924
Probable space group: P -1
;
_chemical_formula_sum "Si O2"
_cell_formula_units_Z 16
_cell_length_a 28.565271
_cell_length_b 7.924275
_cell_length_c 14.382180
_cell_angle_alpha 52.795360
_cell_angle_beta 21.055020
_cell_angle_gamma 41.917177
_cell_volume 724.646609
_symmetry_space_group_name_H-M "P -1"
_symmetry_group_IT_number 2
_symmetry_cell_setting 'triclinic'
loop_
_space_group_symop_operation_xyz
x,y,z
-x,-y,-z
loop_
_atom_site_type_symbol
_atom_site_label
_atom_site_fract_x
_atom_site_fract_y
_atom_site_fract_z
Si Si1 0.960981 0.495110 0.467637
Si Si2 0.846198 0.003737 0.959996
Si Si3 0.172862 0.914730 0.315019
Si Si4 0.646678 0.509930 0.035188
Si Si5 0.027441 0.723919 0.890393
Si Si6 0.315626 0.732004 0.301285
Si Si7 0.995501 0.415130 0.834829
Si Si8 0.363867 0.984588 0.302003
O O1 0.779427 0.568955 0.773944
O O2 0.996721 0.627543 0.276267
O O3 0.000000 0.500000 0.500000
O O4 0.100410 0.171356 0.299072
O O5 0.012718 0.934400 0.628041
O O6 0.882787 0.981248 0.010438
O O7 0.862516 0.737369 0.995279
O O8 0.695667 0.295036 0.098065
O O9 0.309669 0.650199 0.090254
O O10 0.235209 0.931202 0.294253
O O11 0.457853 0.786937 0.282390
O O12 0.201927 0.640951 0.558003
O O13 0.000000 0.500000 0.000000
O O14 0.030424 0.742895 0.989940
O O15 0.324005 0.850822 0.341850
O O16 0.500000 0.500000 0.000000
O O17 0.188919 0.282762 0.543660
O O18 0.500000 0.000000 0.000000
#
# Coordination Sequence:
#
# PCOD9041924 Si02
#       8
#     2   2   2   2   2   2   2   2
#     4  11  20  32  55  90 124 156 210 264 311 367
#     4   9  17  36  61  85 114 166 216 250 304 385
#     4  10  17  33  58  83 114 159 206 260 300 366
#     4  11  19  36  58  84 122 164 208 258 318 363
#     4   9  22  39  67  93 122 170 217 262 317 375
#     4  11  23  39  63  96 129 164 221 261 312 387
#     4  11  20  38  60  89 128 162 210 260 319 377
#     4  12  24  36  59  95 134 164 198 270 334 364
#
# _framework density 22.079726999999998
#
# number of rings (size 3 to 8) (size 9 to 14) (size 15 to 20)
#    0.000    1.500    5.000    1.500    3.500    0.500 
#    0.000    0.625    0.000    6.750    0.000    0.000 
#    0.000    0.000    0.000    0.000    0.000    0.000 
#
# Total GULP energy -89197.985986 kJ/mol
# GULP energy per Si atom -5574.874124 kJ/mol
# Density = 2.202947 g / cm^3
# Si number density = 22.079727 Si / 1000 Ang^3
#
#
#
# Elastic Constant Matrix: (Units=GPa)
#
#
# Indices 1 2 3 4 5 6 
#
# 1 153.9291 45.5052 18.3891 -11.5767 3.8625 -33.5894
# 2 45.5052 85.0175 18.7315 -3.9255 -6.0358 -31.5888
# 3 18.3891 18.7315 61.7231 -10.4179 -3.3204 -8.4928
# 4 -11.5767 -3.9255 -10.4179 20.6650 -11.4064 -1.2814
# 5 3.8625 -6.0358 -3.3204 -11.4064 35.0151 -8.0699
# 6 -33.5894 -31.5888 -8.4928 -1.2814 -8.0699 54.9582
#
#
#
# Elastic Compliance Matrix: (Units=1/GPa)
#
#
# Indices 1 2 3 4 5 6 
#
# 1 0.008534 -0.002775 -0.000284 0.004925 0.001044 0.003845
# 2 -0.002775 0.017981 -0.002031 0.005375 0.007154 0.009501
# 3 -0.000284 -0.002031 0.019924 0.013336 0.006611 0.003020
# 4 0.004925 0.005375 0.013336 0.076216 0.029774 0.014310
# 5 0.001044 0.007154 0.006611 0.029774 0.042947 0.012772
# 6 0.003845 0.009501 0.003020 0.014310 0.012772 0.028682
#
#
# Mechanical properties :
#
#
# Convention : Reuss Voigt Hill
#
# Bulk Modulus (GPa) = 27.57831 51.76902 39.67367
# Shear Modulus (GPa) = 23.08929 36.66393 29.87661
#
# Velocity S-wave (km/s) = 3.23727 4.07937 3.68247
# Velocity P-wave (km/s) = 5.14691 6.75912 6.00735
#
# Compressibility (1/GPa) = 0.03626038
#
# Stress axis : x y z
#
# Youngs Moduli (GPa) = 117.17760 55.61318 50.18994
#
# Poissons Ratio (x) = 0.15433 0.01425
# Poissons Ratio (y) = 0.32518 0.10192
# Poissons Ratio (z) = 0.03326 0.11294
#
# Static dielectric constant tensor:
#      x y z
#    x 1.916720 0.005750 0.033570 
#    y 0.005750 1.931320 0.015420 
#    z 0.033570 0.015420 1.770580 
# 
# From -- ./inp_files/260204.got.cif
#   From: 2010.05.17/outbox.cif.g08.bks.cpg/sg2_131_cif.got.tgz:260204.got - 2010.06.03 11:33:40.
