data_PCOD9041241
_publ_section_title
;
Structure prediction by ZEFSAII (Michael W. Deem and Ramdas Pophale) SiO2 
 PCOD9041241
Probable space group: P -1
;
_chemical_formula_sum "Si O2"
_cell_formula_units_Z 16
_cell_length_a 5.309007
_cell_length_b 19.814555
_cell_length_c 6.314749
_cell_angle_alpha 80.589508
_cell_angle_beta 92.559272
_cell_angle_gamma 87.941317
_cell_volume 654.060496
_symmetry_space_group_name_H-M "P -1"
_symmetry_group_IT_number 2
_symmetry_cell_setting 'triclinic'
loop_
_space_group_symop_operation_xyz
x,y,z
-x,-y,-z
loop_
_atom_site_type_symbol
_atom_site_label
_atom_site_fract_x
_atom_site_fract_y
_atom_site_fract_z
Si Si1 0.478245 0.574887 0.565829
Si Si2 0.571314 0.196651 0.854041
Si Si3 0.141460 0.244526 0.556921
Si Si4 0.036536 0.891494 0.142367
Si Si5 0.750344 0.962559 0.432625
Si Si6 0.178998 0.167199 0.219902
Si Si7 0.170439 0.668041 0.195748
Si Si8 0.006228 0.424506 0.143640
O O1 0.500000 0.500000 0.500000
O O2 0.398101 0.624600 0.340530
O O3 0.732513 0.587221 0.706142
O O4 0.238438 0.578452 0.712930
O O5 0.433997 0.232491 0.629151
O O6 0.663033 0.119273 0.819706
O O7 0.736821 0.258313 0.913646
O O8 0.382441 0.184741 0.044984
O O9 0.093470 0.233753 0.315069
O O10 0.020426 0.179265 0.700906
O O11 0.025613 0.310109 0.636079
O O12 0.845594 0.948652 0.199031
O O13 0.015430 0.874965 0.903041
O O14 0.731952 0.888272 0.576263
O O15 0.500000 0.000000 0.500000
O O16 0.000000 0.000000 0.500000
O O17 0.037768 0.627073 0.026795
O O18 0.000000 0.500000 0.000000
#
# Coordination Sequence:
#
# PCOD9041241 Si02
#       8
#     2   2   2   2   2   2   2   2
#     4  12  28  48  79 110 149 204 246 309 390 453
#     4  10  23  43  72 100 143 191 249 308 371 436
#     4   9  22  43  66 100 142 187 242 307 366 436
#     4   9  22  43  66 100 139 190 240 300 359 430
#     4  11  27  44  72 108 148 192 243 298 361 440
#     4  10  23  44  74  98 146 192 246 301 375 420
#     4  11  27  46  72 109 153 190 263 311 381 466
#     4  12  28  49  79 108 153 200 252 308 384 457
#
# _framework density 24.462567
#
# number of rings (size 3 to 8) (size 9 to 14) (size 15 to 20)
#    0.000    1.500    1.250    0.750   10.500    7.000 
#    0.000    0.000    0.000    0.000    0.000    0.000 
#    0.000    0.000    0.000    0.000    0.000    0.000 
#
# Total GULP energy -89172.133503 kJ/mol
# GULP energy per Si atom -5573.258344 kJ/mol
# Density = 2.440689 g / cm^3
# Si number density = 24.462567 Si / 1000 Ang^3
#
#
#
# Elastic Constant Matrix: (Units=GPa)
#
#
# Indices 1 2 3 4 5 6 
#
# 1 136.5965 40.0546 55.2607 29.2416 15.3249 -13.7786
# 2 40.0546 94.8290 43.0406 31.9230 2.9556 -17.9538
# 3 55.2607 43.0406 131.8510 33.4961 13.9286 -17.8802
# 4 29.2416 31.9230 33.4961 51.8828 1.8526 -11.7764
# 5 15.3249 2.9556 13.9286 1.8526 42.6717 3.8420
# 6 -13.7786 -17.9538 -17.8802 -11.7764 3.8420 48.1622
#
#
#
# Elastic Compliance Matrix: (Units=1/GPa)
#
#
# Indices 1 2 3 4 5 6 
#
# 1 0.009779 -0.001966 -0.002465 -0.002449 -0.002533 0.000753
# 2 -0.001966 0.014898 -0.002181 -0.006059 0.000409 0.002667
# 3 -0.002465 -0.002181 0.010781 -0.003739 -0.002480 0.001768
# 4 -0.002449 -0.006059 -0.003739 0.027262 0.001136 0.002228
# 5 -0.002533 0.000409 -0.002480 0.001136 0.025368 -0.003239
# 6 0.000753 0.002667 0.001768 0.002228 -0.003239 0.023432
#
#
# Mechanical properties :
#
#
# Convention : Reuss Voigt Hill
#
# Bulk Modulus (GPa) = 44.97718 71.10981 58.04350
# Shear Modulus (GPa) = 37.83447 43.53804 40.68626
#
# Velocity S-wave (km/s) = 3.93698 4.22332 4.08266
# Velocity P-wave (km/s) = 6.25240 7.27419 6.78257
#
# Compressibility (1/GPa) = 0.02223350
#
# Stress axis : x y z
#
# Youngs Moduli (GPa) = 102.26164 67.12442 92.75537
#
# Poissons Ratio (x) = 0.13195 0.22863
# Poissons Ratio (y) = 0.20102 0.20234
# Poissons Ratio (z) = 0.25207 0.14643
#
# Static dielectric constant tensor:
#      x y z
#    x 2.185200 -0.145620 -0.079300 
#    y -0.145620 1.940990 -0.115850 
#    z -0.079300 -0.115850 1.748370 
# 
# From -- ./inp_files/11151.got.cif
#   From: 2010.05.17/outbox.cif.g08.bks.cpg/sg2_6_cif.got.tgz:11151.got - 2010.06.03 11:33:40.
