data_PCOD9041701
_publ_section_title
;
Structure prediction by ZEFSAII (Michael W. Deem and Ramdas Pophale) SiO2 
 PCOD9041701
Probable space group: P -1
;
_chemical_formula_sum "Si O2"
_cell_formula_units_Z 14
_cell_length_a 11.097858
_cell_length_b 12.632385
_cell_length_c 17.223959
_cell_angle_alpha 159.129588
_cell_angle_beta 140.948788
_cell_angle_gamma 37.776808
_cell_volume 518.904446
_symmetry_space_group_name_H-M "P -1"
_symmetry_group_IT_number 2
_symmetry_cell_setting 'triclinic'
loop_
_space_group_symop_operation_xyz
x,y,z
-x,-y,-z
loop_
_atom_site_type_symbol
_atom_site_label
_atom_site_fract_x
_atom_site_fract_y
_atom_site_fract_z
Si Si1 0.048431 0.226164 0.007852
Si Si2 0.341774 0.627060 0.576964
Si Si3 0.774965 0.856659 0.566936
Si Si4 0.787393 0.939343 0.865636
Si Si5 0.910402 0.856260 0.458726
Si Si6 0.491629 0.510739 0.844130
Si Si7 0.317954 0.433292 0.177232
O O1 0.915202 0.562151 0.204393
O O2 0.146258 0.286803 0.018785
O O3 0.950378 0.947726 0.760763
O O4 0.215851 0.121558 0.085371
O O5 0.500000 0.500000 0.500000
O O6 0.482209 0.702275 0.765054
O O7 0.142445 0.839834 0.580398
O O8 0.254958 0.365830 0.396181
O O9 0.608431 0.186343 0.717762
O O10 0.829347 0.805758 0.468490
O O11 0.685362 0.580478 0.353625
O O12 0.604000 0.239055 0.967502
O O13 0.000000 0.000000 0.000000
O O14 0.776428 0.195376 0.598166
O O15 0.631341 0.600127 0.911311
#
# Coordination Sequence:
#
# PCOD9041701 Si02
#       7
#     2   2   2   2   2   2   2
#     4  11  24  42  67  98 131 174 220 266 338 390
#     4  11  23  41  67  99 133 171 221 274 322 398
#     4  10  24  45  66  96 132 175 219 277 325 389
#     4  11  25  43  64  98 130 173 220 272 336 390
#     4  10  23  44  66  96 142 167 220 278 322 393
#     4  10  24  44  65  96 131 168 227 269 327 405
#     4  11  24  43  66 101 130 177 218 269 340 384
#
# _framework density 26.97992
#
# number of rings (size 3 to 8) (size 9 to 14) (size 15 to 20)
#    0.000    1.429    2.857    2.143    6.000    4.571 
#    0.000    2.857    0.000    0.000    0.000    0.000 
#    0.000    0.000    0.000    0.000    0.000    0.000 
#
# Total GULP energy -78338.715773 kJ/mol
# GULP energy per Si atom -5595.622555 kJ/mol
# Density = 2.691851 g / cm^3
# Si number density = 26.979920 Si / 1000 Ang^3
#
#
#
# Elastic Constant Matrix: (Units=GPa)
#
#
# Indices 1 2 3 4 5 6 
#
# 1 90.4858 21.0878 16.6386 2.7120 3.6759 -20.2431
# 2 21.0878 93.9147 22.4814 10.1475 -1.3497 -27.1080
# 3 16.6386 22.4814 110.0562 -14.4298 -0.2206 -9.4227
# 4 2.7120 10.1475 -14.4298 39.3040 -11.3781 -7.3185
# 5 3.6759 -1.3497 -0.2206 -11.3781 31.3149 -4.0834
# 6 -20.2431 -27.1080 -9.4227 -7.3185 -4.0834 36.2340
#
#
#
# Elastic Compliance Matrix: (Units=1/GPa)
#
#
# Indices 1 2 3 4 5 6 
#
# 1 0.012887 -0.000802 -0.001298 -0.000269 -0.000857 0.006111
# 2 -0.000802 0.014354 -0.002339 -0.002488 0.001004 0.009292
# 3 -0.001298 -0.002339 0.010646 0.005608 0.002385 0.001694
# 4 -0.000269 -0.002488 0.005608 0.033379 0.013091 0.007664
# 5 -0.000857 0.001004 0.002385 0.013091 0.037869 0.007804
# 6 0.006111 0.009292 0.001694 0.007664 0.007804 0.040833
#
#
# Mechanical properties :
#
#
# Convention : Reuss Voigt Hill
#
# Bulk Modulus (GPa) = 34.47506 46.09692 40.28599
# Shear Modulus (GPa) = 29.67083 36.98716 33.32899
#
# Velocity S-wave (km/s) = 3.31983 3.70660 3.51853
# Velocity P-wave (km/s) = 5.24412 5.95326 5.60990
#
# Compressibility (1/GPa) = 0.02900647
#
# Stress axis : x y z
#
# Youngs Moduli (GPa) = 77.59651 69.66873 93.93623
#
# Poissons Ratio (x) = 0.05589 0.12195
# Poissons Ratio (y) = 0.06226 0.21976
# Poissons Ratio (z) = 0.10074 0.16298
#
# Static dielectric constant tensor:
#      x y z
#    x 2.108740 -0.039510 -0.022330 
#    y -0.039510 2.161600 0.004650 
#    z -0.022330 0.004650 2.243070 
# 
# From -- ./inp_files/153712.got.cif
#   From: 2010.05.17/outbox.cif.g08.bks.cpg/sg2_77_cif.got.tgz:153712.got - 2010.06.03 11:33:40.
