data_PCOD9041027
_publ_section_title
;
Structure prediction by ZEFSAII (Michael W. Deem and Ramdas Pophale) SiO2 
 PCOD9041027
Probable space group: P -1
;
_chemical_formula_sum "Si O2"
_cell_formula_units_Z 14
_cell_length_a 9.242898
_cell_length_b 12.117903
_cell_length_c 19.012914
_cell_angle_alpha 152.888524
_cell_angle_beta 39.085106
_cell_angle_gamma 130.863850
_cell_volume 606.860567
_symmetry_space_group_name_H-M "P -1"
_symmetry_group_IT_number 2
_symmetry_cell_setting 'triclinic'
loop_
_space_group_symop_operation_xyz
x,y,z
-x,-y,-z
loop_
_atom_site_type_symbol
_atom_site_label
_atom_site_fract_x
_atom_site_fract_y
_atom_site_fract_z
Si Si1 0.422922 0.919228 0.075328
Si Si2 0.334684 0.820484 0.429977
Si Si3 0.375110 0.475104 0.458126
Si Si4 0.377734 0.525272 0.775900
Si Si5 0.275608 0.627312 0.196728
Si Si6 0.928780 0.766069 0.853776
Si Si7 0.953938 0.222938 0.771364
O O1 0.283441 0.743173 0.077024
O O2 0.352452 0.197107 0.285406
O O3 0.358070 0.814185 0.964041
O O4 0.691598 0.859071 0.957366
O O5 0.409997 0.588471 0.318365
O O6 0.370758 0.774902 0.308192
O O7 0.500000 0.000000 0.500000
O O8 0.082138 0.970017 0.610526
O O9 0.500000 0.500000 0.500000
O O10 0.538838 0.551326 0.377234
O O11 0.129028 0.640057 0.655167
O O12 0.137109 0.418073 0.821013
O O13 0.129606 0.435785 0.181713
O O14 0.117646 0.777839 0.283504
O O15 0.500000 0.500000 0.000000
O O16 0.000000 0.000000 0.000000
#
# Coordination Sequence:
#
# PCOD9041027 Si02
#       7
#     2   2   2   2   2   2   2
#     4  12  25  48  75 109 147 193 245 307 369 433
#     4  10  23  43  70 110 146 186 244 302 368 432
#     4  12  27  49  75 105 150 199 246 299 370 449
#     4  11  25  49  74 109 149 196 245 306 374 434
#     4  12  23  45  72 105 143 192 244 300 364 433
#     4  12  26  47  73 109 151 188 250 303 362 444
#     4  11  24  44  78 108 147 191 248 305 364 440
#
# _framework density 23.069548000000001
#
# number of rings (size 3 to 8) (size 9 to 14) (size 15 to 20)
#    0.000    0.571    4.286    3.000    0.000    6.286 
#    2.571    0.000    0.000    0.000    0.000    0.000 
#    0.000    0.000    0.000    0.000    0.000    0.000 
#
# Total GULP energy -78205.815071 kJ/mol
# GULP energy per Si atom -5586.129648 kJ/mol
# Density = 2.301704 g / cm^3
# Si number density = 23.069548 Si / 1000 Ang^3
#
#
#
# Elastic Constant Matrix: (Units=GPa)
#
#
# Indices 1 2 3 4 5 6 
#
# 1 159.6981 34.3967 60.3685 -1.6576 9.7639 0.4046
# 2 34.3967 83.3996 47.8135 -10.1268 1.6257 14.8168
# 3 60.3685 47.8135 151.5653 -5.1913 14.1885 28.5000
# 4 -1.6576 -10.1268 -5.1913 35.0059 3.6754 -0.8795
# 5 9.7639 1.6257 14.1885 3.6754 48.3078 2.4305
# 6 0.4046 14.8168 28.5000 -0.8795 2.4305 40.2254
#
#
#
# Elastic Compliance Matrix: (Units=1/GPa)
#
#
# Indices 1 2 3 4 5 6 
#
# 1 0.007862 -0.002103 -0.002944 -0.000523 -0.000755 0.002816
# 2 -0.002103 0.015901 -0.003497 0.003815 0.000794 -0.003323
# 3 -0.002944 -0.003497 0.010158 0.000422 -0.002014 -0.005748
# 4 -0.000523 0.003815 0.000422 0.029935 -0.002379 -0.000901
# 5 -0.000755 0.000794 -0.002014 -0.002379 0.021610 -0.000216
# 6 0.002816 -0.003323 -0.005748 -0.000901 -0.000216 0.030121
#
#
# Mechanical properties :
#
#
# Convention : Reuss Voigt Hill
#
# Bulk Modulus (GPa) = 59.41788 75.53562 67.47675
# Shear Modulus (GPa) = 36.15673 41.51344 38.83509
#
# Velocity S-wave (km/s) = 3.96320 4.24664 4.10737
# Velocity P-wave (km/s) = 6.83773 7.54049 7.19769
#
# Compressibility (1/GPa) = 0.01682995
#
# Stress axis : x y z
#
# Youngs Moduli (GPa) = 127.20209 62.88896 98.44757
#
# Poissons Ratio (x) = 0.13228 0.28987
# Poissons Ratio (y) = 0.26755 0.34431
# Poissons Ratio (z) = 0.37454 0.21995
#
# Static dielectric constant tensor:
#      x y z
#    x 1.849430 -0.056170 -0.032280 
#    y -0.056170 1.964380 0.099040 
#    z -0.032280 0.099040 2.062730 
# 
# From -- ./inp_files/560097.got.cif
#   From: 2010.05.17/outbox.cif.g08.bks.cpg/sg2_281_cif.got.tgz:560097.got - 2010.06.03 11:33:40.
