data_PCOD9041609
_publ_section_title
;
Structure prediction by ZEFSAII (Michael W. Deem and Ramdas Pophale) SiO2 
 PCOD9041609
Probable space group: P -1
;
_chemical_formula_sum "Si O2"
_cell_formula_units_Z 14
_cell_length_a 4.833233
_cell_length_b 9.422963
_cell_length_c 18.942424
_cell_angle_alpha 39.620686
_cell_angle_beta 80.086375
_cell_angle_gamma 91.119758
_cell_volume 525.794519
_symmetry_space_group_name_H-M "P -1"
_symmetry_group_IT_number 2
_symmetry_cell_setting 'triclinic'
loop_
_space_group_symop_operation_xyz
x,y,z
-x,-y,-z
loop_
_atom_site_type_symbol
_atom_site_label
_atom_site_fract_x
_atom_site_fract_y
_atom_site_fract_z
Si Si1 0.846386 0.432176 0.357243
Si Si2 0.799465 0.136329 0.605180
Si Si3 0.539021 0.816676 0.270841
Si Si4 0.804983 0.658071 0.024914
Si Si5 0.723358 0.801612 0.616874
Si Si6 0.937056 0.205344 0.185577
Si Si7 0.616297 0.086873 0.036578
O O1 0.753708 0.661800 0.297431
O O2 0.551134 0.282445 0.390394
O O3 0.115252 0.408769 0.304604
O O4 0.924276 0.327316 0.468240
O O5 0.627133 0.928217 0.640776
O O6 0.988936 0.991194 0.694237
O O7 0.666438 0.270158 0.620563
O O8 0.430670 0.897454 0.171376
O O9 0.678748 0.064519 0.203186
O O10 0.853755 0.420432 0.141012
O O11 0.840476 0.687321 0.927634
O O12 0.484384 0.678845 0.043100
O O13 0.047467 0.855083 0.978695
O O14 0.000000 0.000000 0.500000
O O15 0.500000 0.000000 0.000000
#
# Coordination Sequence:
#
# PCOD9041609 Si02
#       7
#     2   2   2   2   2   2   2
#     4  11  26  44  68  98 140 180 221 274 337 393
#     4  11  23  42  69  97 135 178 226 274 327 401
#     4  11  26  42  68 102 137 174 227 279 331 399
#     4  10  23  44  65  96 128 172 219 277 326 397
#     4  10  24  45  66  93 135 182 225 272 327 395
#     4  10  24  39  69  94 132 167 226 273 334 384
#     4  11  24  44  69  96 136 171 219 275 340 395
#
# _framework density 26.626372
#
# number of rings (size 3 to 8) (size 9 to 14) (size 15 to 20)
#    0.000    1.429    1.429    2.571   10.000    4.571 
#    0.000    0.000    0.000    0.000    0.000    0.000 
#    0.000    0.000    0.000    0.000    0.000    0.000 
#
# Total GULP energy -78090.108077 kJ/mol
# GULP energy per Si atom -5577.864863 kJ/mol
# Density = 2.656577 g / cm^3
# Si number density = 26.626372 Si / 1000 Ang^3
#
#
#
# Elastic Constant Matrix: (Units=GPa)
#
#
# Indices 1 2 3 4 5 6 
#
# 1 98.3681 23.0842 28.7615 -2.1405 22.4732 -6.7188
# 2 23.0842 131.1098 47.2690 1.0246 12.3197 -6.2859
# 3 28.7615 47.2690 80.6462 13.1012 30.3811 -7.6380
# 4 -2.1405 1.0246 13.1012 48.2088 -2.8424 14.8564
# 5 22.4732 12.3197 30.3811 -2.8424 42.8923 -14.8329
# 6 -6.7188 -6.2859 -7.6380 14.8564 -14.8329 39.7657
#
#
#
# Elastic Compliance Matrix: (Units=1/GPa)
#
#
# Indices 1 2 3 4 5 6 
#
# 1 0.012078 -0.000912 -0.002280 0.001112 -0.004612 -0.000677
# 2 -0.000912 0.009978 -0.006733 0.001568 0.002672 0.000541
# 3 -0.002280 -0.006733 0.023660 -0.007419 -0.013884 0.000688
# 4 0.001112 0.001568 -0.007419 0.025920 0.002581 -0.009710
# 5 -0.004612 0.002672 -0.013884 0.002581 0.038563 0.010396
# 6 -0.000677 0.000541 0.000688 -0.009710 0.010396 0.032756
#
#
# Mechanical properties :
#
#
# Convention : Reuss Voigt Hill
#
# Bulk Modulus (GPa) = 38.66265 56.48371 47.57318
# Shear Modulus (GPa) = 29.16661 40.24064 34.70363
#
# Velocity S-wave (km/s) = 3.31328 3.89177 3.61412
# Velocity P-wave (km/s) = 5.40269 6.43848 5.94319
#
# Compressibility (1/GPa) = 0.02586476
#
# Stress axis : x y z
#
# Youngs Moduli (GPa) = 82.79359 100.22136 42.26484
#
# Poissons Ratio (x) = 0.09143 0.09638
# Poissons Ratio (y) = 0.07553 0.28458
# Poissons Ratio (z) = 0.18880 0.67481
#
# Static dielectric constant tensor:
#      x y z
#    x 2.163820 -0.075610 -0.131600 
#    y -0.075610 2.190390 0.043790 
#    z -0.131600 0.043790 2.235300 
# 
# From -- ./inp_files/36221.got.cif
#   From: 2010.05.17/outbox.cif.g08.bks.cpg/sg2_19_cif.got.tgz:36221.got - 2010.06.03 11:33:40.
