data_PCOD9041813
_publ_section_title
;
Structure prediction by ZEFSAII (Michael W. Deem and Ramdas Pophale) SiO2 
 PCOD9041813
Probable space group: P -1
;
_chemical_formula_sum "Si O2"
_cell_formula_units_Z 12
_cell_length_a 21.261347
_cell_length_b 18.086659
_cell_length_c 11.574879
_cell_angle_alpha 149.650763
_cell_angle_beta 160.307641
_cell_angle_gamma 21.664159
_cell_volume 551.100526
_symmetry_space_group_name_H-M "P -1"
_symmetry_group_IT_number 2
_symmetry_cell_setting 'triclinic'
loop_
_space_group_symop_operation_xyz
x,y,z
-x,-y,-z
loop_
_atom_site_type_symbol
_atom_site_label
_atom_site_fract_x
_atom_site_fract_y
_atom_site_fract_z
Si Si1 0.678113 0.971034 0.171016
Si Si2 0.898581 0.331965 0.887418
Si Si3 0.226342 0.311653 0.247844
Si Si4 0.366074 0.853870 0.066994
Si Si5 0.544647 0.663321 0.880697
Si Si6 0.772032 0.358925 0.343206
O O1 0.969769 0.827050 0.528247
O O2 0.569943 0.178102 0.208544
O O3 0.701672 0.848819 0.937616
O O4 0.500000 0.000000 0.000000
O O5 0.821878 0.459549 0.043276
O O6 0.644876 0.372924 0.479501
O O7 0.982577 0.395835 0.017263
O O8 0.134816 0.092777 0.983881
O O9 0.452376 0.206679 0.592869
O O10 0.196771 0.485499 0.371509
O O11 0.524936 0.763043 0.100272
O O12 0.248203 0.754868 0.748302
O O13 0.500000 0.500000 0.000000
#
# Coordination Sequence:
#
# PCOD9041813 Si02
#       6
#     2   2   2   2   2   2
#     4  12  24  43  67  98 138 172 228 278 329 398
#     4  11  22  41  67 100 130 171 223 266 334 392
#     4  11  24  42  69  96 133 179 216 273 335 393
#     4  11  22  45  67  97 138 170 217 277 332 391
#     4  11  24  40  70 101 128 176 220 276 331 396
#     4  10  23  44  67  94 133 179 217 270 339 392
#
# _framework density 21.774612000000001
#
# number of rings (size 3 to 8) (size 9 to 14) (size 15 to 20)
#    0.000    1.000    3.333    3.500    0.000    3.333 
#    6.000    1.667    0.000    0.000    0.000    0.000 
#    0.000    0.000    0.000    0.000    0.000    0.000 
#
# Total GULP energy -67038.979530 kJ/mol
# GULP energy per Si atom -5586.581627 kJ/mol
# Density = 2.172505 g / cm^3
# Si number density = 21.774612 Si / 1000 Ang^3
#
#
#
# Elastic Constant Matrix: (Units=GPa)
#
#
# Indices 1 2 3 4 5 6 
#
# 1 130.3560 64.7162 48.3129 -16.1799 28.4425 -25.3665
# 2 64.7162 135.2814 27.3317 0.8515 9.5417 -12.2879
# 3 48.3129 27.3317 85.7701 1.9228 21.7965 -4.3081
# 4 -16.1799 0.8515 1.9228 32.7430 7.6406 10.7018
# 5 28.4425 9.5417 21.7965 7.6406 40.4586 5.4715
# 6 -25.3665 -12.2879 -4.3081 10.7018 5.4715 47.1761
#
#
#
# Elastic Compliance Matrix: (Units=1/GPa)
#
#
# Indices 1 2 3 4 5 6 
#
# 1 0.017176 -0.005946 -0.004974 0.009337 -0.010615 0.006346
# 2 -0.005946 0.010163 -0.000515 -0.003804 0.002787 -0.000057
# 3 -0.004974 -0.000515 0.015779 -0.002226 -0.004415 -0.000350
# 4 0.009337 -0.003804 -0.002226 0.039268 -0.011375 -0.003762
# 5 -0.010615 0.002787 -0.004415 -0.011375 0.037008 -0.007097
# 6 0.006346 -0.000057 -0.000350 -0.003762 -0.007097 0.026239
#
#
# Mechanical properties :
#
#
# Convention : Reuss Voigt Hill
#
# Bulk Modulus (GPa) = 49.38461 70.23657 59.81059
# Shear Modulus (GPa) = 28.53045 38.14533 33.33789
#
# Velocity S-wave (km/s) = 3.62368 4.19002 3.91710
# Velocity P-wave (km/s) = 6.34328 7.46556 6.92719
#
# Compressibility (1/GPa) = 0.02024922
#
# Stress axis : x y z
#
# Youngs Moduli (GPa) = 58.22006 98.40057 63.37542
#
# Poissons Ratio (x) = 0.58506 0.31520
# Poissons Ratio (y) = 0.34616 0.03265
# Poissons Ratio (z) = 0.28956 0.05069
#
# Static dielectric constant tensor:
#      x y z
#    x 1.781970 0.025660 -0.025260 
#    y 0.025660 1.814540 0.007910 
#    z -0.025260 0.007910 1.864170 
# 
# From -- ./inp_files/135838.got.cif
#   From: 2010.05.17/outbox.cif.g08.bks.cpg/sg2_68_cif.got.tgz:135838.got - 2010.06.03 11:33:40.
