data_PCOD9041945
_publ_section_title
;
Structure prediction by ZEFSAII (Michael W. Deem and Ramdas Pophale) SiO2 
 PCOD9041945
Probable space group: P -1
;
_chemical_formula_sum "Si O2"
_cell_formula_units_Z 16
_cell_length_a 8.247723
_cell_length_b 11.165625
_cell_length_c 11.456544
_cell_angle_alpha 41.556393
_cell_angle_beta 82.110679
_cell_angle_gamma 84.182152
_cell_volume 693.245268
_symmetry_space_group_name_H-M "P -1"
_symmetry_group_IT_number 2
_symmetry_cell_setting 'triclinic'
loop_
_space_group_symop_operation_xyz
x,y,z
-x,-y,-z
loop_
_atom_site_type_symbol
_atom_site_label
_atom_site_fract_x
_atom_site_fract_y
_atom_site_fract_z
Si Si1 0.172951 0.420318 0.084331
Si Si2 0.557582 0.847885 0.786182
Si Si3 0.110980 0.140379 0.684160
Si Si4 0.598328 0.240029 0.389738
Si Si5 0.916853 0.349773 0.707506
Si Si6 0.236005 0.750148 0.974206
Si Si7 0.394819 0.446933 0.437221
Si Si8 0.965498 0.191943 0.422686
O O1 0.286660 0.279029 0.107970
O O2 0.121042 0.305414 0.285364
O O3 0.269031 0.591451 0.995644
O O4 0.000000 0.500000 0.000000
O O5 0.489283 0.795483 0.699923
O O6 0.422972 0.819149 0.922105
O O7 0.592275 0.059631 0.604293
O O8 0.270458 0.271972 0.578301
O O9 0.011588 0.172527 0.788356
O O10 0.981413 0.191940 0.559251
O O11 0.157795 0.935807 0.801374
O O12 0.509713 0.401182 0.349594
O O13 0.793237 0.269614 0.340230
O O14 0.725763 0.382851 0.682820
O O15 0.000000 0.500000 0.500000
O O16 0.897934 0.333443 0.861648
O O17 0.500000 0.500000 0.500000
O O18 0.000000 0.000000 0.500000
#
# Coordination Sequence:
#
# PCOD9041945 Si02
#       8
#     2   2   2   2   2   2   2   2
#     4  12  25  40  63 106 146 183 229 282 350 417
#     4  11  23  42  68 102 144 184 228 288 351 415
#     4  11  23  44  68 100 138 182 237 290 349 410
#     4  11  22  41  72 102 138 187 234 284 350 413
#     4  10  23  44  68  93 131 180 231 290 347 415
#     4  12  24  42  69 100 138 183 231 293 352 415
#     4  11  23  43  70 100 135 188 243 285 345 416
#     4  12  23  41  71 103 138 185 231 282 349 423
#
# _framework density 23.079854000000001
#
# number of rings (size 3 to 8) (size 9 to 14) (size 15 to 20)
#    0.000    0.750    2.500    6.750    0.000    2.000 
#    0.000    0.625    0.000    0.000    0.000    0.000 
#    0.000    0.000    0.000    0.000    0.000    0.000 
#
# Total GULP energy -89068.854582 kJ/mol
# GULP energy per Si atom -5566.803411 kJ/mol
# Density = 2.302732 g / cm^3
# Si number density = 23.079854 Si / 1000 Ang^3
#
#
#
# Elastic Constant Matrix: (Units=GPa)
#
#
# Indices 1 2 3 4 5 6 
#
# 1 85.8913 19.1214 10.8742 -2.5015 4.8504 -22.1906
# 2 19.1214 54.3766 5.5556 2.8313 -8.5243 -10.5611
# 3 10.8742 5.5556 74.0970 -3.4650 -19.7510 -0.6457
# 4 -2.5015 2.8313 -3.4650 31.7167 -5.6930 -1.7259
# 5 4.8504 -8.5243 -19.7510 -5.6930 38.8767 1.5434
# 6 -22.1906 -10.5611 -0.6457 -1.7259 1.5434 53.8656
#
#
#
# Elastic Compliance Matrix: (Units=1/GPa)
#
#
# Indices 1 2 3 4 5 6 
#
# 1 0.014655 -0.004565 -0.002902 0.000742 -0.004404 0.005257
# 2 -0.004565 0.021234 0.000424 -0.001164 0.005187 0.002102
# 3 -0.002902 0.000424 0.016522 0.003158 0.009354 -0.001081
# 4 0.000742 -0.001164 0.003158 0.033182 0.006076 0.001004
# 5 -0.004404 0.005187 0.009354 0.006076 0.033108 -0.001439
# 6 0.005257 0.002102 -0.001081 0.001004 -0.001439 0.021203
#
#
# Mechanical properties :
#
#
# Convention : Reuss Voigt Hill
#
# Bulk Modulus (GPa) = 26.09175 31.71859 28.90517
# Shear Modulus (GPa) = 29.98266 36.81271 33.39768
#
# Velocity S-wave (km/s) = 3.60819 3.99810 3.80814
# Velocity P-wave (km/s) = 5.35614 5.92333 5.64686
#
# Compressibility (1/GPa) = 0.03832629
#
# Stress axis : x y z
#
# Youngs Moduli (GPa) = 68.23714 47.09414 60.52716
#
# Poissons Ratio (x) = 0.21497 0.17563
# Poissons Ratio (y) = 0.31148 -0.02569
# Poissons Ratio (z) = 0.19800 -0.01999
#
# Static dielectric constant tensor:
#      x y z
#    x 1.889400 0.031240 0.053390 
#    y 0.031240 1.935420 0.076090 
#    z 0.053390 0.076090 2.256180 
# 
# From -- ./inp_files/388787.got.cif
#   From: 2010.05.17/outbox.cif.g08.bks.cpg/sg2_195_cif.got.tgz:388787.got - 2010.06.03 11:33:40.
