data_PCOD9041314
_publ_section_title
;
Structure prediction by ZEFSAII (Michael W. Deem and Ramdas Pophale) SiO2 
 PCOD9041314
Probable space group: P -1
;
_chemical_formula_sum "Si O2"
_cell_formula_units_Z 10
_cell_length_a 15.200456
_cell_length_b 9.911944
_cell_length_c 5.915444
_cell_angle_alpha 109.576487
_cell_angle_beta 128.649004
_cell_angle_gamma 38.346711
_cell_volume 409.231670
_symmetry_space_group_name_H-M "P -1"
_symmetry_group_IT_number 2
_symmetry_cell_setting 'triclinic'
loop_
_space_group_symop_operation_xyz
x,y,z
-x,-y,-z
loop_
_atom_site_type_symbol
_atom_site_label
_atom_site_fract_x
_atom_site_fract_y
_atom_site_fract_z
Si Si1 0.493728 0.399008 0.723783
Si Si2 0.667896 0.677488 0.313502
Si Si3 0.670421 0.978166 0.273661
Si Si4 0.197245 0.869295 0.241580
Si Si5 0.035411 0.392348 0.748279
O O1 0.422392 0.312130 0.617838
O O2 0.341211 0.618345 0.442160
O O3 0.700311 0.193016 0.859377
O O4 0.500000 0.500000 0.000000
O O5 0.667613 0.849706 0.373337
O O6 0.878598 0.427614 0.509852
O O7 0.534342 0.764765 0.943939
O O8 0.753646 0.846410 0.091071
O O9 0.796483 0.984146 0.543035
O O10 0.000000 0.000000 0.000000
O O11 0.000000 0.500000 0.500000
O O12 0.000000 0.500000 0.000000
#
# Coordination Sequence:
#
# PCOD9041314 Si02
#       5
#     2   2   2   2   2
#     4  11  25  46  68 102 143 192 237 299 375 432
#     4  10  23  43  73 100 143 180 244 305 366 432
#     4  10  23  44  71 108 137 187 247 299 368 441
#     4  11  27  46  72 104 148 190 247 302 368 450
#     4  10  24  43  68 108 147 187 238 309 379 437
#
# _framework density 24.436035
#
# number of rings (size 3 to 8) (size 9 to 14) (size 15 to 20)
#    0.000    1.600    2.000    0.000    2.800   15.200 
#    0.000    0.000    0.000    0.000    0.000    0.000 
#    0.000    0.000    0.000    0.000    0.000    0.000 
#
# Total GULP energy -55676.623524 kJ/mol
# GULP energy per Si atom -5567.662352 kJ/mol
# Density = 2.438042 g / cm^3
# Si number density = 24.436035 Si / 1000 Ang^3
#
#
#
# Elastic Constant Matrix: (Units=GPa)
#
#
# Indices 1 2 3 4 5 6 
#
# 1 193.8138 62.5625 58.6747 -3.7900 40.7811 -14.3733
# 2 62.5625 93.0555 37.9681 5.7054 9.5029 -27.4464
# 3 58.6747 37.9681 101.0907 -11.6552 33.3291 -22.2053
# 4 -3.7900 5.7054 -11.6552 40.0351 -15.3388 -0.0414
# 5 40.7811 9.5029 33.3291 -15.3388 54.6716 -6.8843
# 6 -14.3733 -27.4464 -22.2053 -0.0414 -6.8843 53.5585
#
#
#
# Elastic Compliance Matrix: (Units=1/GPa)
#
#
# Indices 1 2 3 4 5 6 
#
# 1 0.008016 -0.004560 -0.001910 -0.000857 -0.004458 -0.001551
# 2 -0.004560 0.017052 -0.003545 -0.002895 0.002589 0.006375
# 3 -0.001910 -0.003545 0.015385 0.002411 -0.006253 0.003248
# 4 -0.000857 -0.002895 0.002411 0.029021 0.007855 0.000318
# 5 -0.004458 0.002589 -0.006253 0.007855 0.027315 0.001055
# 6 -0.001551 0.006375 0.003248 0.000318 0.001055 0.023004
#
#
# Mechanical properties :
#
#
# Convention : Reuss Voigt Hill
#
# Bulk Modulus (GPa) = 48.96120 78.48562 63.72341
# Shear Modulus (GPa) = 34.09963 44.90336 39.50150
#
# Velocity S-wave (km/s) = 3.73964 4.29136 4.02497
# Velocity P-wave (km/s) = 6.22307 7.53279 6.90903
#
# Compressibility (1/GPa) = 0.02042434
#
# Stress axis : x y z
#
# Youngs Moduli (GPa) = 124.75292 58.64537 64.99961
#
# Poissons Ratio (x) = 0.26740 0.12412
# Poissons Ratio (y) = 0.56882 0.23041
# Poissons Ratio (z) = 0.23823 0.20788
#
# Static dielectric constant tensor:
#      x y z
#    x 1.982260 -0.030740 -0.078160 
#    y -0.030740 2.513360 -0.050290 
#    z -0.078160 -0.050290 2.040280 
# 
# From -- ./inp_files/95417.got.cif
#   From: 2010.05.17/outbox.cif.g08.bks.cpg/sg2_48_cif.got.tgz:95417.got - 2010.06.03 11:33:40.
