data_PCOD9041107
_publ_section_title
;
Structure prediction by ZEFSAII (Michael W. Deem and Ramdas Pophale) SiO2 
 PCOD9041107
Probable space group: P -1
;
_chemical_formula_sum "Si O2"
_cell_formula_units_Z 10
_cell_length_a 9.846681
_cell_length_b 7.714871
_cell_length_c 9.501602
_cell_angle_alpha 81.467675
_cell_angle_beta 123.048524
_cell_angle_gamma 133.399606
_cell_volume 408.109658
_symmetry_space_group_name_H-M "P -1"
_symmetry_group_IT_number 2
_symmetry_cell_setting 'triclinic'
loop_
_space_group_symop_operation_xyz
x,y,z
-x,-y,-z
loop_
_atom_site_type_symbol
_atom_site_label
_atom_site_fract_x
_atom_site_fract_y
_atom_site_fract_z
Si Si1 0.192821 0.824921 0.952790
Si Si2 0.550143 0.327872 0.938048
Si Si3 0.847139 0.412085 0.563108
Si Si4 0.061797 0.831925 0.183955
Si Si5 0.538171 0.601045 0.664679
O O1 0.006622 0.634947 0.746161
O O2 0.349427 0.115949 0.960704
O O3 0.368115 0.795724 0.063614
O O4 0.075399 0.760042 0.044631
O O5 0.477858 0.403299 0.766034
O O6 0.789254 0.600728 0.105727
O O7 0.792934 0.179806 0.627485
O O8 0.625540 0.358791 0.409106
O O9 0.000000 0.500000 0.500000
O O10 0.189670 0.118438 0.211094
O O11 0.500000 0.500000 0.500000
#
# Coordination Sequence:
#
# PCOD9041107 Si02
#       5
#     2   2   2   2   2
#     4  10  23  46  72  96 141 188 230 276 351 427
#     4  10  23  43  71 100 136 178 239 280 342 409
#     4  11  26  46  72 104 142 185 227 289 356 412
#     4  11  24  46  72  96 141 191 232 274 354 422
#     4  12  26  43  71 107 144 178 233 297 347 402
#
# _framework density 24.503216999999999
#
# number of rings (size 3 to 8) (size 9 to 14) (size 15 to 20)
#    0.000    1.200    0.000    6.000   11.200    1.600 
#    3.600    0.000    0.000    0.000    0.000    0.000 
#    0.000    0.000    0.000    0.000    0.000    0.000 
#
# Total GULP energy -56076.586880 kJ/mol
# GULP energy per Si atom -5607.658688 kJ/mol
# Density = 2.444745 g / cm^3
# Si number density = 24.503217 Si / 1000 Ang^3
#
#
#
# Elastic Constant Matrix: (Units=GPa)
#
#
# Indices 1 2 3 4 5 6 
#
# 1 61.2588 34.0776 21.1773 -15.3636 3.8563 -5.8428
# 2 34.0776 164.5849 34.6103 -33.7254 -3.5206 15.3354
# 3 21.1773 34.6103 96.9601 -32.2133 1.9292 -1.2078
# 4 -15.3636 -33.7254 -32.2133 54.1748 -14.7400 4.4148
# 5 3.8563 -3.5206 1.9292 -14.7400 47.4704 -4.7490
# 6 -5.8428 15.3354 -1.2078 4.4148 -4.7490 37.9870
#
#
#
# Elastic Compliance Matrix: (Units=1/GPa)
#
#
# Indices 1 2 3 4 5 6 
#
# 1 0.020093 -0.003799 -0.002566 0.001183 -0.001014 0.004278
# 2 -0.003799 0.008401 -0.000733 0.004599 0.001960 -0.004288
# 3 -0.002566 -0.000733 0.013557 0.007411 0.001875 -0.000295
# 4 0.001183 0.004599 0.007411 0.028673 0.008476 -0.003712
# 5 -0.001014 0.001960 0.001875 0.008476 0.023961 0.001123
# 6 0.004278 -0.004288 -0.000295 -0.003712 0.001123 0.029276
#
#
# Mechanical properties :
#
#
# Convention : Reuss Voigt Hill
#
# Bulk Modulus (GPa) = 35.90106 55.83714 45.86910
# Shear Modulus (GPa) = 33.91165 43.45567 38.68366
#
# Velocity S-wave (km/s) = 3.72421 4.21582 3.97762
# Velocity P-wave (km/s) = 5.75989 6.82164 6.31312
#
# Compressibility (1/GPa) = 0.02785433
#
# Stress axis : x y z
#
# Youngs Moduli (GPa) = 49.76857 119.04016 73.76252
#
# Poissons Ratio (x) = 0.45218 0.18929
# Poissons Ratio (y) = 0.18905 0.05410
# Poissons Ratio (z) = 0.12771 0.08730
#
# Static dielectric constant tensor:
#      x y z
#    x 1.940590 -0.035900 0.061730 
#    y -0.035900 1.923480 0.030830 
#    z 0.061730 0.030830 1.934440 
# 
# From -- ./inp_files/147239.got.cif
#   From: 2010.05.17/outbox.cif.g08.bks.cpg/sg2_74_cif.got.tgz:147239.got - 2010.06.03 11:33:40.
