data_PCOD9041254
_publ_section_title
;
Structure prediction by ZEFSAII (Michael W. Deem and Ramdas Pophale) SiO2 
 PCOD9041254
Probable space group: P -1
;
_chemical_formula_sum "Si O2"
_cell_formula_units_Z 12
_cell_length_a 11.717983
_cell_length_b 7.553031
_cell_length_c 8.227654
_cell_angle_alpha 123.704604
_cell_angle_beta 92.046031
_cell_angle_gamma 121.722986
_cell_volume 456.787599
_symmetry_space_group_name_H-M "P -1"
_symmetry_group_IT_number 2
_symmetry_cell_setting 'triclinic'
loop_
_space_group_symop_operation_xyz
x,y,z
-x,-y,-z
loop_
_atom_site_type_symbol
_atom_site_label
_atom_site_fract_x
_atom_site_fract_y
_atom_site_fract_z
Si Si1 0.765637 0.334523 0.218565
Si Si2 0.519590 0.020584 0.761228
Si Si3 0.159094 0.234741 0.042544
Si Si4 0.215420 0.199386 0.652264
Si Si5 0.936913 0.425922 0.775395
Si Si6 0.525332 0.400768 0.691127
O O1 0.829142 0.653857 0.385060
O O2 0.914566 0.374595 0.229800
O O3 0.647612 0.149259 0.259638
O O4 0.656811 0.193221 0.983270
O O5 0.535623 0.230984 0.742614
O O6 0.520201 0.786344 0.564933
O O7 0.171318 0.504847 0.207520
O O8 0.305561 0.302874 0.163905
O O9 0.165826 0.185449 0.827246
O O10 0.000000 0.000000 0.000000
O O11 0.397206 0.404734 0.744120
O O12 0.149014 0.896045 0.433351
O O13 0.000000 0.500000 0.000000
#
# Coordination Sequence:
#
# PCOD9041254 Si02
#       6
#     2   2   2   2   2   2
#     4  11  24  42  70 108 137 185 235 278 353 414
#     4  10  23  43  72 102 138 187 230 286 347 408
#     4  12  29  45  71 106 137 184 236 284 353 410
#     4  12  26  45  75 102 139 189 231 286 349 411
#     4  12  25  46  69 101 148 178 229 295 343 413
#     4  11  23  47  69 101 141 179 235 289 339 411
#
# _framework density 26.270417999999999
#
# number of rings (size 3 to 8) (size 9 to 14) (size 15 to 20)
#    0.000    0.667    3.333    4.000    4.667    2.667 
#    0.000    0.000    0.000    0.000    0.000    0.000 
#    0.000    0.000    0.000    0.000    0.000    0.000 
#
# Total GULP energy -67365.067630 kJ/mol
# GULP energy per Si atom -5613.755636 kJ/mol
# Density = 2.621063 g / cm^3
# Si number density = 26.270418 Si / 1000 Ang^3
#
#
#
# Elastic Constant Matrix: (Units=GPa)
#
#
# Indices 1 2 3 4 5 6 
#
# 1 162.1080 45.2030 28.7827 -3.5770 -12.3001 52.6318
# 2 45.2030 100.7341 29.7949 6.8003 -6.1926 46.8187
# 3 28.7827 29.7949 134.0687 20.3507 -18.7929 11.1964
# 4 -3.5770 6.8003 20.3507 26.3151 1.2569 -5.1687
# 5 -12.3001 -6.1926 -18.7929 1.2569 36.7750 0.3769
# 6 52.6318 46.8187 11.1964 -5.1687 0.3769 58.2219
#
#
#
# Elastic Compliance Matrix: (Units=1/GPa)
#
#
# Indices 1 2 3 4 5 6 
#
# 1 0.009179 0.000138 -0.000974 0.000223 0.002672 -0.008220
# 2 0.000138 0.017706 -0.001370 -0.006513 0.002701 -0.014696
# 3 -0.000974 -0.001370 0.009871 -0.007765 0.004760 -0.000636
# 4 0.000223 -0.006513 -0.007765 0.048172 -0.006747 0.010848
# 5 0.002672 0.002701 0.004760 -0.006747 0.031269 -0.006304
# 6 -0.008220 -0.014696 -0.000636 0.010848 -0.006304 0.037550
#
#
# Mechanical properties :
#
#
# Convention : Reuss Voigt Hill
#
# Bulk Modulus (GPa) = 30.91697 67.16358 49.04027
# Shear Modulus (GPa) = 29.59611 43.80440 36.70026
#
# Velocity S-wave (km/s) = 3.36012 4.08786 3.74173
# Velocity P-wave (km/s) = 5.18152 6.92117 6.11354
#
# Compressibility (1/GPa) = 0.03234470
#
# Stress axis : x y z
#
# Youngs Moduli (GPa) = 108.93888 56.47775 101.30199
#
# Poissons Ratio (x) = -0.00782 0.09871
# Poissons Ratio (y) = -0.01509 0.13881
# Poissons Ratio (z) = 0.10615 0.07739
#
# Static dielectric constant tensor:
#      x y z
#    x 1.998340 0.009020 0.010180 
#    y 0.009020 2.102820 0.040880 
#    z 0.010180 0.040880 2.079520 
# 
# From -- ./inp_files/148578.got.cif
#   From: 2010.05.17/outbox.cif.g08.bks.cpg/sg2_75_cif.got.tgz:148578.got - 2010.06.03 11:33:40.
