data_PCOD9041521
_publ_section_title
;
Structure prediction by ZEFSAII (Michael W. Deem and Ramdas Pophale) SiO2 
 PCOD9041521
Probable space group: P -1
;
_chemical_formula_sum "Si O2"
_cell_formula_units_Z 16
_cell_length_a 12.036583
_cell_length_b 16.141773
_cell_length_c 7.537606
_cell_angle_alpha 66.992273
_cell_angle_beta 105.253335
_cell_angle_gamma 147.406034
_cell_volume 719.638646
_symmetry_space_group_name_H-M "P -1"
_symmetry_group_IT_number 2
_symmetry_cell_setting 'triclinic'
loop_
_space_group_symop_operation_xyz
x,y,z
-x,-y,-z
loop_
_atom_site_type_symbol
_atom_site_label
_atom_site_fract_x
_atom_site_fract_y
_atom_site_fract_z
Si Si1 0.425283 0.381986 0.244303
Si Si2 0.709616 0.517872 0.943539
Si Si3 0.367028 0.742965 0.875643
Si Si4 0.784111 0.903452 0.433059
Si Si5 0.028729 0.107421 0.039160
Si Si6 0.617850 0.968669 0.485922
Si Si7 0.794699 0.110345 0.795732
Si Si8 0.819454 0.213645 0.079312
O O1 0.630978 0.487682 0.136345
O O2 0.381096 0.284146 0.465092
O O3 0.239879 0.246252 0.129759
O O4 0.402669 0.471835 0.212155
O O5 0.656953 0.378953 0.009499
O O6 0.956031 0.684827 0.872960
O O7 0.405692 0.801593 0.638072
O O8 0.197166 0.695139 0.937913
O O9 0.586582 0.916367 0.905689
O O10 0.720946 0.940309 0.509766
O O11 0.838732 0.981708 0.204006
O O12 0.000000 0.000000 0.500000
O O13 0.988203 0.168856 0.852034
O O14 0.000000 0.000000 0.000000
O O15 0.754530 0.109014 0.575801
O O16 0.641915 0.043924 0.256983
O O17 0.800957 0.190524 0.879834
#
# Coordination Sequence:
#
# PCOD9041521 Si02
#       8
#     2   2   2   2   2   2   2   2
#     4  10  20  36  59  86 120 164 200 241 307 369
#     4  11  21  37  63  88 122 167 198 246 308 368
#     4  10  23  39  63  90 124 158 207 254 299 359
#     4  10  17  33  57  89 118 156 196 249 294 357
#     4  11  19  33  61  93 121 153 200 254 301 353
#     4  10  21  38  63  91 122 153 209 250 300 355
#     4  10  21  37  62  93 118 155 205 255 295 355
#     4  12  21  41  65  91 119 165 204 251 307 351
#
# _framework density 22.233381999999999
#
# number of rings (size 3 to 8) (size 9 to 14) (size 15 to 20)
#    0.750    0.750    3.750    4.125    0.000    0.000 
#    0.000    0.000    8.250    6.000    0.000    0.000 
#    0.000    0.000    0.000    0.000    0.000    0.000 
#
# Total GULP energy -89142.772572 kJ/mol
# GULP energy per Si atom -5571.423286 kJ/mol
# Density = 2.218278 g / cm^3
# Si number density = 22.233382 Si / 1000 Ang^3
#
#
#
# Elastic Constant Matrix: (Units=GPa)
#
#
# Indices 1 2 3 4 5 6 
#
# 1 150.9906 35.5883 12.8820 -0.7238 -6.4456 -36.9201
# 2 35.5883 42.0195 11.4235 -17.5133 -2.1205 -16.0934
# 3 12.8820 11.4235 39.7578 -3.3777 -5.5458 -12.4511
# 4 -0.7238 -17.5133 -3.3777 26.6809 -4.5512 6.2778
# 5 -6.4456 -2.1205 -5.5458 -4.5512 33.8888 -2.0700
# 6 -36.9201 -16.0934 -12.4511 6.2778 -2.0700 40.5439
#
#
#
# Elastic Compliance Matrix: (Units=1/GPa)
#
#
# Indices 1 2 3 4 5 6 
#
# 1 0.010571 -0.009408 0.001134 -0.007309 0.001079 0.007426
# 2 -0.009408 0.047804 -0.006231 0.030144 0.004478 0.004055
# 3 0.001134 -0.006231 0.029709 -0.001362 0.005002 0.008149
# 4 -0.007309 0.030144 -0.001362 0.059166 0.007983 -0.003862
# 5 0.001079 0.004478 0.005002 0.007983 0.032172 0.004703
# 6 0.007426 0.004055 0.008149 -0.003862 0.004703 0.036377
#
#
# Mechanical properties :
#
#
# Convention : Reuss Voigt Hill
#
# Bulk Modulus (GPa) = 16.92866 39.17284 28.05075
# Shear Modulus (GPa) = 18.90346 31.74765 25.32556
#
# Velocity S-wave (km/s) = 2.91903 3.78289 3.37868
# Velocity P-wave (km/s) = 4.35794 6.06115 5.27869
#
# Compressibility (1/GPa) = 0.05907140
#
# Stress axis : x y z
#
# Youngs Moduli (GPa) = 94.60144 20.91894 33.65929
#
# Poissons Ratio (x) = 0.19681 -0.03816
# Poissons Ratio (y) = 0.89005 0.20974
# Poissons Ratio (z) = -0.10724 0.13035
#
# Static dielectric constant tensor:
#      x y z
#    x 1.861260 -0.007560 0.026030 
#    y -0.007560 1.865590 -0.031310 
#    z 0.026030 -0.031310 1.872920 
# 
# From -- ./inp_files/270028.got.cif
#   From: 2010.05.17/outbox.cif.g08.bks.cpg/sg2_136_cif.got.tgz:270028.got - 2010.06.03 11:33:40.
