data_PCOD9041076
_publ_section_title
;
Structure prediction by ZEFSAII (Michael W. Deem and Ramdas Pophale) SiO2 
 PCOD9041076
Probable space group: P -1
;
_chemical_formula_sum "Si O2"
_cell_formula_units_Z 16
_cell_length_a 10.372968
_cell_length_b 9.585955
_cell_length_c 16.676132
_cell_angle_alpha 42.472898
_cell_angle_beta 147.754698
_cell_angle_gamma 135.554482
_cell_volume 578.424042
_symmetry_space_group_name_H-M "P -1"
_symmetry_group_IT_number 2
_symmetry_cell_setting 'triclinic'
loop_
_space_group_symop_operation_xyz
x,y,z
-x,-y,-z
loop_
_atom_site_type_symbol
_atom_site_label
_atom_site_fract_x
_atom_site_fract_y
_atom_site_fract_z
Si Si1 0.285630 0.037920 0.050307
Si Si2 0.222195 0.868164 0.834623
Si Si3 0.245524 0.655025 0.097100
Si Si4 0.482620 0.648023 0.679608
Si Si5 0.511672 0.153190 0.632647
Si Si6 0.188577 0.960031 0.391207
Si Si7 0.119726 0.377313 0.374755
Si Si8 0.304377 0.480762 0.830767
O O1 0.554442 0.074316 0.133700
O O2 0.168739 0.796478 0.065070
O O3 0.345916 0.014607 0.184603
O O4 0.175316 0.225918 0.879113
O O5 0.080558 0.042941 0.715226
O O6 0.011784 0.685339 0.755294
O O7 0.327582 0.795734 0.001884
O O8 0.450834 0.522767 0.273953
O O9 0.000000 0.500000 0.000000
O O10 0.716602 0.856582 0.703242
O O11 0.435853 0.549083 0.785979
O O12 0.242870 0.735422 0.494231
O O13 0.378349 0.055127 0.523350
O O14 0.285621 0.206262 0.544414
O O15 0.701413 0.385456 0.627959
O O16 0.892934 0.380553 0.313765
O O17 0.500000 0.500000 0.000000
#
# Coordination Sequence:
#
# PCOD9041076 Si02
#       8
#     2   2   2   2   2   2   2   2
#     4  12  26  40  71 106 135 183 233 282 346 417
#     4  11  22  43  68  99 135 177 230 280 345 406
#     4  12  24  44  68  95 141 186 226 280 344 415
#     4  11  24  43  67 101 136 181 227 278 350 401
#     4  10  24  44  69 100 135 181 240 274 342 417
#     4  10  24  44  70  99 137 185 228 286 337 418
#     4  10  23  43  70  97 138 185 223 290 343 403
#     4  12  24  44  70 105 144 176 227 295 348 406
#
# _framework density 27.661366999999998
#
# number of rings (size 3 to 8) (size 9 to 14) (size 15 to 20)
#    0.000    1.000    3.750    1.875    5.250    2.500 
#    0.000    1.250    0.000    0.000    0.000    0.000 
#    0.000    0.000    0.000    0.000    0.000    0.000 
#
# Total GULP energy -89615.120528 kJ/mol
# GULP energy per Si atom -5600.945033 kJ/mol
# Density = 2.759841 g / cm^3
# Si number density = 27.661367 Si / 1000 Ang^3
#
#
#
# Elastic Constant Matrix: (Units=GPa)
#
#
# Indices 1 2 3 4 5 6 
#
# 1 93.3253 5.9966 29.3642 0.8359 3.3818 -10.1353
# 2 5.9966 82.8368 16.5546 -1.6791 -1.8902 -9.1880
# 3 29.3642 16.5546 132.3052 -23.2390 5.2936 -17.6397
# 4 0.8359 -1.6791 -23.2390 34.4971 1.1150 4.5533
# 5 3.3818 -1.8902 5.2936 1.1150 62.0359 -11.0203
# 6 -10.1353 -9.1880 -17.6397 4.5533 -11.0203 35.4557
#
#
#
# Elastic Compliance Matrix: (Units=1/GPa)
#
#
# Indices 1 2 3 4 5 6 
#
# 1 0.011857 -0.000101 -0.002740 -0.002447 0.000042 0.002327
# 2 -0.000101 0.012689 -0.001330 -0.000708 0.001054 0.003016
# 3 -0.002740 -0.001330 0.009825 0.006255 -0.000335 0.002853
# 4 -0.002447 -0.000708 0.006255 0.033610 -0.001478 -0.002547
# 5 0.000042 0.001054 -0.000335 -0.001478 0.017210 0.005657
# 6 0.002327 0.003016 0.002853 -0.002547 0.005657 0.033156
#
#
# Mechanical properties :
#
#
# Convention : Reuss Voigt Hill
#
# Bulk Modulus (GPa) = 38.41779 45.81088 42.11434
# Shear Modulus (GPa) = 36.93701 43.50121 40.21911
#
# Velocity S-wave (km/s) = 3.65818 3.96995 3.81725
# Velocity P-wave (km/s) = 5.63576 6.13280 5.88953
#
# Compressibility (1/GPa) = 0.02602961
#
# Stress axis : x y z
#
# Youngs Moduli (GPa) = 84.33848 78.80690 101.77940
#
# Poissons Ratio (x) = 0.00798 0.27888
# Poissons Ratio (y) = 0.00854 0.13533
# Poissons Ratio (z) = 0.23109 0.10478
#
# Static dielectric constant tensor:
#      x y z
#    x 2.152720 0.008380 -0.022580 
#    y 0.008380 2.373770 -0.085030 
#    z -0.022580 -0.085030 2.182530 
# 
# From -- ./inp_files/595073.got.cif
#   From: 2010.05.17/outbox.cif.g08.bks.cpg/sg2_298_cif.got.tgz:595073.got - 2010.06.03 11:33:40.
