data_PCOD9041216
_publ_section_title
;
Structure prediction by ZEFSAII (Michael W. Deem and Ramdas Pophale) SiO2 
 PCOD9041216
Probable space group: P -1
;
_chemical_formula_sum "Si O2"
_cell_formula_units_Z 16
_cell_length_a 8.218846
_cell_length_b 11.092746
_cell_length_c 13.356433
_cell_angle_alpha 130.455837
_cell_angle_beta 126.279274
_cell_angle_gamma 55.594593
_cell_volume 713.640055
_symmetry_space_group_name_H-M "P -1"
_symmetry_group_IT_number 2
_symmetry_cell_setting 'triclinic'
loop_
_space_group_symop_operation_xyz
x,y,z
-x,-y,-z
loop_
_atom_site_type_symbol
_atom_site_label
_atom_site_fract_x
_atom_site_fract_y
_atom_site_fract_z
Si Si1 0.917736 0.761258 0.794493
Si Si2 0.283480 0.320976 0.955231
Si Si3 0.204842 0.845325 0.482766
Si Si4 0.742002 0.451315 0.527451
Si Si5 0.515412 0.031716 0.734950
Si Si6 0.339957 0.597450 0.756055
Si Si7 0.942614 0.307550 0.973188
Si Si8 0.566947 0.231180 0.690099
O O1 0.834344 0.605998 0.649171
O O2 0.757087 0.928902 0.785788
O O3 0.153687 0.719519 0.816440
O O4 0.936051 0.764965 0.922075
O O5 0.152922 0.492418 0.947193
O O6 0.419547 0.187134 0.855998
O O7 0.441104 0.364115 0.117601
O O8 0.107217 0.262221 0.917574
O O9 0.149399 0.692324 0.432103
O O10 0.386139 0.900053 0.636904
O O11 0.304996 0.804425 0.386709
O O12 0.000000 0.000000 0.500000
O O13 0.500000 0.500000 0.500000
O O14 0.735809 0.389482 0.378726
O O15 0.480883 0.096345 0.642445
O O16 0.386408 0.405040 0.702289
O O17 0.737849 0.252775 0.844576
#
# Coordination Sequence:
#
# PCOD9041216 Si02
#       8
#     2   2   2   2   2   2   2   2
#     4  12  26  42  69  99 135 177 216 274 332 387
#     4  10  23  43  71  98 132 171 225 272 324 395
#     4  12  28  44  70 100 130 176 220 277 332 385
#     4  12  24  47  69  95 133 173 229 269 324 397
#     4  12  26  44  65 102 139 171 215 277 335 387
#     4  11  24  44  71  97 130 182 219 269 326 393
#     4  10  23  43  72  98 127 179 223 267 329 391
#     4  11  24  45  68  97 137 174 222 268 327 398
#
# _framework density 22.420266999999999
#
# number of rings (size 3 to 8) (size 9 to 14) (size 15 to 20)
#    0.000    0.750    2.500    3.750    8.750    4.500 
#    0.000    0.000    0.000    0.000    0.000    0.000 
#    0.000    0.000    0.000    0.000    0.000    0.000 
#
# Total GULP energy -89525.319587 kJ/mol
# GULP energy per Si atom -5595.332474 kJ/mol
# Density = 2.236924 g / cm^3
# Si number density = 22.420267 Si / 1000 Ang^3
#
#
#
# Elastic Constant Matrix: (Units=GPa)
#
#
# Indices 1 2 3 4 5 6 
#
# 1 63.3581 36.6518 -2.7039 7.9244 -8.2010 -6.1658
# 2 36.6518 119.3127 17.8527 7.4713 -34.9183 -16.3022
# 3 -2.7039 17.8527 70.9984 -1.8443 -16.2267 12.2879
# 4 7.9244 7.4713 -1.8443 19.2933 -7.3261 -3.3591
# 5 -8.2010 -34.9183 -16.2267 -7.3261 31.7204 -0.7830
# 6 -6.1658 -16.3022 12.2879 -3.3591 -0.7830 41.4687
#
#
#
# Elastic Compliance Matrix: (Units=1/GPa)
#
#
# Indices 1 2 3 4 5 6 
#
# 1 0.020358 -0.007207 0.001811 -0.006835 -0.003346 -0.000960
# 2 -0.007207 0.016214 -0.001669 0.003774 0.016162 0.006408
# 3 0.001811 -0.001669 0.017457 0.003845 0.008324 -0.005091
# 4 -0.006835 0.003774 0.003845 0.061441 0.018660 0.004657
# 5 -0.003346 0.016162 0.008324 0.018660 0.057167 0.005980
# 6 -0.000960 0.006408 -0.005091 0.004657 0.005980 0.028490
#
#
# Mechanical properties :
#
#
# Convention : Reuss Voigt Hill
#
# Bulk Modulus (GPa) = 25.06280 39.69670 32.37975
# Shear Modulus (GPa) = 21.87640 31.95438 26.91539
#
# Velocity S-wave (km/s) = 3.12708 3.77934 3.46857
# Velocity P-wave (km/s) = 4.92352 6.06537 5.52403
#
# Compressibility (1/GPa) = 0.03989977
#
# Stress axis : x y z
#
# Youngs Moduli (GPa) = 49.11988 61.67433 57.28417
#
# Poissons Ratio (x) = 0.44451 -0.10377
# Poissons Ratio (y) = 0.35403 0.09560
# Poissons Ratio (z) = -0.08898 0.10292
#
# Static dielectric constant tensor:
#      x y z
#    x 1.677080 -0.101060 0.116850 
#    y -0.101060 1.671110 0.114650 
#    z 0.116850 0.114650 1.744140 
# 
# From -- ./inp_files/343675.got.cif
#   From: 2010.05.17/outbox.cif.g08.bks.cpg/sg2_172_cif.got.tgz:343675.got - 2010.06.03 11:33:40.
