data_PCOD9041491
_publ_section_title
;
Structure prediction by ZEFSAII (Michael W. Deem and Ramdas Pophale) SiO2 
 PCOD9041491
Probable space group: P -1
;
_chemical_formula_sum "Si O2"
_cell_formula_units_Z 16
_cell_length_a 12.371093
_cell_length_b 17.714388
_cell_length_c 20.857879
_cell_angle_alpha 19.822700
_cell_angle_beta 141.155009
_cell_angle_gamma 149.905489
_cell_volume 760.510884
_symmetry_space_group_name_H-M "P -1"
_symmetry_group_IT_number 2
_symmetry_cell_setting 'triclinic'
loop_
_space_group_symop_operation_xyz
x,y,z
-x,-y,-z
loop_
_atom_site_type_symbol
_atom_site_label
_atom_site_fract_x
_atom_site_fract_y
_atom_site_fract_z
Si Si1 0.470356 0.098115 0.976250
Si Si2 0.624039 0.186453 0.344717
Si Si3 0.929349 0.633695 0.809314
Si Si4 0.933097 0.145886 0.441287
Si Si5 0.979238 0.148618 0.978224
Si Si6 0.140577 0.618331 0.370661
Si Si7 0.234482 0.904010 0.306667
Si Si8 0.671504 0.450871 0.601229
O O1 0.677898 0.408108 0.846901
O O2 0.500000 0.000000 0.000000
O O3 0.463435 0.885571 0.191224
O O4 0.228941 0.013766 0.939393
O O5 0.724063 0.055912 0.457394
O O6 0.825230 0.519670 0.180488
O O7 0.500000 0.000000 0.500000
O O8 0.444292 0.154428 0.241782
O O9 0.065435 0.744752 0.716415
O O10 0.951977 0.895890 0.641384
O O11 0.000000 0.500000 0.000000
O O12 0.142113 0.395495 0.380633
O O13 0.885525 0.181185 0.843972
O O14 0.080936 0.986878 0.149916
O O15 0.295008 0.805597 0.351573
O O16 0.213527 0.472337 0.475989
O O17 0.908660 0.366078 0.496574
O O18 0.500000 0.500000 0.500000
#
# Coordination Sequence:
#
# PCOD9041491 Si02
#       8
#     2   2   2   2   2   2   2   2
#     4  11  22  43  67 100 137 171 220 284 332 407
#     4  12  23  48  67  97 141 184 231 282 343 405
#     4  11  25  46  72 107 136 179 230 275 355 413
#     4  11  24  46  69  99 144 174 224 295 332 410
#     4  11  23  44  68  97 136 175 233 276 340 409
#     4  10  23  44  62 102 131 168 234 277 335 410
#     4  11  24  40  72  93 134 180 225 286 335 396
#     4  11  22  41  70  95 135 178 219 275 345 410
#
# _framework density 21.038489999999999
#
# number of rings (size 3 to 8) (size 9 to 14) (size 15 to 20)
#    0.000    1.000    5.000    1.500    1.750    6.000 
#   13.500    0.000    0.000    0.000    0.000    0.000 
#    0.000    0.000    0.000    0.000    0.000    0.000 
#
# Total GULP energy -89283.948589 kJ/mol
# GULP energy per Si atom -5580.246787 kJ/mol
# Density = 2.099061 g / cm^3
# Si number density = 21.038490 Si / 1000 Ang^3
#
#
#
# Elastic Constant Matrix: (Units=GPa)
#
#
# Indices 1 2 3 4 5 6 
#
# 1 162.2873 50.6803 38.4916 15.0505 -9.4691 -6.1630
# 2 50.6803 75.8183 15.3510 -3.9223 -12.3354 -0.7353
# 3 38.4916 15.3510 73.3388 8.0227 -7.0648 -1.7809
# 4 15.0505 -3.9223 8.0227 39.1872 0.5197 6.3255
# 5 -9.4691 -12.3354 -7.0648 0.5197 28.1869 2.4525
# 6 -6.1630 -0.7353 -1.7809 6.3255 2.4525 29.3787
#
#
#
# Elastic Compliance Matrix: (Units=1/GPa)
#
#
# Indices 1 2 3 4 5 6 
#
# 1 0.009108 -0.005682 -0.003150 -0.003809 -0.000357 0.002427
# 2 -0.005682 0.018344 -0.000820 0.004469 0.006026 -0.002248
# 3 -0.003150 -0.000820 0.015970 -0.002266 0.002579 0.000560
# 4 -0.003809 0.004469 -0.002266 0.029035 0.000190 -0.007092
# 5 -0.000357 0.006026 0.002579 0.000190 0.038903 -0.003056
# 6 0.002427 -0.002248 0.000560 -0.007092 -0.003056 0.036307
#
#
# Mechanical properties :
#
#
# Convention : Reuss Voigt Hill
#
# Bulk Modulus (GPa) = 41.46393 57.83224 49.64809
# Shear Modulus (GPa) = 28.56964 33.14534 30.85749
#
# Velocity S-wave (km/s) = 3.68906 3.97351 3.83393
# Velocity P-wave (km/s) = 6.15605 6.97139 6.57637
#
# Compressibility (1/GPa) = 0.02411735
#
# Stress axis : x y z
#
# Youngs Moduli (GPa) = 109.79343 54.51494 62.61692
#
# Poissons Ratio (x) = 0.30976 0.19723
# Poissons Ratio (y) = 0.62386 0.05137
# Poissons Ratio (z) = 0.34582 0.04472
#
# Static dielectric constant tensor:
#      x y z
#    x 1.874080 0.053840 -0.074400 
#    y 0.053840 1.826130 -0.038970 
#    z -0.074400 -0.038970 1.809290 
# 
# From -- ./inp_files/595956.got.cif
#   From: 2010.05.17/outbox.cif.g08.bks.cpg/sg2_298_cif.got.tgz:595956.got - 2010.06.03 11:33:40.
