data_PCOD9041638
_publ_section_title
;
Structure prediction by ZEFSAII (Michael W. Deem and Ramdas Pophale) SiO2 
 PCOD9041638
Probable space group: P -1
;
_chemical_formula_sum "Si O2"
_cell_formula_units_Z 12
_cell_length_a 11.587859
_cell_length_b 9.773801
_cell_length_c 8.598496
_cell_angle_alpha 130.935571
_cell_angle_beta 109.272468
_cell_angle_gamma 103.530402
_cell_volume 538.553402
_symmetry_space_group_name_H-M "P -1"
_symmetry_group_IT_number 2
_symmetry_cell_setting 'triclinic'
loop_
_space_group_symop_operation_xyz
x,y,z
-x,-y,-z
loop_
_atom_site_type_symbol
_atom_site_label
_atom_site_fract_x
_atom_site_fract_y
_atom_site_fract_z
Si Si1 0.877201 0.870217 0.486683
Si Si2 0.693987 0.416119 0.877868
Si Si3 0.976345 0.671784 0.956856
Si Si4 0.421655 0.302878 0.450421
Si Si5 0.818468 0.621967 0.545974
Si Si6 0.753452 0.225503 0.033611
O O1 0.939840 0.793953 0.593603
O O2 0.000000 0.000000 0.500000
O O3 0.263301 0.365886 0.838473
O O4 0.885829 0.079555 0.717810
O O5 0.847031 0.501245 0.903177
O O6 0.554542 0.339782 0.645027
O O7 0.658908 0.231154 0.853625
O O8 0.879373 0.694075 0.800676
O O9 0.070999 0.624220 0.851331
O O10 0.500000 0.500000 0.500000
O O11 0.311406 0.345366 0.518645
O O12 0.315064 0.034086 0.147621
O O13 0.757037 0.366322 0.284577
#
# Coordination Sequence:
#
# PCOD9041638 Si02
#       6
#     2   2   2   2   2   2
#     4   9  20  36  66  97 128 172 216 268 326 383
#     4  10  23  44  66 101 135 172 227 269 332 399
#     4  11  20  43  69  99 134 172 220 280 327 392
#     4  12  25  46  69  95 135 183 219 273 331 395
#     4  11  23  42  69  99 136 171 227 269 332 395
#     4  11  25  41  69 100 133 174 222 276 334 385
#
# _framework density 22.281914
#
# number of rings (size 3 to 8) (size 9 to 14) (size 15 to 20)
#    0.000    1.333    3.333    2.000    0.000    3.333 
#    3.000    0.000    0.000    0.000    0.000    0.000 
#    0.000    0.000    0.000    0.000    0.000    0.000 
#
# Total GULP energy -66886.386743 kJ/mol
# GULP energy per Si atom -5573.865562 kJ/mol
# Density = 2.223120 g / cm^3
# Si number density = 22.281914 Si / 1000 Ang^3
#
#
#
# Elastic Constant Matrix: (Units=GPa)
#
#
# Indices 1 2 3 4 5 6 
#
# 1 65.4634 -1.7904 36.0706 18.8162 -8.0361 -15.5613
# 2 -1.7904 104.1711 26.9865 13.9577 2.8404 13.2756
# 3 36.0706 26.9865 98.0670 21.1710 -19.9626 -1.7752
# 4 18.8162 13.9577 21.1710 29.6726 -15.6976 -5.3890
# 5 -8.0361 2.8404 -19.9626 -15.6976 30.9313 -5.1044
# 6 -15.5613 13.2756 -1.7752 -5.3890 -5.1044 26.8891
#
#
#
# Elastic Compliance Matrix: (Units=1/GPa)
#
#
# Indices 1 2 3 4 5 6 
#
# 1 0.024908 0.002876 -0.007958 -0.011376 -0.003119 0.009597
# 2 0.002876 0.014477 -0.004803 -0.013801 -0.012491 -0.010937
# 3 -0.007958 -0.004803 0.016184 0.000870 0.009391 0.000791
# 4 -0.011376 -0.013801 0.000870 0.071188 0.038613 0.021885
# 5 -0.003119 -0.012491 0.009391 0.038613 0.062376 0.024562
# 6 0.009597 -0.010937 0.000791 0.021885 0.024562 0.057245
#
#
# Mechanical properties :
#
#
# Convention : Reuss Voigt Hill
#
# Bulk Modulus (GPa) = 27.93401 43.35944 35.64672
# Shear Modulus (GPa) = 17.98042 31.26091 24.62067
#
# Velocity S-wave (km/s) = 2.84377 3.74969 3.32770
# Velocity P-wave (km/s) = 4.83183 6.18455 5.54956
#
# Compressibility (1/GPa) = 0.03579866
#
# Stress axis : x y z
#
# Youngs Moduli (GPa) = 40.14823 69.07566 61.78988
#
# Poissons Ratio (x) = -0.19866 0.49172
# Poissons Ratio (y) = -0.11546 0.29677
# Poissons Ratio (z) = 0.31950 0.33176
#
# Static dielectric constant tensor:
#      x y z
#    x 2.052070 0.154300 -0.038160 
#    y 0.154300 2.003900 -0.012780 
#    z -0.038160 -0.012780 1.855370 
# 
# From -- ./inp_files/146134.got.cif
#   From: 2010.05.17/outbox.cif.g08.bks.cpg/sg2_74_cif.got.tgz:146134.got - 2010.06.03 11:33:40.
