data_PCOD9041909
_publ_section_title
;
Structure prediction by ZEFSAII (Michael W. Deem and Ramdas Pophale) SiO2 
 PCOD9041909
Probable space group: P -1
;
_chemical_formula_sum "Si O2"
_cell_formula_units_Z 14
_cell_length_a 10.713069
_cell_length_b 5.029148
_cell_length_c 9.926637
_cell_angle_alpha 96.197236
_cell_angle_beta 79.801470
_cell_angle_gamma 97.416041
_cell_volume 519.982296
_symmetry_space_group_name_H-M "P -1"
_symmetry_group_IT_number 2
_symmetry_cell_setting 'triclinic'
loop_
_space_group_symop_operation_xyz
x,y,z
-x,-y,-z
loop_
_atom_site_type_symbol
_atom_site_label
_atom_site_fract_x
_atom_site_fract_y
_atom_site_fract_z
Si Si1 0.596067 0.741967 0.555197
Si Si2 0.245760 0.972473 0.673738
Si Si3 0.076437 0.215196 0.096384
Si Si4 0.999184 0.737533 0.263240
Si Si5 0.329579 0.110350 0.945035
Si Si6 0.805657 0.413543 0.575010
Si Si7 0.591337 0.131604 0.804798
O O1 0.500000 0.500000 0.500000
O O2 0.627418 0.929141 0.429527
O O3 0.739382 0.678043 0.566656
O O4 0.549796 0.866606 0.707933
O O5 0.144121 0.189137 0.704467
O O6 0.272640 0.925567 0.821821
O O7 0.190041 0.728904 0.578094
O O8 0.014845 0.486772 0.148740
O O9 0.076071 0.024267 0.218382
O O10 0.219443 0.287555 0.019757
O O11 0.000000 0.000000 0.000000
O O12 0.064366 0.637859 0.379379
O O13 0.461470 0.260698 0.870220
O O14 0.357717 0.948336 0.064594
O O15 0.697622 0.287240 0.697355
#
# Coordination Sequence:
#
# PCOD9041909 Si02
#       7
#     2   2   2   2   2   2   2
#     4  11  24  44  69 100 142 188 240 299 362 430
#     4  11  26  43  71 105 140 189 240 299 364 433
#     4  12  26  48  73 108 148 190 241 302 363 429
#     4  12  27  47  77 105 146 194 243 300 360 433
#     4  11  22  45  71 100 142 186 244 294 366 425
#     4  11  24  46  69 104 143 188 236 305 357 437
#     4  10  23  44  68 103 137 188 238 299 360 430
#
# _framework density 26.923995000000001
#
# number of rings (size 3 to 8) (size 9 to 14) (size 15 to 20)
#    0.000    0.857    2.857    3.429    4.000    4.000 
#    2.571    4.286    0.000    0.000    0.000    0.000 
#    0.000    0.000    0.000    0.000    0.000    0.000 
#
# Total GULP energy -78349.004402 kJ/mol
# GULP energy per Si atom -5596.357457 kJ/mol
# Density = 2.686271 g / cm^3
# Si number density = 26.923995 Si / 1000 Ang^3
#
#
#
# Elastic Constant Matrix: (Units=GPa)
#
#
# Indices 1 2 3 4 5 6 
#
# 1 132.0301 24.3770 67.7612 7.4680 -10.7480 -27.9805
# 2 24.3770 83.5133 50.4047 10.2347 -7.8393 -16.0966
# 3 67.7612 50.4047 206.7844 -4.0213 12.8394 -9.2425
# 4 7.4680 10.2347 -4.0213 43.6017 -6.7231 -9.0837
# 5 -10.7480 -7.8393 12.8394 -6.7231 70.6965 4.2829
# 6 -27.9805 -16.0966 -9.2425 -9.0837 4.2829 42.1367
#
#
#
# Elastic Compliance Matrix: (Units=1/GPa)
#
#
# Indices 1 2 3 4 5 6 
#
# 1 0.010801 0.000415 -0.003492 -0.000682 0.001880 0.006227
# 2 0.000415 0.015633 -0.003919 -0.002847 0.001961 0.004575
# 3 -0.003492 -0.003919 0.007010 0.001492 -0.001990 -0.001755
# 4 -0.000682 -0.002847 0.001492 0.024915 0.001436 0.004012
# 5 0.001880 0.001961 -0.001990 0.001436 0.015126 0.000333
# 6 0.006227 0.004575 -0.001755 0.004012 0.000333 0.030061
#
#
# Mechanical properties :
#
#
# Convention : Reuss Voigt Hill
#
# Bulk Modulus (GPa) = 51.41034 78.60153 65.00593
# Shear Modulus (GPa) = 40.31534 49.93931 45.12733
#
# Velocity S-wave (km/s) = 3.87379 4.31144 4.09846
# Velocity P-wave (km/s) = 6.25655 7.35132 6.82592
#
# Compressibility (1/GPa) = 0.01945134
#
# Stress axis : x y z
#
# Youngs Moduli (GPa) = 92.58464 63.96640 142.65556
#
# Poissons Ratio (x) = -0.02657 0.49820
# Poissons Ratio (y) = -0.03845 0.55912
# Poissons Ratio (z) = 0.32333 0.25071
#
# Static dielectric constant tensor:
#      x y z
#    x 2.168520 0.036990 0.006350 
#    y 0.036990 2.107080 -0.039740 
#    z 0.006350 -0.039740 2.100990 
# 
# From -- ./inp_files/229854.got.cif
#   From: 2010.05.17/outbox.cif.g08.bks.cpg/sg2_115_cif.got.tgz:229854.got - 2010.06.03 11:33:40.
