data_PCOD9041145
_publ_section_title
;
Structure prediction by ZEFSAII (Michael W. Deem and Ramdas Pophale) SiO2 
 PCOD9041145
Probable space group: P -1
;
_chemical_formula_sum "Si O2"
_cell_formula_units_Z 13
_cell_length_a 13.791053
_cell_length_b 6.645091
_cell_length_c 7.884968
_cell_angle_alpha 80.857816
_cell_angle_beta 128.200547
_cell_angle_gamma 80.904535
_cell_volume 529.160324
_symmetry_space_group_name_H-M "P -1"
_symmetry_group_IT_number 2
_symmetry_cell_setting 'triclinic'
loop_
_space_group_symop_operation_xyz
x,y,z
-x,-y,-z
loop_
_atom_site_type_symbol
_atom_site_label
_atom_site_fract_x
_atom_site_fract_y
_atom_site_fract_z
Si Si1 0.042370 0.805050 0.942382
Si Si2 0.000000 0.500000 0.500000
Si Si3 0.388918 0.620823 0.997860
Si Si4 0.151081 0.434953 0.347750
Si Si5 0.172087 0.020809 0.791374
Si Si6 0.430896 0.200655 0.625722
Si Si7 0.359975 0.212196 0.153152
O O1 0.922677 0.717981 0.791382
O O2 0.094570 0.884665 0.819987
O O3 0.151940 0.606691 0.178797
O O4 0.000000 0.000000 0.000000
O O5 0.936664 0.433415 0.612029
O O6 0.915028 0.755683 0.412910
O O7 0.469953 0.673234 0.235315
O O8 0.319376 0.448797 0.998663
O O9 0.500000 0.500000 0.000000
O O10 0.277760 0.849169 0.808204
O O11 0.298891 0.301555 0.574117
O O12 0.251656 0.102941 0.011180
O O13 0.391532 0.219270 0.383529
O O14 0.509424 0.947933 0.773810
#
# Coordination Sequence:
#
# PCOD9041145 Si02
#       7
#     2   1   2   2   2   2   2
#     4  11  23  47  69 102 136 194 227 288 340 415
#     4  12  28  46  66 106 144 190 224 292 346 418
#     4  11  26  43  73 101 139 184 224 288 357 407
#     4  11  26  42  72 101 144 177 238 282 346 415
#     4  11  26  46  73 100 146 181 239 281 352 409
#     4  10  23  43  71 103 130 180 232 290 336 414
#     4  10  23  46  73 101 135 180 233 293 337 410
#
# _framework density 24.567226000000002
#
# number of rings (size 3 to 8) (size 9 to 14) (size 15 to 20)
#    0.000    1.231    1.538    2.308    8.615    5.538 
#    0.000    0.000    0.000    0.000    0.000    0.000 
#    0.000    0.000    0.000    0.000    0.000    0.000 
#
# Total GULP energy -72547.623205 kJ/mol
# GULP energy per Si atom -5580.586400 kJ/mol
# Density = 2.451131 g / cm^3
# Si number density = 24.567226 Si / 1000 Ang^3
#
#
#
# Elastic Constant Matrix: (Units=GPa)
#
#
# Indices 1 2 3 4 5 6 
#
# 1 72.0814 35.3031 7.4146 -14.3455 9.7058 -10.1936
# 2 35.3031 144.0071 53.9834 -23.1249 14.3441 -8.8712
# 3 7.4146 53.9834 70.9209 -17.0487 6.4414 -2.0657
# 4 -14.3455 -23.1249 -17.0487 57.9761 -1.1384 0.0905
# 5 9.7058 14.3441 6.4414 -1.1384 32.7166 -6.2838
# 6 -10.1936 -8.8712 -2.0657 0.0905 -6.2838 47.0759
#
#
#
# Elastic Compliance Matrix: (Units=1/GPa)
#
#
# Indices 1 2 3 4 5 6 
#
# 1 0.017075 -0.004128 0.002498 0.003247 -0.003134 0.002604
# 2 -0.004128 0.011254 -0.007648 0.001177 -0.002044 0.000616
# 3 0.002498 -0.007648 0.020647 0.003613 -0.001363 -0.000183
# 4 0.003247 0.001177 0.003613 0.019556 -0.001344 0.000867
# 5 -0.003134 -0.002044 -0.001363 -0.001344 0.033250 0.003317
# 6 0.002604 0.000616 -0.000183 0.000867 0.003317 0.022355
#
#
# Mechanical properties :
#
#
# Convention : Reuss Voigt Hill
#
# Bulk Modulus (GPa) = 32.87287 53.37907 43.12597
# Shear Modulus (GPa) = 32.71542 40.24094 36.47818
#
# Velocity S-wave (km/s) = 3.65316 4.05160 3.85753
# Velocity P-wave (km/s) = 5.58605 6.60774 6.11826
#
# Compressibility (1/GPa) = 0.03042022
#
# Stress axis : x y z
#
# Youngs Moduli (GPa) = 58.56606 88.85988 48.43249
#
# Poissons Ratio (x) = 0.36684 -0.12101
# Poissons Ratio (y) = 0.24178 0.37040
# Poissons Ratio (z) = -0.14632 0.67959
#
# Static dielectric constant tensor:
#      x y z
#    x 1.947440 -0.019950 0.031180 
#    y -0.019950 1.903470 -0.004250 
#    z 0.031180 -0.004250 1.979710 
# 
# From -- ./inp_files/26936.got.cif
#   From: 2010.05.17/outbox.cif.g08.bks.cpg/sg2_14_cif.got.tgz:26936.got - 2010.06.03 11:33:40.
