data_PCOD9041426
_publ_section_title
;
Structure prediction by ZEFSAII (Michael W. Deem and Ramdas Pophale) SiO2 
 PCOD9041426
Probable space group: P -1
;
_chemical_formula_sum "Si O2"
_cell_formula_units_Z 16
_cell_length_a 5.003117
_cell_length_b 16.787366
_cell_length_c 8.388208
_cell_angle_alpha 118.125627
_cell_angle_beta 94.375221
_cell_angle_gamma 70.688064
_cell_volume 583.676836
_symmetry_space_group_name_H-M "P -1"
_symmetry_group_IT_number 2
_symmetry_cell_setting 'triclinic'
loop_
_space_group_symop_operation_xyz
x,y,z
-x,-y,-z
loop_
_atom_site_type_symbol
_atom_site_label
_atom_site_fract_x
_atom_site_fract_y
_atom_site_fract_z
Si Si1 0.020128 0.471353 0.226264
Si Si2 0.812861 0.395468 0.416456
Si Si3 0.457857 0.268727 0.351262
Si Si4 0.586998 0.595781 0.096514
Si Si5 0.919989 0.144143 0.046369
Si Si6 0.326574 0.805729 0.374078
Si Si7 0.682737 0.976683 0.823397
Si Si8 0.254796 0.114378 0.725992
O O1 0.816611 0.422546 0.256759
O O2 0.187857 0.510721 0.400581
O O3 0.835234 0.565757 0.212117
O O4 0.244749 0.400697 0.053378
O O5 0.122470 0.315162 0.371716
O O6 0.589187 0.354191 0.444144
O O7 0.613520 0.215261 0.149090
O O8 0.560170 0.202220 0.447817
O O9 0.353595 0.696435 0.223440
O O10 0.500000 0.500000 0.000000
O O11 0.863166 0.048625 0.893168
O O12 0.093792 0.123320 0.202239
O O13 0.093914 0.166554 0.929475
O O14 0.540978 0.835625 0.298007
O O15 0.005480 0.876239 0.397320
O O16 0.459892 0.009559 0.699154
O O17 0.500000 0.000000 0.000000
#
# Coordination Sequence:
#
# PCOD9041426 Si02
#       8
#     2   2   2   2   2   2   2   2
#     4  10  25  43  65  93 126 183 229 278 337 393
#     4  11  26  45  67  93 135 175 231 282 331 398
#     4  12  27  44  67 102 138 175 219 285 341 388
#     4  11  25  42  66  93 134 181 228 279 339 396
#     4  10  23  43  75 102 134 175 225 273 332 399
#     4  12  26  44  66  98 143 174 221 282 343 392
#     4   9  20  44  73 102 136 170 225 273 324 402
#     4  11  24  44  70  99 132 180 221 273 329 405
#
# _framework density 27.412426
#
# number of rings (size 3 to 8) (size 9 to 14) (size 15 to 20)
#    0.000    1.250    2.500    1.500   12.250    1.000 
#    0.000    1.250    0.000    0.000    0.000    0.000 
#    0.000    0.000    0.000    0.000    0.000    0.000 
#
# Total GULP energy -89681.158274 kJ/mol
# GULP energy per Si atom -5605.072392 kJ/mol
# Density = 2.735003 g / cm^3
# Si number density = 27.412426 Si / 1000 Ang^3
#
#
#
# Elastic Constant Matrix: (Units=GPa)
#
#
# Indices 1 2 3 4 5 6 
#
# 1 135.2288 63.4031 18.1742 -6.1811 -10.8706 -5.3517
# 2 63.4031 126.7798 35.5949 -31.1795 -3.6825 -9.5416
# 3 18.1742 35.5949 76.6754 -17.6211 -18.8495 1.0321
# 4 -6.1811 -31.1795 -17.6211 46.7402 -5.8675 0.0985
# 5 -10.8706 -3.6825 -18.8495 -5.8675 37.2649 -7.4519
# 6 -5.3517 -9.5416 1.0321 0.0985 -7.4519 65.7243
#
#
#
# Elastic Compliance Matrix: (Units=1/GPa)
#
#
# Indices 1 2 3 4 5 6 
#
# 1 0.010036 -0.005488 0.000278 -0.001944 0.002275 0.000277
# 2 -0.005488 0.013384 -0.003552 0.006770 -0.000717 0.001460
# 3 0.000278 -0.003552 0.018444 0.005882 0.010055 0.000349
# 4 -0.001944 0.006770 0.005882 0.028865 0.007940 0.001589
# 5 0.002275 -0.000717 0.010055 0.007940 0.034529 0.003826
# 6 0.000277 0.001460 0.000349 0.001589 0.003826 0.015876
#
#
# Mechanical properties :
#
#
# Convention : Reuss Voigt Hill
#
# Bulk Modulus (GPa) = 41.08779 63.66981 52.37880
# Shear Modulus (GPa) = 34.06658 44.71333 39.38996
#
# Velocity S-wave (km/s) = 3.52908 4.04311 3.79481
# Velocity P-wave (km/s) = 5.62380 6.71362 6.19273
#
# Compressibility (1/GPa) = 0.02433813
#
# Stress axis : x y z
#
# Youngs Moduli (GPa) = 99.64486 74.71776 54.21710
#
# Poissons Ratio (x) = 0.41005 -0.01506
# Poissons Ratio (y) = 0.54686 0.19260
# Poissons Ratio (z) = -0.02767 0.26543
#
# Static dielectric constant tensor:
#      x y z
#    x 2.156890 -0.049650 0.077490 
#    y -0.049650 2.147470 -0.003670 
#    z 0.077490 -0.003670 2.170840 
# 
# From -- ./inp_files/139243.got.cif
#   From: 2010.05.17/outbox.cif.g08.bks.cpg/sg2_70_cif.got.tgz:139243.got - 2010.06.03 11:33:40.
