data_PCOD9041351
_publ_section_title
;
Structure prediction by ZEFSAII (Michael W. Deem and Ramdas Pophale) SiO2 
 PCOD9041351
Probable space group: P -1
;
_chemical_formula_sum "Si O2"
_cell_formula_units_Z 16
_cell_length_a 13.619553
_cell_length_b 11.777344
_cell_length_c 12.597755
_cell_angle_alpha 100.618140
_cell_angle_beta 146.466406
_cell_angle_gamma 105.303634
_cell_volume 701.400101
_symmetry_space_group_name_H-M "P -1"
_symmetry_group_IT_number 2
_symmetry_cell_setting 'triclinic'
loop_
_space_group_symop_operation_xyz
x,y,z
-x,-y,-z
loop_
_atom_site_type_symbol
_atom_site_label
_atom_site_fract_x
_atom_site_fract_y
_atom_site_fract_z
Si Si1 0.207558 0.819621 0.654437
Si Si2 0.644557 0.667078 0.735492
Si Si3 0.740349 0.080628 0.651618
Si Si4 0.733349 0.741401 0.291306
Si Si5 0.505656 0.441272 0.174138
Si Si6 0.365651 0.080723 0.680771
Si Si7 0.831057 0.383373 0.722498
Si Si8 0.016612 0.536383 0.685965
O O1 0.107817 0.638640 0.516042
O O2 0.980104 0.774906 0.507888
O O3 0.238820 0.902177 0.585470
O O4 0.500000 0.000000 0.000000
O O5 0.500000 0.500000 0.500000
O O6 0.631528 0.631312 0.845068
O O7 0.462753 0.693246 0.560921
O O8 0.970828 0.826388 0.027254
O O9 0.801902 0.232212 0.675529
O O10 0.500000 0.000000 0.500000
O O11 0.627506 0.932231 0.440279
O O12 0.522128 0.575904 0.156931
O O13 0.820511 0.906159 0.445938
O O14 0.616380 0.693085 0.058050
O O15 0.807431 0.537742 0.481971
O O16 0.673279 0.269440 0.030958
O O17 0.999177 0.500346 0.788887
O O18 0.000000 0.500000 0.000000
#
# Coordination Sequence:
#
# PCOD9041351 Si02
#       8
#     2   2   2   2   2   2   2   2
#     4  12  25  43  69 103 142 190 243 298 367 440
#     4  11  25  45  77 110 147 198 252 313 375 451
#     4  12  27  47  72 110 150 193 255 310 376 451
#     4  11  24  42  70 105 145 188 236 308 368 438
#     4  10  23  43  73 107 140 190 250 294 372 447
#     4  12  26  44  71 103 148 190 241 304 374 445
#     4  11  23  45  76 104 143 194 248 307 376 439
#     4  11  24  45  70 103 144 193 241 303 366 442
#
# _framework density 22.811516999999998
#
# number of rings (size 3 to 8) (size 9 to 14) (size 15 to 20)
#    0.000    0.750    2.500    4.875    3.500    5.000 
#    2.250    0.000    0.000    0.000    0.000    0.000 
#    0.000    0.000    0.000    0.000    0.000    0.000 
#
# Total GULP energy -89431.144427 kJ/mol
# GULP energy per Si atom -5589.446527 kJ/mol
# Density = 2.275960 g / cm^3
# Si number density = 22.811517 Si / 1000 Ang^3
#
#
#
# Elastic Constant Matrix: (Units=GPa)
#
#
# Indices 1 2 3 4 5 6 
#
# 1 121.8163 13.6023 51.9562 -6.0792 -19.6743 7.4229
# 2 13.6023 64.2209 30.4580 2.7362 -5.6925 6.1624
# 3 51.9562 30.4580 102.8924 -0.2351 -3.9350 0.1291
# 4 -6.0792 2.7362 -0.2351 34.5891 -4.0977 -3.6770
# 5 -19.6743 -5.6925 -3.9350 -4.0977 52.7591 2.5012
# 6 7.4229 6.1624 0.1291 -3.6770 2.5012 36.7638
#
#
#
# Elastic Compliance Matrix: (Units=1/GPa)
#
#
# Indices 1 2 3 4 5 6 
#
# 1 0.011599 0.000896 -0.005951 0.002162 0.004267 -0.002545
# 2 0.000896 0.018781 -0.005935 -0.001517 0.001970 -0.003594
# 3 -0.005951 -0.005935 0.014403 -0.000470 -0.001928 0.002230
# 4 0.002162 -0.001517 -0.000470 0.030021 0.002815 0.002631
# 5 0.004267 0.001970 -0.001928 0.002815 0.020943 -0.002328
# 6 -0.002545 -0.003594 0.002230 0.002631 -0.002328 0.028731
#
#
# Mechanical properties :
#
#
# Convention : Reuss Voigt Hill
#
# Bulk Modulus (GPa) = 43.85536 53.44027 48.64782
# Shear Modulus (GPa) = 32.45494 37.68327 35.06911
#
# Velocity S-wave (km/s) = 3.77602 4.06882 3.92515
# Velocity P-wave (km/s) = 6.18692 6.74918 6.47415
#
# Compressibility (1/GPa) = 0.02280223
#
# Stress axis : x y z
#
# Youngs Moduli (GPa) = 86.21131 53.24640 69.42833
#
# Poissons Ratio (x) = -0.04771 0.41317
# Poissons Ratio (y) = -0.07724 0.41209
# Poissons Ratio (z) = 0.51305 0.31604
#
# Static dielectric constant tensor:
#      x y z
#    x 1.887540 0.063760 -0.003900 
#    y 0.063760 1.886720 0.022200 
#    z -0.003900 0.022200 2.015680 
# 
# From -- ./inp_files/428594.got.cif
#   From: 2010.05.17/outbox.cif.g08.bks.cpg/sg2_215_cif.got.tgz:428594.got - 2010.06.03 11:33:40.
