data_PCOD9041785
_publ_section_title
;
Structure prediction by ZEFSAII (Michael W. Deem and Ramdas Pophale) SiO2 
 PCOD9041785
Probable space group: P -1
;
_chemical_formula_sum "Si O2"
_cell_formula_units_Z 16
_cell_length_a 11.954817
_cell_length_b 10.915870
_cell_length_c 5.599263
_cell_angle_alpha 83.747258
_cell_angle_beta 92.748033
_cell_angle_gamma 62.789856
_cell_volume 642.000710
_symmetry_space_group_name_H-M "P -1"
_symmetry_group_IT_number 2
_symmetry_cell_setting 'triclinic'
loop_
_space_group_symop_operation_xyz
x,y,z
-x,-y,-z
loop_
_atom_site_type_symbol
_atom_site_label
_atom_site_fract_x
_atom_site_fract_y
_atom_site_fract_z
Si Si1 0.759821 0.856357 0.028364
Si Si2 0.131878 0.785924 0.207111
Si Si3 0.444970 0.124711 0.658370
Si Si4 0.264201 0.351443 0.267912
Si Si5 0.984757 0.411447 0.728841
Si Si6 0.523282 0.562202 0.746072
Si Si7 0.132592 0.968008 0.788667
Si Si8 0.333021 0.833736 0.456950
O O1 0.630910 0.916052 0.150943
O O2 0.880354 0.719692 0.178086
O O3 0.814067 0.967446 0.010731
O O4 0.724999 0.790849 0.813288
O O5 0.100752 0.665092 0.307355
O O6 0.264345 0.760833 0.325046
O O7 0.135164 0.827234 0.920550
O O8 0.013608 0.922096 0.276507
O O9 0.334502 0.280388 0.540438
O O10 0.571659 0.139839 0.707509
O O11 0.500000 0.000000 0.500000
O O12 0.119465 0.459298 0.157249
O O13 0.345339 0.431099 0.197922
O O14 0.000000 0.500000 0.500000
O O15 0.500000 0.500000 0.500000
O O16 0.423180 0.725496 0.684978
O O17 0.500000 0.500000 0.000000
O O18 0.220252 0.953144 0.574234
#
# Coordination Sequence:
#
# PCOD9041785 Si02
#       8
#     2   2   2   2   2   2   2   2
#     4  11  24  44  71 102 144 185 241 305 371 448
#     4  10  24  44  69 102 142 183 251 302 382 447
#     4  11  24  43  64 100 142 189 239 290 367 440
#     4  11  26  43  71 106 137 189 243 306 373 446
#     4  11  23  47  73  99 140 183 241 312 377 449
#     4  11  28  48  72 106 152 200 250 308 376 454
#     4  10  23  44  67 105 142 188 240 311 372 454
#     4  11  24  41  72  98 139 193 242 306 366 446
#
# _framework density 24.922093
#
# number of rings (size 3 to 8) (size 9 to 14) (size 15 to 20)
#    0.000    1.250    2.500    1.500    8.750    2.500 
#    6.750    0.000    0.000    0.000    0.000    0.000 
#    0.000    0.000    0.000    0.000    0.000    0.000 
#
# Total GULP energy -89091.123416 kJ/mol
# GULP energy per Si atom -5568.195214 kJ/mol
# Density = 2.486537 g / cm^3
# Si number density = 24.922093 Si / 1000 Ang^3
#
#
#
# Elastic Constant Matrix: (Units=GPa)
#
#
# Indices 1 2 3 4 5 6 
#
# 1 187.1644 36.0977 29.6844 -6.7078 -10.8309 -6.0579
# 2 36.0977 66.7158 13.0437 -12.5817 -2.5430 -6.7137
# 3 29.6844 13.0437 43.4660 -15.4975 -12.7831 4.1984
# 4 -6.7078 -12.5817 -15.4975 41.8889 3.5033 0.7447
# 5 -10.8309 -2.5430 -12.7831 3.5033 34.3137 -12.7739
# 6 -6.0579 -6.7137 4.1984 0.7447 -12.7739 67.5898
#
#
#
# Elastic Compliance Matrix: (Units=1/GPa)
#
#
# Indices 1 2 3 4 5 6 
#
# 1 0.006549 -0.002934 -0.003911 -0.001358 0.000793 0.000703
# 2 -0.002934 0.017916 -0.002123 0.004118 -0.000229 0.001560
# 3 -0.003911 -0.002123 0.032779 0.010090 0.009446 -0.000924
# 4 -0.001358 0.004118 0.010090 0.028592 0.000508 -0.000558
# 5 0.000793 -0.000229 0.009446 0.000508 0.035111 0.006092
# 6 0.000703 0.001560 -0.000924 -0.000558 0.006092 0.016228
#
#
# Mechanical properties :
#
#
# Convention : Reuss Voigt Hill
#
# Bulk Modulus (GPa) = 25.43947 50.55530 37.99739
# Shear Modulus (GPa) = 29.72410 43.32650 36.52530
#
# Velocity S-wave (km/s) = 3.45727 4.17403 3.83244
# Velocity P-wave (km/s) = 5.11534 6.59995 5.90449
#
# Compressibility (1/GPa) = 0.03930899
#
# Stress axis : x y z
#
# Youngs Moduli (GPa) = 152.69407 55.81539 30.50733
#
# Poissons Ratio (x) = 0.16376 0.11932
# Poissons Ratio (y) = 0.44800 0.06475
# Poissons Ratio (z) = 0.59720 0.11847
#
# Static dielectric constant tensor:
#      x y z
#    x 2.055950 -0.043610 -0.002760 
#    y -0.043610 2.098000 0.002140 
#    z -0.002760 0.002140 2.125480 
# 
# From -- ./inp_files/69871.got.cif
#   From: 2010.05.17/outbox.cif.g08.bks.cpg/sg2_35_cif.got.tgz:69871.got - 2010.06.03 11:33:40.
