data_PCOD9041568
_publ_section_title
;
Structure prediction by ZEFSAII (Michael W. Deem and Ramdas Pophale) SiO2 
 PCOD9041568
Probable space group: P -1
;
_chemical_formula_sum "Si O2"
_cell_formula_units_Z 16
_cell_length_a 14.602300
_cell_length_b 12.180003
_cell_length_c 9.426508
_cell_angle_alpha 124.360252
_cell_angle_beta 106.803049
_cell_angle_gamma 119.431090
_cell_volume 742.428268
_symmetry_space_group_name_H-M "P -1"
_symmetry_group_IT_number 2
_symmetry_cell_setting 'triclinic'
loop_
_space_group_symop_operation_xyz
x,y,z
-x,-y,-z
loop_
_atom_site_type_symbol
_atom_site_label
_atom_site_fract_x
_atom_site_fract_y
_atom_site_fract_z
Si Si1 0.522020 0.038117 0.205172
Si Si2 0.753453 0.444019 0.131733
Si Si3 0.817002 0.564313 0.717963
Si Si4 0.688953 0.702979 0.661720
Si Si5 0.450658 0.531069 0.865841
Si Si6 0.749328 0.052683 0.311017
Si Si7 0.031958 0.379756 0.900087
Si Si8 0.954577 0.224638 0.277746
O O1 0.625948 0.290886 0.464983
O O2 0.652732 0.072629 0.332705
O O3 0.500000 0.000000 0.000000
O O4 0.344041 0.794958 0.018987
O O5 0.636930 0.438833 0.086445
O O6 0.806713 0.460721 0.012442
O O7 0.915950 0.673514 0.466786
O O8 0.783811 0.675674 0.732347
O O9 0.912859 0.592772 0.656195
O O10 0.934520 0.669058 0.981986
O O11 0.500000 0.500000 0.500000
O O12 0.661140 0.665253 0.451261
O O13 0.817654 0.966613 0.960758
O O14 0.500000 0.500000 0.000000
O O15 0.614752 0.778845 0.036445
O O16 0.840010 0.188315 0.299812
O O17 0.875234 0.155826 0.568060
O O18 0.000000 0.500000 0.000000
#
# Coordination Sequence:
#
# PCOD9041568 Si02
#       8
#     2   2   2   2   2   2   2   2
#     4  11  21  42  69  97 131 173 228 273 336 403
#     4  10  24  44  69  96 138 177 221 282 338 401
#     4  12  25  43  70  96 131 182 224 279 339 398
#     4  12  26  46  66  99 138 172 233 281 329 404
#     4  11  24  44  67 100 133 183 222 276 343 400
#     4  10  23  44  64  98 141 169 220 281 333 408
#     4  11  25  45  63 103 137 173 225 278 339 404
#     4  11  23  43  70  95 133 178 222 279 332 399
#
# _framework density 21.550903999999999
#
# number of rings (size 3 to 8) (size 9 to 14) (size 15 to 20)
#    0.000    1.000    5.000    1.125    3.500    2.000 
#    0.000    2.500    0.000    0.000    0.000    0.000 
#    0.000    0.000    0.000    0.000    0.000    0.000 
#
# Total GULP energy -89230.424512 kJ/mol
# GULP energy per Si atom -5576.901532 kJ/mol
# Density = 2.150185 g / cm^3
# Si number density = 21.550904 Si / 1000 Ang^3
#
#
#
# Elastic Constant Matrix: (Units=GPa)
#
#
# Indices 1 2 3 4 5 6 
#
# 1 70.3046 34.7875 30.8640 -10.0944 -2.2372 18.5215
# 2 34.7875 72.6167 23.3003 -32.0008 3.8179 10.5517
# 3 30.8640 23.3003 103.4121 -11.4420 -3.5244 -8.6815
# 4 -10.0944 -32.0008 -11.4420 44.2260 0.2733 -1.9705
# 5 -2.2372 3.8179 -3.5244 0.2733 26.9600 -0.7934
# 6 18.5215 10.5517 -8.6815 -1.9705 -0.7934 32.3600
#
#
#
# Elastic Compliance Matrix: (Units=1/GPa)
#
#
# Indices 1 2 3 4 5 6 
#
# 1 0.024905 -0.009567 -0.006697 -0.003568 0.002197 -0.013095
# 2 -0.009567 0.027033 -0.001795 0.016814 -0.005113 -0.002922
# 3 -0.006697 -0.001795 0.012891 0.000853 0.001610 0.007968
# 4 -0.003568 0.016814 0.000853 0.034148 -0.002947 -0.001205
# 5 0.002197 -0.005113 0.001610 -0.002947 0.038286 0.001601
# 6 -0.013095 -0.002922 0.007968 -0.001205 0.001601 0.041454
#
#
# Mechanical properties :
#
#
# Convention : Reuss Voigt Hill
#
# Bulk Modulus (GPa) = 34.82842 47.13745 40.98293
# Shear Modulus (GPa) = 22.28120 31.20131 26.74125
#
# Velocity S-wave (km/s) = 3.21890 3.80912 3.52638
# Velocity P-wave (km/s) = 5.47825 6.42386 5.96980
#
# Compressibility (1/GPa) = 0.02871219
#
# Stress axis : x y z
#
# Youngs Moduli (GPa) = 40.15246 36.99205 77.57196
#
# Poissons Ratio (x) = 0.35391 0.51947
# Poissons Ratio (y) = 0.38414 0.13922
# Poissons Ratio (z) = 0.26889 0.06639
#
# Static dielectric constant tensor:
#      x y z
#    x 1.864970 0.002890 -0.010390 
#    y 0.002890 1.812810 0.061190 
#    z -0.010390 0.061190 1.832800 
# 
# From -- ./inp_files/308359.got.cif
#   From: 2010.05.17/outbox.cif.g08.bks.cpg/sg2_155_cif.got.tgz:308359.got - 2010.06.03 11:33:40.
