data_PCOD9041932
_publ_section_title
;
Structure prediction by ZEFSAII (Michael W. Deem and Ramdas Pophale) SiO2 
 PCOD9041932
Probable space group: P -1
;
_chemical_formula_sum "Si O2"
_cell_formula_units_Z 16
_cell_length_a 5.678128
_cell_length_b 14.646756
_cell_length_c 15.296707
_cell_angle_alpha 53.119270
_cell_angle_beta 91.538002
_cell_angle_gamma 56.379692
_cell_volume 713.652956
_symmetry_space_group_name_H-M "P -1"
_symmetry_group_IT_number 2
_symmetry_cell_setting 'triclinic'
loop_
_space_group_symop_operation_xyz
x,y,z
-x,-y,-z
loop_
_atom_site_type_symbol
_atom_site_label
_atom_site_fract_x
_atom_site_fract_y
_atom_site_fract_z
Si Si1 0.370659 0.349770 0.627695
Si Si2 0.443562 0.064331 0.561502
Si Si3 0.314864 0.762999 0.491793
Si Si4 0.682495 0.420879 0.917083
Si Si5 0.341525 0.115894 0.846679
Si Si6 0.400725 0.359361 0.099119
Si Si7 0.389397 0.569924 0.278877
Si Si8 0.402844 0.122534 0.167819
O O1 0.624214 0.261985 0.598231
O O2 0.450950 0.204870 0.764495
O O3 0.376946 0.451382 0.637336
O O4 0.000000 0.500000 0.500000
O O5 0.553905 0.159623 0.515715
O O6 0.059856 0.155586 0.532268
O O7 0.500000 0.000000 0.500000
O O8 0.672703 0.928049 0.718672
O O9 0.570135 0.578827 0.634596
O O10 0.551417 0.594478 0.834471
O O11 0.565031 0.410431 0.831299
O O12 0.542125 0.391848 0.008339
O O13 0.082056 0.273546 0.020537
O O14 0.965739 0.266873 0.784847
O O15 0.380723 0.021850 0.816566
O O16 0.500000 0.000000 0.000000
O O17 0.547121 0.185663 0.179386
O O18 0.000000 0.500000 0.000000
#
# Coordination Sequence:
#
# PCOD9041932 Si02
#       8
#     2   2   2   2   2   2   2   2
#     4  12  26  48  75 108 154 207 263 321 398 475
#     4  12  29  50  80 114 154 205 267 329 395 462
#     4  12  27  51  76 112 154 208 261 329 388 476
#     4  10  23  44  68 108 138 194 249 316 386 471
#     4  12  26  46  72 114 154 194 255 318 400 464
#     4   9  22  42  68  96 142 189 244 300 392 453
#     4  12  27  43  78 104 149 198 264 311 387 479
#     4  11  24  44  73 102 153 192 243 324 391 460
#
# _framework density 22.419861999999998
#
# number of rings (size 3 to 8) (size 9 to 14) (size 15 to 20)
#    0.000    0.750    3.750    2.250    5.250    4.500 
#    0.000    0.000    0.000    0.000    0.000    0.000 
#    0.000    0.000    0.000    0.000    0.000    0.000 
#
# Total GULP energy -89245.657654 kJ/mol
# GULP energy per Si atom -5577.853603 kJ/mol
# Density = 2.236883 g / cm^3
# Si number density = 22.419862 Si / 1000 Ang^3
#
#
#
# Elastic Constant Matrix: (Units=GPa)
#
#
# Indices 1 2 3 4 5 6 
#
# 1 104.7957 64.0166 26.9422 -2.4467 -4.9231 19.1873
# 2 64.0166 162.6347 40.3891 35.3508 -17.8206 40.2751
# 3 26.9422 40.3891 100.3076 15.5860 -14.1634 22.3759
# 4 -2.4467 35.3508 15.5860 33.9656 18.8487 -11.1830
# 5 -4.9231 -17.8206 -14.1634 18.8487 28.1374 -1.0226
# 6 19.1873 40.2751 22.3759 -11.1830 -1.0226 38.1181
#
#
#
# Elastic Compliance Matrix: (Units=1/GPa)
#
#
# Indices 1 2 3 4 5 6 
#
# 1 0.010529 0.000951 0.001794 -0.009504 0.009355 -0.009896
# 2 0.000951 -0.002710 -0.008713 0.022931 -0.020800 0.013669
# 3 0.001794 -0.008713 0.007606 0.014082 -0.010529 0.007687
# 4 -0.009504 0.022931 0.014082 -0.038758 0.044534 -0.037886
# 5 0.009355 -0.020800 -0.010529 0.044534 -0.009812 0.036251
# 6 -0.009896 0.013669 0.007687 -0.037886 0.036251 0.002118
#
#
# Mechanical properties :
#
#
# Convention : Reuss Voigt Hill
#
# Bulk Modulus (GPa) = 286.60015 70.04821 178.32418
# Shear Modulus (GPa) = -278.91043 35.80356 -121.55344
#
# Velocity S-wave (km/s) = -11.16572 4.00053 -7.37120
# Velocity P-wave (km/s) = 6.17418 7.25608 2.69538
#
# Compressibility (1/GPa) = 0.00348918
#
# Stress axis : x y z
#
# Youngs Moduli (GPa) = 94.97138 -368.98193 131.46846
#
# Poissons Ratio (x) = 0.35099 -0.23583
# Poissons Ratio (y) = -0.09034 1.14553
# Poissons Ratio (z) = -0.17036 -3.21506
#
# Static dielectric constant tensor:
#      x y z
#    x 1.905270 -0.026350 0.060450 
#    y -0.026350 1.797410 -0.076880 
#    z 0.060450 -0.076880 1.916990 
# 
# From -- ./inp_files/484334.got.cif
#   From: 2010.05.17/outbox.cif.g08.bks.cpg/sg2_243_cif.got.tgz:484334.got - 2010.06.03 11:33:40.
