data_PCOD9041053
_publ_section_title
;
Structure prediction by ZEFSAII (Michael W. Deem and Ramdas Pophale) SiO2 
 PCOD9041053
Probable space group: P -1
;
_chemical_formula_sum "Si O2"
_cell_formula_units_Z 14
_cell_length_a 9.064967
_cell_length_b 12.196621
_cell_length_c 12.111319
_cell_angle_alpha 136.207430
_cell_angle_beta 121.428860
_cell_angle_gamma 48.492981
_cell_volume 691.574821
_symmetry_space_group_name_H-M "P -1"
_symmetry_group_IT_number 2
_symmetry_cell_setting 'triclinic'
loop_
_space_group_symop_operation_xyz
x,y,z
-x,-y,-z
loop_
_atom_site_type_symbol
_atom_site_label
_atom_site_fract_x
_atom_site_fract_y
_atom_site_fract_z
Si Si1 0.447265 0.855548 0.922196
Si Si2 0.834120 0.160015 0.625032
Si Si3 0.444692 0.335858 0.719604
Si Si4 0.953329 0.647973 0.493636
Si Si5 0.010205 0.996328 0.193540
Si Si6 0.367770 0.732053 0.014207
Si Si7 0.312045 0.517014 0.370310
O O1 0.604964 0.671518 0.794988
O O2 0.223595 0.908616 0.842179
O O3 0.449165 0.828791 0.034416
O O4 0.500000 0.000000 0.000000
O O5 0.615226 0.195411 0.601727
O O6 0.774132 0.332994 0.650322
O O7 0.933087 0.122485 0.757899
O O8 0.000000 0.000000 0.500000
O O9 0.523212 0.299726 0.849262
O O10 0.248341 0.322455 0.618716
O O11 0.402466 0.543393 0.836098
O O12 0.136054 0.561936 0.418536
O O13 0.000000 0.500000 0.500000
O O14 0.933453 0.842050 0.660693
O O15 0.137783 0.859798 0.046883
O O16 0.500000 0.500000 0.500000
#
# Coordination Sequence:
#
# PCOD9041053 Si02
#       7
#     2   2   2   2   2   2   2
#     4  12  26  44  67  99 135 177 223 273 335 402
#     4  11  21  44  69  96 132 172 218 283 332 383
#     4  10  23  43  70  96 131 177 224 267 337 395
#     4  12  25  41  68 100 132 177 224 273 331 400
#     4  11  25  44  67  98 134 175 224 276 333 391
#     4  10  23  45  66  93 136 176 215 273 331 402
#     4  12  24  46  68  96 136 178 221 280 336 387
#
# _framework density 20.243651
#
# number of rings (size 3 to 8) (size 9 to 14) (size 15 to 20)
#    0.000    0.857    4.286    2.143    4.000    3.429 
#    2.571    1.429    0.000    0.000    0.000    0.000 
#    0.000    0.000    0.000    0.000    0.000    0.000 
#
# Total GULP energy -78145.734864 kJ/mol
# GULP energy per Si atom -5581.838205 kJ/mol
# Density = 2.019758 g / cm^3
# Si number density = 20.243651 Si / 1000 Ang^3
#
#
#
# Elastic Constant Matrix: (Units=GPa)
#
#
# Indices 1 2 3 4 5 6 
#
# 1 153.6955 46.3522 50.2456 9.3864 -12.1595 -6.0192
# 2 46.3522 126.4781 38.8877 22.0968 3.0164 12.0036
# 3 50.2456 38.8877 67.2420 21.4720 -4.6037 -4.8085
# 4 9.3864 22.0968 21.4720 27.4308 -7.4900 -4.7748
# 5 -12.1595 3.0164 -4.6037 -7.4900 44.2576 1.4702
# 6 -6.0192 12.0036 -4.8085 -4.7748 1.4702 56.7842
#
#
#
# Elastic Compliance Matrix: (Units=1/GPa)
#
#
# Indices 1 2 3 4 5 6 
#
# 1 0.009514 -0.002412 -0.007104 0.005260 0.002887 0.001284
# 2 -0.002412 0.011366 -0.002815 -0.007516 -0.002888 -0.003454
# 3 -0.007104 -0.002815 0.027138 -0.016908 -0.001824 0.000766
# 4 0.005260 -0.007516 -0.016908 0.057533 0.009759 0.005300
# 5 0.002887 -0.002888 -0.001824 0.009759 0.025016 0.000935
# 6 0.001284 -0.003454 0.000766 0.005300 0.000935 0.018963
#
#
# Mechanical properties :
#
#
# Convention : Reuss Voigt Hill
#
# Bulk Modulus (GPa) = 42.81980 68.70963 55.76471
# Shear Modulus (GPa) = 27.47599 39.82318 33.64959
#
# Velocity S-wave (km/s) = 3.68810 4.44012 4.08147
# Velocity P-wave (km/s) = 6.27170 7.76538 7.05817
#
# Compressibility (1/GPa) = 0.02335368
#
# Stress axis : x y z
#
# Youngs Moduli (GPa) = 105.11087 87.98188 36.84929
#
# Poissons Ratio (x) = 0.21222 0.26179
# Poissons Ratio (y) = 0.25354 0.10375
# Poissons Ratio (z) = 0.74674 0.24770
#
# Static dielectric constant tensor:
#      x y z
#    x 1.750180 0.028250 -0.053310 
#    y 0.028250 1.754780 -0.009790 
#    z -0.053310 -0.009790 1.734720 
# 
# From -- ./inp_files/153876.got.cif
#   From: 2010.05.17/outbox.cif.g08.bks.cpg/sg2_77_cif.got.tgz:153876.got - 2010.06.03 11:33:40.
