data_PCOD9041175
_publ_section_title
;
Structure prediction by ZEFSAII (Michael W. Deem and Ramdas Pophale) SiO2 
 PCOD9041175
Probable space group: P -1
;
_chemical_formula_sum "Si O2"
_cell_formula_units_Z 12
_cell_length_a 8.934482
_cell_length_b 6.418589
_cell_length_c 11.115434
_cell_angle_alpha 58.793782
_cell_angle_beta 69.194753
_cell_angle_gamma 85.874451
_cell_volume 504.618375
_symmetry_space_group_name_H-M "P -1"
_symmetry_group_IT_number 2
_symmetry_cell_setting 'triclinic'
loop_
_space_group_symop_operation_xyz
x,y,z
-x,-y,-z
loop_
_atom_site_type_symbol
_atom_site_label
_atom_site_fract_x
_atom_site_fract_y
_atom_site_fract_z
Si Si1 0.833957 0.502195 0.623262
Si Si2 0.375239 0.078906 0.409256
Si Si3 0.437220 0.939208 0.174418
Si Si4 0.765820 0.805711 0.144483
Si Si5 0.903920 0.318266 0.334444
Si Si6 0.004651 0.791784 0.900778
O O1 0.708050 0.695919 0.579885
O O2 0.730679 0.237153 0.736247
O O3 0.000000 0.500000 0.500000
O O4 0.917718 0.592867 0.696539
O O5 0.500000 0.000000 0.500000
O O6 0.435856 0.121802 0.238462
O O7 0.232374 0.849378 0.502659
O O8 0.577995 0.784176 0.223713
O O9 0.500000 0.000000 0.000000
O O10 0.831827 0.566335 0.248611
O O11 0.826742 0.827481 0.982659
O O12 0.862711 0.050761 0.101545
O O13 0.936105 0.143383 0.267575
O O14 0.000000 0.500000 0.000000
#
# Coordination Sequence:
#
# PCOD9041175 Si02
#       6
#     2   2   2   2   2   2
#     4  12  29  49  77 110 149 201 254 314 376 447
#     4  12  28  50  79 109 151 198 256 310 377 450
#     4  12  30  47  74 111 158 195 249 314 381 440
#     4  10  23  43  71 106 152 196 249 306 379 447
#     4  11  24  43  78 105 145 196 256 307 373 446
#     4   9  21  39  70 105 144 197 247 300 369 449
#
# _framework density 23.780346000000002
#
# number of rings (size 3 to 8) (size 9 to 14) (size 15 to 20)
#    0.000    1.000    1.667    2.500   14.000    3.333 
#    0.000    0.000    0.000    0.000    0.000    0.000 
#    0.000    0.000    0.000    0.000    0.000    0.000 
#
# Total GULP energy -66869.957585 kJ/mol
# GULP energy per Si atom -5572.496465 kJ/mol
# Density = 2.372622 g / cm^3
# Si number density = 23.780346 Si / 1000 Ang^3
#
#
#
# Elastic Constant Matrix: (Units=GPa)
#
#
# Indices 1 2 3 4 5 6 
#
# 1 94.8576 25.3962 14.6404 2.5763 -14.9311 -21.2112
# 2 25.3962 110.0993 45.7758 16.7104 -1.7410 -8.2594
# 3 14.6404 45.7758 98.7272 15.6940 -16.2830 1.5532
# 4 2.5763 16.7104 15.6940 46.9415 0.7494 0.7634
# 5 -14.9311 -1.7410 -16.2830 0.7494 38.8890 -7.0367
# 6 -21.2112 -8.2594 1.5532 0.7634 -7.0367 41.5354
#
#
#
# Elastic Compliance Matrix: (Units=1/GPa)
#
#
# Indices 1 2 3 4 5 6 
#
# 1 0.014015 -0.002574 0.000123 -0.000128 0.006728 0.007783
# 2 -0.002574 0.012306 -0.005360 -0.002424 -0.002461 0.000960
# 3 0.000123 -0.005360 0.013986 -0.002856 0.005624 -0.000521
# 4 -0.000128 -0.002424 -0.002856 0.023180 -0.002019 -0.001208
# 5 0.006728 -0.002461 0.005624 -0.002019 0.032065 0.008206
# 6 0.007783 0.000960 -0.000521 -0.001208 0.008206 0.029673
#
#
# Mechanical properties :
#
#
# Convention : Reuss Voigt Hill
#
# Bulk Modulus (GPa) = 40.51178 52.81209 46.66194
# Shear Modulus (GPa) = 33.54005 39.99796 36.76901
#
# Velocity S-wave (km/s) = 3.75962 4.10564 3.93643
# Velocity P-wave (km/s) = 5.99326 6.68816 6.35022
#
# Compressibility (1/GPa) = 0.02468418
#
# Stress axis : x y z
#
# Youngs Moduli (GPa) = 71.35113 81.26178 71.50261
#
# Poissons Ratio (x) = 0.20918 -0.00877
# Poissons Ratio (y) = 0.18367 0.38323
# Poissons Ratio (z) = -0.00876 0.43554
#
# Static dielectric constant tensor:
#      x y z
#    x 1.982290 0.076640 0.092060 
#    y 0.076640 2.055380 0.170210 
#    z 0.092060 0.170210 2.063590 
# 
# From -- ./inp_files/26212.got.cif
#   From: 2010.05.17/outbox.cif.g08.bks.cpg/sg2_14_cif.got.tgz:26212.got - 2010.06.03 11:33:40.
