data_PCOD9041828
_publ_section_title
;
Structure prediction by ZEFSAII (Michael W. Deem and Ramdas Pophale) SiO2 
 PCOD9041828
Probable space group: P -1
;
_chemical_formula_sum "Si O2"
_cell_formula_units_Z 14
_cell_length_a 18.044425
_cell_length_b 8.882790
_cell_length_c 11.912866
_cell_angle_alpha 36.819769
_cell_angle_beta 146.833498
_cell_angle_gamma 128.366348
_cell_volume 618.882693
_symmetry_space_group_name_H-M "P -1"
_symmetry_group_IT_number 2
_symmetry_cell_setting 'triclinic'
loop_
_space_group_symop_operation_xyz
x,y,z
-x,-y,-z
loop_
_atom_site_type_symbol
_atom_site_label
_atom_site_fract_x
_atom_site_fract_y
_atom_site_fract_z
Si Si1 0.060290 0.232601 0.592829
Si Si2 0.265484 0.203740 0.684266
Si Si3 0.438625 0.601025 0.654638
Si Si4 0.406003 0.664517 0.192954
Si Si5 0.829540 0.642807 0.974534
Si Si6 0.679751 0.854116 0.873699
Si Si7 0.911027 0.770125 0.760232
O O1 0.124443 0.178798 0.582949
O O2 0.953965 0.489348 0.294161
O O3 0.192935 0.248409 0.826997
O O4 0.988130 0.003481 0.684619
O O5 0.320211 0.459903 0.637207
O O6 0.228147 0.208459 0.502348
O O7 0.375528 0.962243 0.998740
O O8 0.522815 0.397940 0.799290
O O9 0.550106 0.706351 0.811077
O O10 0.369879 0.847568 0.350816
O O11 0.500000 0.500000 0.500000
O O12 0.260270 0.564351 0.062069
O O13 0.731553 0.817860 0.831769
O O14 0.881699 0.774453 0.853121
O O15 0.000000 0.500000 0.000000
#
# Coordination Sequence:
#
# PCOD9041828 Si02
#       7
#     2   2   2   2   2   2   2
#     4  12  24  43  67 102 138 175 223 280 332 409
#     4  12  23  42  71 105 134 171 226 280 346 396
#     4  10  23  44  67  96 133 181 226 277 329 397
#     4  11  22  42  69  99 138 172 225 284 337 398
#     4  11  24  44  68 101 135 181 221 277 339 401
#     4  10  24  46  67  94 139 179 233 271 329 402
#     4  12  23  41  69 101 140 171 215 278 346 400
#
# _framework density 22.621410000000001
#
# number of rings (size 3 to 8) (size 9 to 14) (size 15 to 20)
#    0.000    0.857    2.857    4.714    0.000    1.143 
#    2.571    0.000    0.000    0.000    0.000    0.000 
#    0.000    0.000    0.000    0.000    0.000    0.000 
#
# Total GULP energy -78352.812922 kJ/mol
# GULP energy per Si atom -5596.629494 kJ/mol
# Density = 2.256992 g / cm^3
# Si number density = 22.621410 Si / 1000 Ang^3
#
#
#
# Elastic Constant Matrix: (Units=GPa)
#
#
# Indices 1 2 3 4 5 6 
#
# 1 69.3741 23.9597 -2.6544 -2.6183 -4.5061 23.9942
# 2 23.9597 82.1727 33.0544 4.8586 -6.2154 33.3152
# 3 -2.6544 33.0544 131.5457 18.5073 -4.8445 13.8575
# 4 -2.6183 4.8586 18.5073 36.1773 -7.3258 5.9618
# 5 -4.5061 -6.2154 -4.8445 -7.3258 31.6479 -3.5928
# 6 23.9942 33.3152 13.8575 5.9618 -3.5928 35.0402
#
#
#
# Elastic Compliance Matrix: (Units=1/GPa)
#
#
# Indices 1 2 3 4 5 6 
#
# 1 0.019804 -0.000939 0.001680 0.003386 0.002122 -0.013691
# 2 -0.000939 0.021438 -0.003725 0.002401 0.001965 -0.018474
# 3 0.001680 -0.003725 0.009192 -0.004002 -0.000077 -0.000571
# 4 0.003386 0.002401 -0.004002 0.032301 0.006932 -0.007804
# 5 0.002122 0.001965 -0.000077 0.006932 0.033764 -0.001008
# 6 -0.013691 -0.018474 -0.000571 -0.007804 -0.001008 0.056928
#
#
# Mechanical properties :
#
#
# Convention : Reuss Voigt Hill
#
# Bulk Modulus (GPa) = 22.48948 43.53465 33.01206
# Shear Modulus (GPa) = 25.74417 35.82193 30.78305
#
# Velocity S-wave (km/s) = 3.37715 3.98369 3.69289
# Velocity P-wave (km/s) = 5.01698 6.35975 5.72785
#
# Compressibility (1/GPa) = 0.04446523
#
# Stress axis : x y z
#
# Youngs Moduli (GPa) = 50.49468 46.64585 108.78776
#
# Poissons Ratio (x) = 0.04380 -0.18272
# Poissons Ratio (y) = 0.04741 0.40526
# Poissons Ratio (z) = -0.08481 0.17376
#
# Static dielectric constant tensor:
#      x y z
#    x 1.881960 0.000080 -0.009080 
#    y 0.000080 1.825920 0.029210 
#    z -0.009080 0.029210 1.805710 
# 
# From -- ./inp_files/94564.got.cif
#   From: 2010.05.17/outbox.cif.g08.bks.cpg/sg2_48_cif.got.tgz:94564.got - 2010.06.03 11:33:40.
