data_PCOD9041247
_publ_section_title
;
Structure prediction by ZEFSAII (Michael W. Deem and Ramdas Pophale) SiO2 
 PCOD9041247
Probable space group: P -1
;
_chemical_formula_sum "Si O2"
_cell_formula_units_Z 14
_cell_length_a 12.860936
_cell_length_b 5.189589
_cell_length_c 10.566418
_cell_angle_alpha 104.497823
_cell_angle_beta 125.179997
_cell_angle_gamma 97.128153
_cell_volume 525.003582
_symmetry_space_group_name_H-M "P -1"
_symmetry_group_IT_number 2
_symmetry_cell_setting 'triclinic'
loop_
_space_group_symop_operation_xyz
x,y,z
-x,-y,-z
loop_
_atom_site_type_symbol
_atom_site_label
_atom_site_fract_x
_atom_site_fract_y
_atom_site_fract_z
Si Si1 0.427951 0.921281 0.233381
Si Si2 0.910104 0.719716 0.074969
Si Si3 0.834124 0.088543 0.860867
Si Si4 0.087841 0.913588 0.652344
Si Si5 0.806926 0.481084 0.451067
Si Si6 0.429283 0.454929 0.580986
Si Si7 0.595742 0.319782 0.068688
O O1 0.532278 0.784435 0.347128
O O2 0.496126 0.236176 0.268434
O O3 0.320525 0.935656 0.266396
O O4 0.351448 0.734232 0.039051
O O5 0.892057 0.390877 0.011478
O O6 0.846248 0.833278 0.924022
O O7 0.860692 0.850011 0.176561
O O8 0.071894 0.872927 0.190224
O O9 0.967732 0.647932 0.598522
O O10 0.193772 0.828102 0.630826
O O11 0.000000 0.000000 0.500000
O O12 0.725348 0.555500 0.518508
O O13 0.715842 0.504271 0.268291
O O14 0.500000 0.500000 0.500000
O O15 0.500000 0.500000 0.000000
O O16 0.500000 0.000000 0.000000
#
# Coordination Sequence:
#
# PCOD9041247 Si02
#       7
#     2   2   2   2   2   2   2
#     4  12  24  45  71 106 133 190 228 294 365 413
#     4  10  23  45  68 102 137 183 231 294 343 411
#     4  10  23  43  72 101 137 176 238 289 349 417
#     4  11  28  44  74 100 144 195 230 300 352 423
#     4  11  27  48  68 108 140 186 245 290 358 428
#     4  12  28  47  71 103 143 186 236 290 357 432
#     4  12  24  44  73 102 140 180 232 295 349 417
#
# _framework density 26.666485000000002
#
# number of rings (size 3 to 8) (size 9 to 14) (size 15 to 20)
#    0.000    0.857    2.857    2.143   12.000    1.143 
#    0.000    0.000    0.000    0.000    0.000    0.000 
#    0.000    0.000    0.000    0.000    0.000    0.000 
#
# Total GULP energy -78232.530370 kJ/mol
# GULP energy per Si atom -5588.037884 kJ/mol
# Density = 2.660579 g / cm^3
# Si number density = 26.666485 Si / 1000 Ang^3
#
#
#
# Elastic Constant Matrix: (Units=GPa)
#
#
# Indices 1 2 3 4 5 6 
#
# 1 135.6845 15.7400 -4.7677 -6.2837 3.1632 -34.9929
# 2 15.7400 117.4644 16.0854 -4.8459 13.3120 -25.3674
# 3 -4.7677 16.0854 66.0912 23.1136 -1.7321 4.9507
# 4 -6.2837 -4.8459 23.1136 41.8214 -5.0938 9.4288
# 5 3.1632 13.3120 -1.7321 -5.0938 43.8209 -2.2681
# 6 -34.9929 -25.3674 4.9507 9.4288 -2.2681 39.9554
#
#
#
# Elastic Compliance Matrix: (Units=1/GPa)
#
#
# Indices 1 2 3 4 5 6 
#
# 1 0.009578 0.000667 0.000051 -0.000583 -0.000498 0.008915
# 2 0.000667 0.010951 -0.003741 0.001382 -0.002974 0.007506
# 3 0.000051 -0.003741 0.020052 -0.010946 0.000539 -0.002201
# 4 -0.000583 0.001382 -0.010946 0.031607 0.002574 -0.005589
# 5 -0.000498 -0.002974 0.000539 0.002574 0.023995 -0.001636
# 6 0.008915 0.007506 -0.002201 -0.005589 -0.001636 0.039100
#
#
# Mechanical properties :
#
#
# Convention : Reuss Voigt Hill
#
# Bulk Modulus (GPa) = 28.95444 41.48393 35.21919
# Shear Modulus (GPa) = 32.71412 44.59836 38.65624
#
# Velocity S-wave (km/s) = 3.50635 4.09400 3.81152
# Velocity P-wave (km/s) = 5.22247 6.15939 5.71018
#
# Compressibility (1/GPa) = 0.03453702
#
# Stress axis : x y z
#
# Youngs Moduli (GPa) = 104.40290 91.31635 49.87091
#
# Poissons Ratio (x) = -0.06093 -0.00257
# Poissons Ratio (y) = -0.06966 0.18655
# Poissons Ratio (z) = -0.00537 0.34158
#
# Static dielectric constant tensor:
#      x y z
#    x 2.651580 0.130330 0.224180 
#    y 0.130330 2.157400 0.094330 
#    z 0.224180 0.094330 2.193720 
# 
# From -- ./inp_files/411177.got.cif
#   From: 2010.05.17/outbox.cif.g08.bks.cpg/sg2_206_cif.got.tgz:411177.got - 2010.06.03 11:33:40.
