data_PCOD9041309
_publ_section_title
;
Structure prediction by ZEFSAII (Michael W. Deem and Ramdas Pophale) SiO2 
 PCOD9041309
Probable space group: P -1
;
_chemical_formula_sum "Si O2"
_cell_formula_units_Z 16
_cell_length_a 11.587143
_cell_length_b 5.440584
_cell_length_c 12.211969
_cell_angle_alpha 95.745987
_cell_angle_beta 95.371244
_cell_angle_gamma 66.289747
_cell_volume 700.124587
_symmetry_space_group_name_H-M "P -1"
_symmetry_group_IT_number 2
_symmetry_cell_setting 'triclinic'
loop_
_space_group_symop_operation_xyz
x,y,z
-x,-y,-z
loop_
_atom_site_type_symbol
_atom_site_label
_atom_site_fract_x
_atom_site_fract_y
_atom_site_fract_z
Si Si1 0.699587 0.292944 0.589523
Si Si2 0.867743 0.327955 0.815613
Si Si3 0.298808 0.448763 0.787357
Si Si4 0.001155 0.721437 0.788197
Si Si5 0.575705 0.256307 0.076341
Si Si6 0.560487 0.737452 0.419608
Si Si7 0.674171 0.756718 0.972362
Si Si8 0.931415 0.816690 0.537920
O O1 0.785174 0.343435 0.696863
O O2 0.656753 0.510275 0.497726
O O3 0.565863 0.311232 0.626168
O O4 0.782226 0.006247 0.524745
O O5 0.961987 0.481500 0.813755
O O6 0.774058 0.514903 0.906338
O O7 0.940422 0.019747 0.849416
O O8 0.363657 0.661941 0.812439
O O9 0.362449 0.260114 0.682592
O O10 0.150006 0.605815 0.778766
O O11 0.323818 0.312261 0.902304
O O12 0.945790 0.798002 0.667032
O O13 0.461135 0.172390 0.093691
O O14 0.500000 0.500000 0.000000
O O15 0.682361 0.044132 0.998823
O O16 0.500000 0.000000 0.500000
O O17 0.000000 0.500000 0.500000
O O18 0.000000 0.000000 0.500000
#
# Coordination Sequence:
#
# PCOD9041309 Si02
#       8
#     2   2   2   2   2   2   2   2
#     4  10  25  45  67 107 137 187 241 296 361 426
#     4  11  26  47  73 104 144 190 243 289 353 422
#     4  11  25  43  68 102 144 180 240 290 364 430
#     4  11  27  43  69 107 142 192 235 294 353 424
#     4   9  21  42  67 100 128 183 236 289 356 409
#     4  11  26  44  72 104 144 187 231 310 367 422
#     4  10  23  43  73 100 136 185 235 297 351 430
#     4  11  23  43  73  98 138 191 242 290 345 425
#
# _framework density 22.853076999999999
#
# number of rings (size 3 to 8) (size 9 to 14) (size 15 to 20)
#    0.000    1.500    0.000    3.000   12.250    6.000 
#    0.000    0.000    0.000    0.000    0.000    0.000 
#    0.000    0.000    0.000    0.000    0.000    0.000 
#
# Total GULP energy -89158.112725 kJ/mol
# GULP energy per Si atom -5572.382045 kJ/mol
# Density = 2.280106 g / cm^3
# Si number density = 22.853077 Si / 1000 Ang^3
#
#
#
# Elastic Constant Matrix: (Units=GPa)
#
#
# Indices 1 2 3 4 5 6 
#
# 1 84.2029 50.3384 34.1764 17.6050 -8.2044 -17.8295
# 2 50.3384 166.8993 52.0369 31.6605 -3.0931 -28.0323
# 3 34.1764 52.0369 74.3276 33.7959 -16.9469 -14.0746
# 4 17.6050 31.6605 33.7959 37.2893 -6.3007 -6.0122
# 5 -8.2044 -3.0931 -16.9469 -6.3007 25.9020 5.8825
# 6 -17.8295 -28.0323 -14.0746 -6.0122 5.8825 39.5568
#
#
#
# Elastic Compliance Matrix: (Units=1/GPa)
#
#
# Indices 1 2 3 4 5 6 
#
# 1 0.016310 -0.002838 -0.004315 -0.000631 0.001044 0.003554
# 2 -0.002838 0.009248 -0.004003 -0.002919 -0.004034 0.004006
# 3 -0.004315 -0.004003 0.030377 -0.019725 0.012983 0.001098
# 4 -0.000631 -0.002919 -0.019725 0.046877 -0.001594 -0.002009
# 5 0.001044 -0.004034 0.012983 -0.001594 0.047722 -0.005108
# 6 0.003554 0.004006 0.001098 -0.002009 -0.005108 0.030566
#
#
# Mechanical properties :
#
#
# Convention : Reuss Voigt Hill
#
# Bulk Modulus (GPa) = 29.74164 66.50370 48.12267
# Shear Modulus (GPa) = 23.29704 33.14150 28.21927
#
# Velocity S-wave (km/s) = 3.19631 3.81228 3.51780
# Velocity P-wave (km/s) = 5.16376 6.96719 6.13213
#
# Compressibility (1/GPa) = 0.03362289
#
# Stress axis : x y z
#
# Youngs Moduli (GPa) = 61.31149 108.13607 32.91962
#
# Poissons Ratio (x) = 0.30690 0.14205
# Poissons Ratio (y) = 0.17401 0.13178
# Poissons Ratio (z) = 0.26455 0.43286
#
# Static dielectric constant tensor:
#      x y z
#    x 1.977760 0.100150 -0.001140 
#    y 0.100150 2.123570 0.070360 
#    z -0.001140 0.070360 1.819820 
# 
# From -- ./inp_files/410841.got.cif
#   From: 2010.05.17/outbox.cif.g08.bks.cpg/sg2_206_cif.got.tgz:410841.got - 2010.06.03 11:33:40.
