data_PCOD9041052
_publ_section_title
;
Structure prediction by ZEFSAII (Michael W. Deem and Ramdas Pophale) SiO2 
 PCOD9041052
Probable space group: P -1
;
_chemical_formula_sum "Si O2"
_cell_formula_units_Z 16
_cell_length_a 9.373291
_cell_length_b 15.182739
_cell_length_c 15.979716
_cell_angle_alpha 35.996178
_cell_angle_beta 142.806219
_cell_angle_gamma 140.889191
_cell_volume 750.649072
_symmetry_space_group_name_H-M "P -1"
_symmetry_group_IT_number 2
_symmetry_cell_setting 'triclinic'
loop_
_space_group_symop_operation_xyz
x,y,z
-x,-y,-z
loop_
_atom_site_type_symbol
_atom_site_label
_atom_site_fract_x
_atom_site_fract_y
_atom_site_fract_z
Si Si1 0.376789 0.461109 0.880587
Si Si2 0.992154 0.412726 0.476110
Si Si3 0.853516 0.890218 0.439870
Si Si4 0.874253 0.902554 0.912304
Si Si5 0.434567 0.037490 0.137119
Si Si6 0.446961 0.467841 0.402457
Si Si7 0.702337 0.402681 0.930092
Si Si8 0.803084 0.051339 0.610797
O O1 0.209690 0.564273 0.699731
O O2 0.564880 0.475703 0.879175
O O3 0.500000 0.500000 0.000000
O O4 0.195138 0.273700 0.945924
O O5 0.928777 0.220690 0.590811
O O6 0.000000 0.500000 0.500000
O O7 0.274895 0.518368 0.501608
O O8 0.772979 0.705981 0.572044
O O9 0.036696 0.924632 0.418319
O O10 0.593297 0.924783 0.279445
O O11 0.000000 0.000000 0.500000
O O12 0.674008 0.968013 0.814561
O O13 0.835383 0.910330 0.789956
O O14 0.170316 0.997860 0.994995
O O15 0.619627 0.217150 0.061257
O O16 0.500000 0.500000 0.500000
O O17 0.384459 0.581525 0.217794
O O18 0.000000 0.500000 0.000000
O O19 0.500000 0.000000 0.500000
#
# Coordination Sequence:
#
# PCOD9041052 Si02
#       8
#     2   2   2   2   2   2   2   2
#     4  11  25  43  68 102 134 176 227 280 344 408
#     4  12  26  46  75 101 137 182 235 288 345 405
#     4  12  27  45  68 101 140 185 227 279 347 408
#     4  10  23  43  70  97 131 172 226 280 335 403
#     4  10  23  43  70  96 131 175 223 277 340 403
#     4  12  26  47  70 102 140 181 231 288 343 409
#     4  11  25  44  68  98 138 179 223 279 342 410
#     4  12  27  45  68 102 139 180 232 284 338 416
#
# _framework density 21.314886000000001
#
# number of rings (size 3 to 8) (size 9 to 14) (size 15 to 20)
#    0.000    0.750    2.500    3.750    8.750    5.500 
#    0.000    0.000    0.000    0.000    0.000    0.000 
#    0.000    0.000    0.000    0.000    0.000    0.000 
#
# Total GULP energy -89318.474277 kJ/mol
# GULP energy per Si atom -5582.404642 kJ/mol
# Density = 2.126637 g / cm^3
# Si number density = 21.314886 Si / 1000 Ang^3
#
#
#
# Elastic Constant Matrix: (Units=GPa)
#
#
# Indices 1 2 3 4 5 6 
#
# 1 124.4079 36.3367 21.4185 2.6383 -11.8093 21.9887
# 2 36.3367 95.4106 0.0425 11.1880 -10.4571 14.4967
# 3 21.4185 0.0425 75.9339 7.6958 -12.3671 9.2318
# 4 2.6383 11.1880 7.6958 33.0642 -1.9792 -2.7839
# 5 -11.8093 -10.4571 -12.3671 -1.9792 32.2410 6.2465
# 6 21.9887 14.4967 9.2318 -2.7839 6.2465 44.0141
#
#
#
# Elastic Compliance Matrix: (Units=1/GPa)
#
#
# Indices 1 2 3 4 5 6 
#
# 1 0.010242 -0.003029 -0.001981 0.000495 0.002829 -0.004074
# 2 -0.003029 0.013432 0.002688 -0.005016 0.004838 -0.004479
# 3 -0.001981 0.002688 0.015824 -0.004402 0.006810 -0.004459
# 4 0.000495 -0.005016 -0.004402 0.033203 -0.002009 0.004714
# 5 0.002829 0.004838 0.006810 -0.002009 0.038040 -0.009961
# 6 -0.004074 -0.004479 -0.004459 0.004714 -0.009961 0.028877
#
#
# Mechanical properties :
#
#
# Convention : Reuss Voigt Hill
#
# Bulk Modulus (GPa) = 28.69184 45.70532 37.19858
# Shear Modulus (GPa) = 32.07560 37.72751 34.90156
#
# Velocity S-wave (km/s) = 3.88344 4.21171 4.05090
# Velocity P-wave (km/s) = 5.79641 6.71869 6.27452
#
# Compressibility (1/GPa) = 0.03485312
#
# Stress axis : x y z
#
# Youngs Moduli (GPa) = 97.63869 74.44758 63.19473
#
# Poissons Ratio (x) = 0.22549 0.12522
# Poissons Ratio (y) = 0.29573 -0.16985
# Poissons Ratio (z) = 0.19346 -0.20009
#
# Static dielectric constant tensor:
#      x y z
#    x 1.715320 -0.037160 0.025240 
#    y -0.037160 1.769550 -0.006750 
#    z 0.025240 -0.006750 1.732450 
# 
# From -- ./inp_files/505326.got.cif
#   From: 2010.05.17/outbox.cif.g08.bks.cpg/sg2_253_cif.got.tgz:505326.got - 2010.06.03 11:33:40.
