data_PCOD9041418
_publ_section_title
;
Structure prediction by ZEFSAII (Michael W. Deem and Ramdas Pophale) SiO2 
 PCOD9041418
Probable space group: P -1
;
_chemical_formula_sum "Si O2"
_cell_formula_units_Z 14
_cell_length_a 12.282910
_cell_length_b 12.108147
_cell_length_c 7.242239
_cell_angle_alpha 66.716264
_cell_angle_beta 72.433503
_cell_angle_gamma 126.984863
_cell_volume 535.506148
_symmetry_space_group_name_H-M "P -1"
_symmetry_group_IT_number 2
_symmetry_cell_setting 'triclinic'
loop_
_space_group_symop_operation_xyz
x,y,z
-x,-y,-z
loop_
_atom_site_type_symbol
_atom_site_label
_atom_site_fract_x
_atom_site_fract_y
_atom_site_fract_z
Si Si1 0.167355 0.503218 0.258704
Si Si2 0.247120 0.025135 0.549503
Si Si3 0.592759 0.043520 0.119670
Si Si4 0.841726 0.907617 0.796190
Si Si5 0.033843 0.811693 0.141176
Si Si6 0.404258 0.510848 0.895605
Si Si7 0.183560 0.715286 0.655038
O O1 0.143154 0.425505 0.527927
O O2 0.940800 0.345574 0.419084
O O3 0.303929 0.740097 0.015101
O O4 0.249122 0.467773 0.106286
O O5 0.260525 0.080584 0.292244
O O6 0.412877 0.247906 0.420739
O O7 0.269571 0.903498 0.596300
O O8 0.047003 0.860385 0.887942
O O9 0.385109 0.814391 0.467404
O O10 0.762792 0.090597 0.004412
O O11 0.500000 0.000000 0.000000
O O12 0.945336 0.058695 0.816657
O O13 0.694635 0.670079 0.072640
O O14 0.000000 0.000000 0.500000
O O15 0.500000 0.500000 0.000000
O O16 0.000000 0.500000 0.000000
#
# Coordination Sequence:
#
# PCOD9041418 Si02
#       7
#     2   2   2   2   2   2   2
#     4  12  24  48  72 102 148 194 237 299 371 426
#     4  11  24  45  69 107 142 185 245 295 362 428
#     4  12  26  45  70 106 150 188 242 297 362 438
#     4  11  22  48  70 100 144 191 242 300 363 424
#     4  12  26  43  74 109 142 191 245 299 365 437
#     4  10  23  43  74  96 140 197 232 299 365 416
#     4  12  26  44  73 105 145 195 238 295 369 433
#
# _framework density 26.143491000000001
#
# number of rings (size 3 to 8) (size 9 to 14) (size 15 to 20)
#    0.000    0.571    5.714    1.286    6.000    2.286 
#    0.000    0.000    0.000    0.000    0.000    0.000 
#    0.000    0.000    0.000    0.000    0.000    0.000 
#
# Total GULP energy -78230.881963 kJ/mol
# GULP energy per Si atom -5587.920140 kJ/mol
# Density = 2.608399 g / cm^3
# Si number density = 26.143491 Si / 1000 Ang^3
#
#
#
# Elastic Constant Matrix: (Units=GPa)
#
#
# Indices 1 2 3 4 5 6 
#
# 1 87.0652 18.0530 13.7536 -11.4836 -6.7684 -7.4822
# 2 18.0530 77.7317 5.3926 -22.4347 5.5311 -7.1164
# 3 13.7536 5.3926 137.8003 -27.9365 13.1261 -2.9035
# 4 -11.4836 -22.4347 -27.9365 46.6967 -3.8686 9.9527
# 5 -6.7684 5.5311 13.1261 -3.8686 41.0727 2.6348
# 6 -7.4822 -7.1164 -2.9035 9.9527 2.6348 37.9921
#
#
#
# Elastic Compliance Matrix: (Units=1/GPa)
#
#
# Indices 1 2 3 4 5 6 
#
# 1 0.012704 -0.002626 -0.001186 0.001081 0.002836 0.001440
# 2 -0.002626 0.015749 0.001384 0.007391 -0.002349 0.000765
# 3 -0.001186 0.001384 0.008664 0.005461 -0.002600 -0.000562
# 4 0.001081 0.007391 0.005461 0.029793 0.000618 -0.005833
# 5 0.002836 -0.002349 -0.002600 0.000618 0.026152 -0.002056
# 6 0.001440 0.000765 -0.000562 -0.005833 -0.002056 0.028376
#
#
# Mechanical properties :
#
#
# Convention : Reuss Voigt Hill
#
# Bulk Modulus (GPa) = 30.99687 41.88840 36.44263
# Shear Modulus (GPa) = 36.48372 42.84551 39.66461
#
# Velocity S-wave (km/s) = 3.73972 4.05267 3.89934
# Velocity P-wave (km/s) = 5.52535 6.16086 5.85174
#
# Compressibility (1/GPa) = 0.03226133
#
# Stress axis : x y z
#
# Youngs Moduli (GPa) = 78.71365 63.49615 115.41969
#
# Poissons Ratio (x) = 0.16675 0.13687
# Poissons Ratio (y) = 0.20672 -0.15974
# Poissons Ratio (z) = 0.09334 -0.08788
#
# Static dielectric constant tensor:
#      x y z
#    x 2.288160 0.089150 0.042030 
#    y 0.089150 2.121690 0.149930 
#    z 0.042030 0.149930 2.274680 
# 
# From -- ./inp_files/306927.got.cif
#   From: 2010.05.17/outbox.cif.g08.bks.cpg/sg2_154_cif.got.tgz:306927.got - 2010.06.03 11:33:40.
