data_PCOD9041267
_publ_section_title
;
Structure prediction by ZEFSAII (Michael W. Deem and Ramdas Pophale) SiO2 
 PCOD9041267
Probable space group: P -1
;
_chemical_formula_sum "Si O2"
_cell_formula_units_Z 16
_cell_length_a 17.214510
_cell_length_b 12.824921
_cell_length_c 7.360155
_cell_angle_alpha 85.728310
_cell_angle_beta 49.988401
_cell_angle_gamma 45.259059
_cell_volume 635.634730
_symmetry_space_group_name_H-M "P -1"
_symmetry_group_IT_number 2
_symmetry_cell_setting 'triclinic'
loop_
_space_group_symop_operation_xyz
x,y,z
-x,-y,-z
loop_
_atom_site_type_symbol
_atom_site_label
_atom_site_fract_x
_atom_site_fract_y
_atom_site_fract_z
Si Si1 0.294093 0.402731 0.631537
Si Si2 0.557135 0.945077 0.707420
Si Si3 0.136019 0.292182 0.233351
Si Si4 0.340936 0.797945 0.738046
Si Si5 0.889627 0.789414 0.349700
Si Si6 0.935304 0.284126 0.362101
Si Si7 0.848124 0.068318 0.338740
Si Si8 0.309571 0.671016 0.130692
O O1 0.357738 0.243191 0.447823
O O2 0.479242 0.284601 0.476372
O O3 0.218495 0.562151 0.590599
O O4 0.101157 0.550419 0.023182
O O5 0.726433 0.883142 0.449616
O O6 0.500000 0.000000 0.000000
O O7 0.353505 0.141536 0.876714
O O8 0.174492 0.175185 0.352870
O O9 0.000000 0.500000 0.500000
O O10 0.009869 0.335716 0.279813
O O11 0.343918 0.762369 0.526637
O O12 0.343727 0.697991 0.885406
O O13 0.133904 0.042968 0.053230
O O14 0.907533 0.896135 0.287808
O O15 0.806869 0.336275 0.699065
O O16 0.828084 0.133307 0.559385
O O17 0.000000 0.000000 0.000000
O O18 0.500000 0.500000 0.000000
#
# Coordination Sequence:
#
# PCOD9041267 Si02
#       8
#     2   2   2   2   2   2   2   2
#     4  12  24  47  73 109 148 190 251 311 377 455
#     4  10  23  43  72 105 146 194 249 309 373 451
#     4  11  25  45  75 110 149 200 255 305 380 456
#     4  12  26  47  76 108 152 200 252 309 380 449
#     4  11  25  46  72 107 151 195 247 320 377 445
#     4  12  23  47  71 106 148 195 249 309 376 447
#     4  12  27  49  75 110 153 195 255 313 376 454
#     4  12  27  46  75 111 149 204 252 313 379 445
#
# _framework density 25.171686000000001
#
# number of rings (size 3 to 8) (size 9 to 14) (size 15 to 20)
#    0.000    0.500    5.000    3.000    3.500    3.500 
#    0.000    1.875    0.000    0.000    0.000    0.000 
#    0.000    0.000    0.000    0.000    0.000    0.000 
#
# Total GULP energy -89622.143213 kJ/mol
# GULP energy per Si atom -5601.383951 kJ/mol
# Density = 2.511439 g / cm^3
# Si number density = 25.171686 Si / 1000 Ang^3
#
#
#
# Elastic Constant Matrix: (Units=GPa)
#
#
# Indices 1 2 3 4 5 6 
#
# 1 105.0422 10.3181 31.4601 1.1064 -24.6139 2.2609
# 2 10.3181 92.4013 17.8867 12.7348 -2.6204 2.6607
# 3 31.4601 17.8867 107.9934 9.3134 -23.4860 13.3066
# 4 1.1064 12.7348 9.3134 41.9249 -10.7843 -0.3674
# 5 -24.6139 -2.6204 -23.4860 -10.7843 51.2277 -4.0510
# 6 2.2609 2.6607 13.3066 -0.3674 -4.0510 40.1389
#
#
#
# Elastic Compliance Matrix: (Units=1/GPa)
#
#
# Indices 1 2 3 4 5 6 
#
# 1 0.011405 -0.000941 -0.002366 0.001743 0.004770 0.000702
# 2 -0.000941 0.011697 -0.001612 -0.003524 -0.001363 -0.000358
# 3 -0.002366 -0.001612 0.011482 -0.001112 0.003556 -0.003218
# 4 0.001743 -0.003524 -0.001112 0.026643 0.005862 0.001340
# 5 0.004770 -0.001363 0.003556 0.005862 0.024701 0.001189
# 6 0.000702 -0.000358 -0.003218 0.001340 0.001189 0.026097
#
#
# Mechanical properties :
#
#
# Convention : Reuss Voigt Hill
#
# Bulk Modulus (GPa) = 40.40981 47.19633 43.80307
# Shear Modulus (GPa) = 38.42878 43.04310 40.73594
#
# Velocity S-wave (km/s) = 3.91150 4.13968 4.02720
# Velocity P-wave (km/s) = 6.04055 6.45288 6.25012
#
# Compressibility (1/GPa) = 0.02474647
#
# Stress axis : x y z
#
# Youngs Moduli (GPa) = 87.67909 85.49432 87.09436
#
# Poissons Ratio (x) = 0.08043 0.20609
# Poissons Ratio (y) = 0.08248 0.14036
# Poissons Ratio (z) = 0.20747 0.13778
#
# Static dielectric constant tensor:
#      x y z
#    x 2.029460 -0.032440 -0.016290 
#    y -0.032440 1.995120 0.008150 
#    z -0.016290 0.008150 2.044800 
# 
# From -- ./inp_files/333207.got.cif
#   From: 2010.05.17/outbox.cif.g08.bks.cpg/sg2_167_cif.got.tgz:333207.got - 2010.06.03 11:33:40.
