data_PCOD9041016
_publ_section_title
;
Structure prediction by ZEFSAII (Michael W. Deem and Ramdas Pophale) SiO2 
 PCOD9041016
Probable space group: P -1
;
_chemical_formula_sum "Si O2"
_cell_formula_units_Z 12
_cell_length_a 5.330635
_cell_length_b 20.096584
_cell_length_c 16.502800
_cell_angle_alpha 20.749951
_cell_angle_beta 50.230375
_cell_angle_gamma 49.144244
_cell_volume 471.157386
_symmetry_space_group_name_H-M "P -1"
_symmetry_group_IT_number 2
_symmetry_cell_setting 'triclinic'
loop_
_space_group_symop_operation_xyz
x,y,z
-x,-y,-z
loop_
_atom_site_type_symbol
_atom_site_label
_atom_site_fract_x
_atom_site_fract_y
_atom_site_fract_z
Si Si1 0.205443 0.598733 0.067688
Si Si2 0.435064 0.081828 0.319404
Si Si3 0.381137 0.890619 0.225246
Si Si4 0.533206 0.528948 0.364438
Si Si5 0.343498 0.925527 0.886878
Si Si6 0.737854 0.300425 0.236560
O O1 0.543736 0.434141 0.194000
O O2 0.901845 0.557605 0.229815
O O3 0.289771 0.801765 0.843459
O O4 0.176516 0.587444 0.988701
O O5 0.395386 0.122472 0.185242
O O6 0.093897 0.172705 0.332435
O O7 0.477332 0.853504 0.573595
O O8 0.513764 0.969699 0.189016
O O9 0.982321 0.946097 0.232686
O O10 0.512444 0.664285 0.449043
O O11 0.500000 0.000000 0.000000
O O12 0.500000 0.500000 0.500000
O O13 0.288135 0.722712 0.164103
#
# Coordination Sequence:
#
# PCOD9041016 Si02
#       6
#     2   2   2   2   2   2
#     4  11  23  46  67 107 145 190 251 308 372 451
#     4  11  23  43  73 104 143 191 245 305 384 448
#     4  12  28  50  75 109 153 200 258 313 376 449
#     4  12  27  48  78 109 150 204 251 313 380 450
#     4  12  27  50  75 111 154 195 253 317 377 457
#     4  10  23  43  70 106 141 191 246 311 378 443
#
# _framework density 25.469194999999999
#
# number of rings (size 3 to 8) (size 9 to 14) (size 15 to 20)
#    0.000    0.667    3.333    3.500    0.000    4.667 
#   12.000    0.000    0.000    0.000    0.000    0.000 
#    0.000    0.000    0.000    0.000    0.000    0.000 
#
# Total GULP energy -67223.185620 kJ/mol
# GULP energy per Si atom -5601.932135 kJ/mol
# Density = 2.541123 g / cm^3
# Si number density = 25.469195 Si / 1000 Ang^3
#
#
#
# Elastic Constant Matrix: (Units=GPa)
#
#
# Indices 1 2 3 4 5 6 
#
# 1 105.9568 39.2364 33.8193 -10.7519 -19.5924 14.5332
# 2 39.2364 117.2013 35.6089 16.1075 -10.3799 5.5750
# 3 33.8193 35.6089 145.8916 -7.5058 -12.9767 16.5895
# 4 -10.7519 16.1075 -7.5058 60.2774 -0.2431 -4.3612
# 5 -19.5924 -10.3799 -12.9767 -0.2431 38.5381 7.6065
# 6 14.5332 5.5750 16.5895 -4.3612 7.6065 31.6918
#
#
#
# Elastic Compliance Matrix: (Units=1/GPa)
#
#
# Indices 1 2 3 4 5 6 
#
# 1 0.013519 -0.003791 -0.000717 0.002899 0.006895 -0.006413
# 2 -0.003791 0.010946 -0.001996 -0.003829 0.000272 0.000265
# 3 -0.000717 -0.001996 0.008280 0.001147 0.002712 -0.004147
# 4 0.002899 -0.003829 0.001147 0.018355 0.000728 0.001095
# 5 0.006895 0.000272 0.002712 0.000728 0.032897 -0.012425
# 6 -0.006413 0.000265 -0.004147 0.001095 -0.012425 0.039752
#
#
# Mechanical properties :
#
#
# Convention : Reuss Voigt Hill
#
# Bulk Modulus (GPa) = 50.66589 65.15320 57.90955
# Shear Modulus (GPa) = 34.88349 43.46047 39.17198
#
# Velocity S-wave (km/s) = 3.70487 4.13533 3.92601
# Velocity P-wave (km/s) = 6.18366 6.95974 6.58315
#
# Compressibility (1/GPa) = 0.01973715
#
# Stress axis : x y z
#
# Youngs Moduli (GPa) = 73.96934 91.36131 120.78002
#
# Poissons Ratio (x) = 0.34633 0.08659
# Poissons Ratio (y) = 0.28040 0.24105
# Poissons Ratio (z) = 0.05303 0.18234
#
# Static dielectric constant tensor:
#      x y z
#    x 2.115050 -0.111110 0.075950 
#    y -0.111110 2.040210 -0.022300 
#    z 0.075950 -0.022300 2.039620 
# 
# From -- ./inp_files/550837.got.cif
#   From: 2010.05.17/outbox.cif.g08.bks.cpg/sg2_276_cif.got.tgz:550837.got - 2010.06.03 11:33:40.
