data_PCOD9041815
_publ_section_title
;
Structure prediction by ZEFSAII (Michael W. Deem and Ramdas Pophale) SiO2 
 PCOD9041815
Probable space group: P -1
;
_chemical_formula_sum "Si O2"
_cell_formula_units_Z 10
_cell_length_a 4.897257
_cell_length_b 12.305321
_cell_length_c 9.740670
_cell_angle_alpha 45.502838
_cell_angle_beta 67.449230
_cell_angle_gamma 84.775805
_cell_volume 372.341587
_symmetry_space_group_name_H-M "P -1"
_symmetry_group_IT_number 2
_symmetry_cell_setting 'triclinic'
loop_
_space_group_symop_operation_xyz
x,y,z
-x,-y,-z
loop_
_atom_site_type_symbol
_atom_site_label
_atom_site_fract_x
_atom_site_fract_y
_atom_site_fract_z
Si Si1 0.591125 0.308695 0.290218
Si Si2 0.744858 0.165320 0.781221
Si Si3 0.055461 0.022197 0.631299
Si Si4 0.816645 0.735353 0.144129
Si Si5 0.850292 0.500292 0.819242
O O1 0.406056 0.126104 0.497617
O O2 0.370025 0.414574 0.293535
O O3 0.925210 0.376954 0.229769
O O4 0.632413 0.360761 0.076297
O O5 0.543890 0.286930 0.742546
O O6 0.865968 0.135235 0.636247
O O7 0.015165 0.187996 0.817843
O O8 0.500000 0.000000 0.000000
O O9 0.000000 0.000000 0.500000
O O10 0.944733 0.858637 0.883844
O O11 0.931597 0.581090 0.234058
#
# Coordination Sequence:
#
# PCOD9041815 Si02
#       5
#     2   2   2   2   2
#     4  10  24  42  64 102 138 169 227 282 331 392
#     4  10  23  45  65 100 140 178 215 279 343 406
#     4  11  26  43  72 107 134 172 236 288 324 391
#     4  11  24  46  72  96 136 184 223 266 352 404
#     4  10  23  44  67  94 138 185 212 273 349 405
#
# _framework density 26.857054999999999
#
# number of rings (size 3 to 8) (size 9 to 14) (size 15 to 20)
#    0.000    1.600    0.000    3.600   14.000    5.600 
#    0.000    6.000    0.000    0.000    0.000    0.000 
#    0.000    0.000    0.000    0.000    0.000    0.000 
#
# Total GULP energy -56009.155229 kJ/mol
# GULP energy per Si atom -5600.915523 kJ/mol
# Density = 2.679593 g / cm^3
# Si number density = 26.857055 Si / 1000 Ang^3
#
#
#
# Elastic Constant Matrix: (Units=GPa)
#
#
# Indices 1 2 3 4 5 6 
#
# 1 147.5552 30.5650 28.1530 14.2609 -2.4757 -0.6177
# 2 30.5650 108.8877 33.4041 36.9274 0.7410 -15.4355
# 3 28.1530 33.4041 154.6523 13.0340 -7.8138 9.5307
# 4 14.2609 36.9274 13.0340 31.7485 9.6218 7.6006
# 5 -2.4757 0.7410 -7.8138 9.6218 33.8726 -1.7669
# 6 -0.6177 -15.4355 9.5307 7.6006 -1.7669 64.4290
#
#
#
# Elastic Compliance Matrix: (Units=1/GPa)
#
#
# Indices 1 2 3 4 5 6 
#
# 1 0.007387 -0.001091 -0.000905 -0.002011 0.000937 0.000206
# 2 -0.001091 0.020171 -0.002122 -0.026197 0.006870 0.008415
# 3 -0.000905 -0.002122 0.007288 -0.000255 0.001655 -0.001520
# 4 -0.002011 -0.026197 -0.000255 0.073104 -0.021205 -0.015463
# 5 0.000937 0.006870 0.001655 -0.021205 0.036101 0.004902
# 6 0.000206 0.008415 -0.001520 -0.015463 0.004902 0.019722
#
#
# Mechanical properties :
#
#
# Convention : Reuss Voigt Hill
#
# Bulk Modulus (GPa) = 37.57973 66.14883 51.86428
# Shear Modulus (GPa) = 27.64269 47.27490 37.45880
#
# Velocity S-wave (km/s) = 3.21168 4.20007 3.73868
# Velocity P-wave (km/s) = 5.27030 6.94293 6.16362
#
# Compressibility (1/GPa) = 0.02661009
#
# Stress axis : x y z
#
# Youngs Moduli (GPa) = 135.37835 49.57527 137.21332
#
# Poissons Ratio (x) = 0.05409 0.12417
# Poissons Ratio (y) = 0.14772 0.29115
# Poissons Ratio (z) = 0.12251 0.10519
#
# Static dielectric constant tensor:
#      x y z
#    x 2.157460 -0.337810 0.559400 
#    y -0.337810 3.112960 -2.259020 
#    z 0.559400 -2.259020 7.263290 
# 
# From -- ./inp_files/129498.got.cif
#   From: 2010.05.17/outbox.cif.g08.bks.cpg/sg2_65_cif.got.tgz:129498.got - 2010.06.03 11:33:40.
