data_PCOD9041696
_publ_section_title
;
Structure prediction by ZEFSAII (Michael W. Deem and Ramdas Pophale) SiO2 
 PCOD9041696
Probable space group: P -1
;
_chemical_formula_sum "Si O2"
_cell_formula_units_Z 14
_cell_length_a 11.455094
_cell_length_b 9.559633
_cell_length_c 11.716588
_cell_angle_alpha 92.888071
_cell_angle_beta 122.633138
_cell_angle_gamma 41.503471
_cell_volume 554.067191
_symmetry_space_group_name_H-M "P -1"
_symmetry_group_IT_number 2
_symmetry_cell_setting 'triclinic'
loop_
_space_group_symop_operation_xyz
x,y,z
-x,-y,-z
loop_
_atom_site_type_symbol
_atom_site_label
_atom_site_fract_x
_atom_site_fract_y
_atom_site_fract_z
Si Si1 0.604586 0.518417 0.149748
Si Si2 0.113110 0.922071 0.357822
Si Si3 0.646660 0.724684 0.827440
Si Si4 0.738968 0.712685 0.450798
Si Si5 0.313477 0.952297 0.863629
Si Si6 0.032100 0.503452 0.209946
Si Si7 0.515538 0.370394 0.664173
O O1 0.425108 0.659415 0.173088
O O2 0.500000 0.500000 0.000000
O O3 0.548761 0.714564 0.068942
O O4 0.916882 0.208147 0.322338
O O5 0.350059 0.650193 0.547231
O O6 0.241687 0.862089 0.305027
O O7 0.922285 0.954148 0.236261
O O8 0.421962 0.840573 0.787711
O O9 0.774785 0.564197 0.769377
O O10 0.504765 0.992841 0.724743
O O11 0.882720 0.540237 0.037826
O O12 0.663571 0.615748 0.426933
O O13 0.000000 0.500000 0.500000
O O14 0.806493 0.711417 0.613047
O O15 0.191487 0.208591 0.834364
#
# Coordination Sequence:
#
# PCOD9041696 Si02
#       7
#     2   2   2   2   2   2   2
#     4  10  24  40  67  97 129 173 221 269 332 395
#     4  10  23  44  66  96 130 173 219 272 331 395
#     4  11  25  43  69 101 136 175 223 281 334 396
#     4  12  24  45  72  98 136 181 221 277 337 399
#     4  11  22  43  66  97 131 174 215 275 333 394
#     4  11  24  43  67  99 136 176 225 274 334 398
#     4  11  23  44  67  95 135 173 218 276 331 396
#
# _framework density 25.267693999999999
#
# number of rings (size 3 to 8) (size 9 to 14) (size 15 to 20)
#    0.000    1.143    2.857    2.143    2.000    8.000 
#    5.143    0.000    0.000    0.000    0.000    0.000 
#    0.000    0.000    0.000    0.000    0.000    0.000 
#
# Total GULP energy -78349.929340 kJ/mol
# GULP energy per Si atom -5596.423524 kJ/mol
# Density = 2.521018 g / cm^3
# Si number density = 25.267694 Si / 1000 Ang^3
#
#
#
# Elastic Constant Matrix: (Units=GPa)
#
#
# Indices 1 2 3 4 5 6 
#
# 1 138.0333 44.0840 22.1781 11.1855 -4.1556 -44.7679
# 2 44.0840 74.7823 21.4634 2.2745 -6.4369 -28.4900
# 3 22.1781 21.4634 87.1233 10.1262 -22.1772 -10.7624
# 4 11.1855 2.2745 10.1262 45.9923 -4.3003 -12.9571
# 5 -4.1556 -6.4369 -22.1772 -4.3003 40.9753 2.4920
# 6 -44.7679 -28.4900 -10.7624 -12.9571 2.4920 51.1587
#
#
#
# Elastic Compliance Matrix: (Units=1/GPa)
#
#
# Indices 1 2 3 4 5 6 
#
# 1 0.010893 -0.003298 -0.001150 -0.000187 -0.000507 0.007431
# 2 -0.003298 0.019147 -0.003020 0.002800 0.000858 0.007809
# 3 -0.001150 -0.003020 0.014505 -0.002261 0.007056 -0.000553
# 4 -0.000187 0.002800 -0.002261 0.024241 0.001316 0.006996
# 5 -0.000507 0.000858 0.007056 0.001316 0.028417 0.000467
# 6 0.007431 0.007809 -0.000553 0.006996 0.000467 0.032031
#
#
# Mechanical properties :
#
#
# Convention : Reuss Voigt Hill
#
# Bulk Modulus (GPa) = 33.77372 52.82110 43.29741
# Shear Modulus (GPa) = 32.45934 41.77282 37.11608
#
# Velocity S-wave (km/s) = 3.58805 4.07038 3.83680
# Velocity P-wave (km/s) = 5.52818 6.56054 6.06636
#
# Compressibility (1/GPa) = 0.02960882
#
# Stress axis : x y z
#
# Youngs Moduli (GPa) = 91.80596 52.22823 68.94073
#
# Poissons Ratio (x) = 0.17226 0.07926
# Poissons Ratio (y) = 0.30280 0.20819
# Poissons Ratio (z) = 0.10555 0.15772
#
# Static dielectric constant tensor:
#      x y z
#    x 2.192370 0.192200 0.124070 
#    y 0.192200 2.205220 0.067400 
#    z 0.124070 0.067400 2.136490 
# 
# From -- ./inp_files/258306.got.cif
#   From: 2010.05.17/outbox.cif.g08.bks.cpg/sg2_130_cif.got.tgz:258306.got - 2010.06.03 11:33:40.
