data_PCOD9041716
_publ_section_title
;
Structure prediction by ZEFSAII (Michael W. Deem and Ramdas Pophale) SiO2 
 PCOD9041716
Probable space group: P -1
;
_chemical_formula_sum "Si O2"
_cell_formula_units_Z 16
_cell_length_a 15.926029
_cell_length_b 12.737733
_cell_length_c 15.242545
_cell_angle_alpha 152.342485
_cell_angle_beta 36.625034
_cell_angle_gamma 124.730871
_cell_volume 736.725482
_symmetry_space_group_name_H-M "P -1"
_symmetry_group_IT_number 2
_symmetry_cell_setting 'triclinic'
loop_
_space_group_symop_operation_xyz
x,y,z
-x,-y,-z
loop_
_atom_site_type_symbol
_atom_site_label
_atom_site_fract_x
_atom_site_fract_y
_atom_site_fract_z
Si Si1 0.553410 0.092689 0.879495
Si Si2 0.633437 0.190686 0.155600
Si Si3 0.117621 0.051206 0.094997
Si Si4 0.815739 0.178315 0.826176
Si Si5 0.171217 0.334360 0.785669
Si Si6 0.868720 0.889924 0.173734
Si Si7 0.625331 0.494638 0.820044
Si Si8 0.122548 0.416432 0.220229
O O1 0.437745 0.997662 0.950456
O O2 0.683925 0.836496 0.527694
O O3 0.671868 0.155388 0.883244
O O4 0.452968 0.327908 0.068621
O O5 0.500000 0.500000 0.500000
O O6 0.781104 0.144753 0.932591
O O7 0.702337 0.106992 0.134404
O O8 0.088494 0.213158 0.150659
O O9 0.017342 0.284738 0.423011
O O10 0.045884 0.861200 0.002152
O O11 0.787897 0.466357 0.053748
O O12 0.000000 0.000000 0.500000
O O13 0.163193 0.146490 0.725847
O O14 0.000000 0.500000 0.000000
O O15 0.744943 0.188838 0.469214
O O16 0.856394 0.679737 0.967809
O O17 0.724711 0.600642 0.870049
O O18 0.500000 0.500000 0.000000
#
# Coordination Sequence:
#
# PCOD9041716 Si02
#       8
#     2   2   2   2   2   2   2   2
#     4  12  26  48  70 104 149 183 240 299 359 420
#     4  12  26  48  73 105 149 188 232 303 362 415
#     4  10  23  44  67  95 140 183 232 291 354 420
#     4  12  28  46  75 105 140 196 243 284 359 437
#     4  12  25  45  70 105 140 185 239 297 349 429
#     4  11  25  40  72 101 135 185 241 287 352 432
#     4  11  24  43  67  99 142 181 226 298 357 411
#     4  10  23  44  66  98 135 184 236 289 352 424
#
# _framework density 21.717722999999999
#
# number of rings (size 3 to 8) (size 9 to 14) (size 15 to 20)
#    0.000    0.750    5.000    1.500    3.500    2.500 
#    2.250    0.000    0.000    0.000    0.000    0.000 
#    0.000    0.000    0.000    0.000    0.000    0.000 
#
# Total GULP energy -89379.796712 kJ/mol
# GULP energy per Si atom -5586.237295 kJ/mol
# Density = 2.166829 g / cm^3
# Si number density = 21.717723 Si / 1000 Ang^3
#
#
#
# Elastic Constant Matrix: (Units=GPa)
#
#
# Indices 1 2 3 4 5 6 
#
# 1 73.9415 6.1808 24.0606 13.5062 -8.1974 7.2341
# 2 6.1808 106.2756 9.7931 3.2350 -11.2206 6.3157
# 3 24.0606 9.7931 63.5412 10.0326 -11.4458 -8.4475
# 4 13.5062 3.2350 10.0326 32.7065 -3.5723 2.6210
# 5 -8.1974 -11.2206 -11.4458 -3.5723 34.2735 1.5596
# 6 7.2341 6.3157 -8.4475 2.6210 1.5596 30.2523
#
#
#
# Elastic Compliance Matrix: (Units=1/GPa)
#
#
# Indices 1 2 3 4 5 6 
#
# 1 0.017104 0.000245 -0.006201 -0.004533 0.001881 -0.005577
# 2 0.000245 0.010004 -0.001442 -0.000109 0.002964 -0.002693
# 3 -0.006201 -0.001442 0.020686 -0.003797 0.004208 0.007672
# 4 -0.004533 -0.000109 -0.003797 0.034001 0.001291 -0.002966
# 5 0.001881 0.002964 0.004208 0.001291 0.032213 -0.001666
# 6 -0.005577 -0.002693 0.007672 -0.002966 -0.001666 0.037436
#
#
# Mechanical properties :
#
#
# Convention : Reuss Voigt Hill
#
# Bulk Modulus (GPa) = 30.30501 35.98080 33.14291
# Shear Modulus (GPa) = 28.21050 33.02803 30.61927
#
# Velocity S-wave (km/s) = 3.60802 3.90396 3.75890
# Velocity P-wave (km/s) = 5.59834 6.07656 5.84235
#
# Compressibility (1/GPa) = 0.03299784
#
# Stress axis : x y z
#
# Youngs Moduli (GPa) = 58.46682 99.95654 48.34283
#
# Poissons Ratio (x) = -0.02446 0.29978
# Poissons Ratio (y) = -0.01431 0.06969
# Poissons Ratio (z) = 0.36256 0.14409
#
# Static dielectric constant tensor:
#      x y z
#    x 1.804590 0.009690 -0.014060 
#    y 0.009690 1.824830 -0.041820 
#    z -0.014060 -0.041820 1.794750 
# 
# From -- ./inp_files/428360.got.cif
#   From: 2010.05.17/outbox.cif.g08.bks.cpg/sg2_215_cif.got.tgz:428360.got - 2010.06.03 11:33:40.
