data_PCOD9041754
_publ_section_title
;
Structure prediction by ZEFSAII (Michael W. Deem and Ramdas Pophale) SiO2 
 PCOD9041754
Probable space group: P -1
;
_chemical_formula_sum "Si O2"
_cell_formula_units_Z 16
_cell_length_a 12.984998
_cell_length_b 13.744884
_cell_length_c 10.850462
_cell_angle_alpha 32.425149
_cell_angle_beta 142.455609
_cell_angle_gamma 122.215727
_cell_volume 575.207820
_symmetry_space_group_name_H-M "P -1"
_symmetry_group_IT_number 2
_symmetry_cell_setting 'triclinic'
loop_
_space_group_symop_operation_xyz
x,y,z
-x,-y,-z
loop_
_atom_site_type_symbol
_atom_site_label
_atom_site_fract_x
_atom_site_fract_y
_atom_site_fract_z
Si Si1 0.699960 0.357395 0.102056
Si Si2 0.631521 0.784093 0.516669
Si Si3 0.955969 0.809569 0.643229
Si Si4 0.165832 0.403531 0.425193
Si Si5 0.241175 0.907536 0.342307
Si Si6 0.334879 0.218669 0.169044
Si Si7 0.272893 0.564149 0.585496
Si Si8 0.445344 0.731469 0.171767
O O1 0.738403 0.546292 0.896741
O O2 0.483625 0.476948 0.821581
O O3 0.703078 0.236578 0.110124
O O4 0.811028 0.192752 0.484460
O O5 0.764725 0.852529 0.490760
O O6 0.615705 0.856762 0.563448
O O7 0.455723 0.816551 0.227030
O O8 0.926438 0.742783 0.549509
O O9 0.000000 0.000000 0.500000
O O10 0.097410 0.602863 0.062071
O O11 0.156930 0.495924 0.452287
O O12 0.380450 0.268325 0.739368
O O13 0.462517 0.846679 0.630537
O O14 0.216886 0.795146 0.318717
O O15 0.187917 0.141321 0.055455
O O16 0.264599 0.453314 0.823111
O O17 0.500000 0.500000 0.500000
#
# Coordination Sequence:
#
# PCOD9041754 Si02
#       8
#     2   2   2   2   2   2   2   2
#     4   9  15  31  54  80 109 146 170 216 274 323
#     4  10  17  34  54  76 113 139 180 226 263 314
#     4  10  22  41  58  77 105 144 187 231 267 311
#     4   9  20  38  61  79 100 146 182 216 280 328
#     4  10  18  30  52  79 116 147 175 205 274 332
#     4  10  19  31  50  84 114 146 176 212 264 333
#     4  10  17  33  58  79 112 139 171 221 273 325
#     4   8  16  29  56  81 109 135 170 222 272 323
#
# _framework density 27.816033999999998
#
# number of rings (size 3 to 8) (size 9 to 14) (size 15 to 20)
#    0.000    2.500    2.500    0.750    0.000    1.000 
#    9.000    2.500    0.000    1.500    0.000    0.000 
#    0.000    0.000    0.000    0.000    0.000    0.000 
#
# Total GULP energy -89324.808969 kJ/mol
# GULP energy per Si atom -5582.800561 kJ/mol
# Density = 2.775272 g / cm^3
# Si number density = 27.816034 Si / 1000 Ang^3
#
#
#
# Elastic Constant Matrix: (Units=GPa)
#
#
# Indices 1 2 3 4 5 6 
#
# 1 91.8116 63.7461 21.4498 -1.3753 -22.4721 -17.4972
# 2 63.7461 264.7126 45.6574 -23.1165 -19.6268 -19.3824
# 3 21.4498 45.6574 36.2807 -16.7634 -11.9286 2.0883
# 4 -1.3753 -23.1165 -16.7634 46.4549 5.4562 -12.8079
# 5 -22.4721 -19.6268 -11.9286 5.4562 37.1244 0.8473
# 6 -17.4972 -19.3824 2.0883 -12.8079 0.8473 54.1961
#
#
#
# Elastic Compliance Matrix: (Units=1/GPa)
#
#
# Indices 1 2 3 4 5 6 
#
# 1 0.016304 -0.002339 -0.005756 -0.002499 0.007060 0.003948
# 2 -0.002339 0.005424 -0.005066 0.001318 -0.000409 0.001698
# 3 -0.005756 -0.005066 0.045295 0.012140 0.006668 -0.002651
# 4 -0.002499 0.001318 0.012140 0.028255 -0.001203 0.005893
# 5 0.007060 -0.000409 0.006668 -0.001203 0.033289 0.001072
# 6 0.003948 0.001698 -0.002651 0.005893 0.001072 0.021811
#
#
# Mechanical properties :
#
#
# Convention : Reuss Voigt Hill
#
# Bulk Modulus (GPa) = 24.56984 72.72352 48.64668
# Shear Modulus (GPa) = 26.27900 45.01851 35.64876
#
# Velocity S-wave (km/s) = 3.07700 4.02735 3.58381
# Velocity P-wave (km/s) = 4.63423 6.91572 5.88657
#
# Compressibility (1/GPa) = 0.04070030
#
# Stress axis : x y z
#
# Youngs Moduli (GPa) = 61.33594 184.37331 22.07744
#
# Poissons Ratio (x) = 0.43125 0.12708
# Poissons Ratio (y) = 0.14347 0.11184
# Poissons Ratio (z) = 0.35306 0.93402
#
# Static dielectric constant tensor:
#      x y z
#    x 2.261480 0.012920 0.156350 
#    y 0.012920 2.243830 -0.055220 
#    z 0.156350 -0.055220 2.348220 
# 
# From -- ./inp_files/454396.got.cif
#   From: 2010.05.17/outbox.cif.g08.bks.cpg/sg2_228_cif.got.tgz:454396.got - 2010.06.03 11:33:40.
