data_PCOD9041774
_publ_section_title
;
Structure prediction by ZEFSAII (Michael W. Deem and Ramdas Pophale) SiO2 
 PCOD9041774
Probable space group: P -1
;
_chemical_formula_sum "Si O2"
_cell_formula_units_Z 10
_cell_length_a 9.680594
_cell_length_b 14.257228
_cell_length_c 10.361884
_cell_angle_alpha 144.595920
_cell_angle_beta 28.387538
_cell_angle_gamma 141.475933
_cell_volume 382.690287
_symmetry_space_group_name_H-M "P -1"
_symmetry_group_IT_number 2
_symmetry_cell_setting 'triclinic'
loop_
_space_group_symop_operation_xyz
x,y,z
-x,-y,-z
loop_
_atom_site_type_symbol
_atom_site_label
_atom_site_fract_x
_atom_site_fract_y
_atom_site_fract_z
Si Si1 0.701027 0.151191 0.846988
Si Si2 0.136159 0.182535 0.748274
Si Si3 0.245838 0.365188 0.478826
Si Si4 0.724847 0.886244 0.167296
Si Si5 0.535740 0.533378 0.850324
O O1 0.834876 0.154335 0.884327
O O2 0.947112 0.293326 0.726310
O O3 0.296607 0.033145 0.412734
O O4 0.391114 0.205020 0.167515
O O5 0.118863 0.172301 0.903415
O O6 0.318249 0.371623 0.787245
O O7 0.500000 0.500000 0.500000
O O8 0.206278 0.436608 0.446055
O O9 0.500000 0.000000 0.500000
O O10 0.528692 0.724848 0.078645
O O11 0.000000 0.000000 0.000000
O O12 0.500000 0.500000 0.000000
#
# Coordination Sequence:
#
# PCOD9041774 Si02
#       5
#     2   2   2   2   2
#     4  11  25  44  69  99 139 177 223 279 336 400
#     4  10  23  44  67 103 134 177 225 279 333 396
#     4  12  24  45  69  99 135 181 227 273 337 398
#     4  11  24  46  68  95 136 180 223 272 338 403
#     4  10  23  45  68 102 134 176 225 279 331 399
#
# _framework density 26.130793000000001
#
# number of rings (size 3 to 8) (size 9 to 14) (size 15 to 20)
#    0.000    1.200    2.000    3.000    0.000    4.800 
#    0.000    6.000    0.000    0.000    0.000    0.000 
#    0.000    0.000    0.000    0.000    0.000    0.000 
#
# Total GULP energy -55775.225604 kJ/mol
# GULP energy per Si atom -5577.522560 kJ/mol
# Density = 2.607132 g / cm^3
# Si number density = 26.130793 Si / 1000 Ang^3
#
#
#
# Elastic Constant Matrix: (Units=GPa)
#
#
# Indices 1 2 3 4 5 6 
#
# 1 136.9766 28.5077 2.4292 -16.0550 10.1604 -17.1177
# 2 28.5077 183.9168 42.3273 6.9569 10.5981 24.4887
# 3 2.4292 42.3273 67.2366 -22.2497 -9.2366 -7.4808
# 4 -16.0550 6.9569 -22.2497 44.7709 0.5916 23.3661
# 5 10.1604 10.5981 -9.2366 0.5916 29.3815 -1.7426
# 6 -17.1177 24.4887 -7.4808 23.3661 -1.7426 55.1851
#
#
#
# Elastic Compliance Matrix: (Units=1/GPa)
#
#
# Indices 1 2 3 4 5 6 
#
# 1 0.008515 -0.002217 0.002246 0.003214 -0.001354 0.002526
# 2 -0.002217 0.008497 -0.007618 -0.003711 -0.004860 -0.004073
# 3 0.002246 -0.007618 0.025646 0.013476 0.009890 0.002160
# 4 0.003214 -0.003711 0.013476 0.036376 0.003089 -0.010834
# 5 -0.001354 -0.004860 0.009890 0.003089 0.039482 0.003016
# 6 0.002526 -0.004073 0.002160 -0.010834 0.003016 0.025687
#
#
# Mechanical properties :
#
#
# Convention : Reuss Voigt Hill
#
# Bulk Modulus (GPa) = 36.38820 59.40650 47.89735
# Shear Modulus (GPa) = 29.66688 46.85857 38.26273
#
# Velocity S-wave (km/s) = 3.37311 4.23925 3.83074
# Velocity P-wave (km/s) = 5.39686 6.83705 6.15920
#
# Compressibility (1/GPa) = 0.02748143
#
# Stress axis : x y z
#
# Youngs Moduli (GPa) = 117.44285 117.69248 38.99285
#
# Poissons Ratio (x) = 0.26089 -0.08760
# Poissons Ratio (y) = 0.26034 0.29703
# Poissons Ratio (z) = -0.26383 0.89654
#
# Static dielectric constant tensor:
#      x y z
#    x 2.154280 -0.059430 0.029610 
#    y -0.059430 2.047430 0.025320 
#    z 0.029610 0.025320 2.128060 
# 
# From -- ./inp_files/433282.got.cif
#   From: 2010.05.17/outbox.cif.g08.bks.cpg/sg2_217_cif.got.tgz:433282.got - 2010.06.03 11:33:40.
