data_PCOD9041583
_publ_section_title
;
Structure prediction by ZEFSAII (Michael W. Deem and Ramdas Pophale) SiO2 
 PCOD9041583
Probable space group: P -1
;
_chemical_formula_sum "Si O2"
_cell_formula_units_Z 16
_cell_length_a 7.092827
_cell_length_b 13.930744
_cell_length_c 10.054104
_cell_angle_alpha 88.848095
_cell_angle_beta 135.754489
_cell_angle_gamma 77.023717
_cell_volume 651.086715
_symmetry_space_group_name_H-M "P -1"
_symmetry_group_IT_number 2
_symmetry_cell_setting 'triclinic'
loop_
_space_group_symop_operation_xyz
x,y,z
-x,-y,-z
loop_
_atom_site_type_symbol
_atom_site_label
_atom_site_fract_x
_atom_site_fract_y
_atom_site_fract_z
Si Si1 0.159488 0.565112 0.498577
Si Si2 0.830444 0.961587 0.212309
Si Si3 0.969087 0.128347 0.403807
Si Si4 0.927480 0.121092 0.927524
Si Si5 0.334292 0.252762 0.166087
Si Si6 0.295024 0.260292 0.614844
Si Si7 0.276695 0.455448 0.043902
Si Si8 0.818923 0.591586 0.671757
O O1 0.442205 0.552508 0.728795
O O2 0.213966 0.517695 0.380182
O O3 0.000000 0.500000 0.500000
O O4 0.933540 0.680674 0.389741
O O5 0.844415 0.926288 0.372829
O O6 0.025684 0.880841 0.209195
O O7 0.955127 0.053876 0.282003
O O8 0.500000 0.000000 0.000000
O O9 0.652442 0.176871 0.301763
O O10 0.113489 0.209073 0.433231
O O11 0.604086 0.182208 0.809493
O O12 0.129445 0.184962 0.074479
O O13 0.000000 0.000000 0.000000
O O14 0.291299 0.339567 0.026600
O O15 0.304510 0.323984 0.278777
O O16 0.334886 0.344973 0.536155
O O17 0.000000 0.500000 0.000000
O O18 0.169125 0.543940 0.874281
#
# Coordination Sequence:
#
# PCOD9041583 Si02
#       8
#     2   2   2   2   2   2   2   2
#     4  10  23  44  65 103 145 182 234 290 354 422
#     4  11  24  46  73 100 139 184 237 313 353 419
#     4  11  24  46  72 102 141 180 248 289 364 423
#     4  12  28  48  74 106 145 189 247 300 366 429
#     4  11  24  47  68 107 139 192 241 289 358 435
#     4  11  25  46  68 106 144 189 238 294 361 430
#     4  10  23  44  68 100 143 183 236 289 343 428
#     4  10  25  44  73 101 147 189 233 291 357 420
#
# _framework density 24.574300000000001
#
# number of rings (size 3 to 8) (size 9 to 14) (size 15 to 20)
#    0.000    1.250    2.500    1.500   10.500    5.500 
#    2.250    0.000    0.000    0.000    0.000    0.000 
#    0.000    0.000    0.000    0.000    0.000    0.000 
#
# Total GULP energy -89151.556926 kJ/mol
# GULP energy per Si atom -5571.972308 kJ/mol
# Density = 2.451837 g / cm^3
# Si number density = 24.574300 Si / 1000 Ang^3
#
#
#
# Elastic Constant Matrix: (Units=GPa)
#
#
# Indices 1 2 3 4 5 6 
#
# 1 47.4085 27.9121 37.4149 12.9403 19.4178 -9.9586
# 2 27.9121 113.0526 50.5282 -4.8392 11.9105 -8.3442
# 3 37.4149 50.5282 134.6163 -13.4530 29.0772 -11.0201
# 4 12.9403 -4.8392 -13.4530 40.7150 -3.1574 3.7167
# 5 19.4178 11.9105 29.0772 -3.1574 51.9313 6.4590
# 6 -9.9586 -8.3442 -11.0201 3.7167 6.4590 45.7731
#
#
#
# Elastic Compliance Matrix: (Units=1/GPa)
#
#
# Indices 1 2 3 4 5 6 
#
# 1 0.043517 -0.005801 -0.008294 -0.019134 -0.012674 0.009756
# 2 -0.005801 0.011456 -0.002731 0.002418 0.001243 -0.000203
# 3 -0.008294 -0.002731 0.011975 0.006018 -0.002670 0.000469
# 4 -0.019134 0.002418 0.006018 0.033922 0.006024 -0.005878
# 5 -0.012674 0.001243 -0.002670 0.006024 0.026492 -0.007401
# 6 0.009756 -0.000203 0.000469 -0.005878 -0.007401 0.025567
#
#
# Mechanical properties :
#
#
# Convention : Reuss Voigt Hill
#
# Bulk Modulus (GPa) = 30.03286 58.53198 44.28242
# Shear Modulus (GPa) = 25.29342 39.63202 32.46272
#
# Velocity S-wave (km/s) = 3.21169 4.02025 3.63850
# Velocity P-wave (km/s) = 5.09913 6.73944 5.97583
#
# Compressibility (1/GPa) = 0.03329687
#
# Stress axis : x y z
#
# Youngs Moduli (GPa) = 22.97939 87.29110 83.50509
#
# Poissons Ratio (x) = 0.50639 0.69255
# Poissons Ratio (y) = 0.13331 0.22806
# Poissons Ratio (z) = 0.19058 0.23840
#
# Static dielectric constant tensor:
#      x y z
#    x 2.236790 0.058530 -0.170880 
#    y 0.058530 2.082420 -0.020760 
#    z -0.170880 -0.020760 2.062100 
# 
# From -- ./inp_files/399222.got.cif
#   From: 2010.05.17/outbox.cif.g08.bks.cpg/sg2_200_cif.got.tgz:399222.got - 2010.06.03 11:33:40.
