data_PCOD9041041
_publ_section_title
;
Structure prediction by ZEFSAII (Michael W. Deem and Ramdas Pophale) SiO2 
 PCOD9041041
Probable space group: P -1
;
_chemical_formula_sum "Si O2"
_cell_formula_units_Z 16
_cell_length_a 9.317904
_cell_length_b 15.995527
_cell_length_c 18.618395
_cell_angle_alpha 149.368728
_cell_angle_beta 39.049200
_cell_angle_gamma 146.635565
_cell_volume 760.768262
_symmetry_space_group_name_H-M "P -1"
_symmetry_group_IT_number 2
_symmetry_cell_setting 'triclinic'
loop_
_space_group_symop_operation_xyz
x,y,z
-x,-y,-z
loop_
_atom_site_type_symbol
_atom_site_label
_atom_site_fract_x
_atom_site_fract_y
_atom_site_fract_z
Si Si1 0.954399 0.229604 0.350401
Si Si2 0.870248 0.467978 0.852834
Si Si3 0.499439 0.543449 0.135075
Si Si4 0.251031 0.285598 0.425543
Si Si5 0.068898 0.103616 0.974524
Si Si6 0.627967 0.169126 0.132406
Si Si7 0.065717 0.205229 0.597278
Si Si8 0.411503 0.606697 0.377342
O O1 0.080247 0.275768 0.415454
O O2 0.166012 0.394978 0.336371
O O3 0.696058 0.248784 0.464141
O O4 0.908534 0.028872 0.192088
O O5 0.666030 0.404673 0.817877
O O6 0.173216 0.620553 0.823491
O O7 0.875604 0.288374 0.751432
O O8 0.778888 0.586000 0.025672
O O9 0.504082 0.616523 0.266813
O O10 0.331149 0.311681 0.030392
O O11 0.500000 0.500000 0.500000
O O12 0.391821 0.166625 0.265025
O O13 0.083816 0.211953 0.508895
O O14 0.827403 0.135894 0.076688
O O15 0.000000 0.000000 0.000000
O O16 0.500000 0.000000 0.000000
O O17 0.353839 0.346917 0.624879
O O18 0.000000 0.000000 0.500000
#
# Coordination Sequence:
#
# PCOD9041041 Si02
#       8
#     2   2   2   2   2   2   2   2
#     4  11  23  41  67  99 132 171 227 277 326 398
#     4  10  23  45  68  91 139 176 227 268 344 406
#     4  10  23  43  70  95 133 184 213 278 343 397
#     4  12  23  44  71  93 135 181 220 273 333 401
#     4  11  23  37  65 101 133 167 220 278 330 394
#     4  11  23  40  68 100 125 173 232 272 328 403
#     4  12  28  45  66 102 137 179 223 282 340 399
#     4  11  24  41  66  98 133 173 223 277 338 385
#
# _framework density 21.031372000000001
#
# number of rings (size 3 to 8) (size 9 to 14) (size 15 to 20)
#    0.000    1.000    5.000    0.750    5.250    1.500 
#    2.250    1.250    0.000    0.000    0.000    0.000 
#    0.000    0.000    0.000    0.000    0.000    0.000 
#
# Total GULP energy -89447.160396 kJ/mol
# GULP energy per Si atom -5590.447525 kJ/mol
# Density = 2.098350 g / cm^3
# Si number density = 21.031372 Si / 1000 Ang^3
#
#
#
# Elastic Constant Matrix: (Units=GPa)
#
#
# Indices 1 2 3 4 5 6 
#
# 1 85.9127 8.0584 37.8114 -8.0637 -9.0623 -12.5123
# 2 8.0584 28.3243 -1.7838 -0.6932 -9.7481 -11.6130
# 3 37.8114 -1.7838 104.8192 -7.2187 -18.8970 -2.0970
# 4 -8.0637 -0.6932 -7.2187 40.8513 -6.8027 -1.7321
# 5 -9.0623 -9.7481 -18.8970 -6.8027 38.4625 -2.5869
# 6 -12.5123 -11.6130 -2.0970 -1.7321 -2.5869 29.1891
#
#
#
# Elastic Compliance Matrix: (Units=1/GPa)
#
#
# Indices 1 2 3 4 5 6 
#
# 1 0.015228 -0.001643 -0.004936 0.002619 0.001601 0.005817
# 2 -0.001643 0.051404 0.005486 0.005412 0.017775 0.022037
# 3 -0.004936 0.005486 0.012927 0.002673 0.007172 0.001790
# 4 0.002619 0.005412 0.002673 0.027225 0.008510 0.005838
# 5 0.001601 0.017775 0.007172 0.008510 0.036719 0.012033
# 6 0.005817 0.022037 0.001790 0.005838 0.012033 0.047062
#
#
# Mechanical properties :
#
#
# Convention : Reuss Voigt Hill
#
# Bulk Modulus (GPa) = 12.92461 34.13646 23.53053
# Shear Modulus (GPa) = 22.87885 33.36526 28.12205
#
# Velocity S-wave (km/s) = 3.30183 3.98735 3.66067
# Velocity P-wave (km/s) = 4.54915 6.12087 5.39258
#
# Compressibility (1/GPa) = 0.07737179
#
# Stress axis : x y z
#
# Youngs Moduli (GPa) = 65.66856 19.45378 77.35794
#
# Poissons Ratio (x) = 0.03197 0.38183
# Poissons Ratio (y) = 0.10792 -0.42437
# Poissons Ratio (z) = 0.32413 -0.10672
#
# Static dielectric constant tensor:
#      x y z
#    x 1.704410 0.043910 0.042380 
#    y 0.043910 1.807040 -0.057000 
#    z 0.042380 -0.057000 1.683080 
# 
# From -- ./inp_files/186067.got.cif
#   From: 2010.05.17/outbox.cif.g08.bks.cpg/sg2_94_cif.got.tgz:186067.got - 2010.06.03 11:33:40.
