data_PCOD9041702
_publ_section_title
;
Structure prediction by ZEFSAII (Michael W. Deem and Ramdas Pophale) SiO2 
 PCOD9041702
Probable space group: P -1
;
_chemical_formula_sum "Si O2"
_cell_formula_units_Z 16
_cell_length_a 6.423684
_cell_length_b 17.754016
_cell_length_c 15.823414
_cell_angle_alpha 33.440453
_cell_angle_beta 48.967607
_cell_angle_gamma 46.754598
_cell_volume 708.051535
_symmetry_space_group_name_H-M "P -1"
_symmetry_group_IT_number 2
_symmetry_cell_setting 'triclinic'
loop_
_space_group_symop_operation_xyz
x,y,z
-x,-y,-z
loop_
_atom_site_type_symbol
_atom_site_label
_atom_site_fract_x
_atom_site_fract_y
_atom_site_fract_z
Si Si1 0.777562 0.382094 0.888053
Si Si2 0.912533 0.695497 0.301357
Si Si3 0.546196 0.489781 0.596555
Si Si4 0.901994 0.827316 0.852362
Si Si5 0.753227 0.987611 0.139081
Si Si6 0.280928 0.257019 0.180354
Si Si7 0.208798 0.031962 0.656567
Si Si8 0.892978 0.642284 0.683159
O O1 0.983878 0.330946 0.798701
O O2 0.723711 0.550347 0.763812
O O3 0.490243 0.334361 0.006055
O O4 0.948644 0.293165 0.006023
O O5 0.222576 0.664181 0.296154
O O6 0.732019 0.592905 0.473281
O O7 0.698497 0.848990 0.243496
O O8 0.500000 0.500000 0.500000
O O9 0.232949 0.547991 0.667978
O O10 0.954119 0.761409 0.806167
O O11 0.552446 0.884621 0.900949
O O12 0.018384 0.960726 0.716130
O O13 0.867526 0.965455 0.225644
O O14 0.000000 0.000000 0.000000
O O15 0.172346 0.344629 0.212488
O O16 0.472062 0.092837 0.312072
O O17 0.179331 0.194132 0.485614
#
# Coordination Sequence:
#
# PCOD9041702 Si02
#       8
#     2   2   2   2   2   2   2   2
#     4  11  25  43  68  98 138 173 221 277 331 395
#     4  11  24  42  64  96 135 173 214 270 328 398
#     4  11  24  42  62  95 134 170 211 266 331 391
#     4  10  23  45  64  94 131 175 225 272 328 399
#     4  11  23  38  68  95 129 174 221 267 329 397
#     4  10  24  46  67  96 133 175 227 272 331 395
#     4  10  23  44  66  97 130 170 225 276 331 391
#     4  12  24  43  70  99 134 177 217 280 335 391
#
# _framework density 22.597224000000001
#
# number of rings (size 3 to 8) (size 9 to 14) (size 15 to 20)
#    0.000    1.250    1.250    4.500    5.250    4.000 
#    4.500    0.000    0.000    0.000    0.000    0.000 
#    0.000    0.000    0.000    0.000    0.000    0.000 
#
# Total GULP energy -89409.580105 kJ/mol
# GULP energy per Si atom -5588.098757 kJ/mol
# Density = 2.254579 g / cm^3
# Si number density = 22.597224 Si / 1000 Ang^3
#
#
#
# Elastic Constant Matrix: (Units=GPa)
#
#
# Indices 1 2 3 4 5 6 
#
# 1 76.8159 20.5452 22.6177 -9.9100 4.9637 24.6399
# 2 20.5452 120.6849 15.9668 5.6896 -3.3226 23.7053
# 3 22.6177 15.9668 76.3712 -22.0833 -14.6258 6.9896
# 4 -9.9100 5.6896 -22.0833 33.5857 11.8697 -0.6558
# 5 4.9637 -3.3226 -14.6258 11.8697 22.8714 -1.5472
# 6 24.6399 23.7053 6.9896 -0.6558 -1.5472 38.7597
#
#
#
# Elastic Compliance Matrix: (Units=1/GPa)
#
#
# Indices 1 2 3 4 5 6 
#
# 1 0.020197 -0.001160 -0.004996 0.006931 -0.012128 -0.011596
# 2 -0.001160 0.010008 -0.002109 -0.004321 0.002263 -0.004986
# 3 -0.004996 -0.002109 0.018935 0.008293 0.008687 0.001538
# 4 0.006931 -0.004321 0.008293 0.045186 -0.020503 -0.003313
# 5 -0.012128 0.002263 0.008687 -0.020503 0.063349 0.006941
# 6 -0.011596 -0.004986 0.001538 -0.003313 0.006941 0.036164
#
#
# Mechanical properties :
#
#
# Convention : Reuss Voigt Hill
#
# Bulk Modulus (GPa) = 30.66548 43.57015 37.11782
# Shear Modulus (GPa) = 22.60001 33.35952 27.97976
#
# Velocity S-wave (km/s) = 3.16590 3.84639 3.52262
# Velocity P-wave (km/s) = 5.19267 6.24895 5.74514
#
# Compressibility (1/GPa) = 0.03260996
#
# Stress axis : x y z
#
# Youngs Moduli (GPa) = 49.51290 99.92158 52.81139
#
# Poissons Ratio (x) = 0.11594 0.26385
# Poissons Ratio (y) = 0.05745 0.11136
# Poissons Ratio (z) = 0.24737 0.21069
#
# Static dielectric constant tensor:
#      x y z
#    x 1.857240 -0.030590 0.030030 
#    y -0.030590 1.788760 0.028990 
#    z 0.030030 0.028990 1.800800 
# 
# From -- ./inp_files/484193.got.cif
#   From: 2010.05.17/outbox.cif.g08.bks.cpg/sg2_243_cif.got.tgz:484193.got - 2010.06.03 11:33:40.
