data_PCOD9041596
_publ_section_title
;
Structure prediction by ZEFSAII (Michael W. Deem and Ramdas Pophale) SiO2 
 PCOD9041596
Probable space group: P -1
;
_chemical_formula_sum "Si O2"
_cell_formula_units_Z 14
_cell_length_a 7.230260
_cell_length_b 9.701616
_cell_length_c 17.678912
_cell_angle_alpha 124.541238
_cell_angle_beta 124.731789
_cell_angle_gamma 46.146242
_cell_volume 703.176692
_symmetry_space_group_name_H-M "P -1"
_symmetry_group_IT_number 2
_symmetry_cell_setting 'triclinic'
loop_
_space_group_symop_operation_xyz
x,y,z
-x,-y,-z
loop_
_atom_site_type_symbol
_atom_site_label
_atom_site_fract_x
_atom_site_fract_y
_atom_site_fract_z
Si Si1 0.195582 0.154435 0.887054
Si Si2 0.018920 0.454575 0.401975
Si Si3 0.833550 0.908723 0.961962
Si Si4 0.739929 0.228240 0.278764
Si Si5 0.632700 0.215174 0.423160
Si Si6 0.059360 0.242037 0.629914
Si Si7 0.126907 0.479788 0.179889
O O1 0.019593 0.374565 0.879690
O O2 0.513556 0.063609 0.922480
O O3 0.142732 0.001809 0.783347
O O4 0.139500 0.138468 0.956788
O O5 0.322468 0.354886 0.414009
O O6 0.848228 0.659506 0.379446
O O7 0.000000 0.500000 0.500000
O O8 0.922976 0.305837 0.319283
O O9 0.926336 0.696761 0.879195
O O10 0.000000 0.000000 0.000000
O O11 0.693065 0.260335 0.367909
O O12 0.449564 0.360024 0.212399
O O13 0.812910 0.238683 0.533966
O O14 0.718560 0.986541 0.372123
O O15 0.968425 0.378390 0.725142
#
# Coordination Sequence:
#
# PCOD9041596 Si02
#       7
#     2   2   2   2   2   2   2
#     4  10  23  44  65  93 126 161 205 257 320 376
#     4  12  24  39  63  92 128 174 215 254 309 367
#     4  10  24  44  68  93 125 160 203 263 317 378
#     4  11  23  40  64  93 127 169 210 258 307 368
#     4  11  23  43  61  88 136 170 211 261 302 363
#     4  11  23  40  64  91 127 174 211 257 311 364
#     4  11  22  42  67  92 128 165 208 257 317 372
#
# _framework density 19.909647
#
# number of rings (size 3 to 8) (size 9 to 14) (size 15 to 20)
#    0.000    1.143    4.286    1.714    2.000    2.286 
#    2.571    0.000    0.000    0.000    0.000    0.000 
#    0.000    0.000    0.000    0.000    0.000    0.000 
#
# Total GULP energy -78268.075088 kJ/mol
# GULP energy per Si atom -5590.576792 kJ/mol
# Density = 1.986433 g / cm^3
# Si number density = 19.909647 Si / 1000 Ang^3
#
#
#
# Elastic Constant Matrix: (Units=GPa)
#
#
# Indices 1 2 3 4 5 6 
#
# 1 66.2249 21.1998 15.1992 8.6914 6.4613 21.4377
# 2 21.1998 121.0141 17.2771 3.5585 2.5601 18.4477
# 3 15.1992 17.2771 75.3752 16.4063 2.7743 4.4096
# 4 8.6914 3.5585 16.4063 36.9581 7.3098 -5.6344
# 5 6.4613 2.5601 2.7743 7.3098 24.7429 8.1280
# 6 21.4377 18.4477 4.4096 -5.6344 8.1280 23.7600
#
#
#
# Elastic Compliance Matrix: (Units=1/GPa)
#
#
# Indices 1 2 3 4 5 6 
#
# 1 0.024794 0.000084 -0.001425 -0.010314 0.005419 -0.026471
# 2 0.000084 0.009808 -0.001353 -0.002255 0.002705 -0.008899
# 3 -0.001425 -0.001353 0.015543 -0.007246 0.001864 -0.002904
# 4 -0.010314 -0.002255 -0.007246 0.040644 -0.017472 0.028016
# 5 0.005419 0.002705 0.001864 -0.017472 0.053450 -0.029763
# 6 -0.026471 -0.008899 -0.002904 0.028016 -0.029763 0.090245
#
#
# Mechanical properties :
#
#
# Convention : Reuss Voigt Hill
#
# Bulk Modulus (GPa) = 22.34316 41.10740 31.72528
# Shear Modulus (GPa) = 19.62396 31.02139 25.32267
#
# Velocity S-wave (km/s) = 3.14291 3.95157 3.57021
# Velocity P-wave (km/s) = 4.94137 6.44296 5.74147
#
# Compressibility (1/GPa) = 0.04475643
#
# Stress axis : x y z
#
# Youngs Moduli (GPa) = 40.33247 101.96022 64.33815
#
# Poissons Ratio (x) = -0.00855 0.09167
# Poissons Ratio (y) = -0.00338 0.08705
# Poissons Ratio (z) = 0.05747 0.13796
#
# Static dielectric constant tensor:
#      x y z
#    x 1.656810 0.014310 -0.004540 
#    y 0.014310 1.714150 0.008190 
#    z -0.004540 0.008190 1.731270 
# 
# From -- ./inp_files/89710.got.cif
#   From: 2010.05.17/outbox.cif.g08.bks.cpg/sg2_45_cif.got.tgz:89710.got - 2010.06.03 11:33:40.
