data_PCOD9041414
_publ_section_title
;
Structure prediction by ZEFSAII (Michael W. Deem and Ramdas Pophale) SiO2 
 PCOD9041414
Probable space group: P -1
;
_chemical_formula_sum "Si O2"
_cell_formula_units_Z 16
_cell_length_a 20.491897
_cell_length_b 12.007648
_cell_length_c 8.104265
_cell_angle_alpha 122.359953
_cell_angle_beta 122.755234
_cell_angle_gamma 22.774527
_cell_volume 645.129600
_symmetry_space_group_name_H-M "P -1"
_symmetry_group_IT_number 2
_symmetry_cell_setting 'triclinic'
loop_
_space_group_symop_operation_xyz
x,y,z
-x,-y,-z
loop_
_atom_site_type_symbol
_atom_site_label
_atom_site_fract_x
_atom_site_fract_y
_atom_site_fract_z
Si Si1 0.348693 0.133092 0.838596
Si Si2 0.158024 0.851841 0.227192
Si Si3 0.620386 0.438019 0.371241
Si Si4 0.112647 0.852548 0.700670
Si Si5 0.311483 0.016966 0.223119
Si Si6 0.021723 0.332392 0.281432
Si Si7 0.689252 0.719006 0.467668
Si Si8 0.501475 0.325017 0.133833
O O1 0.319455 0.216954 0.678100
O O2 0.153580 0.433406 0.870278
O O3 0.412179 0.891447 0.776855
O O4 0.500000 0.000000 0.000000
O O5 0.274905 0.685206 0.420021
O O6 0.299344 0.602504 0.084809
O O7 0.076429 0.119256 0.291357
O O8 0.015976 0.958427 0.169504
O O9 0.755108 0.233456 0.239827
O O10 0.532596 0.431822 0.279105
O O11 0.469406 0.762987 0.366182
O O12 0.221737 0.554128 0.621513
O O13 0.000000 0.000000 0.500000
O O14 0.168762 0.137525 0.195314
O O15 0.226625 0.289898 0.322658
O O16 0.401555 0.858579 0.046616
O O17 0.000000 0.500000 0.500000
O O18 0.500000 0.000000 0.500000
#
# Coordination Sequence:
#
# PCOD9041414 Si02
#       8
#     2   2   2   2   2   2   2   2
#     4  12  28  50  74 113 154 199 252 314 385 448
#     4  11  23  44  75 110 147 198 257 310 378 454
#     4  11  23  43  76 109 149 196 249 317 384 442
#     4  10  23  43  74 115 142 190 259 314 373 448
#     4  12  25  45  75 111 150 201 255 309 385 455
#     4  12  24  46  79 110 148 197 257 317 375 456
#     4  12  23  45  80 105 151 201 252 309 380 458
#     4  12  27  46  73 109 156 200 249 312 384 455
#
# _framework density 24.801217000000001
#
# number of rings (size 3 to 8) (size 9 to 14) (size 15 to 20)
#    0.000    0.500    5.000    3.000    1.750    1.500 
#    2.250    1.250    0.000    0.000    0.000    0.000 
#    0.000    0.000    0.000    0.000    0.000    0.000 
#
# Total GULP energy -89513.941564 kJ/mol
# GULP energy per Si atom -5594.621348 kJ/mol
# Density = 2.474477 g / cm^3
# Si number density = 24.801217 Si / 1000 Ang^3
#
#
#
# Elastic Constant Matrix: (Units=GPa)
#
#
# Indices 1 2 3 4 5 6 
#
# 1 162.9871 66.4680 19.7417 6.7905 -21.4160 -24.9345
# 2 66.4680 149.0953 30.9128 -1.6351 -9.2435 -13.2889
# 3 19.7417 30.9128 66.3472 12.8300 -13.9437 -5.0851
# 4 6.7905 -1.6351 12.8300 31.2514 -5.7452 -0.5734
# 5 -21.4160 -9.2435 -13.9437 -5.7452 36.6147 3.5097
# 6 -24.9345 -13.2889 -5.0851 -0.5734 3.5097 73.1553
#
#
#
# Elastic Compliance Matrix: (Units=1/GPa)
#
#
# Indices 1 2 3 4 5 6 
#
# 1 0.008340 -0.003382 0.000304 -0.001391 0.003724 0.002060
# 2 -0.003382 0.009019 -0.003850 0.002649 -0.000778 0.000276
# 3 0.000304 -0.003850 0.019337 -0.007206 0.005397 0.000433
# 4 -0.001391 0.002649 -0.007206 0.035902 0.002777 -0.000346
# 5 0.003724 -0.000778 0.005397 0.002777 0.031785 0.000000
# 6 0.002060 0.000276 0.000433 -0.000346 0.000000 0.014449
#
#
# Mechanical properties :
#
#
# Convention : Reuss Voigt Hill
#
# Bulk Modulus (GPa) = 43.78595 68.07494 55.93045
# Shear Modulus (GPa) = 35.63750 45.62474 40.63112
#
# Velocity S-wave (km/s) = 3.79479 4.29373 4.05195
# Velocity P-wave (km/s) = 6.07402 7.21729 6.67019
#
# Compressibility (1/GPa) = 0.02283838
#
# Stress axis : x y z
#
# Youngs Moduli (GPa) = 119.89927 110.88268 51.71483
#
# Poissons Ratio (x) = 0.37500 -0.01571
# Poissons Ratio (y) = 0.40549 0.19912
# Poissons Ratio (z) = -0.03641 0.42695
#
# Static dielectric constant tensor:
#      x y z
#    x 1.740670 0.146760 -0.032340 
#    y 0.146760 1.787160 0.063260 
#    z -0.032340 0.063260 2.034830 
# 
# From -- ./inp_files/346237.got.cif
#   From: 2010.05.17/outbox.cif.g08.bks.cpg/sg2_174_cif.got.tgz:346237.got - 2010.06.03 11:33:40.
