data_PCOD9041825
_publ_section_title
;
Structure prediction by ZEFSAII (Michael W. Deem and Ramdas Pophale) SiO2 
 PCOD9041825
Probable space group: P -1
;
_chemical_formula_sum "Si O2"
_cell_formula_units_Z 16
_cell_length_a 12.065577
_cell_length_b 8.356973
_cell_length_c 21.957948
_cell_angle_alpha 136.272052
_cell_angle_beta 149.604976
_cell_angle_gamma 53.626052
_cell_volume 771.433253
_symmetry_space_group_name_H-M "P -1"
_symmetry_group_IT_number 2
_symmetry_cell_setting 'triclinic'
loop_
_space_group_symop_operation_xyz
x,y,z
-x,-y,-z
loop_
_atom_site_type_symbol
_atom_site_label
_atom_site_fract_x
_atom_site_fract_y
_atom_site_fract_z
Si Si1 0.712310 0.864708 0.073856
Si Si2 0.456936 0.276084 0.374997
Si Si3 0.142398 0.033967 0.371966
Si Si4 0.222663 0.381369 0.079141
Si Si5 0.241887 0.445334 0.872346
Si Si6 0.926381 0.087967 0.555931
Si Si7 0.018218 0.920106 0.917009
Si Si8 0.434949 0.628835 0.358051
O O1 0.752864 0.736668 0.120539
O O2 0.691484 0.663334 0.958890
O O3 0.936907 0.034624 0.228285
O O4 0.500000 0.000000 0.000000
O O5 0.500000 0.500000 0.500000
O O6 0.673767 0.142712 0.444109
O O7 0.229298 0.124594 0.239418
O O8 0.429986 0.392939 0.328894
O O9 0.328692 0.230493 0.493626
O O10 0.081147 0.052605 0.420508
O O11 0.259154 0.792812 0.349182
O O12 0.372988 0.549518 0.239140
O O13 0.000000 0.500000 0.000000
O O14 0.164335 0.124835 0.008701
O O15 0.094915 0.312953 0.713733
O O16 0.129724 0.678629 0.899648
O O17 0.500000 0.500000 0.000000
O O18 0.000000 0.000000 0.500000
O O19 0.000000 0.000000 0.000000
#
# Coordination Sequence:
#
# PCOD9041825 Si02
#       8
#     2   2   2   2   2   2   2   2
#     4  11  24  43  68  97 136 177 219 273 343 410
#     4  12  23  42  69  98 134 175 230 273 335 406
#     4  10  23  44  67  95 137 171 221 284 343 389
#     4  12  25  41  67 102 132 174 230 273 338 405
#     4  11  25  46  66  98 141 177 225 279 340 404
#     4  11  26  44  68  99 135 180 226 280 341 405
#     4  12  25  42  68 100 137 179 225 286 334 396
#     4  11  23  42  68 101 131 171 224 289 328 399
#
# _framework density 20.740614000000001
#
# number of rings (size 3 to 8) (size 9 to 14) (size 15 to 20)
#    0.000    0.750    5.000    2.250    5.250    4.000 
#    0.000    1.250    0.000    0.000    0.000    0.000 
#    0.000    0.000    0.000    0.000    0.000    0.000 
#
# Total GULP energy -89318.269784 kJ/mol
# GULP energy per Si atom -5582.391861 kJ/mol
# Density = 2.069341 g / cm^3
# Si number density = 20.740614 Si / 1000 Ang^3
#
#
#
# Elastic Constant Matrix: (Units=GPa)
#
#
# Indices 1 2 3 4 5 6 
#
# 1 61.3293 8.5092 30.6361 0.7149 -12.5378 -25.2123
# 2 8.5092 85.4015 27.5348 -9.7343 -0.3484 -20.8415
# 3 30.6361 27.5348 141.9381 -5.4559 3.8300 -22.7386
# 4 0.7149 -9.7343 -5.4559 32.1216 -4.8599 5.3557
# 5 -12.5378 -0.3484 3.8300 -4.8599 47.5256 3.7483
# 6 -25.2123 -20.8415 -22.7386 5.3557 3.7483 35.4790
#
#
#
# Elastic Compliance Matrix: (Units=1/GPa)
#
#
# Indices 1 2 3 4 5 6 
#
# 1 0.026122 0.002576 -0.003567 -0.002497 0.005556 0.017579
# 2 0.002576 0.014482 -0.001888 0.002644 0.000524 0.008672
# 3 -0.003567 -0.001888 0.008559 0.000365 -0.001763 0.001972
# 4 -0.002497 0.002644 0.000365 0.033426 0.003173 -0.005368
# 5 0.005556 0.000524 -0.001763 0.003173 0.022960 0.000222
# 6 0.017579 0.008672 0.001972 -0.005368 0.000222 0.047823
#
#
# Mechanical properties :
#
#
# Convention : Reuss Voigt Hill
#
# Bulk Modulus (GPa) = 23.04035 46.89213 34.96624
# Shear Modulus (GPa) = 28.80190 37.82449 33.31320
#
# Velocity S-wave (km/s) = 3.73053 4.27510 4.01207
# Velocity P-wave (km/s) = 5.44874 6.85759 6.19336
#
# Compressibility (1/GPa) = 0.04340212
#
# Stress axis : x y z
#
# Youngs Moduli (GPa) = 38.28206 69.05342 116.83267
#
# Poissons Ratio (x) = -0.17786 0.41680
# Poissons Ratio (y) = -0.09860 0.22063
# Poissons Ratio (z) = 0.13657 0.13040
#
# Static dielectric constant tensor:
#      x y z
#    x 1.796990 0.039580 0.009200 
#    y 0.039580 1.721910 0.021800 
#    z 0.009200 0.021800 1.858600 
# 
# From -- ./inp_files/190814.got.cif
#   From: 2010.05.17/outbox.cif.g08.bks.cpg/sg2_96_cif.got.tgz:190814.got - 2010.06.03 11:33:40.
