data_PCOD9041554
_publ_section_title
;
Structure prediction by ZEFSAII (Michael W. Deem and Ramdas Pophale) SiO2 
 PCOD9041554
Probable space group: P -1
;
_chemical_formula_sum "Si O2"
_cell_formula_units_Z 16
_cell_length_a 14.200464
_cell_length_b 13.495755
_cell_length_c 10.577469
_cell_angle_alpha 149.640435
_cell_angle_beta 45.070386
_cell_angle_gamma 134.000730
_cell_volume 704.464739
_symmetry_space_group_name_H-M "P -1"
_symmetry_group_IT_number 2
_symmetry_cell_setting 'triclinic'
loop_
_space_group_symop_operation_xyz
x,y,z
-x,-y,-z
loop_
_atom_site_type_symbol
_atom_site_label
_atom_site_fract_x
_atom_site_fract_y
_atom_site_fract_z
Si Si1 0.117436 0.596579 0.394419
Si Si2 0.805117 0.796926 0.206177
Si Si3 0.277748 0.358546 0.381896
Si Si4 0.158092 0.099264 0.435906
Si Si5 0.353443 0.933878 0.498710
Si Si6 0.964037 0.894426 0.783761
Si Si7 0.462954 0.809845 0.008488
Si Si8 0.334050 0.800402 0.850076
O O1 0.241965 0.781785 0.523305
O O2 0.000000 0.500000 0.500000
O O3 0.037286 0.709142 0.496613
O O4 0.181966 0.423175 0.086626
O O5 0.768451 0.824209 0.416424
O O6 0.709574 0.885919 0.298260
O O7 0.959347 0.936636 0.198428
O O8 0.191664 0.284568 0.509874
O O9 0.195363 0.199822 0.184220
O O10 0.281951 0.587767 0.597583
O O11 0.428223 0.323819 0.218403
O O12 0.223662 0.927907 0.124804
O O13 0.000000 0.000000 0.500000
O O14 0.370908 0.809789 0.218119
O O15 0.500000 0.000000 0.500000
O O16 0.000000 0.000000 0.000000
O O17 0.387968 0.749621 0.880640
O O18 0.547254 0.042306 0.163143
#
# Coordination Sequence:
#
# PCOD9041554 Si02
#       8
#     2   2   2   2   2   2   2   2
#     4  11  26  44  73  99 132 187 231 281 353 410
#     4  11  24  45  66  98 140 176 226 288 343 406
#     4  11  25  38  72  98 130 186 233 279 345 425
#     4  11  23  41  66  99 139 174 224 287 345 405
#     4  11  27  45  72 101 140 182 231 289 346 419
#     4  11  24  43  64  98 137 175 225 289 344 407
#     4  10  23  44  64  96 135 179 225 289 348 398
#     4  10  23  44  65  95 136 178 229 288 343 411
#
# _framework density 22.712278999999999
#
# number of rings (size 3 to 8) (size 9 to 14) (size 15 to 20)
#    0.000    1.250    3.750    0.375    7.000    3.000 
#    0.000    0.000    0.000    0.000    0.000    0.000 
#    0.000    0.000    0.000    0.000    0.000    0.000 
#
# Total GULP energy -89462.770486 kJ/mol
# GULP energy per Si atom -5591.423155 kJ/mol
# Density = 2.266059 g / cm^3
# Si number density = 22.712279 Si / 1000 Ang^3
#
#
#
# Elastic Constant Matrix: (Units=GPa)
#
#
# Indices 1 2 3 4 5 6 
#
# 1 84.8328 18.6619 22.7606 6.8578 -0.8145 8.5678
# 2 18.6619 96.6406 35.0306 6.4280 0.9460 3.0415
# 3 22.7606 35.0306 95.2330 16.7414 -11.7587 -6.2634
# 4 6.8578 6.4280 16.7414 39.0481 -1.4873 -1.0858
# 5 -0.8145 0.9460 -11.7587 -1.4873 33.1971 -9.6880
# 6 8.5678 3.0415 -6.2634 -1.0858 -9.6880 30.3342
#
#
#
# Elastic Compliance Matrix: (Units=1/GPa)
#
#
# Indices 1 2 3 4 5 6 
#
# 1 0.013496 -0.001180 -0.003238 -0.001019 -0.002328 -0.005142
# 2 -0.001180 0.012451 -0.004857 0.000049 -0.002935 -0.002853
# 3 -0.003238 -0.004857 0.015212 -0.004695 0.007183 0.006668
# 4 -0.001019 0.000049 -0.004695 0.027783 -0.000391 0.000183
# 5 -0.002328 -0.002935 0.007183 -0.000391 0.036814 0.014178
# 6 -0.005142 -0.002853 0.006668 0.000183 0.014178 0.040616
#
#
# Mechanical properties :
#
#
# Convention : Reuss Voigt Hill
#
# Bulk Modulus (GPa) = 44.22929 47.73474 45.98202
# Shear Modulus (GPa) = 28.99264 33.86609 31.42937
#
# Velocity S-wave (km/s) = 3.57672 3.86565 3.72399
# Velocity P-wave (km/s) = 6.04758 6.40212 6.22737
#
# Compressibility (1/GPa) = 0.02260945
#
# Stress axis : x y z
#
# Youngs Moduli (GPa) = 74.09840 80.31345 65.73928
#
# Poissons Ratio (x) = 0.09477 0.21286
# Poissons Ratio (y) = 0.08743 0.31927
# Poissons Ratio (z) = 0.23992 0.39005
#
# Static dielectric constant tensor:
#      x y z
#    x 1.920790 0.008290 0.034270 
#    y 0.008290 1.868210 -0.003740 
#    z 0.034270 -0.003740 1.844150 
# 
# From -- ./inp_files/455207.got.cif
#   From: 2010.05.17/outbox.cif.g08.bks.cpg/sg2_228_cif.got.tgz:455207.got - 2010.06.03 11:33:40.
