data_PCOD9041577
_publ_section_title
;
Structure prediction by ZEFSAII (Michael W. Deem and Ramdas Pophale) SiO2 
 PCOD9041577
Probable space group: P -1
;
_chemical_formula_sum "Si O2"
_cell_formula_units_Z 16
_cell_length_a 19.739947
_cell_length_b 5.348506
_cell_length_c 8.376891
_cell_angle_alpha 114.928598
_cell_angle_beta 46.962098
_cell_angle_gamma 103.767365
_cell_volume 584.554616
_symmetry_space_group_name_H-M "P -1"
_symmetry_group_IT_number 2
_symmetry_cell_setting 'triclinic'
loop_
_space_group_symop_operation_xyz
x,y,z
-x,-y,-z
loop_
_atom_site_type_symbol
_atom_site_label
_atom_site_fract_x
_atom_site_fract_y
_atom_site_fract_z
Si Si1 0.491440 0.202354 0.854801
Si Si2 0.049971 0.154532 0.601560
Si Si3 0.848025 0.023096 0.307284
Si Si4 0.692152 0.318497 0.278914
Si Si5 0.351753 0.166823 0.327249
Si Si6 0.119217 0.465992 0.089823
Si Si7 0.808553 0.552000 0.679124
Si Si8 0.632199 0.700845 0.189340
O O1 0.466278 0.245615 0.722902
O O2 0.576492 0.987196 0.704514
O O3 0.500000 0.500000 0.000000
O O4 0.400933 0.093191 0.060590
O O5 0.068677 0.056154 0.723968
O O6 0.153646 0.168371 0.368245
O O7 0.981329 0.431021 0.785473
O O8 0.000000 0.000000 0.500000
O O9 0.749788 0.930072 0.506913
O O10 0.832455 0.349855 0.438588
O O11 0.863461 0.855542 0.074373
O O12 0.659616 0.504054 0.533414
O O13 0.638042 0.485882 0.266561
O O14 0.673343 0.998350 0.235696
O O15 0.799473 0.375564 0.084162
O O16 0.132113 0.510642 0.270532
O O17 0.703673 0.560505 0.905451
#
# Coordination Sequence:
#
# PCOD9041577 Si02
#       8
#     2   2   2   2   2   2   2   2
#     4  11  25  42  70 101 138 181 232 288 345 429
#     4  12  23  41  68  98 137 181 232 292 347 412
#     4  11  24  45  68  97 134 183 229 286 354 412
#     4  10  25  47  69 103 138 187 230 291 346 418
#     4  10  25  45  68 100 139 178 234 286 350 421
#     4  10  23  44  65 101 138 177 239 283 342 416
#     4  11  24  43  68  95 138 183 228 288 350 413
#     4  11  25  44  74  98 141 184 232 286 355 410
#
# _framework density 27.371267
#
# number of rings (size 3 to 8) (size 9 to 14) (size 15 to 20)
#    0.000    1.250    1.250    3.000   10.500    1.500 
#   15.750    0.000    0.000    0.000    0.000    0.000 
#    0.000    0.000    0.000    0.000    0.000    0.000 
#
# Total GULP energy -89652.781870 kJ/mol
# GULP energy per Si atom -5603.298867 kJ/mol
# Density = 2.730897 g / cm^3
# Si number density = 27.371267 Si / 1000 Ang^3
#
#
#
# Elastic Constant Matrix: (Units=GPa)
#
#
# Indices 1 2 3 4 5 6 
#
# 1 149.8377 17.3229 18.6548 4.5842 -8.9329 -28.1473
# 2 17.3229 70.9503 20.1229 11.7567 11.7250 1.8200
# 3 18.6548 20.1229 98.9182 18.5072 1.5094 5.2140
# 4 4.5842 11.7567 18.5072 49.5378 10.4178 4.0351
# 5 -8.9329 11.7250 1.5094 10.4178 32.5440 5.1314
# 6 -28.1473 1.8200 5.2140 4.0351 5.1314 55.3893
#
#
#
# Elastic Compliance Matrix: (Units=1/GPa)
#
#
# Indices 1 2 3 4 5 6 
#
# 1 0.007995 -0.002020 -0.001224 -0.000671 0.002554 0.004056
# 2 -0.002020 0.016545 -0.002580 -0.001499 -0.005809 -0.000680
# 3 -0.001224 -0.002580 0.011635 -0.003817 0.001511 -0.001494
# 4 -0.000671 -0.001499 -0.003817 0.023553 -0.006847 -0.001014
# 5 0.002554 -0.005809 0.001511 -0.006847 0.035876 -0.001478
# 6 0.004056 -0.000680 -0.001494 -0.001014 -0.001478 0.020489
#
#
# Mechanical properties :
#
#
# Convention : Reuss Voigt Hill
#
# Bulk Modulus (GPa) = 40.77148 47.98970 44.38059
# Shear Modulus (GPa) = 36.78740 45.06792 40.92766
#
# Velocity S-wave (km/s) = 3.67006 4.06216 3.87108
# Velocity P-wave (km/s) = 5.73473 6.29067 6.01912
#
# Compressibility (1/GPa) = 0.02452695
#
# Stress axis : x y z
#
# Youngs Moduli (GPa) = 125.08466 60.44145 85.94775
#
# Poissons Ratio (x) = 0.12207 0.10521
# Poissons Ratio (y) = 0.25264 0.22174
# Poissons Ratio (z) = 0.15312 0.15594
#
# Static dielectric constant tensor:
#      x y z
#    x 2.122710 -0.016850 0.014200 
#    y -0.016850 2.211220 -0.008060 
#    z 0.014200 -0.008060 2.171300 
# 
# From -- ./inp_files/138954.got.cif
#   From: 2010.05.17/outbox.cif.g08.bks.cpg/sg2_70_cif.got.tgz:138954.got - 2010.06.03 11:33:40.
