data_PCOD9041728
_publ_section_title
;
Structure prediction by ZEFSAII (Michael W. Deem and Ramdas Pophale) SiO2 
 PCOD9041728
Probable space group: P -1
;
_chemical_formula_sum "Si O2"
_cell_formula_units_Z 16
_cell_length_a 8.203310
_cell_length_b 13.517659
_cell_length_c 9.311073
_cell_angle_alpha 109.116670
_cell_angle_beta 133.336156
_cell_angle_gamma 99.750208
_cell_volume 581.295762
_symmetry_space_group_name_H-M "P -1"
_symmetry_group_IT_number 2
_symmetry_cell_setting 'triclinic'
loop_
_space_group_symop_operation_xyz
x,y,z
-x,-y,-z
loop_
_atom_site_type_symbol
_atom_site_label
_atom_site_fract_x
_atom_site_fract_y
_atom_site_fract_z
Si Si1 0.045899 0.889350 0.150690
Si Si2 0.944559 0.917188 0.571758
Si Si3 0.536922 0.294788 0.404722
Si Si4 0.368054 0.513078 0.664993
Si Si5 0.361715 0.941302 0.071199
Si Si6 0.706943 0.406325 0.850971
Si Si7 0.919989 0.216795 0.590828
Si Si8 0.246361 0.682305 0.859550
O O1 0.204322 0.900708 0.108814
O O2 0.020719 0.792716 0.211337
O O3 0.185582 0.026946 0.378602
O O4 0.735551 0.829124 0.883182
O O5 0.864844 0.783922 0.384781
O O6 0.176499 0.940041 0.833765
O O7 0.000000 0.000000 0.500000
O O8 0.553552 0.414785 0.405703
O O9 0.519019 0.300281 0.567268
O O10 0.818496 0.307669 0.545919
O O11 0.578075 0.485303 0.838147
O O12 0.346606 0.609915 0.796532
O O13 0.068547 0.383309 0.405322
O O14 0.636926 0.079032 0.324669
O O15 0.408502 0.832604 0.006534
O O16 0.740563 0.345360 0.980554
O O17 0.000000 0.500000 0.000000
#
# Coordination Sequence:
#
# PCOD9041728 Si02
#       8
#     2   2   2   2   2   2   2   2
#     4  11  25  42  67 105 143 189 231 287 358 425
#     4  10  23  44  66  98 144 188 231 279 348 428
#     4  12  25  43  77  99 142 189 234 295 364 424
#     4  11  26  48  73 104 143 189 244 303 356 430
#     4  12  23  45  72 102 151 180 236 300 348 434
#     4  12  26  47  72 106 142 187 244 301 358 429
#     4  11  25  44  69 105 142 187 236 286 360 433
#     4  11  26  48  74 106 144 191 242 298 367 419
#
# _framework density 27.524713999999999
#
# number of rings (size 3 to 8) (size 9 to 14) (size 15 to 20)
#    0.000    0.750    2.500    4.125    5.250    0.000 
#    6.750    0.000    0.000    0.000    0.000    0.000 
#    0.000    0.000    0.000    0.000    0.000    0.000 
#
# Total GULP energy -89758.817183 kJ/mol
# GULP energy per Si atom -5609.926074 kJ/mol
# Density = 2.746207 g / cm^3
# Si number density = 27.524714 Si / 1000 Ang^3
#
#
#
# Elastic Constant Matrix: (Units=GPa)
#
#
# Indices 1 2 3 4 5 6 
#
# 1 105.0207 27.3760 38.3563 -8.3940 -10.8813 -11.1055
# 2 27.3760 134.5826 38.9843 -18.7999 -1.9788 -8.7538
# 3 38.3563 38.9843 131.9441 -19.1380 -8.2981 12.6367
# 4 -8.3940 -18.7999 -19.1380 52.4349 4.5565 -3.1233
# 5 -10.8813 -1.9788 -8.2981 4.5565 53.8223 -9.3507
# 6 -11.1055 -8.7538 12.6367 -3.1233 -9.3507 43.6529
#
#
#
# Elastic Compliance Matrix: (Units=1/GPa)
#
#
# Indices 1 2 3 4 5 6 
#
# 1 0.011753 -0.001071 -0.003305 0.000326 0.002547 0.004301
# 2 -0.001071 0.008742 -0.002155 0.002314 -0.000030 0.002264
# 3 -0.003305 -0.002155 0.009853 0.002065 -0.000098 -0.003998
# 4 0.000326 0.002314 0.002065 0.020873 -0.001088 0.001210
# 5 0.002547 -0.000030 -0.000098 -0.001088 0.020018 0.004880
# 6 0.004301 0.002264 -0.003998 0.001210 0.004880 0.026745
#
#
# Mechanical properties :
#
#
# Convention : Reuss Voigt Hill
#
# Bulk Modulus (GPa) = 57.84536 64.55340 61.19938
# Shear Modulus (GPa) = 42.80552 47.77074 45.28813
#
# Velocity S-wave (km/s) = 3.94784 4.17052 4.06071
# Velocity P-wave (km/s) = 6.46854 6.83336 6.65345
#
# Compressibility (1/GPa) = 0.01728747
#
# Stress axis : x y z
#
# Youngs Moduli (GPa) = 85.08697 114.38497 101.49670
#
# Poissons Ratio (x) = 0.12247 0.33540
# Poissons Ratio (y) = 0.09110 0.21871
# Poissons Ratio (z) = 0.28118 0.24648
#
# Static dielectric constant tensor:
#      x y z
#    x 2.232200 -0.038550 0.029390 
#    y -0.038550 2.097770 0.036740 
#    z 0.029390 0.036740 2.131920 
# 
# From -- ./inp_files/208556.got.cif
#   From: 2010.05.17/outbox.cif.g08.bks.cpg/sg2_105_cif.got.tgz:208556.got - 2010.06.03 11:33:40.
