data_PCOD9041030
_publ_section_title
;
Structure prediction by ZEFSAII (Michael W. Deem and Ramdas Pophale) SiO2 
 PCOD9041030
Probable space group: P -1
;
_chemical_formula_sum "Si O2"
_cell_formula_units_Z 14
_cell_length_a 12.716025
_cell_length_b 15.593111
_cell_length_c 9.564585
_cell_angle_alpha 130.942331
_cell_angle_beta 125.641729
_cell_angle_gamma 28.328516
_cell_volume 679.690761
_symmetry_space_group_name_H-M "P -1"
_symmetry_group_IT_number 2
_symmetry_cell_setting 'triclinic'
loop_
_space_group_symop_operation_xyz
x,y,z
-x,-y,-z
loop_
_atom_site_type_symbol
_atom_site_label
_atom_site_fract_x
_atom_site_fract_y
_atom_site_fract_z
Si Si1 0.458054 0.258668 0.429143
Si Si2 0.079789 0.107873 0.537394
Si Si3 0.803382 0.143839 0.887419
Si Si4 0.297673 0.546335 0.006410
Si Si5 0.023712 0.556024 0.222925
Si Si6 0.647584 0.357976 0.590326
Si Si7 0.192711 0.397817 0.643177
O O1 0.261203 0.368006 0.285843
O O2 0.514475 0.354256 0.565848
O O3 0.389718 0.268446 0.543432
O O4 0.701943 0.036293 0.351150
O O5 0.991819 0.297450 0.651535
O O6 0.888125 0.162351 0.505442
O O7 0.152011 0.991964 0.327878
O O8 0.790947 0.274484 0.939598
O O9 0.550657 0.324085 0.939718
O O10 0.000000 0.000000 0.000000
O O11 0.301855 0.571290 0.197685
O O12 0.150602 0.551741 0.838153
O O13 0.829125 0.663414 0.300136
O O14 0.000000 0.500000 0.000000
O O15 0.500000 0.500000 0.500000
O O16 0.000000 0.500000 0.500000
#
# Coordination Sequence:
#
# PCOD9041030 Si02
#       7
#     2   2   2   2   2   2   2
#     4  11  23  45  68 100 138 177 232 289 348 407
#     4  12  24  43  72 102 135 178 232 286 353 411
#     4  11  24  39  69 100 134 174 227 291 350 412
#     4  11  22  44  64  97 142 171 230 286 350 412
#     4  11  26  47  70  99 141 187 233 280 346 423
#     4  12  23  41  73 100 141 182 222 300 362 404
#     4  10  23  43  70  93 136 192 222 274 342 406
#
# _framework density 20.597601999999998
#
# number of rings (size 3 to 8) (size 9 to 14) (size 15 to 20)
#    0.000    0.857    4.286    3.000    4.000    1.143 
#    0.000    0.000    0.000    0.000    0.000    0.000 
#    0.000    0.000    0.000    0.000    0.000    0.000 
#
# Total GULP energy -77939.403930 kJ/mol
# GULP energy per Si atom -5567.100281 kJ/mol
# Density = 2.055072 g / cm^3
# Si number density = 20.597602 Si / 1000 Ang^3
#
#
#
# Elastic Constant Matrix: (Units=GPa)
#
#
# Indices 1 2 3 4 5 6 
#
# 1 116.0081 32.8144 30.6624 -2.1606 -10.1513 -10.5788
# 2 32.8144 142.4439 51.2279 -19.9393 -5.7077 -1.6737
# 3 30.6624 51.2279 148.2026 -19.6556 23.7834 -4.5147
# 4 -2.1606 -19.9393 -19.6556 34.4720 -0.2350 2.6860
# 5 -10.1513 -5.7077 23.7834 -0.2350 48.0961 -5.0829
# 6 -10.5788 -1.6737 -4.5147 2.6860 -5.0829 28.6549
#
#
#
# Elastic Compliance Matrix: (Units=1/GPa)
#
#
# Indices 1 2 3 4 5 6 
#
# 1 0.010337 -0.001642 -0.002263 -0.001893 0.003537 0.004169
# 2 -0.001642 0.008910 -0.002588 0.003626 0.001957 -0.000486
# 3 -0.002263 -0.002588 0.009477 0.003792 -0.005540 -0.000832
# 4 -0.001893 0.003626 0.003792 0.033400 -0.002038 -0.003382
# 5 0.003537 0.001957 -0.005540 -0.002038 0.025048 0.005181
# 6 0.004169 -0.000486 -0.000832 -0.003382 0.005181 0.037514
#
#
# Mechanical properties :
#
#
# Convention : Reuss Voigt Hill
#
# Bulk Modulus (GPa) = 63.53889 70.67378 67.10633
# Shear Modulus (GPa) = 34.98567 41.70793 38.34680
#
# Velocity S-wave (km/s) = 4.12580 4.50476 4.31944
# Velocity P-wave (km/s) = 7.32195 7.83858 7.58466
#
# Compressibility (1/GPa) = 0.01573839
#
# Stress axis : x y z
#
# Youngs Moduli (GPa) = 96.74000 112.23963 105.51934
#
# Poissons Ratio (x) = 0.18427 0.23878
# Poissons Ratio (y) = 0.15882 0.27308
# Poissons Ratio (z) = 0.21891 0.29047
#
# Static dielectric constant tensor:
#      x y z
#    x 1.862000 -0.014230 -0.029020 
#    y -0.014230 1.758420 -0.004500 
#    z -0.029020 -0.004500 1.731460 
# 
# From -- ./inp_files/204565.got.cif
#   From: 2010.05.17/outbox.cif.g08.bks.cpg/sg2_103_cif.got.tgz:204565.got - 2010.06.03 11:33:40.
