data_PCOD9041837
_publ_section_title
;
Structure prediction by ZEFSAII (Michael W. Deem and Ramdas Pophale) SiO2 
 PCOD9041837
Probable space group: P -1
;
_chemical_formula_sum "Si O2"
_cell_formula_units_Z 12
_cell_length_a 6.335425
_cell_length_b 11.941851
_cell_length_c 11.318759
_cell_angle_alpha 63.152450
_cell_angle_beta 62.783135
_cell_angle_gamma 102.234587
_cell_volume 577.259818
_symmetry_space_group_name_H-M "P -1"
_symmetry_group_IT_number 2
_symmetry_cell_setting 'triclinic'
loop_
_space_group_symop_operation_xyz
x,y,z
-x,-y,-z
loop_
_atom_site_type_symbol
_atom_site_label
_atom_site_fract_x
_atom_site_fract_y
_atom_site_fract_z
Si Si1 0.274933 0.826113 0.639267
Si Si2 0.663356 0.410240 0.138730
Si Si3 0.123317 0.689242 0.489787
Si Si4 0.675884 0.692612 0.970875
Si Si5 0.396164 0.831413 0.119877
Si Si6 0.177099 0.410342 0.603843
O O1 0.403186 0.729110 0.697571
O O2 0.162469 0.770399 0.562277
O O3 0.001889 0.782494 0.808191
O O4 0.500000 0.000000 0.500000
O O5 0.509168 0.351855 0.080222
O O6 0.606400 0.539923 0.123765
O O7 0.000000 0.500000 0.000000
O O8 0.370338 0.785368 0.286589
O O9 0.095612 0.532775 0.587276
O O10 0.864053 0.650396 0.490928
O O11 0.589130 0.785224 0.027920
O O12 0.076000 0.732391 0.199201
O O13 0.500000 0.000000 0.000000
O O14 0.500000 0.500000 0.500000
#
# Coordination Sequence:
#
# PCOD9041837 Si02
#       6
#     2   2   2   2   2   2
#     4  11  25  44  65 103 140 180 228 277 352 409
#     4   9  22  40  69  95 132 176 226 274 342 410
#     4   9  23  42  64  97 132 171 231 276 337 417
#     4  10  23  44  67  97 132 179 228 285 327 408
#     4  10  23  44  68  96 136 174 226 289 344 391
#     4   9  21  42  69  95 129 178 226 277 341 408
#
# _framework density 20.787866999999999
#
# number of rings (size 3 to 8) (size 9 to 14) (size 15 to 20)
#    1.000    1.333    0.000    0.000    9.333    4.667 
#    3.000    1.667    0.000    0.000    0.000    0.000 
#    0.000    0.000    0.000    0.000    0.000    0.000 
#
# Total GULP energy -66866.419273 kJ/mol
# GULP energy per Si atom -5572.201606 kJ/mol
# Density = 2.074055 g / cm^3
# Si number density = 20.787867 Si / 1000 Ang^3
#
#
#
# Elastic Constant Matrix: (Units=GPa)
#
#
# Indices 1 2 3 4 5 6 
#
# 1 97.9768 55.7249 38.0103 -8.2735 -12.6750 -1.1062
# 2 55.7249 161.4893 96.8754 -20.8176 -1.2957 -17.0083
# 3 38.0103 96.8754 129.8273 -23.5810 -16.9670 -7.7503
# 4 -8.2735 -20.8176 -23.5810 46.5528 -3.6540 -2.6033
# 5 -12.6750 -1.2957 -16.9670 -3.6540 24.9829 -0.1826
# 6 -1.1062 -17.0083 -7.7503 -2.6033 -0.1826 30.0519
#
#
#
# Elastic Compliance Matrix: (Units=1/GPa)
#
#
# Indices 1 2 3 4 5 6 
#
# 1 0.013974 -0.005501 0.001076 0.001049 0.007673 -0.002184
# 2 -0.005501 0.014720 -0.010206 0.000040 -0.008913 0.005446
# 3 0.001076 -0.010206 0.017644 0.005535 0.012805 -0.000629
# 4 0.001049 0.000040 0.005535 0.025327 0.008025 0.003732
# 5 0.007673 -0.008913 0.012805 0.008025 0.053324 -0.000440
# 6 -0.002184 0.005446 -0.000629 0.003732 -0.000440 0.036436
#
#
# Mechanical properties :
#
#
# Convention : Reuss Voigt Hill
#
# Bulk Modulus (GPa) = 58.55683 85.61274 72.08478
# Shear Modulus (GPa) = 25.46088 33.56306 29.51197
#
# Velocity S-wave (km/s) = 3.50350 4.02251 3.77194
# Velocity P-wave (km/s) = 6.67802 7.92764 7.32951
#
# Compressibility (1/GPa) = 0.01707743
#
# Stress axis : x y z
#
# Youngs Moduli (GPa) = 71.56065 67.93402 56.67635
#
# Poissons Ratio (x) = 0.37370 -0.06100
# Poissons Ratio (y) = 0.39365 0.57843
# Poissons Ratio (z) = -0.07702 0.69333
#
# Static dielectric constant tensor:
#      x y z
#    x 1.795140 -0.005760 0.019520 
#    y -0.005760 1.723650 0.033800 
#    z 0.019520 0.033800 1.765140 
# 
# From -- ./inp_files/361107.got.cif
#   From: 2010.05.17/outbox.cif.g08.bks.cpg/sg2_181_cif.got.tgz:361107.got - 2010.06.03 11:33:40.
