data_PCOD9041856
_publ_section_title
;
Structure prediction by ZEFSAII (Michael W. Deem and Ramdas Pophale) SiO2 
 PCOD9041856
Probable space group: P -1
;
_chemical_formula_sum "Si O2"
_cell_formula_units_Z 16
_cell_length_a 18.623403
_cell_length_b 9.453707
_cell_length_c 17.078434
_cell_angle_alpha 143.729082
_cell_angle_beta 30.538127
_cell_angle_gamma 153.411699
_cell_volume 675.177390
_symmetry_space_group_name_H-M "P -1"
_symmetry_group_IT_number 2
_symmetry_cell_setting 'triclinic'
loop_
_space_group_symop_operation_xyz
x,y,z
-x,-y,-z
loop_
_atom_site_type_symbol
_atom_site_label
_atom_site_fract_x
_atom_site_fract_y
_atom_site_fract_z
Si Si1 0.106293 0.490218 0.650365
Si Si2 0.064050 0.652757 0.607731
Si Si3 0.340581 0.573234 0.241123
Si Si4 0.755180 0.212813 0.178913
Si Si5 0.363724 0.594695 0.893634
Si Si6 0.265138 0.195052 0.287675
Si Si7 0.096003 0.237452 0.838250
Si Si8 0.328748 0.696492 0.138143
O O1 0.142694 0.727400 0.655765
O O2 0.207834 0.663592 0.712391
O O3 0.178319 0.328310 0.470618
O O4 0.884786 0.188961 0.740635
O O5 0.183522 0.599465 0.421726
O O6 0.844420 0.330233 0.682814
O O7 0.069920 0.933816 0.700425
O O8 0.292732 0.292903 0.214472
O O9 0.356925 0.563813 0.128317
O O10 0.541232 0.894487 0.225543
O O11 0.799658 0.483514 0.199967
O O12 0.901242 0.160986 0.001754
O O13 0.542572 0.635398 0.770037
O O14 0.219417 0.367755 0.859892
O O15 0.478261 0.954308 0.911849
O O16 0.263591 0.506579 0.033037
#
# Coordination Sequence:
#
# PCOD9041856 Si02
#       8
#     2   2   2   2   2   2   2   2
#     4  10  23  44  67  98 141 179 225 276 337 401
#     4  11  25  45  72 101 135 180 225 283 332 406
#     4  11  26  45  69 103 139 177 226 278 342 399
#     4  11  26  46  66 100 142 176 221 286 338 406
#     4  11  24  44  71  95 136 185 228 275 334 404
#     4  10  24  42  69 101 134 181 227 278 335 399
#     4  11  27  45  68 102 136 179 227 278 345 394
#     4  11  24  44  68  99 134 179 230 283 327 402
#
# _framework density 23.697476000000002
#
# number of rings (size 3 to 8) (size 9 to 14) (size 15 to 20)
#    0.000    1.250    2.500    1.125    8.750    4.000 
#    0.000    0.000    0.000    0.000    0.000    0.000 
#    0.000    0.000    0.000    0.000    0.000    0.000 
#
# Total GULP energy -89505.061252 kJ/mol
# GULP energy per Si atom -5594.066328 kJ/mol
# Density = 2.364354 g / cm^3
# Si number density = 23.697476 Si / 1000 Ang^3
#
#
#
# Elastic Constant Matrix: (Units=GPa)
#
#
# Indices 1 2 3 4 5 6 
#
# 1 186.6430 49.7390 43.8980 1.0162 21.6439 -22.4549
# 2 49.7390 84.8358 30.2975 2.0641 0.8080 -13.1791
# 3 43.8980 30.2975 84.8149 -16.9184 -7.0901 -9.8428
# 4 1.0162 2.0641 -16.9184 35.4114 -2.6633 -7.1270
# 5 21.6439 0.8080 -7.0901 -2.6633 42.2470 -2.4108
# 6 -22.4549 -13.1791 -9.8428 -7.1270 -2.4108 49.3874
#
#
#
# Elastic Compliance Matrix: (Units=1/GPa)
#
#
# Indices 1 2 3 4 5 6 
#
# 1 0.007668 -0.002935 -0.003459 -0.001727 -0.004473 0.001546
# 2 -0.002935 0.015319 -0.004229 -0.002480 0.000435 0.001574
# 3 -0.003459 -0.004229 0.017805 0.009784 0.005602 0.002533
# 4 -0.001727 -0.002480 0.009784 0.034648 0.005087 0.005751
# 5 -0.004473 0.000435 0.005602 0.005087 0.027287 0.001265
# 6 0.001546 0.001574 0.002533 0.005751 0.001265 0.022767
#
#
# Mechanical properties :
#
#
# Convention : Reuss Voigt Hill
#
# Bulk Modulus (GPa) = 51.16157 67.12919 59.14538
# Shear Modulus (GPa) = 32.62506 40.89976 36.76241
#
# Velocity S-wave (km/s) = 3.71446 4.15892 3.94296
# Velocity P-wave (km/s) = 6.32713 7.17295 6.76328
#
# Compressibility (1/GPa) = 0.01954592
#
# Stress axis : x y z
#
# Youngs Moduli (GPa) = 130.41510 65.27648 56.16369
#
# Poissons Ratio (x) = 0.19162 0.19427
# Poissons Ratio (y) = 0.38283 0.23750
# Poissons Ratio (z) = 0.45111 0.27603
#
# Static dielectric constant tensor:
#      x y z
#    x 1.914770 -0.005110 -0.023530 
#    y -0.005110 1.874640 0.000290 
#    z -0.023530 0.000290 1.928260 
# 
# From -- ./inp_files/329151.got.cif
#   From: 2010.05.17/outbox.cif.g08.bks.cpg/sg2_165_cif.got.tgz:329151.got - 2010.06.03 11:33:40.
