data_PCOD9041187
_publ_section_title
;
Structure prediction by ZEFSAII (Michael W. Deem and Ramdas Pophale) SiO2 
 PCOD9041187
Probable space group: P -1
;
_chemical_formula_sum "Si O2"
_cell_formula_units_Z 16
_cell_length_a 21.100821
_cell_length_b 11.572544
_cell_length_c 7.430999
_cell_angle_alpha 53.185785
_cell_angle_beta 40.683032
_cell_angle_gamma 33.274156
_cell_volume 645.903363
_symmetry_space_group_name_H-M "P -1"
_symmetry_group_IT_number 2
_symmetry_cell_setting 'triclinic'
loop_
_space_group_symop_operation_xyz
x,y,z
-x,-y,-z
loop_
_atom_site_type_symbol
_atom_site_label
_atom_site_fract_x
_atom_site_fract_y
_atom_site_fract_z
Si Si1 0.429040 0.356739 0.673493
Si Si2 0.116442 0.697275 0.877017
Si Si3 0.770376 0.463428 0.602006
Si Si4 0.711601 0.004032 0.926923
Si Si5 0.343346 0.110934 0.494337
Si Si6 0.963381 0.935464 0.473341
Si Si7 0.119560 0.261473 0.538129
Si Si8 0.534594 0.530934 0.122761
O O1 0.264086 0.514241 0.834739
O O2 0.498347 0.403751 0.350074
O O3 0.446983 0.411539 0.777055
O O4 0.519037 0.113363 0.681178
O O5 0.149951 0.592785 0.704649
O O6 0.090214 0.896527 0.719211
O O7 0.972990 0.780760 0.181485
O O8 0.664228 0.708516 0.647114
O O9 0.888913 0.309704 0.642699
O O10 0.681097 0.413377 0.819364
O O11 0.590714 0.250387 0.911427
O O12 0.846608 0.945613 0.764102
O O13 0.766717 0.880392 0.734576
O O14 0.666712 0.938663 0.234708
O O15 0.206599 0.213702 0.572313
O O16 0.000000 0.000000 0.500000
O O17 0.000000 0.500000 0.500000
#
# Coordination Sequence:
#
# PCOD9041187 Si02
#       8
#     2   2   2   2   2   2   2   2
#     4  11  26  47  74 107 146 189 246 306 362 436
#     4  11  25  45  73 108 142 191 246 298 363 432
#     4  11  26  45  73 107 145 193 241 300 366 437
#     4  12  25  47  75 105 146 194 244 300 362 432
#     4  12  27  48  75 109 148 192 245 299 366 442
#     4  10  23  43  71 108 143 187 238 299 360 425
#     4  12  28  47  73 108 152 193 239 301 367 434
#     4  11  26  47  74 108 142 192 249 299 366 432
#
# _framework density 24.771507
#
# number of rings (size 3 to 8) (size 9 to 14) (size 15 to 20)
#    0.000    0.750    2.500    3.750    8.750    6.500 
#    0.000    0.000    0.000    0.000    0.000    0.000 
#    0.000    0.000    0.000    0.000    0.000    0.000 
#
# Total GULP energy -89688.846403 kJ/mol
# GULP energy per Si atom -5605.552900 kJ/mol
# Density = 2.471513 g / cm^3
# Si number density = 24.771507 Si / 1000 Ang^3
#
#
#
# Elastic Constant Matrix: (Units=GPa)
#
#
# Indices 1 2 3 4 5 6 
#
# 1 89.5441 20.2799 19.1644 7.9984 7.2791 -6.9840
# 2 20.2799 141.9674 7.9205 -5.2583 5.0170 -12.3812
# 3 19.1644 7.9205 71.8526 -2.8175 2.6679 -3.0337
# 4 7.9984 -5.2583 -2.8175 29.1040 2.7576 -9.2212
# 5 7.2791 5.0170 2.6679 2.7576 37.9746 10.6303
# 6 -6.9840 -12.3812 -3.0337 -9.2212 10.6303 45.9681
#
#
#
# Elastic Compliance Matrix: (Units=1/GPa)
#
#
# Indices 1 2 3 4 5 6 
#
# 1 0.012800 -0.001617 -0.003257 -0.003601 -0.002042 0.001044
# 2 -0.001617 0.007690 -0.000124 0.002862 -0.001684 0.002781
# 3 -0.003257 -0.000124 0.014999 0.002812 -0.000967 0.001249
# 4 -0.003601 0.002862 0.002812 0.039711 -0.005468 0.009640
# 5 -0.002042 -0.001684 -0.000967 -0.005468 0.029885 -0.008835
# 6 0.001044 0.002781 0.001249 0.009640 -0.008835 0.026721
#
#
# Mechanical properties :
#
#
# Convention : Reuss Voigt Hill
#
# Bulk Modulus (GPa) = 39.22783 44.23263 41.73023
# Shear Modulus (GPa) = 33.26680 39.67596 36.47138
#
# Velocity S-wave (km/s) = 3.66860 4.00644 3.84123
# Velocity P-wave (km/s) = 5.81507 6.26874 6.04616
#
# Compressibility (1/GPa) = 0.02549210
#
# Stress axis : x y z
#
# Youngs Moduli (GPa) = 78.12485 130.04222 66.67239
#
# Poissons Ratio (x) = 0.21027 0.21716
# Poissons Ratio (y) = 0.12632 0.00828
# Poissons Ratio (z) = 0.25446 0.01616
#
# Static dielectric constant tensor:
#      x y z
#    x 1.977140 0.016860 0.041500 
#    y 0.016860 1.953050 0.018060 
#    z 0.041500 0.018060 1.955700 
# 
# From -- ./inp_files/345939.got.cif
#   From: 2010.05.17/outbox.cif.g08.bks.cpg/sg2_173_cif.got.tgz:345939.got - 2010.06.03 11:33:40.
