data_PCOD9041515
_publ_section_title
;
Structure prediction by ZEFSAII (Michael W. Deem and Ramdas Pophale) SiO2 
 PCOD9041515
Probable space group: P -1
;
_chemical_formula_sum "Si O2"
_cell_formula_units_Z 16
_cell_length_a 19.507403
_cell_length_b 17.415214
_cell_length_c 6.717277
_cell_angle_alpha 98.592334
_cell_angle_beta 76.717871
_cell_angle_gamma 159.373863
_cell_volume 767.921729
_symmetry_space_group_name_H-M "P -1"
_symmetry_group_IT_number 2
_symmetry_cell_setting 'triclinic'
loop_
_space_group_symop_operation_xyz
x,y,z
-x,-y,-z
loop_
_atom_site_type_symbol
_atom_site_label
_atom_site_fract_x
_atom_site_fract_y
_atom_site_fract_z
Si Si1 0.182634 0.980722 0.568853
Si Si2 0.784273 0.097085 0.157949
Si Si3 0.281005 0.254653 0.467462
Si Si4 0.555982 0.101099 0.205124
Si Si5 0.881801 0.663046 0.962819
Si Si6 0.968663 0.022313 0.837677
Si Si7 0.457356 0.168048 0.166312
Si Si8 0.806791 0.284773 0.413309
O O1 0.290115 0.053523 0.719298
O O2 0.220329 0.108692 0.543632
O O3 0.280725 0.032079 0.346051
O O4 0.950990 0.734497 0.709658
O O5 0.804646 0.192743 0.317292
O O6 0.638284 0.961674 0.023266
O O7 0.004789 0.296728 0.018591
O O8 0.500000 0.500000 0.500000
O O9 0.137429 0.172325 0.623052
O O10 0.237108 0.202364 0.238923
O O11 0.536412 0.173726 0.229353
O O12 0.764395 0.289849 0.242592
O O13 0.377921 0.889608 0.385904
O O14 0.500000 0.000000 0.000000
O O15 0.989076 0.847413 0.064988
O O16 0.648401 0.418709 0.077740
O O17 0.000000 0.000000 0.000000
O O18 0.000000 0.500000 0.500000
#
# Coordination Sequence:
#
# PCOD9041515 Si02
#       8
#     2   2   2   2   2   2   2   2
#     4  10  23  46  62 102 137 168 227 282 318 413
#     4  10  23  44  63  99 133 172 231 273 324 418
#     4  11  24  41  70  97 133 182 219 269 343 388
#     4  11  24  42  67  97 132 167 229 278 321 410
#     4  10  24  42  67  99 133 178 217 277 342 389
#     4  11  22  44  66 101 135 167 229 278 317 410
#     4  12  23  45  69  95 137 179 219 280 346 385
#     4  11  25  44  67  96 133 178 220 275 341 391
#
# _framework density 20.835457999999999
#
# number of rings (size 3 to 8) (size 9 to 14) (size 15 to 20)
#    0.750    0.500    3.750    1.500    1.750    3.000 
#    6.750    0.000    0.000    0.000    0.000    0.000 
#    0.000    0.000    0.000    0.000    0.000    0.000 
#
# Total GULP energy -89142.594434 kJ/mol
# GULP energy per Si atom -5571.412152 kJ/mol
# Density = 2.078804 g / cm^3
# Si number density = 20.835458 Si / 1000 Ang^3
#
#
#
# Elastic Constant Matrix: (Units=GPa)
#
#
# Indices 1 2 3 4 5 6 
#
# 1 79.3432 3.0252 40.0433 14.7426 -1.3877 -0.9047
# 2 3.0252 80.5823 57.9429 20.8179 6.4055 15.0799
# 3 40.0433 57.9429 114.1681 15.8375 -8.9205 5.8375
# 4 14.7426 20.8179 15.8375 28.8625 -0.0292 6.2521
# 5 -1.3877 6.4055 -8.9205 -0.0292 43.8779 3.8318
# 6 -0.9047 15.0799 5.8375 6.2521 3.8318 21.6882
#
#
#
# Elastic Compliance Matrix: (Units=1/GPa)
#
#
# Indices 1 2 3 4 5 6 
#
# 1 0.019730 0.010090 -0.010701 -0.011612 -0.003083 0.000580
# 2 0.010090 0.030867 -0.016992 -0.015775 -0.006715 -0.010734
# 3 -0.010701 -0.016992 0.020659 0.005724 0.006077 0.003084
# 4 -0.011612 -0.015775 0.005724 0.050155 0.003671 -0.006163
# 5 -0.003083 -0.006715 0.006077 0.003671 0.025138 -0.002595
# 6 0.000580 -0.010734 0.003084 -0.006163 -0.002595 0.055000
#
#
# Mechanical properties :
#
#
# Convention : Reuss Voigt Hill
#
# Bulk Modulus (GPa) = 27.73885 52.90183 40.32034
# Shear Modulus (GPa) = 20.09885 30.42454 25.26169
#
# Velocity S-wave (km/s) = 3.10925 3.82544 3.48579
# Velocity P-wave (km/s) = 5.12172 6.70503 5.96613
#
# Compressibility (1/GPa) = 0.03605052
#
# Stress axis : x y z
#
# Youngs Moduli (GPa) = 50.68547 32.39709 48.40475
#
# Poissons Ratio (x) = -0.32689 0.51796
# Poissons Ratio (y) = -0.51142 0.82250
# Poissons Ratio (z) = 0.54236 0.55050
#
# Static dielectric constant tensor:
#      x y z
#    x 1.777480 0.045980 0.030730 
#    y 0.045980 1.771060 -0.006510 
#    z 0.030730 -0.006510 1.755330 
# 
# From -- ./inp_files/120074.got.cif
#   From: 2010.05.17/outbox.cif.g08.bks.cpg/sg2_61_cif.got.tgz:120074.got - 2010.06.03 11:33:40.
