data_PCOD9041237
_publ_section_title
;
Structure prediction by ZEFSAII (Michael W. Deem and Ramdas Pophale) SiO2 
 PCOD9041237
Probable space group: P -1
;
_chemical_formula_sum "Si O2"
_cell_formula_units_Z 16
_cell_length_a 9.086158
_cell_length_b 27.535890
_cell_length_c 5.335106
_cell_angle_alpha 85.930745
_cell_angle_beta 90.359885
_cell_angle_gamma 29.815762
_cell_volume 655.791541
_symmetry_space_group_name_H-M "P -1"
_symmetry_group_IT_number 2
_symmetry_cell_setting 'triclinic'
loop_
_space_group_symop_operation_xyz
x,y,z
-x,-y,-z
loop_
_atom_site_type_symbol
_atom_site_label
_atom_site_fract_x
_atom_site_fract_y
_atom_site_fract_z
Si Si1 0.196097 0.936039 0.777151
Si Si2 0.190742 0.100602 0.590211
Si Si3 0.829612 0.243460 0.918752
Si Si4 0.759139 0.610318 0.387668
Si Si5 0.793884 0.453060 0.847661
Si Si6 0.182423 0.614915 0.626216
Si Si7 0.630606 0.219786 0.311708
Si Si8 0.807535 0.801677 0.744140
O O1 0.346650 0.838664 0.802996
O O2 0.468723 0.895781 0.794297
O O3 0.000000 0.000000 0.500000
O O4 0.000000 0.000000 0.000000
O O5 0.127407 0.171705 0.443422
O O6 0.128679 0.128967 0.869601
O O7 0.934523 0.135507 0.510895
O O8 0.500000 0.000000 0.500000
O O9 0.553711 0.326437 0.696480
O O10 0.682025 0.249744 0.114153
O O11 0.959816 0.256687 0.007598
O O12 0.650710 0.683495 0.555819
O O13 0.000000 0.500000 0.500000
O O14 0.931716 0.589762 0.177405
O O15 0.468429 0.566619 0.718785
O O16 0.816242 0.405309 0.647884
O O17 0.793135 0.433037 0.136852
O O18 0.886617 0.730435 0.625004
#
# Coordination Sequence:
#
# PCOD9041237 Si02
#       8
#     2   2   2   2   2   2   2   2
#     4  12  30  48  79 112 148 195 249 308 383 448
#     4  10  23  43  71  99 145 185 241 302 372 438
#     4  10  26  44  72 105 145 193 248 303 374 443
#     4  11  26  44  74 103 148 199 250 310 370 445
#     4  10  24  43  71  99 147 183 245 292 367 424
#     4  10  24  45  68 105 138 193 230 306 359 436
#     4  10  25  47  68 108 145 192 249 307 371 450
#     4  11  26  43  73 103 144 186 245 302 365 444
#
# _framework density 24.397998000000001
#
# number of rings (size 3 to 8) (size 9 to 14) (size 15 to 20)
#    0.000    1.500    0.000    1.500   19.250    3.500 
#    0.000    0.000    0.000    0.000    0.000    0.000 
#    0.000    0.000    0.000    0.000    0.000    0.000 
#
# Total GULP energy -89333.037647 kJ/mol
# GULP energy per Si atom -5583.314853 kJ/mol
# Density = 2.434247 g / cm^3
# Si number density = 24.397998 Si / 1000 Ang^3
#
#
#
# Elastic Constant Matrix: (Units=GPa)
#
#
# Indices 1 2 3 4 5 6 
#
# 1 104.7301 25.9693 30.5863 2.9918 1.4740 -25.5610
# 2 25.9693 127.7206 30.6563 24.5660 2.0161 -15.6765
# 3 30.5863 30.6563 86.7561 15.8698 -0.7862 -8.7282
# 4 2.9918 24.5660 15.8698 36.9594 -7.2812 -6.6067
# 5 1.4740 2.0161 -0.7862 -7.2812 41.8958 2.9940
# 6 -25.5610 -15.6765 -8.7282 -6.6067 2.9940 45.8593
#
#
#
# Elastic Compliance Matrix: (Units=1/GPa)
#
#
# Indices 1 2 3 4 5 6 
#
# 1 0.012407 -0.001347 -0.003744 0.002507 -0.000445 0.006133
# 2 -0.001347 0.009850 -0.001824 -0.005684 -0.001560 0.001552
# 3 -0.003744 -0.001824 0.014300 -0.004802 -0.000299 -0.000661
# 4 0.002507 -0.005684 -0.004802 0.034404 0.005852 0.003114
# 5 -0.000445 -0.001560 -0.000299 0.005852 0.025087 -0.001633
# 6 0.006133 0.001552 -0.000661 0.003114 -0.001633 0.026184
#
#
# Mechanical properties :
#
#
# Convention : Reuss Voigt Hill
#
# Bulk Modulus (GPa) = 43.99827 54.84786 49.42306
# Shear Modulus (GPa) = 34.80990 40.40921 37.60956
#
# Velocity S-wave (km/s) = 3.78134 4.07412 3.93046
# Velocity P-wave (km/s) = 6.09404 6.68286 6.39523
#
# Compressibility (1/GPa) = 0.02272817
#
# Stress axis : x y z
#
# Youngs Moduli (GPa) = 80.59889 101.52628 69.92879
#
# Poissons Ratio (x) = 0.13671 0.26181
# Poissons Ratio (y) = 0.10853 0.12754
# Poissons Ratio (z) = 0.30176 0.18518
#
# Static dielectric constant tensor:
#      x y z
#    x 1.945560 0.005850 0.057040 
#    y 0.005850 2.018780 -0.018660 
#    z 0.057040 -0.018660 2.109330 
# 
# From -- ./inp_files/56429.got.cif
#   From: 2010.05.17/outbox.cif.g08.bks.cpg/sg2_29_cif.got.tgz:56429.got - 2010.06.03 11:33:40.
