data_PCOD9041209
_publ_section_title
;
Structure prediction by ZEFSAII (Michael W. Deem and Ramdas Pophale) SiO2 
 PCOD9041209
Probable space group: P -1
;
_chemical_formula_sum "Si O2"
_cell_formula_units_Z 16
_cell_length_a 7.938723
_cell_length_b 18.758385
_cell_length_c 18.044824
_cell_angle_alpha 158.383975
_cell_angle_beta 128.807961
_cell_angle_gamma 46.795321
_cell_volume 721.089762
_symmetry_space_group_name_H-M "P -1"
_symmetry_group_IT_number 2
_symmetry_cell_setting 'triclinic'
loop_
_space_group_symop_operation_xyz
x,y,z
-x,-y,-z
loop_
_atom_site_type_symbol
_atom_site_label
_atom_site_fract_x
_atom_site_fract_y
_atom_site_fract_z
Si Si1 0.674386 0.342008 0.676876
Si Si2 0.493123 0.685998 0.231484
Si Si3 0.275050 0.203264 0.120273
Si Si4 0.492468 0.296253 0.130123
Si Si5 0.837975 0.417091 0.441413
Si Si6 0.340451 0.133558 0.318110
Si Si7 0.879749 0.870843 0.486441
Si Si8 0.009738 0.927808 0.736079
O O1 0.575530 0.360954 0.750529
O O2 0.612889 0.562198 0.832407
O O3 0.542093 0.214129 0.472224
O O4 0.947019 0.223214 0.624642
O O5 0.733823 0.727466 0.331003
O O6 0.298107 0.902043 0.362009
O O7 0.500000 0.500000 0.000000
O O8 0.312499 0.316515 0.166023
O O9 0.237390 0.357093 0.326868
O O10 0.500000 0.000000 0.000000
O O11 0.065423 0.123585 0.969482
O O12 0.690640 0.368117 0.288931
O O13 0.589997 0.056687 0.902461
O O14 0.887656 0.680018 0.592080
O O15 0.819942 0.269220 0.362543
O O16 0.243582 0.057706 0.292087
O O17 0.025476 0.892464 0.619262
#
# Coordination Sequence:
#
# PCOD9041209 Si02
#       8
#     2   2   2   2   2   2   2   2
#     4  12  27  46  74 106 148 181 239 298 358 436
#     4  11  27  49  79 106 141 181 231 299 371 436
#     4  12  24  41  68  99 143 195 247 295 347 415
#     4  12  26  40  68 104 140 191 248 294 353 420
#     4  10  24  41  65  97 144 193 243 290 355 408
#     4  10  25  44  66  99 142 188 242 293 353 413
#     4  11  25  48  75 107 140 185 236 292 366 429
#     4  10  23  43  71  96 144 188 239 287 354 412
#
# _framework density 22.188638999999998
#
# number of rings (size 3 to 8) (size 9 to 14) (size 15 to 20)
#    0.750    0.250    2.500    2.625    7.000    4.000 
#    0.000    0.000    0.000    0.000    0.000    0.000 
#    0.000    0.000    0.000    0.000    0.000    0.000 
#
# Total GULP energy -89524.697442 kJ/mol
# GULP energy per Si atom -5595.293590 kJ/mol
# Density = 2.213814 g / cm^3
# Si number density = 22.188639 Si / 1000 Ang^3
#
#
#
# Elastic Constant Matrix: (Units=GPa)
#
#
# Indices 1 2 3 4 5 6 
#
# 1 133.8231 32.4259 48.5089 5.7065 -9.5977 11.5510
# 2 32.4259 72.1011 33.8395 4.4014 -6.1435 15.1059
# 3 48.5089 33.8395 141.4031 -0.1124 -32.9813 -0.8324
# 4 5.7065 4.4014 -0.1124 25.3384 4.2958 0.0985
# 5 -9.5977 -6.1435 -32.9813 4.2958 36.1801 0.1884
# 6 11.5510 15.1059 -0.8324 0.0985 0.1884 38.2591
#
#
#
# Elastic Compliance Matrix: (Units=1/GPa)
#
#
# Indices 1 2 3 4 5 6 
#
# 1 0.009239 -0.002438 -0.002636 -0.001634 -0.000163 -0.001879
# 2 -0.002438 0.018162 -0.003689 -0.002496 -0.000596 -0.006506
# 3 -0.002636 -0.003689 0.010880 -0.000185 0.008601 0.002447
# 4 -0.001634 -0.002496 -0.000185 0.041267 -0.005933 0.001398
# 5 -0.000163 -0.000596 0.008601 -0.005933 0.036039 0.000309
# 6 -0.001879 -0.006506 0.002447 0.001398 0.000309 0.029322
#
#
# Mechanical properties :
#
#
# Convention : Reuss Voigt Hill
#
# Bulk Modulus (GPa) = 48.18464 64.09732 56.14098
# Shear Modulus (GPa) = 29.52406 35.45905 32.49156
#
# Velocity S-wave (km/s) = 3.65169 4.00193 3.83081
# Velocity P-wave (km/s) = 6.28831 7.09253 6.70249
#
# Compressibility (1/GPa) = 0.02075350
#
# Stress axis : x y z
#
# Youngs Moduli (GPa) = 108.23463 55.06003 91.91458
#
# Poissons Ratio (x) = 0.13425 0.24232
# Poissons Ratio (y) = 0.26390 0.33909
# Poissons Ratio (z) = 0.28534 0.20312
#
# Static dielectric constant tensor:
#      x y z
#    x 1.860570 0.037190 0.022860 
#    y 0.037190 1.839890 0.030050 
#    z 0.022860 0.030050 1.767560 
# 
# From -- ./inp_files/37962.got.cif
#   From: 2010.05.17/outbox.cif.g08.bks.cpg/sg2_19_cif.got.tgz:37962.got - 2010.06.03 11:33:40.
