data_PCOD9041207
_publ_section_title
;
Structure prediction by ZEFSAII (Michael W. Deem and Ramdas Pophale) SiO2 
 PCOD9041207
Probable space group: P -1
;
_chemical_formula_sum "Si O2"
_cell_formula_units_Z 16
_cell_length_a 8.764671
_cell_length_b 13.467581
_cell_length_c 15.313477
_cell_angle_alpha 135.942778
_cell_angle_beta 93.075644
_cell_angle_gamma 120.990564
_cell_volume 757.987793
_symmetry_space_group_name_H-M "P -1"
_symmetry_group_IT_number 2
_symmetry_cell_setting 'triclinic'
loop_
_space_group_symop_operation_xyz
x,y,z
-x,-y,-z
loop_
_atom_site_type_symbol
_atom_site_label
_atom_site_fract_x
_atom_site_fract_y
_atom_site_fract_z
Si Si1 0.764096 0.897110 0.557165
Si Si2 0.024334 0.792000 0.489042
Si Si3 0.561889 0.237659 0.697768
Si Si4 0.555070 0.997375 0.898741
Si Si5 0.462897 0.636556 0.560096
Si Si6 0.911914 0.484736 0.149521
Si Si7 0.726272 0.553265 0.044696
Si Si8 0.051003 0.705692 0.630069
O O1 0.567062 0.811413 0.427124
O O2 0.631298 0.795281 0.582300
O O3 0.871305 0.822656 0.485170
O O4 0.016182 0.177122 0.751768
O O5 0.001263 0.739428 0.556871
O O6 0.900903 0.576415 0.291846
O O7 0.320327 0.022943 0.616535
O O8 0.790092 0.295476 0.729559
O O9 0.711473 0.476457 0.900061
O O10 0.516902 0.803218 0.740436
O O11 0.340460 0.933607 0.805511
O O12 0.500000 0.000000 0.000000
O O13 0.814182 0.257227 0.034007
O O14 0.500000 0.500000 0.500000
O O15 0.164955 0.409217 0.382515
O O16 0.739067 0.428524 0.033592
O O17 0.500000 0.500000 0.000000
O O18 0.000000 0.500000 0.500000
#
# Coordination Sequence:
#
# PCOD9041207 Si02
#       8
#     2   2   2   2   2   2   2   2
#     4  12  26  45  73 104 150 189 246 306 369 440
#     4  12  23  45  70 100 140 197 238 295 380 431
#     4  12  26  44  72 107 142 189 248 305 364 441
#     4  11  26  46  71 105 145 187 245 304 372 438
#     4  11  24  47  73 104 138 191 246 299 365 437
#     4  12  26  43  72 105 147 187 242 312 364 436
#     4  12  25  46  70 104 147 192 242 297 372 440
#     4  10  23  43  71  96 137 188 239 296 366 434
#
# _framework density 21.108519999999999
#
# number of rings (size 3 to 8) (size 9 to 14) (size 15 to 20)
#    0.000    0.500    3.750    4.875    5.250    0.000 
#    0.000    0.625    0.000    0.000    0.000    0.000 
#    0.000    0.000    0.000    0.000    0.000    0.000 
#
# Total GULP energy -89210.474078 kJ/mol
# GULP energy per Si atom -5575.654630 kJ/mol
# Density = 2.106048 g / cm^3
# Si number density = 21.108520 Si / 1000 Ang^3
#
#
#
# Elastic Constant Matrix: (Units=GPa)
#
#
# Indices 1 2 3 4 5 6 
#
# 1 119.5396 34.7291 47.5754 -0.6963 6.7998 -2.1871
# 2 34.7291 97.9293 25.7059 6.2136 2.1207 -2.1442
# 3 47.5754 25.7059 102.8896 -16.5811 -4.2612 -6.1579
# 4 -0.6963 6.2136 -16.5811 31.7296 -0.1258 2.1389
# 5 6.7998 2.1207 -4.2612 -0.1258 41.4828 -3.0492
# 6 -2.1871 -2.1442 -6.1579 2.1389 -3.0492 34.5635
#
#
#
# Elastic Compliance Matrix: (Units=1/GPa)
#
#
# Indices 1 2 3 4 5 6 
#
# 1 0.011175 -0.002507 -0.004955 -0.001834 -0.002249 -0.000416
# 2 -0.002507 0.011990 -0.002430 -0.003698 -0.000438 0.000342
# 3 -0.004955 -0.002430 0.014054 0.007601 0.002535 0.001793
# 4 -0.001834 -0.003698 0.007601 0.036253 0.001298 -0.001120
# 5 -0.002249 -0.000438 0.002535 0.001298 0.024938 0.002402
# 6 -0.000416 0.000342 0.001793 -0.001120 0.002402 0.029528
#
#
# Mechanical properties :
#
#
# Convention : Reuss Voigt Hill
#
# Bulk Modulus (GPa) = 57.34953 59.59770 58.47362
# Shear Modulus (GPa) = 32.56623 35.71171 34.13897
#
# Velocity S-wave (km/s) = 3.93211 4.11763 4.02594
# Velocity P-wave (km/s) = 6.91688 7.13455 7.02656
#
# Compressibility (1/GPa) = 0.01743693
#
# Stress axis : x y z
#
# Youngs Moduli (GPa) = 89.48406 83.40403 71.15171
#
# Poissons Ratio (x) = 0.20906 0.35253
# Poissons Ratio (y) = 0.22430 0.17290
# Poissons Ratio (z) = 0.44336 0.20267
#
# Static dielectric constant tensor:
#      x y z
#    x 1.852880 0.059120 0.043250 
#    y 0.059120 1.820510 0.077310 
#    z 0.043250 0.077310 1.860630 
# 
# From -- ./inp_files/505581.got.cif
#   From: 2010.05.17/outbox.cif.g08.bks.cpg/sg2_253_cif.got.tgz:505581.got - 2010.06.03 11:33:40.
