data_PCOD9041464
_publ_section_title
;
Structure prediction by ZEFSAII (Michael W. Deem and Ramdas Pophale) SiO2 
 PCOD9041464
Probable space group: P -1
;
_chemical_formula_sum "Si O2"
_cell_formula_units_Z 10
_cell_length_a 9.042388
_cell_length_b 5.515658
_cell_length_c 16.238227
_cell_angle_alpha 115.498944
_cell_angle_beta 31.672012
_cell_angle_gamma 121.902610
_cell_volume 360.660971
_symmetry_space_group_name_H-M "P -1"
_symmetry_group_IT_number 2
_symmetry_cell_setting 'triclinic'
loop_
_space_group_symop_operation_xyz
x,y,z
-x,-y,-z
loop_
_atom_site_type_symbol
_atom_site_label
_atom_site_fract_x
_atom_site_fract_y
_atom_site_fract_z
Si Si1 0.738361 0.769058 0.539752
Si Si2 0.208944 0.604159 0.209295
Si Si3 0.434635 0.691061 0.944890
Si Si4 0.148335 0.916012 0.998223
Si Si5 0.577274 0.878326 0.359250
O O1 0.586847 0.466045 0.612754
O O2 0.913547 0.678567 0.368882
O O3 0.528452 0.936512 0.630786
O O4 0.000000 0.000000 0.500000
O O5 0.241193 0.513278 0.087109
O O6 0.254867 0.368751 0.214919
O O7 0.504547 0.866303 0.134678
O O8 0.247504 0.647771 0.944614
O O9 0.500000 0.000000 0.000000
O O10 0.919956 0.922784 0.180896
O O11 0.000000 0.000000 0.000000
O O12 0.500000 0.000000 0.500000
#
# Coordination Sequence:
#
# PCOD9041464 Si02
#       5
#     2   2   2   2   2
#     4  12  28  51  76 112 159 207 256 316 395 465
#     4  10  23  43  77 102 141 203 260 305 373 468
#     4   9  21  41  72 104 141 186 263 307 374 448
#     4  11  25  45  70 109 149 192 248 320 386 443
#     4  12  29  50  79 115 158 202 259 326 391 453
#
# _framework density 27.726873000000001
#
# number of rings (size 3 to 8) (size 9 to 14) (size 15 to 20)
#    0.000    1.200    0.000    3.600   16.800    0.800 
#    3.600    0.000    0.000    0.000    0.000    0.000 
#    0.000    0.000    0.000    0.000    0.000    0.000 
#
# Total GULP energy -55849.725363 kJ/mol
# GULP energy per Si atom -5584.972536 kJ/mol
# Density = 2.766377 g / cm^3
# Si number density = 27.726873 Si / 1000 Ang^3
#
#
#
# Elastic Constant Matrix: (Units=GPa)
#
#
# Indices 1 2 3 4 5 6 
#
# 1 148.3690 51.1565 5.0845 4.3718 -14.6995 -23.6068
# 2 51.1565 137.5946 38.9963 -18.2589 -10.7385 -34.7682
# 3 5.0845 38.9963 149.1823 16.9147 -5.4851 -3.3587
# 4 4.3718 -18.2589 16.9147 46.8418 4.2386 -17.3481
# 5 -14.6995 -10.7385 -5.4851 4.2386 43.5476 15.4594
# 6 -23.6068 -34.7682 -3.3587 -17.3481 15.4594 52.6605
#
#
#
# Elastic Compliance Matrix: (Units=1/GPa)
#
#
# Indices 1 2 3 4 5 6 
#
# 1 0.008235 -0.003649 0.001086 -0.002920 0.002414 -0.000319
# 2 -0.003649 0.015000 -0.005181 0.013514 -0.004353 0.013667
# 3 0.001086 -0.005181 0.008880 -0.007753 0.003024 -0.005810
# 4 -0.002920 0.013514 -0.007753 0.039240 -0.010678 0.023180
# 5 0.002414 -0.004353 0.003024 -0.010678 0.028960 -0.013618
# 6 -0.000319 0.013667 -0.005810 0.023180 -0.013618 0.039133
#
#
# Mechanical properties :
#
#
# Convention : Reuss Voigt Hill
#
# Bulk Modulus (GPa) = 60.14585 69.51338 64.82962
# Shear Modulus (GPa) = 31.15671 51.27055 41.21363
#
# Velocity S-wave (km/s) = 3.35580 4.30481 3.85959
# Velocity P-wave (km/s) = 6.06255 7.05930 6.57983
#
# Compressibility (1/GPa) = 0.01662625
#
# Stress axis : x y z
#
# Youngs Moduli (GPa) = 121.42627 66.66704 112.61253
#
# Poissons Ratio (x) = 0.24328 -0.12228
# Poissons Ratio (y) = 0.44311 0.58347
# Poissons Ratio (z) = -0.13185 0.34541
#
# Static dielectric constant tensor:
#      x y z
#    x 2.289900 -0.269240 0.098620 
#    y -0.269240 3.140010 -0.162910 
#    z 0.098620 -0.162910 2.136300 
# 
# From -- ./inp_files/15548.got.cif
#   From: 2010.05.17/outbox.cif.g08.bks.cpg/sg2_8_cif.got.tgz:15548.got - 2010.06.03 11:33:40.
