data_PCOD9041220
_publ_section_title
;
Structure prediction by ZEFSAII (Michael W. Deem and Ramdas Pophale) SiO2 
 PCOD9041220
Probable space group: P -1
;
_chemical_formula_sum "Si O2"
_cell_formula_units_Z 16
_cell_length_a 8.716234
_cell_length_b 20.797416
_cell_length_c 16.697747
_cell_angle_alpha 19.884375
_cell_angle_beta 135.695885
_cell_angle_gamma 135.669678
_cell_volume 707.565079
_symmetry_space_group_name_H-M "P -1"
_symmetry_group_IT_number 2
_symmetry_cell_setting 'triclinic'
loop_
_space_group_symop_operation_xyz
x,y,z
-x,-y,-z
loop_
_atom_site_type_symbol
_atom_site_label
_atom_site_fract_x
_atom_site_fract_y
_atom_site_fract_z
Si Si1 0.012415 0.688933 0.839805
Si Si2 0.270885 0.473021 0.590814
Si Si3 0.525512 0.549809 0.856874
Si Si4 0.420043 0.866287 0.700851
Si Si5 0.074942 0.694005 0.476412
Si Si6 0.720546 0.153926 0.918576
Si Si7 0.756914 0.409378 0.794463
Si Si8 0.163833 0.098831 0.086066
O O1 0.170029 0.853406 0.655381
O O2 0.756131 0.696104 0.754922
O O3 0.138625 0.665150 0.998789
O O4 0.000000 0.500000 0.000000
O O5 0.276064 0.699527 0.327401
O O6 0.513092 0.452131 0.672551
O O7 0.070494 0.401380 0.539129
O O8 0.220505 0.319331 0.821978
O O9 0.311744 0.628120 0.652411
O O10 0.500000 0.500000 0.000000
O O11 0.547482 0.348972 0.058008
O O12 0.603501 0.941808 0.746566
O O13 0.500000 0.000000 0.500000
O O14 0.926164 0.601476 0.605156
O O15 0.093497 0.921577 0.207876
O O16 0.722140 0.264917 0.874184
O O17 0.954933 0.080043 0.089936
O O18 0.500000 0.000000 0.000000
#
# Coordination Sequence:
#
# PCOD9041220 Si02
#       8
#     2   2   2   2   2   2   2   2
#     4  10  23  43  71  98 136 181 233 288 351 415
#     4  11  23  43  70  97 142 180 231 288 348 417
#     4  11  22  43  70  97 136 181 233 283 351 418
#     4  11  24  44  67  99 134 180 236 294 352 411
#     4  11  23  41  71 100 136 188 230 284 354 415
#     4  11  24  43  68 105 139 183 227 282 354 423
#     4  11  21  44  71  99 138 183 228 287 348 419
#     4  12  24  42  66 101 139 176 232 290 348 415
#
# _framework density 22.612759
#
# number of rings (size 3 to 8) (size 9 to 14) (size 15 to 20)
#    0.000    1.000    2.500    6.000    1.750    0.000 
#    0.000    5.000    0.000    0.000    0.000    0.000 
#    0.000    0.000    0.000    0.000    0.000    0.000 
#
# Total GULP energy -89362.148704 kJ/mol
# GULP energy per Si atom -5585.134294 kJ/mol
# Density = 2.256129 g / cm^3
# Si number density = 22.612759 Si / 1000 Ang^3
#
#
#
# Elastic Constant Matrix: (Units=GPa)
#
#
# Indices 1 2 3 4 5 6 
#
# 1 130.8131 54.5002 26.3833 7.4323 -6.3273 52.5671
# 2 54.5002 117.8500 35.6892 2.9654 -7.8178 33.8071
# 3 26.3833 35.6892 48.2700 -13.5143 -11.8704 12.6880
# 4 7.4323 2.9654 -13.5143 43.9215 5.1391 4.0092
# 5 -6.3273 -7.8178 -11.8704 5.1391 46.2748 5.7204
# 6 52.5671 33.8071 12.6880 4.0092 5.7204 50.6321
#
#
#
# Elastic Compliance Matrix: (Units=1/GPa)
#
#
# Indices 1 2 3 4 5 6 
#
# 1 0.014672 -0.001714 -0.003226 -0.002466 0.002820 -0.013403
# 2 -0.001714 0.013287 -0.008163 -0.002767 0.000832 -0.004921
# 3 -0.003226 -0.008163 0.033165 0.010735 0.005618 -0.000996
# 4 -0.002466 -0.002767 0.010735 0.026818 -0.000993 -0.000294
# 5 0.002820 0.000832 0.005618 -0.000993 0.024626 -0.007594
# 6 -0.013403 -0.004921 -0.000996 -0.000294 -0.007594 0.038082
#
#
# Mechanical properties :
#
#
# Convention : Reuss Voigt Hill
#
# Bulk Modulus (GPa) = 28.64010 58.89764 43.76887
# Shear Modulus (GPa) = 26.52590 40.18969 33.35780
#
# Velocity S-wave (km/s) = 3.42870 4.22038 3.84497
# Velocity P-wave (km/s) = 5.32612 7.06056 6.25376
#
# Compressibility (1/GPa) = 0.03491607
#
# Stress axis : x y z
#
# Youngs Moduli (GPa) = 68.15861 75.26282 30.15264
#
# Poissons Ratio (x) = 0.12901 0.09727
# Poissons Ratio (y) = 0.11684 0.24615
# Poissons Ratio (z) = 0.21987 0.61440
#
# Static dielectric constant tensor:
#      x y z
#    x 1.880650 -0.030080 -0.009970 
#    y -0.030080 1.839520 -0.022930 
#    z -0.009970 -0.022930 1.873400 
# 
# From -- ./inp_files/307697.got.cif
#   From: 2010.05.17/outbox.cif.g08.bks.cpg/sg2_154_cif.got.tgz:307697.got - 2010.06.03 11:33:40.
