data_PCOD9041148
_publ_section_title
;
Structure prediction by ZEFSAII (Michael W. Deem and Ramdas Pophale) SiO2 
 PCOD9041148
Probable space group: P -1
;
_chemical_formula_sum "Si O2"
_cell_formula_units_Z 15
_cell_length_a 12.187814
_cell_length_b 9.877829
_cell_length_c 7.913956
_cell_angle_alpha 91.648832
_cell_angle_beta 37.666460
_cell_angle_gamma 82.960537
_cell_volume 565.240434
_symmetry_space_group_name_H-M "P -1"
_symmetry_group_IT_number 2
_symmetry_cell_setting 'triclinic'
loop_
_space_group_symop_operation_xyz
x,y,z
-x,-y,-z
loop_
_atom_site_type_symbol
_atom_site_label
_atom_site_fract_x
_atom_site_fract_y
_atom_site_fract_z
Si Si1 0.791360 0.272117 0.000244
Si Si2 0.854575 0.745045 0.011005
Si Si3 0.680557 0.034305 0.365812
Si Si4 0.500000 0.000000 0.000000
Si Si5 0.493806 0.287717 0.777480
Si Si6 0.563293 0.709542 0.773253
Si Si7 0.784672 0.459144 0.311221
Si Si8 0.911598 0.869356 0.600975
O O1 0.749708 0.148968 0.168012
O O2 0.638341 0.301735 0.041898
O O3 0.768790 0.412965 0.137259
O O4 0.991810 0.225877 0.672686
O O5 0.945239 0.788649 0.731720
O O6 0.009516 0.615994 0.885415
O O7 0.661614 0.714572 0.174944
O O8 0.822906 0.883652 0.173277
O O9 0.619966 0.124762 0.617178
O O10 0.500000 0.000000 0.500000
O O11 0.549325 0.872089 0.793183
O O12 0.697365 0.933117 0.846864
O O13 0.634193 0.383446 0.575677
O O14 0.406856 0.329843 0.067680
O O15 0.712394 0.616758 0.465685
O O16 0.000000 0.000000 0.500000
#
# Coordination Sequence:
#
# PCOD9041148 Si02
#       8
#     2   2   2   1   2   2   2   2
#     4  11  24  46  71 104 143 194 238 292 357 425
#     4  11  22  45  68 108 142 188 238 292 359 422
#     4   9  20  40  68 103 141 178 235 292 353 414
#     4  12  26  44  74 106 134 174 242 308 348 414
#     4  10  23  43  71 103 138 188 233 299 351 419
#     4  12  24  47  74 104 141 189 244 292 363 417
#     4  11  27  46  68 104 149 193 232 294 358 431
#     4  12  23  44  74 106 143 185 240 299 353 418
#
# _framework density 26.537382000000001
#
# number of rings (size 3 to 8) (size 9 to 14) (size 15 to 20)
#    0.000    1.067    4.000    1.600    1.867    3.733 
#    9.600    0.667    0.000    0.000    0.000    0.000 
#    0.000    0.000    0.000    0.000    0.000    0.000 
#
# Total GULP energy -83911.486636 kJ/mol
# GULP energy per Si atom -5594.099109 kJ/mol
# Density = 2.647698 g / cm^3
# Si number density = 26.537382 Si / 1000 Ang^3
#
#
#
# Elastic Constant Matrix: (Units=GPa)
#
#
# Indices 1 2 3 4 5 6 
#
# 1 114.4243 40.3021 27.5909 22.7629 5.8821 8.8259
# 2 40.3021 132.5832 66.6414 41.6721 0.7400 15.7788
# 3 27.5909 66.6414 191.1655 39.7343 21.1721 6.3655
# 4 22.7629 41.6721 39.7343 63.2732 9.6225 2.2879
# 5 5.8821 0.7400 21.1721 9.6225 44.1701 10.9039
# 6 8.8259 15.7788 6.3655 2.2879 10.9039 34.1727
#
#
#
# Elastic Compliance Matrix: (Units=1/GPa)
#
#
# Indices 1 2 3 4 5 6 
#
# 1 0.010068 -0.002206 -0.000187 -0.001933 -0.000481 -0.001264
# 2 -0.002206 0.012149 -0.002996 -0.005757 0.004116 -0.005410
# 3 -0.000187 -0.002996 0.007013 -0.001926 -0.003180 0.001269
# 4 -0.001933 -0.005757 -0.001926 0.022041 -0.004373 0.003436
# 5 -0.000481 0.004116 -0.003180 -0.004373 0.027498 -0.009665
# 6 -0.001264 -0.005410 0.001269 0.003436 -0.009665 0.034705
#
#
# Mechanical properties :
#
#
# Convention : Reuss Voigt Hill
#
# Bulk Modulus (GPa) = 54.19375 78.58240 66.38807
# Shear Modulus (GPa) = 38.34274 48.56575 43.45425
#
# Velocity S-wave (km/s) = 3.80525 4.28259 4.05096
# Velocity P-wave (km/s) = 6.30655 7.35734 6.85212
#
# Compressibility (1/GPa) = 0.01845231
#
# Stress axis : x y z
#
# Youngs Moduli (GPa) = 99.32267 82.31045 142.59865
#
# Poissons Ratio (x) = 0.18156 0.02667
# Poissons Ratio (y) = 0.21908 0.42723
# Poissons Ratio (z) = 0.01858 0.24661
#
# Static dielectric constant tensor:
#      x y z
#    x 2.056180 -0.029980 -0.019950 
#    y -0.029980 2.017270 -0.076280 
#    z -0.019950 -0.076280 2.176360 
# 
# From -- ./inp_files/259299.got.cif
#   From: 2010.05.17/outbox.cif.g08.bks.cpg/sg2_130_cif.got.tgz:259299.got - 2010.06.03 11:33:40.
