data_PCOD9041821
_publ_section_title
;
Structure prediction by ZEFSAII (Michael W. Deem and Ramdas Pophale) SiO2 
 PCOD9041821
Probable space group: P -1
;
_chemical_formula_sum "Si O2"
_cell_formula_units_Z 16
_cell_length_a 8.931957
_cell_length_b 10.169914
_cell_length_c 8.489161
_cell_angle_alpha 84.759241
_cell_angle_beta 52.756080
_cell_angle_gamma 78.839286
_cell_volume 601.933776
_symmetry_space_group_name_H-M "P -1"
_symmetry_group_IT_number 2
_symmetry_cell_setting 'triclinic'
loop_
_space_group_symop_operation_xyz
x,y,z
-x,-y,-z
loop_
_atom_site_type_symbol
_atom_site_label
_atom_site_fract_x
_atom_site_fract_y
_atom_site_fract_z
Si Si1 0.901937 0.796600 0.573176
Si Si2 0.820924 0.970240 0.220776
Si Si3 0.176402 0.331864 0.642604
Si Si4 0.298885 0.767988 0.163909
Si Si5 0.490950 0.351175 0.679974
Si Si6 0.146506 0.752054 0.704410
Si Si7 0.804561 0.418146 0.996851
Si Si8 0.508554 0.046635 0.167779
O O1 0.848490 0.667663 0.529226
O O2 0.711011 0.903359 0.657553
O O3 0.099768 0.830343 0.369827
O O4 0.949209 0.775041 0.730126
O O5 0.789186 0.101828 0.338754
O O6 0.633231 0.969041 0.234344
O O7 0.867205 0.818811 0.274058
O O8 0.000000 0.000000 0.000000
O O9 0.378191 0.329524 0.595203
O O10 0.017291 0.442144 0.814499
O O11 0.458610 0.755217 0.198973
O O12 0.264949 0.629733 0.122277
O O13 0.369159 0.836205 0.958365
O O14 0.703941 0.352847 0.482103
O O15 0.358001 0.471668 0.838989
O O16 0.148994 0.692576 0.882626
O O17 0.500000 0.000000 0.000000
#
# Coordination Sequence:
#
# PCOD9041821 Si02
#       8
#     2   2   2   2   2   2   2   2
#     4  10  25  43  62  96 137 167 224 271 321 402
#     4  12  22  41  68  95 133 173 218 271 329 402
#     4  11  24  42  65  97 132 171 219 273 333 385
#     4  10  23  44  67  95 132 175 218 272 335 394
#     4  11  24  41  67  99 131 169 223 273 332 393
#     4  11  23  42  67  94 131 175 220 269 334 388
#     4  11  22  44  68  92 132 178 218 271 328 395
#     4  12  24  39  67  99 135 172 219 274 334 395
#
# _framework density 26.580998000000001
#
# number of rings (size 3 to 8) (size 9 to 14) (size 15 to 20)
#    0.000    1.000    2.500    4.125    1.750    5.000 
#    0.000    0.625    0.000    0.000    0.000    0.000 
#    0.000    0.000    0.000    0.000    0.000    0.000 
#
# Total GULP energy -89399.415247 kJ/mol
# GULP energy per Si atom -5587.463453 kJ/mol
# Density = 2.652050 g / cm^3
# Si number density = 26.580998 Si / 1000 Ang^3
#
#
#
# Elastic Constant Matrix: (Units=GPa)
#
#
# Indices 1 2 3 4 5 6 
#
# 1 195.8253 19.5635 24.6386 18.4741 9.2297 -9.3579
# 2 19.5635 43.7153 29.4373 11.4487 -6.3136 -12.9674
# 3 24.6386 29.4373 107.3310 32.8904 -7.2754 -5.4449
# 4 18.4741 11.4487 32.8904 43.0097 -3.4878 1.9130
# 5 9.2297 -6.3136 -7.2754 -3.4878 45.2445 8.2747
# 6 -9.3579 -12.9674 -5.4449 1.9130 8.2747 34.4179
#
#
#
# Elastic Compliance Matrix: (Units=1/GPa)
#
#
# Indices 1 2 3 4 5 6 
#
# 1 0.005650 -0.001662 -0.000288 -0.001976 -0.001842 0.001417
# 2 -0.001662 0.032405 -0.006976 -0.002910 0.001608 0.010429
# 3 -0.000288 -0.006976 0.013985 -0.008649 0.000701 -0.000182
# 4 -0.001976 -0.002910 -0.008649 0.031887 0.002027 -0.005262
# 5 -0.001842 0.001608 0.000701 0.002027 0.024008 -0.005669
# 6 0.001417 0.010429 -0.000182 -0.005262 -0.005669 0.034996
#
#
# Mechanical properties :
#
#
# Convention : Reuss Voigt Hill
#
# Bulk Modulus (GPa) = 29.25183 54.90562 42.07872
# Shear Modulus (GPa) = 29.03955 42.74991 35.89473
#
# Velocity S-wave (km/s) = 3.30887 4.01470 3.67875
# Velocity P-wave (km/s) = 5.06230 6.49548 5.82315
#
# Compressibility (1/GPa) = 0.03418590
#
# Stress axis : x y z
#
# Youngs Moduli (GPa) = 176.99268 30.85975 71.50451
#
# Poissons Ratio (x) = 0.05130 0.02063
# Poissons Ratio (y) = 0.29424 0.49882
# Poissons Ratio (z) = 0.05106 0.21528
#
# Static dielectric constant tensor:
#      x y z
#    x 2.047880 0.092580 -0.043490 
#    y 0.092580 2.357460 -0.275860 
#    z -0.043490 -0.275860 2.535410 
# 
# From -- ./inp_files/187258.got.cif
#   From: 2010.05.17/outbox.cif.g08.bks.cpg/sg2_94_cif.got.tgz:187258.got - 2010.06.03 11:33:40.
