data_PCOD9041997
_publ_section_title
;
Structure prediction by ZEFSAII (Michael W. Deem and Ramdas Pophale) SiO2 
 PCOD9041997
Probable space group: P -1
;
_chemical_formula_sum "Si O2"
_cell_formula_units_Z 14
_cell_length_a 8.547344
_cell_length_b 4.869864
_cell_length_c 22.319311
_cell_angle_alpha 73.905538
_cell_angle_beta 38.630924
_cell_angle_gamma 82.991245
_cell_volume 550.296065
_symmetry_space_group_name_H-M "P -1"
_symmetry_group_IT_number 2
_symmetry_cell_setting 'triclinic'
loop_
_space_group_symop_operation_xyz
x,y,z
-x,-y,-z
loop_
_atom_site_type_symbol
_atom_site_label
_atom_site_fract_x
_atom_site_fract_y
_atom_site_fract_z
Si Si1 0.724528 0.897229 0.153947
Si Si2 0.111046 0.618123 0.605268
Si Si3 0.795370 0.436256 0.242230
Si Si4 0.588684 0.786000 0.378081
Si Si5 0.210599 0.940577 0.269443
Si Si6 0.171939 0.295373 0.991244
Si Si7 0.662659 0.238943 0.893013
O O1 0.742666 0.569445 0.185960
O O2 0.464088 0.020420 0.228583
O O3 0.753781 0.901585 0.073061
O O4 0.966387 0.080740 0.103716
O O5 0.317135 0.791595 0.489071
O O6 0.259189 0.397942 0.611479
O O7 0.273682 0.897729 0.700569
O O8 0.978722 0.834413 0.672453
O O9 0.593682 0.592638 0.330052
O O10 0.103273 0.617495 0.345149
O O11 0.085944 0.569990 0.166213
O O12 0.255061 0.893754 0.187168
O O13 0.437129 0.426101 0.933505
O O14 0.000000 0.500000 0.000000
O O15 0.500000 0.000000 0.000000
#
# Coordination Sequence:
#
# PCOD9041997 Si02
#       7
#     2   2   2   2   2   2   2
#     4  10  25  43  67 101 145 188 236 291 352 429
#     4  11  24  49  73 107 138 187 241 297 358 430
#     4  12  25  46  71 112 142 188 234 302 358 414
#     4  11  26  45  76 105 143 181 240 305 358 417
#     4  11  25  44  76 105 141 193 234 291 359 431
#     4  10  23  44  68  97 140 201 237 282 354 422
#     4  11  24  46  72 109 145 186 240 296 346 422
#
# _framework density 25.440850000000001
#
# number of rings (size 3 to 8) (size 9 to 14) (size 15 to 20)
#    0.000    1.143    2.857    1.714    6.000    2.286 
#    2.571    7.857    0.000    0.000    0.000    0.000 
#    0.000    0.000    0.000    0.000    0.000    0.000 
#
# Total GULP energy -78167.012116 kJ/mol
# GULP energy per Si atom -5583.358008 kJ/mol
# Density = 2.538295 g / cm^3
# Si number density = 25.440850 Si / 1000 Ang^3
#
#
#
# Elastic Constant Matrix: (Units=GPa)
#
#
# Indices 1 2 3 4 5 6 
#
# 1 58.6005 15.9686 45.3469 -4.4627 -14.8607 -15.0731
# 2 15.9686 151.1394 58.6857 -6.1652 -2.8704 -17.0401
# 3 45.3469 58.6857 168.9441 -8.9428 -9.2398 -10.5986
# 4 -4.4627 -6.1652 -8.9428 48.5581 -7.7773 -0.9937
# 5 -14.8607 -2.8704 -9.2398 -7.7773 16.5707 4.2970
# 6 -15.0731 -17.0401 -10.5986 -0.9937 4.2970 29.6942
#
#
#
# Elastic Compliance Matrix: (Units=1/GPa)
#
#
# Indices 1 2 3 4 5 6 
#
# 1 0.031216 0.001132 -0.006429 0.005992 0.024607 0.010840
# 2 0.001132 0.008095 -0.002807 0.000716 0.000091 0.004228
# 3 -0.006429 -0.002807 0.008489 0.000442 -0.000869 -0.001704
# 4 0.005992 0.000716 0.000442 0.023998 0.016481 0.002028
# 5 0.024607 0.000091 -0.000869 0.016481 0.089734 -0.000201
# 6 0.010840 0.004228 -0.001704 0.002028 -0.000201 0.041094
#
#
# Mechanical properties :
#
#
# Convention : Reuss Voigt Hill
#
# Bulk Modulus (GPa) = 31.65492 68.74293 50.19893
# Shear Modulus (GPa) = 21.79932 36.21012 29.00472
#
# Velocity S-wave (km/s) = 2.93040 3.77677 3.38018
# Velocity P-wave (km/s) = 4.89073 6.78955 5.91681
#
# Compressibility (1/GPa) = 0.03159067
#
# Stress axis : x y z
#
# Youngs Moduli (GPa) = 32.03485 123.53933 117.80024
#
# Poissons Ratio (x) = -0.13986 0.75734
# Poissons Ratio (y) = -0.03627 0.33072
# Poissons Ratio (z) = 0.20595 0.34684
#
# Static dielectric constant tensor:
#      x y z
#    x 2.222250 0.016110 0.078850 
#    y 0.016110 2.047930 -0.039510 
#    z 0.078850 -0.039510 2.188610 
# 
# From -- ./inp_files/54611.got.cif
#   From: 2010.05.17/outbox.cif.g08.bks.cpg/sg2_28_cif.got.tgz:54611.got - 2010.06.03 11:33:40.
