data_PCOD9041298
_publ_section_title
;
Structure prediction by ZEFSAII (Michael W. Deem and Ramdas Pophale) SiO2 
 PCOD9041298
Probable space group: P -1
;
_chemical_formula_sum "Si O2"
_cell_formula_units_Z 16
_cell_length_a 9.848712
_cell_length_b 7.953197
_cell_length_c 12.071418
_cell_angle_alpha 102.106744
_cell_angle_beta 64.232557
_cell_angle_gamma 64.998044
_cell_volume 676.128597
_symmetry_space_group_name_H-M "P -1"
_symmetry_group_IT_number 2
_symmetry_cell_setting 'triclinic'
loop_
_space_group_symop_operation_xyz
x,y,z
-x,-y,-z
loop_
_atom_site_type_symbol
_atom_site_label
_atom_site_fract_x
_atom_site_fract_y
_atom_site_fract_z
Si Si1 0.524615 0.332238 0.799315
Si Si2 0.184348 0.322974 0.838518
Si Si3 0.670513 0.988183 0.893063
Si Si4 0.165179 0.940639 0.778885
Si Si5 0.714256 0.846614 0.443845
Si Si6 0.182135 0.838096 0.527204
Si Si7 0.879637 0.744166 0.595127
Si Si8 0.771007 0.204250 0.023908
O O1 0.353682 0.325993 0.821393
O O2 0.624064 0.165382 0.841200
O O3 0.663565 0.278280 0.639907
O O4 0.420462 0.575172 0.904963
O O5 0.180853 0.345632 0.707861
O O6 0.245486 0.079336 0.788578
O O7 0.000000 0.500000 0.000000
O O8 0.804084 0.778807 0.749507
O O9 0.760357 0.013026 0.970418
O O10 0.500000 0.000000 0.000000
O O11 0.231609 0.775649 0.630871
O O12 0.191022 0.810475 0.861911
O O13 0.947073 0.139779 0.879754
O O14 0.718736 0.821491 0.571226
O O15 0.500000 0.000000 0.500000
O O16 0.833413 0.945572 0.416915
O O17 0.006785 0.834141 0.558898
O O18 0.000000 0.500000 0.500000
#
# Coordination Sequence:
#
# PCOD9041298 Si02
#       8
#     2   2   2   2   2   2   2   2
#     4  12  25  44  73 107 138 188 245 292 369 434
#     4  11  22  41  67 104 138 186 235 296 357 431
#     4  12  27  49  68  99 148 185 237 303 362 430
#     4  10  23  43  72  98 145 185 237 295 367 425
#     4  11  23  46  75 104 141 189 243 298 363 433
#     4  11  24  48  73 102 145 193 239 304 360 442
#     4  12  28  48  72 108 145 197 242 301 376 433
#     4  11  24  44  68 105 138 188 236 296 361 431
#
# _framework density 23.664135999999999
#
# number of rings (size 3 to 8) (size 9 to 14) (size 15 to 20)
#    0.000    0.750    5.000    1.500    1.750    4.500 
#    0.000    0.000    0.000    0.000    0.000    0.000 
#    0.000    0.000    0.000    0.000    0.000    0.000 
#
# Total GULP energy -89136.303504 kJ/mol
# GULP energy per Si atom -5571.018969 kJ/mol
# Density = 2.361028 g / cm^3
# Si number density = 23.664136 Si / 1000 Ang^3
#
#
#
# Elastic Constant Matrix: (Units=GPa)
#
#
# Indices 1 2 3 4 5 6 
#
# 1 129.9183 5.3770 65.2537 -6.0549 7.6697 2.9596
# 2 5.3770 32.0866 26.5431 6.9735 0.1999 -8.1384
# 3 65.2537 26.5431 196.1630 1.8778 -7.5237 0.7830
# 4 -6.0549 6.9735 1.8778 32.8163 4.0021 2.5991
# 5 7.6697 0.1999 -7.5237 4.0021 48.2934 -3.2774
# 6 2.9596 -8.1384 0.7830 2.5991 -3.2774 25.3759
#
#
#
# Elastic Compliance Matrix: (Units=1/GPa)
#
#
# Indices 1 2 3 4 5 6 
#
# 1 0.009651 0.000301 -0.003357 0.002311 -0.002348 -0.001466
# 2 0.000301 0.041602 -0.005668 -0.009698 0.000689 0.014564
# 3 -0.003357 -0.005668 0.007046 0.000108 0.001547 -0.001455
# 4 0.002311 -0.009698 0.000108 0.033976 -0.003623 -0.007331
# 5 -0.002348 0.000689 0.001547 -0.003623 0.021865 0.003642
# 6 -0.001466 0.014564 -0.001455 -0.007331 0.003642 0.045515
#
#
# Mechanical properties :
#
#
# Convention : Reuss Voigt Hill
#
# Bulk Modulus (GPa) = 24.48074 61.39060 42.93567
# Shear Modulus (GPa) = 26.21639 38.69673 32.45656
#
# Velocity S-wave (km/s) = 3.33205 4.04821 3.70746
# Velocity P-wave (km/s) = 5.01707 6.91733 6.04237
#
# Compressibility (1/GPa) = 0.04084843
#
# Stress axis : x y z
#
# Youngs Moduli (GPa) = 103.61970 24.03758 141.93169
#
# Poissons Ratio (x) = -0.00723 0.47651
# Poissons Ratio (y) = -0.03115 0.80447
# Poissons Ratio (z) = 0.34788 0.13625
#
# Static dielectric constant tensor:
#      x y z
#    x 1.524210 -0.262360 0.203630 
#    y -0.262360 1.901880 0.003870 
#    z 0.203630 0.003870 1.901180 
# 
# From -- ./inp_files/382921.got.cif
#   From: 2010.05.17/outbox.cif.g08.bks.cpg/sg2_192_cif.got.tgz:382921.got - 2010.06.03 11:33:40.
