data_PCOD9041046
_publ_section_title
;
Structure prediction by ZEFSAII (Michael W. Deem and Ramdas Pophale) SiO2 
 PCOD9041046
Probable space group: P -1
;
_chemical_formula_sum "Si O2"
_cell_formula_units_Z 14
_cell_length_a 13.565676
_cell_length_b 11.985383
_cell_length_c 6.849474
_cell_angle_alpha 135.270445
_cell_angle_beta 116.860503
_cell_angle_gamma 53.365529
_cell_volume 628.156803
_symmetry_space_group_name_H-M "P -1"
_symmetry_group_IT_number 2
_symmetry_cell_setting 'triclinic'
loop_
_space_group_symop_operation_xyz
x,y,z
-x,-y,-z
loop_
_atom_site_type_symbol
_atom_site_label
_atom_site_fract_x
_atom_site_fract_y
_atom_site_fract_z
Si Si1 0.101250 0.557697 0.739705
Si Si2 0.061283 0.229548 0.796661
Si Si3 0.399552 0.523786 0.279013
Si Si4 0.284592 0.891668 0.745710
Si Si5 0.760454 0.643982 0.042568
Si Si6 0.095609 0.822489 0.754890
Si Si7 0.507076 0.863675 0.170517
O O1 0.204718 0.393599 0.743684
O O2 0.141994 0.655418 0.734565
O O3 0.000000 0.500000 0.500000
O O4 0.032690 0.700709 0.023499
O O5 0.123774 0.358812 0.965218
O O6 0.989142 0.205174 0.519910
O O7 0.178600 0.053293 0.743125
O O8 0.500000 0.500000 0.500000
O O9 0.345815 0.730361 0.443441
O O10 0.282885 0.503061 0.238191
O O11 0.462025 0.339692 0.983223
O O12 0.208174 0.847084 0.790931
O O13 0.391348 0.920726 0.992762
O O14 0.635535 0.821023 0.121651
O O15 0.000000 0.000000 0.000000
O O16 0.500000 0.000000 0.500000
#
# Coordination Sequence:
#
# PCOD9041046 Si02
#       7
#     2   2   2   2   2   2   2
#     4  12  26  44  68 102 137 181 230 280 346 409
#     4  12  26  43  70 104 141 180 226 286 345 414
#     4   8  19  40  65  94 131 176 219 275 336 395
#     4  11  23  44  71  99 142 178 226 285 347 405
#     4  10  23  43  70  95 140 175 227 281 342 405
#     4  12  27  43  67 104 138 182 230 280 348 405
#     4   9  22  41  71  99 134 179 229 282 337 413
#
# _framework density 22.287430000000001
#
# number of rings (size 3 to 8) (size 9 to 14) (size 15 to 20)
#    0.857    0.571    2.857    1.714    8.000    0.571 
#    0.000    0.714    3.143    0.000    0.000    0.000 
#    0.000    0.000    0.000    0.000    0.000    0.000 
#
# Total GULP energy -78021.144270 kJ/mol
# GULP energy per Si atom -5572.938876 kJ/mol
# Density = 2.223670 g / cm^3
# Si number density = 22.287430 Si / 1000 Ang^3
#
#
#
# Elastic Constant Matrix: (Units=GPa)
#
#
# Indices 1 2 3 4 5 6 
#
# 1 92.8508 30.1426 23.5075 -30.1696 27.1465 -12.6191
# 2 30.1426 97.0469 24.1288 -10.8856 6.6708 -12.1369
# 3 23.5075 24.1288 130.8324 12.0857 15.8620 -12.4162
# 4 -30.1696 -10.8856 12.0857 35.2702 -8.1256 -2.9186
# 5 27.1465 6.6708 15.8620 -8.1256 29.9771 -3.4877
# 6 -12.6191 -12.1369 -12.4162 -2.9186 -3.4877 40.9136
#
#
#
# Elastic Compliance Matrix: (Units=1/GPa)
#
#
# Indices 1 2 3 4 5 6 
#
# 1 0.022358 -0.002777 -0.002991 0.016758 -0.012892 0.005261
# 2 -0.002777 0.012144 -0.001980 0.002691 0.001880 0.002497
# 3 -0.002991 -0.001980 0.009762 -0.007375 -0.003947 0.000590
# 4 0.016758 0.002691 -0.007375 0.047039 0.001720 0.007231
# 5 -0.012892 0.001880 -0.003947 0.001720 0.047114 -0.000477
# 6 0.005261 0.002497 0.000590 0.007231 -0.000477 0.027459
#
#
# Mechanical properties :
#
#
# Convention : Reuss Voigt Hill
#
# Bulk Modulus (GPa) = 34.76133 52.92087 43.84110
# Shear Modulus (GPa) = 26.18342 37.42894 31.80618
#
# Velocity S-wave (km/s) = 3.43126 4.10246 3.78178
# Velocity P-wave (km/s) = 5.59721 6.79975 6.22757
#
# Compressibility (1/GPa) = 0.02876760
#
# Stress axis : x y z
#
# Youngs Moduli (GPa) = 44.72731 82.34454 102.44161
#
# Poissons Ratio (x) = 0.22866 0.30638
# Poissons Ratio (y) = 0.12420 0.20286
# Poissons Ratio (z) = 0.13377 0.16306
#
# Static dielectric constant tensor:
#      x y z
#    x 1.822300 0.020460 -0.028630 
#    y 0.020460 1.857140 0.112850 
#    z -0.028630 0.112850 1.752170 
# 
# From -- ./inp_files/95676.got.cif
#   From: 2010.05.17/outbox.cif.g08.bks.cpg/sg2_48_cif.got.tgz:95676.got - 2010.06.03 11:33:40.
