data_PCOD9041025
_publ_section_title
;
Structure prediction by ZEFSAII (Michael W. Deem and Ramdas Pophale) SiO2 
 PCOD9041025
Probable space group: P -1
;
_chemical_formula_sum "Si O2"
_cell_formula_units_Z 14
_cell_length_a 9.119029
_cell_length_b 16.066767
_cell_length_c 7.852567
_cell_angle_alpha 66.346181
_cell_angle_beta 106.659967
_cell_angle_gamma 149.078635
_cell_volume 537.475916
_symmetry_space_group_name_H-M "P -1"
_symmetry_group_IT_number 2
_symmetry_cell_setting 'triclinic'
loop_
_space_group_symop_operation_xyz
x,y,z
-x,-y,-z
loop_
_atom_site_type_symbol
_atom_site_label
_atom_site_fract_x
_atom_site_fract_y
_atom_site_fract_z
Si Si1 0.739882 0.190163 0.218849
Si Si2 0.904796 0.860132 0.897976
Si Si3 0.545314 0.659186 0.274147
Si Si4 0.946040 0.432453 0.816560
Si Si5 0.478018 0.090619 0.794777
Si Si6 0.439098 0.170279 0.370412
Si Si7 0.258755 0.332793 0.332874
O O1 0.516127 0.122490 0.322960
O O2 0.962728 0.237298 0.349482
O O3 0.584014 0.044560 0.156669
O O4 0.905647 0.356802 0.042571
O O5 0.827354 0.911151 0.727128
O O6 0.776158 0.720645 0.830398
O O7 0.754768 0.797211 0.081235
O O8 0.238050 0.004654 0.917433
O O9 0.273684 0.592307 0.249042
O O10 0.477135 0.524821 0.283212
O O11 0.663355 0.702069 0.469345
O O12 0.805774 0.285010 0.769728
O O13 0.269451 0.621406 0.720626
O O14 0.387761 0.106676 0.590499
#
# Coordination Sequence:
#
# PCOD9041025 Si02
#       7
#     2   2   2   2   2   2   2
#     4  11  23  48  71 103 147 187 239 299 367 423
#     4  11  24  46  73 103 148 192 241 294 367 434
#     4  11  22  43  73 107 144 190 244 297 361 430
#     4  12  24  46  75 109 140 187 249 299 356 430
#     4  11  27  45  67 111 148 188 234 302 368 430
#     4  12  23  46  78 102 144 191 243 298 358 432
#     4  10  23  43  70 108 145 188 242 299 360 432
#
# _framework density 26.047678999999999
#
# number of rings (size 3 to 8) (size 9 to 14) (size 15 to 20)
#    0.000    0.857    2.857    4.286    0.000    2.857 
#   12.857    0.000    0.000    0.000    0.000    0.000 
#    0.000    0.000    0.000    0.000    0.000    0.000 
#
# Total GULP energy -78360.953576 kJ/mol
# GULP energy per Si atom -5597.210970 kJ/mol
# Density = 2.598839 g / cm^3
# Si number density = 26.047679 Si / 1000 Ang^3
#
#
#
# Elastic Constant Matrix: (Units=GPa)
#
#
# Indices 1 2 3 4 5 6 
#
# 1 121.9069 34.5272 7.4975 -2.6267 15.3221 8.6319
# 2 34.5272 98.4777 30.6319 -0.2921 15.5367 -8.1149
# 3 7.4975 30.6319 86.9476 0.7022 18.7044 11.8904
# 4 -2.6267 -0.2921 0.7022 43.7528 4.2823 7.6255
# 5 15.3221 15.5367 18.7044 4.2823 39.3770 7.6867
# 6 8.6319 -8.1149 11.8904 7.6255 7.6867 46.0507
#
#
#
# Elastic Compliance Matrix: (Units=1/GPa)
#
#
# Indices 1 2 3 4 5 6 
#
# 1 0.009678 -0.003605 0.001338 0.001238 -0.002614 -0.002564
# 2 -0.003605 0.013661 -0.004578 -0.000629 -0.002685 0.004817
# 3 0.001338 -0.004578 0.014629 0.001028 -0.004959 -0.004177
# 4 0.001238 -0.000629 0.001028 0.023877 -0.002510 -0.004143
# 5 -0.002614 -0.002685 -0.004959 -0.002510 0.030769 -0.003423
# 6 -0.002564 0.004817 -0.004177 -0.004143 -0.003423 0.025381
#
#
# Mechanical properties :
#
#
# Convention : Reuss Voigt Hill
#
# Bulk Modulus (GPa) = 41.18862 50.29394 45.74128
# Shear Modulus (GPa) = 35.77124 41.48113 38.62618
#
# Velocity S-wave (km/s) = 3.70982 3.99495 3.85503
# Velocity P-wave (km/s) = 5.84786 6.37416 6.11667
#
# Compressibility (1/GPa) = 0.02427855
#
# Stress axis : x y z
#
# Youngs Moduli (GPa) = 103.32336 73.19979 68.35960
#
# Poissons Ratio (x) = 0.26387 -0.09148
# Poissons Ratio (y) = 0.37246 0.31296
# Poissons Ratio (z) = -0.13827 0.33512
#
# Static dielectric constant tensor:
#      x y z
#    x 1.982130 -0.116190 0.016010 
#    y -0.116190 2.113590 0.044970 
#    z 0.016010 0.044970 2.049400 
# 
# From -- ./inp_files/216315.got.cif
#   From: 2010.05.17/outbox.cif.g08.bks.cpg/sg2_109_cif.got.tgz:216315.got - 2010.06.03 11:33:40.
