data_PCOD9041611
_publ_section_title
;
Structure prediction by ZEFSAII (Michael W. Deem and Ramdas Pophale) SiO2 
 PCOD9041611
Probable space group: P -1
;
_chemical_formula_sum "Si O2"
_cell_formula_units_Z 14
_cell_length_a 6.773290
_cell_length_b 14.992706
_cell_length_c 14.668020
_cell_angle_alpha 29.028101
_cell_angle_beta 77.312899
_cell_angle_gamma 64.481776
_cell_volume 608.876826
_symmetry_space_group_name_H-M "P -1"
_symmetry_group_IT_number 2
_symmetry_cell_setting 'triclinic'
loop_
_space_group_symop_operation_xyz
x,y,z
-x,-y,-z
loop_
_atom_site_type_symbol
_atom_site_label
_atom_site_fract_x
_atom_site_fract_y
_atom_site_fract_z
Si Si1 0.466706 0.624338 0.227088
Si Si2 0.991834 0.284067 0.700911
Si Si3 0.751180 0.478026 0.819296
Si Si4 0.085385 0.824126 0.765549
Si Si5 0.766643 0.830206 0.036921
Si Si6 0.115293 0.847126 0.352745
Si Si7 0.620512 0.079215 0.488404
O O1 0.366573 0.628825 0.133004
O O2 0.555726 0.788663 0.083446
O O3 0.687502 0.389463 0.430141
O O4 0.263340 0.661857 0.284992
O O5 0.170678 0.154846 0.878694
O O6 0.000000 0.500000 0.500000
O O7 0.028135 0.169879 0.702628
O O8 0.584273 0.729417 0.605031
O O9 0.005751 0.383608 0.833662
O O10 0.795662 0.390070 0.996115
O O11 0.246492 0.819845 0.671024
O O12 0.038183 0.016067 0.668298
O O13 0.827344 0.891840 0.693382
O O14 0.759083 0.023471 0.810462
O O15 0.500000 0.000000 0.500000
#
# Coordination Sequence:
#
# PCOD9041611 Si02
#       7
#     2   2   2   2   2   2   2
#     4  11  23  43  66  95 135 178 218 273 332 386
#     4  11  23  41  64  96 136 178 219 273 331 386
#     4  10  23  44  65  96 135 167 221 273 326 398
#     4  10  24  43  63  94 130 169 216 275 329 388
#     4  10  24  41  65  99 130 177 223 271 330 388
#     4  11  22  43  65  91 134 173 223 273 324 395
#     4  11  24  40  68  98 125 170 218 266 338 397
#
# _framework density 22.993155000000002
#
# number of rings (size 3 to 8) (size 9 to 14) (size 15 to 20)
#    0.000    1.429    2.857    1.286    2.000    3.429 
#    7.714    0.000    0.000    0.000    0.000    0.000 
#    0.000    0.000    0.000    0.000    0.000    0.000 
#
# Total GULP energy -78390.430421 kJ/mol
# GULP energy per Si atom -5599.316459 kJ/mol
# Density = 2.294082 g / cm^3
# Si number density = 22.993155 Si / 1000 Ang^3
#
#
#
# Elastic Constant Matrix: (Units=GPa)
#
#
# Indices 1 2 3 4 5 6 
#
# 1 111.5170 12.3826 25.4410 -3.1084 -5.8835 4.3094
# 2 12.3826 49.3405 0.8433 -7.8981 -1.3573 5.4198
# 3 25.4410 0.8433 72.5709 2.2841 5.7135 -18.6181
# 4 -3.1084 -7.8981 2.2841 37.5146 8.1511 9.3546
# 5 -5.8835 -1.3573 5.7135 8.1511 36.5928 8.7645
# 6 4.3094 5.4198 -18.6181 9.3546 8.7645 17.9184
#
#
#
# Elastic Compliance Matrix: (Units=1/GPa)
#
#
# Indices 1 2 3 4 5 6 
#
# 1 0.012594 0.000242 -0.010300 0.005136 0.007302 -0.020057
# 2 0.000242 0.024521 -0.006808 0.010045 0.005114 -0.022294
# 3 -0.010300 -0.006808 0.033411 -0.014343 -0.017132 0.055120
# 4 0.005136 0.010045 -0.014343 0.039551 0.004720 -0.042134
# 5 0.007302 0.005114 -0.017132 0.004720 0.040732 -0.043492
# 6 -0.020057 -0.022294 0.055120 -0.042134 -0.043492 0.167919
#
#
# Mechanical properties :
#
#
# Convention : Reuss Voigt Hill
#
# Bulk Modulus (GPa) = 27.17934 34.52914 30.85424
# Shear Modulus (GPa) = 13.70900 31.38926 22.54913
#
# Velocity S-wave (km/s) = 2.44441 3.69881 3.13499
# Velocity P-wave (km/s) = 4.45120 5.76986 5.15289
#
# Compressibility (1/GPa) = 0.03679265
#
# Stress axis : x y z
#
# Youngs Moduli (GPa) = 79.40480 40.78219 29.93018
#
# Poissons Ratio (x) = -0.00986 0.30828
# Poissons Ratio (y) = -0.01920 0.20377
# Poissons Ratio (z) = 0.81787 0.27765
#
# Static dielectric constant tensor:
#      x y z
#    x 1.839860 -0.007260 0.011280 
#    y -0.007260 1.866240 0.006770 
#    z 0.011280 0.006770 1.855450 
# 
# From -- ./inp_files/55317.got.cif
#   From: 2010.05.17/outbox.cif.g08.bks.cpg/sg2_28_cif.got.tgz:55317.got - 2010.06.03 11:33:40.
