data_PCOD9041007
_publ_section_title
;
Structure prediction by ZEFSAII (Michael W. Deem and Ramdas Pophale) SiO2 
 PCOD9041007
Probable space group: P -1
;
_chemical_formula_sum "Si O2"
_cell_formula_units_Z 14
_cell_length_a 10.021032
_cell_length_b 5.589835
_cell_length_c 14.710990
_cell_angle_alpha 113.130363
_cell_angle_beta 48.130628
_cell_angle_gamma 96.220413
_cell_volume 549.892897
_symmetry_space_group_name_H-M "P -1"
_symmetry_group_IT_number 2
_symmetry_cell_setting 'triclinic'
loop_
_space_group_symop_operation_xyz
x,y,z
-x,-y,-z
loop_
_atom_site_type_symbol
_atom_site_label
_atom_site_fract_x
_atom_site_fract_y
_atom_site_fract_z
Si Si1 0.244767 0.361423 0.635698
Si Si2 0.242485 0.320458 0.263228
Si Si3 0.351281 0.726046 0.913990
Si Si4 0.041486 0.883327 0.361727
Si Si5 0.591331 0.703935 0.632782
Si Si6 0.972481 0.069335 0.128397
Si Si7 0.362216 0.205233 0.746651
O O1 0.343341 0.436886 0.511819
O O2 0.135646 0.142075 0.619889
O O3 0.386297 0.284274 0.642854
O O4 0.096123 0.619794 0.775804
O O5 0.457026 0.254470 0.124929
O O6 0.142540 0.573669 0.288711
O O7 0.259289 0.407876 0.375082
O O8 0.153580 0.066857 0.282781
O O9 0.406216 0.741824 0.784091
O O10 0.312260 0.431098 0.881062
O O11 0.173361 0.938002 0.056923
O O12 0.000000 0.000000 0.500000
O O13 0.550156 0.014118 0.666556
O O14 0.810630 0.927689 0.209009
O O15 0.000000 0.000000 0.000000
#
# Coordination Sequence:
#
# PCOD9041007 Si02
#       7
#     2   2   2   2   2   2   2
#     4  12  28  40  71 110 144 184 238 300 366 437
#     4  10  24  46  76 102 143 193 246 291 364 420
#     4  10  23  43  73  97 137 191 237 294 357 432
#     4  12  24  47  73 106 148 192 240 301 359 432
#     4  10  23  43  70 104 141 177 240 297 366 421
#     4  12  24  46  64 101 144 191 239 291 367 437
#     4  12  23  42  72 103 147 182 241 297 378 424
#
# _framework density 25.459503000000002
#
# number of rings (size 3 to 8) (size 9 to 14) (size 15 to 20)
#    0.857    0.000    4.286    2.143    2.000    3.429 
#    0.000    1.429    0.000    0.000    0.000    0.000 
#    0.000    0.000    0.000    0.000    0.000    0.000 
#
# Total GULP energy -78107.934401 kJ/mol
# GULP energy per Si atom -5579.138172 kJ/mol
# Density = 2.540156 g / cm^3
# Si number density = 25.459503 Si / 1000 Ang^3
#
#
#
# Elastic Constant Matrix: (Units=GPa)
#
#
# Indices 1 2 3 4 5 6 
#
# 1 45.4900 23.7736 -2.6324 -1.5545 12.9160 -2.6184
# 2 23.7736 94.2215 6.3364 -3.0692 -15.1558 12.4200
# 3 -2.6324 6.3364 59.5184 8.2594 16.9581 -6.7379
# 4 -1.5545 -3.0692 8.2594 35.8368 4.6655 -8.8702
# 5 12.9160 -15.1558 16.9581 4.6655 40.1111 0.8821
# 6 -2.6184 12.4200 -6.7379 -8.8702 0.8821 40.3937
#
#
#
# Elastic Compliance Matrix: (Units=1/GPa)
#
#
# Indices 1 2 3 4 5 6 
#
# 1 0.037678 -0.015109 0.010464 0.003403 -0.022883 0.010080
# 2 -0.015109 0.018548 -0.007855 -0.001420 0.015550 -0.008644
# 3 0.010464 -0.007855 0.023807 -0.001841 -0.016342 0.007017
# 4 0.003403 -0.001420 -0.001841 0.030734 -0.004587 0.007199
# 5 -0.022883 0.015550 -0.016342 -0.004587 0.045859 -0.010999
# 6 0.010080 -0.008644 0.007017 0.007199 -0.010999 0.031059
#
#
# Mechanical properties :
#
#
# Convention : Reuss Voigt Hill
#
# Bulk Modulus (GPa) = 18.17100 28.24277 23.20688
# Shear Modulus (GPa) = 21.64218 34.71848 28.18033
#
# Velocity S-wave (km/s) = 2.91875 3.69680 3.33057
# Velocity P-wave (km/s) = 4.30250 5.41656 4.89135
#
# Compressibility (1/GPa) = 0.05503276
#
# Stress axis : x y z
#
# Youngs Moduli (GPa) = 26.54049 53.91354 42.00482
#
# Poissons Ratio (x) = 0.81459 -0.43953
# Poissons Ratio (y) = 0.40101 0.32994
# Poissons Ratio (z) = -0.27771 0.42348
#
# Static dielectric constant tensor:
#      x y z
#    x 2.042350 -0.053420 -0.040030 
#    y -0.053420 2.337460 -0.046510 
#    z -0.040030 -0.046510 2.004390 
# 
# From -- ./inp_files/592603.got.cif
#   From: 2010.05.17/outbox.cif.g08.bks.cpg/sg2_297_cif.got.tgz:592603.got - 2010.06.03 11:33:40.
