data_PCOD9041161
_publ_section_title
;
Structure prediction by ZEFSAII (Michael W. Deem and Ramdas Pophale) SiO2 
 PCOD9041161
Probable space group: P -1
;
_chemical_formula_sum "Si O2"
_cell_formula_units_Z 16
_cell_length_a 14.644816
_cell_length_b 7.709563
_cell_length_c 9.949267
_cell_angle_alpha 108.047479
_cell_angle_beta 77.544649
_cell_angle_gamma 136.691903
_cell_volume 732.520174
_symmetry_space_group_name_H-M "P -1"
_symmetry_group_IT_number 2
_symmetry_cell_setting 'triclinic'
loop_
_space_group_symop_operation_xyz
x,y,z
-x,-y,-z
loop_
_atom_site_type_symbol
_atom_site_label
_atom_site_fract_x
_atom_site_fract_y
_atom_site_fract_z
Si Si1 0.470620 0.346090 0.259921
Si Si2 0.094054 0.388287 0.997001
Si Si3 0.404067 0.597528 0.507387
Si Si4 0.115736 0.022643 0.512763
Si Si5 0.816547 0.187743 0.758794
Si Si6 0.024226 0.091420 0.220097
Si Si7 0.599812 0.300192 0.995252
Si Si8 0.696666 0.376943 0.699463
O O1 0.479382 0.554943 0.377803
O O2 0.515667 0.270479 0.348258
O O3 0.556170 0.417536 0.119707
O O4 0.316574 0.096364 0.215618
O O5 0.104513 0.612979 0.094202
O O6 0.029290 0.202358 0.103633
O O7 0.249233 0.543174 0.975895
O O8 0.022284 0.181981 0.849860
O O9 0.370056 0.716033 0.447275
O O10 0.263228 0.311257 0.526247
O O11 0.109834 0.840570 0.374899
O O12 0.075527 0.937675 0.659351
O O13 0.000000 0.000000 0.500000
O O14 0.760650 0.278563 0.708147
O O15 0.175679 0.311287 0.276709
O O16 0.604309 0.319750 0.836878
O O17 0.500000 0.000000 0.000000
#
# Coordination Sequence:
#
# PCOD9041161 Si02
#       8
#     2   2   2   2   2   2   2   2
#     4  10  19  37  58  81 116 155 188 231 291 357
#     4   9  18  33  58  84 110 145 193 237 279 343
#     4  10  22  35  56  86 116 151 191 237 291 340
#     4  11  20  36  58  81 117 154 188 232 291 352
#     4   9  20  35  57  86 111 153 190 235 289 337
#     4   9  18  34  55  83 110 152 182 233 285 337
#     4  10  17  33  57  82 109 154 190 232 291 335
#     4  10  20  36  57  88 116 149 192 246 283 338
#
# _framework density 21.842402
#
# number of rings (size 3 to 8) (size 9 to 14) (size 15 to 20)
#    0.000    2.500    3.750    0.750    0.000    3.000 
#    0.000    0.625    0.000    0.000    0.000    0.000 
#    0.000    0.000    0.000    0.000    0.000    0.000 
#
# Total GULP energy -89236.306439 kJ/mol
# GULP energy per Si atom -5577.269152 kJ/mol
# Density = 2.179269 g / cm^3
# Si number density = 21.842402 Si / 1000 Ang^3
#
#
#
# Elastic Constant Matrix: (Units=GPa)
#
#
# Indices 1 2 3 4 5 6 
#
# 1 51.9218 -4.2603 29.1947 -3.8336 -10.5233 4.8312
# 2 -4.2603 72.6018 45.5666 -1.5382 -6.5316 21.5784
# 3 29.1947 45.5666 139.7196 -12.6880 -32.5024 16.3731
# 4 -3.8336 -1.5382 -12.6880 46.4454 4.2391 1.4001
# 5 -10.5233 -6.5316 -32.5024 4.2391 47.1068 -0.2723
# 6 4.8312 21.5784 16.3731 1.4001 -0.2723 14.1094
#
#
#
# Elastic Compliance Matrix: (Units=1/GPa)
#
#
# Indices 1 2 3 4 5 6 
#
# 1 0.026130 0.011425 -0.006113 0.001177 0.002986 -0.019387
# 2 0.011425 0.032723 -0.007175 0.001285 0.001759 -0.045725
# 3 -0.006113 -0.007175 0.012589 0.002188 0.006119 -0.001641
# 4 0.001177 0.001285 0.002188 0.022494 -0.000115 -0.007141
# 5 0.002986 0.001759 0.006119 -0.000115 0.026312 -0.010294
# 6 -0.019387 -0.045725 -0.001641 -0.007141 -0.010294 0.149858
#
#
# Mechanical properties :
#
#
# Convention : Reuss Voigt Hill
#
# Bulk Modulus (GPa) = 14.76723 45.02725 29.89724
# Shear Modulus (GPa) = 16.86884 34.44846 25.65865
#
# Velocity S-wave (km/s) = 2.78204 3.97563 3.43113
# Velocity P-wave (km/s) = 4.13463 6.46015 5.42350
#
# Compressibility (1/GPa) = 0.06771750
#
# Stress axis : x y z
#
# Youngs Moduli (GPa) = 38.26971 30.55924 79.43414
#
# Poissons Ratio (x) = -0.34915 0.48557
# Poissons Ratio (y) = -0.43725 0.56996
# Poissons Ratio (z) = 0.23394 0.21927
#
# Static dielectric constant tensor:
#      x y z
#    x 1.860660 -0.048060 0.030580 
#    y -0.048060 1.838140 0.029860 
#    z 0.030580 0.029860 1.845320 
# 
# From -- ./inp_files/448040.got.cif
#   From: 2010.05.17/outbox.cif.g08.bks.cpg/sg2_225_cif.got.tgz:448040.got - 2010.06.03 11:33:40.
