data_PCOD9041625
_publ_section_title
;
Structure prediction by ZEFSAII (Michael W. Deem and Ramdas Pophale) SiO2 
 PCOD9041625
Probable space group: P -1
;
_chemical_formula_sum "Si O2"
_cell_formula_units_Z 16
_cell_length_a 6.689156
_cell_length_b 20.976206
_cell_length_c 26.204786
_cell_angle_alpha 168.158228
_cell_angle_beta 85.775840
_cell_angle_gamma 95.053981
_cell_volume 750.176444
_symmetry_space_group_name_H-M "P -1"
_symmetry_group_IT_number 2
_symmetry_cell_setting 'triclinic'
loop_
_space_group_symop_operation_xyz
x,y,z
-x,-y,-z
loop_
_atom_site_type_symbol
_atom_site_label
_atom_site_fract_x
_atom_site_fract_y
_atom_site_fract_z
Si Si1 0.192283 0.661228 0.650771
Si Si2 0.970640 0.856905 0.606675
Si Si3 0.428916 0.301162 0.765559
Si Si4 0.305872 0.170865 0.773067
Si Si5 0.412515 0.370715 0.630959
Si Si6 0.694722 0.259476 0.977816
Si Si7 0.248723 0.323761 0.209365
Si Si8 0.484820 0.668175 0.557348
O O1 0.355807 0.741574 0.666317
O O2 0.300277 0.430360 0.505201
O O3 0.000000 0.500000 0.500000
O O4 0.157159 0.977160 0.928637
O O5 0.768222 0.724059 0.478245
O O6 0.084366 0.576030 0.407786
O O7 0.903166 0.104371 0.843139
O O8 0.115373 0.025797 0.693940
O O9 0.278238 0.211885 0.745248
O O10 0.500000 0.000000 0.500000
O O11 0.613288 0.503389 0.947796
O O12 0.340917 0.522486 0.898540
O O13 0.481361 0.933152 0.590269
O O14 0.585615 0.580050 0.761956
O O15 0.325257 0.551283 0.821635
O O16 0.521795 0.972537 0.759965
O O17 0.368572 0.383424 0.306515
#
# Coordination Sequence:
#
# PCOD9041625 Si02
#       8
#     2   2   2   2   2   2   2   2
#     4  11  27  45  70 106 137 177 224 287 338 407
#     4  11  25  41  69 104 133 178 229 282 331 406
#     4  11  22  42  71  94 136 183 223 282 343 397
#     4  10  23  44  65  98 137 176 229 278 341 400
#     4  11  22  43  69  96 135 183 220 284 334 401
#     4  12  23  43  69  97 134 178 229 277 342 401
#     4  11  24  45  73  98 139 181 226 278 343 402
#     4  11  25  46  71  98 138 179 229 280 340 408
#
# _framework density 21.328315
#
# number of rings (size 3 to 8) (size 9 to 14) (size 15 to 20)
#    0.000    1.000    5.000    1.125    3.500    2.000 
#    0.000    1.250    0.000    0.000    0.000    0.000 
#    0.000    0.000    0.000    0.000    0.000    0.000 
#
# Total GULP energy -89523.711173 kJ/mol
# GULP energy per Si atom -5595.231948 kJ/mol
# Density = 2.127977 g / cm^3
# Si number density = 21.328315 Si / 1000 Ang^3
#
#
#
# Elastic Constant Matrix: (Units=GPa)
#
#
# Indices 1 2 3 4 5 6 
#
# 1 93.2158 28.2454 48.0290 -0.4506 -16.5639 -1.1984
# 2 28.2454 79.2305 35.1049 -16.9380 -20.4520 -2.2158
# 3 48.0290 35.1049 141.7232 -23.6493 -10.8015 0.2302
# 4 -0.4506 -16.9380 -23.6493 41.7674 3.7611 -2.9875
# 5 -16.5639 -20.4520 -10.8015 3.7611 30.6793 -9.3346
# 6 -1.1984 -2.2158 0.2302 -2.9875 -9.3346 33.7641
#
#
#
# Elastic Compliance Matrix: (Units=1/GPa)
#
#
# Indices 1 2 3 4 5 6 
#
# 1 0.014908 -0.002591 -0.004634 -0.003908 0.005659 0.001609
# 2 -0.002591 0.018624 -0.001937 0.005769 0.011061 0.004712
# 3 -0.004634 -0.001937 0.009834 0.004806 -0.000982 -0.000205
# 4 -0.003908 0.005769 0.004806 0.029106 0.000771 0.002996
# 5 0.005659 0.011061 -0.000982 0.000771 0.046827 0.013948
# 6 0.001609 0.004712 -0.000205 0.002996 0.013948 0.034106
#
#
# Mechanical properties :
#
#
# Convention : Reuss Voigt Hill
#
# Bulk Modulus (GPa) = 39.93456 59.65867 49.79662
# Shear Modulus (GPa) = 27.76623 34.76150 31.26386
#
# Velocity S-wave (km/s) = 3.61203 4.04149 3.83278
# Velocity P-wave (km/s) = 6.01332 7.05766 6.55632
#
# Compressibility (1/GPa) = 0.02504096
#
# Stress axis : x y z
#
# Youngs Moduli (GPa) = 67.07888 53.69556 101.69199
#
# Poissons Ratio (x) = 0.13914 0.47122
# Poissons Ratio (y) = 0.17382 0.19697
# Poissons Ratio (z) = 0.31083 0.10400
#
# Static dielectric constant tensor:
#      x y z
#    x 1.752200 0.022690 0.001420 
#    y 0.022690 1.781540 0.004020 
#    z 0.001420 0.004020 1.769660 
# 
# From -- ./inp_files/112260.got.cif
#   From: 2010.05.17/outbox.cif.g08.bks.cpg/sg2_57_cif.got.tgz:112260.got - 2010.06.03 11:33:40.
