data_PCOD9041122
_publ_section_title
;
Structure prediction by ZEFSAII (Michael W. Deem and Ramdas Pophale) SiO2 
 PCOD9041122
Probable space group: P -1
;
_chemical_formula_sum "Si O2"
_cell_formula_units_Z 14
_cell_length_a 5.641170
_cell_length_b 25.058790
_cell_length_c 8.501332
_cell_angle_alpha 144.045158
_cell_angle_beta 124.232529
_cell_angle_gamma 62.615379
_cell_volume 583.343283
_symmetry_space_group_name_H-M "P -1"
_symmetry_group_IT_number 2
_symmetry_cell_setting 'triclinic'
loop_
_space_group_symop_operation_xyz
x,y,z
-x,-y,-z
loop_
_atom_site_type_symbol
_atom_site_label
_atom_site_fract_x
_atom_site_fract_y
_atom_site_fract_z
Si Si1 0.840767 0.403861 0.218424
Si Si2 0.347490 0.504224 0.123560
Si Si3 0.901845 0.217724 0.667557
Si Si4 0.278467 0.213317 0.347282
Si Si5 0.243546 0.678804 0.669468
Si Si6 0.604470 0.835614 0.073070
Si Si7 0.917281 0.084979 0.067194
O O1 0.515678 0.428253 0.104615
O O2 0.839182 0.362843 0.294134
O O3 0.000000 0.500000 0.500000
O O4 0.972648 0.324345 0.967052
O O5 0.414335 0.602391 0.456309
O O6 0.500000 0.500000 0.000000
O O7 0.000000 0.500000 0.000000
O O8 0.560499 0.217580 0.567324
O O9 0.935884 0.170529 0.398941
O O10 0.089096 0.157424 0.714241
O O11 0.355261 0.217949 0.203077
O O12 0.040118 0.291245 0.460602
O O13 0.141092 0.114416 0.088732
O O14 0.421902 0.771248 0.966974
O O15 0.395251 0.917394 0.135855
O O16 0.000000 0.000000 0.000000
#
# Coordination Sequence:
#
# PCOD9041122 Si02
#       7
#     2   2   2   2   2   2   2
#     4  12  26  46  70 101 145 196 252 304 364 433
#     4  12  28  43  67 102 143 193 255 312 365 431
#     4  11  24  42  73 102 139 190 238 288 366 430
#     4  10  23  45  73  99 141 183 234 299 364 433
#     4  11  24  46  65  94 145 189 241 302 357 430
#     4  10  23  43  71 101 140 185 235 295 361 439
#     4  10  25  46  73 107 141 179 233 296 367 446
#
# _framework density 23.999593999999998
#
# number of rings (size 3 to 8) (size 9 to 14) (size 15 to 20)
#    0.000    1.143    1.429    3.000   10.000    4.000 
#    0.000    1.429    0.000    0.000    0.000    0.000 
#    0.000    0.000    0.000    0.000    0.000    0.000 
#
# Total GULP energy -78232.260984 kJ/mol
# GULP energy per Si atom -5588.018642 kJ/mol
# Density = 2.394497 g / cm^3
# Si number density = 23.999594 Si / 1000 Ang^3
#
#
#
# Elastic Constant Matrix: (Units=GPa)
#
#
# Indices 1 2 3 4 5 6 
#
# 1 83.8396 64.9587 28.2800 -0.4758 6.4840 -2.6624
# 2 64.9587 221.5482 33.7663 -22.8810 25.2720 -12.1377
# 3 28.2800 33.7663 57.1353 -17.5958 -0.5506 -0.3378
# 4 -0.4758 -22.8810 -17.5958 38.7163 -8.2270 20.0320
# 5 6.4840 25.2720 -0.5506 -8.2270 27.0900 -15.9664
# 6 -2.6624 -12.1377 -0.3378 20.0320 -15.9664 39.6424
#
#
#
# Elastic Compliance Matrix: (Units=1/GPa)
#
#
# Indices 1 2 3 4 5 6 
#
# 1 0.018873 -0.004756 -0.009292 -0.009026 -0.000629 0.004040
# 2 -0.004756 0.006898 -0.000628 0.003771 -0.005552 -0.002354
# 3 -0.009292 -0.000628 0.027636 0.016779 0.004102 -0.007408
# 4 -0.009026 0.003771 0.016779 0.047679 -0.000432 -0.023575
# 5 -0.000629 -0.005552 0.004102 -0.000432 0.054179 0.020333
# 6 0.004040 -0.002354 -0.007408 -0.023575 0.020333 0.044815
#
#
# Mechanical properties :
#
#
# Convention : Reuss Voigt Hill
#
# Bulk Modulus (GPa) = 41.57553 68.50366 55.03960
# Shear Modulus (GPa) = 21.05689 36.79096 28.92392
#
# Velocity S-wave (km/s) = 2.96528 3.91958 3.47534
# Velocity P-wave (km/s) = 5.39304 7.00641 6.25199
#
# Compressibility (1/GPa) = 0.02405261
#
# Stress axis : x y z
#
# Youngs Moduli (GPa) = 52.98586 144.97337 36.18447
#
# Poissons Ratio (x) = 0.68956 0.33624
# Poissons Ratio (y) = 0.25203 0.02273
# Poissons Ratio (z) = 0.49236 0.09109
#
# Static dielectric constant tensor:
#      x y z
#    x 1.990450 -0.012710 0.049630 
#    y -0.012710 1.895560 -0.010000 
#    z 0.049630 -0.010000 2.000160 
# 
# From -- ./inp_files/142741.got.cif
#   From: 2010.05.17/outbox.cif.g08.bks.cpg/sg2_72_cif.got.tgz:142741.got - 2010.06.03 11:33:40.
