data_PCOD9041980
_publ_section_title
;
Structure prediction by ZEFSAII (Michael W. Deem and Ramdas Pophale) SiO2 
 PCOD9041980
Probable space group: P -1
;
_chemical_formula_sum "Si O2"
_cell_formula_units_Z 14
_cell_length_a 21.829708
_cell_length_b 8.827167
_cell_length_c 8.792134
_cell_angle_alpha 52.204173
_cell_angle_beta 64.725559
_cell_angle_gamma 31.257115
_cell_volume 674.957856
_symmetry_space_group_name_H-M "P -1"
_symmetry_group_IT_number 2
_symmetry_cell_setting 'triclinic'
loop_
_space_group_symop_operation_xyz
x,y,z
-x,-y,-z
loop_
_atom_site_type_symbol
_atom_site_label
_atom_site_fract_x
_atom_site_fract_y
_atom_site_fract_z
Si Si1 0.050698 0.455900 0.128828
Si Si2 0.474692 0.840839 0.154088
Si Si3 0.223540 0.745920 0.542345
Si Si4 0.254959 0.243077 0.922556
Si Si5 0.508521 0.795810 0.504866
Si Si6 0.666511 0.114389 0.242491
Si Si7 0.122167 0.174184 0.666981
O O1 0.934766 0.788465 0.147386
O O2 0.118524 0.111097 0.342712
O O3 0.141663 0.415876 0.023379
O O4 0.000000 0.500000 0.000000
O O5 0.464604 0.857754 0.337783
O O6 0.585119 0.474159 0.177810
O O7 0.500000 0.000000 0.000000
O O8 0.355981 0.051205 0.059831
O O9 0.226604 0.506372 0.695077
O O10 0.346716 0.547209 0.466671
O O11 0.205653 0.847331 0.674400
O O12 0.303606 0.972835 0.914366
O O13 0.422519 0.852062 0.650160
O O14 0.500000 0.000000 0.500000
O O15 0.796627 0.834733 0.361636
O O16 0.000000 0.500000 0.500000
#
# Coordination Sequence:
#
# PCOD9041980 Si02
#       7
#     2   2   2   2   2   2   2
#     4  11  25  46  71  99 134 187 238 284 342 405
#     4  12  24  42  69 102 143 177 230 286 349 425
#     4  11  24  48  67  99 148 172 232 294 341 417
#     4  12  25  45  70 106 136 184 232 285 351 414
#     4  12  24  43  68 105 140 181 224 285 357 414
#     4  12  23  43  70  99 143 184 223 289 354 407
#     4  10  23  44  68  96 138 182 234 288 336 404
#
# _framework density 20.742037
#
# number of rings (size 3 to 8) (size 9 to 14) (size 15 to 20)
#    0.000    0.571    5.714    1.714    4.000    2.286 
#    2.571    0.000    0.000    0.000    0.000    0.000 
#    0.000    0.000    0.000    0.000    0.000    0.000 
#
# Total GULP energy -77948.538571 kJ/mol
# GULP energy per Si atom -5567.752755 kJ/mol
# Density = 2.069483 g / cm^3
# Si number density = 20.742037 Si / 1000 Ang^3
#
#
#
# Elastic Constant Matrix: (Units=GPa)
#
#
# Indices 1 2 3 4 5 6 
#
# 1 149.1181 58.7185 24.2632 -7.8308 8.7572 2.3514
# 2 58.7185 135.1236 24.6149 29.6131 0.5253 2.8044
# 3 24.2632 24.6149 48.2883 1.5419 4.6227 5.7755
# 4 -7.8308 29.6131 1.5419 33.5994 0.7895 10.8957
# 5 8.7572 0.5253 4.6227 0.7895 37.5056 9.4202
# 6 2.3514 2.8044 5.7755 10.8957 9.4202 38.7124
#
#
#
# Elastic Compliance Matrix: (Units=1/GPa)
#
#
# Indices 1 2 3 4 5 6 
#
# 1 0.009753 -0.005562 -0.001950 0.007855 -0.001698 -0.001696
# 2 -0.005562 0.013667 -0.004260 -0.014401 0.000982 0.003798
# 3 -0.001950 -0.004260 0.024357 0.003448 -0.001609 -0.003786
# 4 0.007855 -0.014401 0.003448 0.048563 0.000363 -0.013705
# 5 -0.001698 0.000982 -0.001609 0.000363 0.028964 -0.006878
# 6 -0.001696 0.003798 -0.003786 -0.013705 -0.006878 0.031755
#
#
# Mechanical properties :
#
#
# Convention : Reuss Voigt Hill
#
# Bulk Modulus (GPa) = 41.26919 60.85813 51.06366
# Shear Modulus (GPa) = 26.49948 36.95903 31.72926
#
# Velocity S-wave (km/s) = 3.57819 4.22577 3.91539
# Velocity P-wave (km/s) = 6.08366 7.29477 6.71657
#
# Compressibility (1/GPa) = 0.02423115
#
# Stress axis : x y z
#
# Youngs Moduli (GPa) = 102.53522 73.16673 41.05538
#
# Poissons Ratio (x) = 0.40699 0.08007
# Poissons Ratio (y) = 0.57035 0.17491
# Poissons Ratio (z) = 0.19998 0.31172
#
# Static dielectric constant tensor:
#      x y z
#    x 1.696180 0.083840 0.127660 
#    y 0.083840 4.145580 2.720550 
#    z 0.127660 2.720550 4.910090 
# 
# From -- ./inp_files/215958.got.cif
#   From: 2010.05.17/outbox.cif.g08.bks.cpg/sg2_108_cif.got.tgz:215958.got - 2010.06.03 11:33:40.
