data_PCOD9041319
_publ_section_title
;
Structure prediction by ZEFSAII (Michael W. Deem and Ramdas Pophale) SiO2 
 PCOD9041319
Probable space group: P -1
;
_chemical_formula_sum "Si O2"
_cell_formula_units_Z 16
_cell_length_a 26.389597
_cell_length_b 8.540006
_cell_length_c 15.161057
_cell_angle_alpha 33.472730
_cell_angle_beta 160.479759
_cell_angle_gamma 137.593024
_cell_volume 608.110285
_symmetry_space_group_name_H-M "P -1"
_symmetry_group_IT_number 2
_symmetry_cell_setting 'triclinic'
loop_
_space_group_symop_operation_xyz
x,y,z
-x,-y,-z
loop_
_atom_site_type_symbol
_atom_site_label
_atom_site_fract_x
_atom_site_fract_y
_atom_site_fract_z
Si Si1 0.266807 0.340774 0.512827
Si Si2 0.684446 0.643125 0.229951
Si Si3 0.625093 0.753794 0.768525
Si Si4 0.014079 0.157525 0.101573
Si Si5 0.355738 0.970409 0.503278
Si Si6 0.638982 0.526265 0.583308
Si Si7 0.974722 0.354842 0.250242
Si Si8 0.935799 0.491614 0.496100
O O1 0.372395 0.266564 0.805980
O O2 0.162315 0.116551 0.429419
O O3 0.357835 0.369681 0.561212
O O4 0.132600 0.639022 0.180137
O O5 0.714657 0.286435 0.448597
O O6 0.839294 0.755969 0.417157
O O7 0.535541 0.796230 0.857303
O O8 0.521710 0.571616 0.631383
O O9 0.500000 0.000000 0.500000
O O10 0.706133 0.894459 0.756616
O O11 0.750608 0.598240 0.121497
O O12 0.015639 0.833420 0.230645
O O13 0.049592 0.343917 0.989552
O O14 0.352778 0.230498 0.444642
O O15 0.809482 0.284799 0.986961
O O16 0.989333 0.339030 0.387541
O O17 0.000000 0.500000 0.500000
#
# Coordination Sequence:
#
# PCOD9041319 Si02
#       8
#     2   2   2   2   2   2   2   2
#     4   9  20  40  69 101 132 182 224 301 340 404
#     4  10  23  43  73 101 141 180 247 284 356 417
#     4  12  28  50  68  98 153 190 231 288 370 420
#     4   9  21  41  70 100 141 172 241 288 345 407
#     4  11  25  44  68 104 142 191 229 300 352 423
#     4  11  25  44  73 102 144 181 233 291 361 417
#     4  10  23  45  72 108 133 186 235 292 346 414
#     4  12  27  42  73 106 139 189 238 289 351 428
#
# _framework density 26.311017
#
# number of rings (size 3 to 8) (size 9 to 14) (size 15 to 20)
#    0.000    1.500    0.000    3.750   14.000    1.500 
#    0.000    1.250    0.000    0.000    0.000    0.000 
#    0.000    0.000    0.000    0.000    0.000    0.000 
#
# Total GULP energy -89336.082699 kJ/mol
# GULP energy per Si atom -5583.505169 kJ/mol
# Density = 2.625113 g / cm^3
# Si number density = 26.311017 Si / 1000 Ang^3
#
#
#
# Elastic Constant Matrix: (Units=GPa)
#
#
# Indices 1 2 3 4 5 6 
#
# 1 121.8988 -6.8642 6.2610 -0.9302 -12.1661 -9.0948
# 2 -6.8642 45.1168 -0.7195 16.1365 6.5307 1.1930
# 3 6.2610 -0.7195 100.8473 10.8296 0.2470 13.8634
# 4 -0.9302 16.1365 10.8296 47.7474 2.0981 -3.0904
# 5 -12.1661 6.5307 0.2470 2.0981 42.1807 9.4861
# 6 -9.0948 1.1930 13.8634 -3.0904 9.4861 34.0124
#
#
#
# Elastic Compliance Matrix: (Units=1/GPa)
#
#
# Indices 1 2 3 4 5 6 
#
# 1 0.008644 0.000942 -0.000834 0.000093 0.001875 0.002104
# 2 0.000942 0.026020 0.001257 -0.009000 -0.003061 -0.001137
# 3 -0.000834 0.001257 0.011064 -0.003333 0.000862 -0.005320
# 4 0.000093 -0.009000 -0.003333 0.025046 -0.000747 0.004183
# 5 0.001875 -0.003061 0.000862 -0.000747 0.026365 -0.007164
# 6 0.002104 -0.001137 -0.005320 0.004183 -0.007164 0.034550
#
#
# Mechanical properties :
#
#
# Convention : Reuss Voigt Hill
#
# Bulk Modulus (GPa) = 20.63622 29.46863 25.05243
# Shear Modulus (GPa) = 34.45618 42.73381 38.59499
#
# Velocity S-wave (km/s) = 3.62273 4.03448 3.83414
# Velocity P-wave (km/s) = 5.03578 5.73822 5.39844
#
# Compressibility (1/GPa) = 0.04845848
#
# Stress axis : x y z
#
# Youngs Moduli (GPa) = 115.68540 38.43209 90.38459
#
# Poissons Ratio (x) = -0.03619 0.07536
# Poissons Ratio (y) = -0.10893 -0.11366
# Poissons Ratio (z) = 0.09645 -0.04833
#
# Static dielectric constant tensor:
#      x y z
#    x 2.015210 -0.009610 0.058330 
#    y -0.009610 2.239460 -0.016210 
#    z 0.058330 -0.016210 2.127430 
# 
# From -- ./inp_files/543800.got.cif
#   From: 2010.05.17/outbox.cif.g08.bks.cpg/sg2_272_cif.got.tgz:543800.got - 2010.06.03 11:33:40.
