data_PCOD9041064
_publ_section_title
;
Structure prediction by ZEFSAII (Michael W. Deem and Ramdas Pophale) SiO2 
 PCOD9041064
Probable space group: P -1
;
_chemical_formula_sum "Si O2"
_cell_formula_units_Z 16
_cell_length_a 15.728331
_cell_length_b 14.238422
_cell_length_c 5.180111
_cell_angle_alpha 106.199906
_cell_angle_beta 92.418662
_cell_angle_gamma 38.328695
_cell_volume 659.781422
_symmetry_space_group_name_H-M "P -1"
_symmetry_group_IT_number 2
_symmetry_cell_setting 'triclinic'
loop_
_space_group_symop_operation_xyz
x,y,z
-x,-y,-z
loop_
_atom_site_type_symbol
_atom_site_label
_atom_site_fract_x
_atom_site_fract_y
_atom_site_fract_z
Si Si1 0.428953 0.677954 0.749537
Si Si2 0.233508 0.926440 0.283978
Si Si3 0.686246 0.357318 0.694789
Si Si4 0.296087 0.256125 0.680227
Si Si5 0.697804 0.872085 0.907329
Si Si6 0.032982 0.617133 0.758660
Si Si7 0.928412 0.294871 0.657974
Si Si8 0.527575 0.185849 0.451603
O O1 0.537171 0.549856 0.895893
O O2 0.362063 0.643914 0.586525
O O3 0.517141 0.670562 0.575841
O O4 0.289801 0.869626 0.956951
O O5 0.258563 0.790622 0.269022
O O6 0.340221 0.902825 0.419973
O O7 0.074320 0.106536 0.448161
O O8 0.805495 0.328265 0.671712
O O9 0.303812 0.210667 0.936834
O O10 0.132672 0.434507 0.718131
O O11 0.398189 0.254321 0.639030
O O12 0.343256 0.129994 0.381773
O O13 0.589785 0.052867 0.145515
O O14 0.863276 0.754138 0.822693
O O15 0.091508 0.603316 0.483114
O O16 0.054600 0.675200 0.034587
#
# Coordination Sequence:
#
# PCOD9041064 Si02
#       8
#     2   2   2   2   2   2   2   2
#     4  10  23  43  70  96 144 173 228 278 341 397
#     4  11  24  42  69  97 141 180 222 284 332 405
#     4  10  24  43  66 106 131 185 225 278 333 404
#     4  12  27  44  74 100 135 180 228 284 339 412
#     4  12  25  47  69 102 139 174 230 281 346 404
#     4  12  26  47  70 102 137 181 225 284 342 397
#     4  12  26  44  73 100 141 180 231 274 333 411
#     4  11  25  42  67 104 133 180 225 280 343 399
#
# _framework density 24.250454000000001
#
# number of rings (size 3 to 8) (size 9 to 14) (size 15 to 20)
#    0.000    0.750    1.250    5.250    8.750    0.500 
#    0.000    0.000    0.000    0.000    0.000    0.000 
#    0.000    0.000    0.000    0.000    0.000    0.000 
#
# Total GULP energy -89586.743967 kJ/mol
# GULP energy per Si atom -5599.171498 kJ/mol
# Density = 2.419526 g / cm^3
# Si number density = 24.250454 Si / 1000 Ang^3
#
#
#
# Elastic Constant Matrix: (Units=GPa)
#
#
# Indices 1 2 3 4 5 6 
#
# 1 152.0004 14.7618 30.3239 -15.7515 -12.5024 -4.9449
# 2 14.7618 62.0397 -7.8671 4.8677 -3.0174 5.5277
# 3 30.3239 -7.8671 63.7659 -0.5911 8.7019 -9.7886
# 4 -15.7515 4.8677 -0.5911 35.7946 7.6835 0.1093
# 5 -12.5024 -3.0174 8.7019 7.6835 28.7232 -2.0025
# 6 -4.9449 5.5277 -9.7886 0.1093 -2.0025 35.0050
#
#
#
# Elastic Compliance Matrix: (Units=1/GPa)
#
#
# Indices 1 2 3 4 5 6 
#
# 1 0.008481 -0.002723 -0.004816 0.003150 0.004057 0.000504
# 2 -0.002723 0.017668 0.003010 -0.003669 0.000581 -0.002288
# 3 -0.004816 0.003010 0.019960 -0.000627 -0.007380 0.004006
# 4 0.003150 -0.003669 -0.000627 0.031354 -0.007188 0.000340
# 5 0.004057 0.000581 -0.007380 -0.007188 0.040855 0.000777
# 6 0.000504 -0.002288 0.004006 0.000340 0.000777 0.030163
#
#
# Mechanical properties :
#
#
# Convention : Reuss Voigt Hill
#
# Bulk Modulus (GPa) = 26.98956 39.13813 33.06385
# Shear Modulus (GPa) = 29.43081 35.94375 32.68728
#
# Velocity S-wave (km/s) = 3.48748 3.85410 3.67536
# Velocity P-wave (km/s) = 5.23167 5.99830 5.62805
#
# Compressibility (1/GPa) = 0.03705136
#
# Stress axis : x y z
#
# Youngs Moduli (GPa) = 117.91382 56.59804 50.09939
#
# Poissons Ratio (x) = 0.15414 0.24129
# Poissons Ratio (y) = 0.32113 -0.15082
# Poissons Ratio (z) = 0.56789 -0.17038
#
# Static dielectric constant tensor:
#      x y z
#    x 1.894410 0.076670 0.015870 
#    y 0.076670 1.981020 0.016740 
#    z 0.015870 0.016740 1.964580 
# 
# From -- ./inp_files/94312.got.cif
#   From: 2010.05.17/outbox.cif.g08.bks.cpg/sg2_48_cif.got.tgz:94312.got - 2010.06.03 11:33:40.
