data_PCOD9041607
_publ_section_title
;
Structure prediction by ZEFSAII (Michael W. Deem and Ramdas Pophale) SiO2 
 PCOD9041607
Probable space group: P -1
;
_chemical_formula_sum "Si O2"
_cell_formula_units_Z 14
_cell_length_a 14.078362
_cell_length_b 10.716477
_cell_length_c 22.408408
_cell_angle_alpha 145.469609
_cell_angle_beta 158.777015
_cell_angle_gamma 33.065239
_cell_volume 651.988204
_symmetry_space_group_name_H-M "P -1"
_symmetry_group_IT_number 2
_symmetry_cell_setting 'triclinic'
loop_
_space_group_symop_operation_xyz
x,y,z
-x,-y,-z
loop_
_atom_site_type_symbol
_atom_site_label
_atom_site_fract_x
_atom_site_fract_y
_atom_site_fract_z
Si Si1 0.659217 0.594750 0.081768
Si Si2 0.735401 0.584270 0.797297
Si Si3 0.949019 0.968223 0.258187
Si Si4 0.460487 0.052111 0.088620
Si Si5 0.141859 0.790431 0.048699
Si Si6 0.690767 0.505928 0.555590
Si Si7 0.500615 0.010099 0.577307
O O1 0.494015 0.869629 0.088933
O O2 0.982552 0.567842 0.270306
O O3 0.500000 0.500000 0.000000
O O4 0.669169 0.437668 0.966978
O O5 0.416963 0.647144 0.613533
O O6 0.886832 0.308701 0.766001
O O7 0.704717 0.683636 0.885116
O O8 0.899510 0.715449 0.906742
O O9 0.768367 0.014920 0.230373
O O10 0.172938 0.097474 0.436639
O O11 0.714988 0.033089 0.096046
O O12 0.318885 0.853628 0.230552
O O13 0.000000 0.000000 0.000000
O O14 0.500000 0.500000 0.500000
O O15 0.617930 0.757319 0.579293
O O16 0.500000 0.000000 0.500000
#
# Coordination Sequence:
#
# PCOD9041607 Si02
#       7
#     2   2   2   2   2   2   2
#     4  12  25  40  66 103 144 174 237 296 345 412
#     4  11  22  41  72  93 128 184 235 276 345 415
#     4  10  23  44  65  95 140 176 227 282 346 421
#     4  11  23  41  67  96 135 182 227 283 342 419
#     4  12  22  42  69 100 135 189 229 285 354 417
#     4  11  22  45  69  98 139 185 238 284 343 424
#     4  11  24  41  71 105 138 179 236 295 352 414
#
# _framework density 21.472781000000001
#
# number of rings (size 3 to 8) (size 9 to 14) (size 15 to 20)
#    0.000    0.857    4.286    3.000    2.000    2.857 
#    0.000    0.714    0.000    0.000    0.000    0.000 
#    0.000    0.000    0.000    0.000    0.000    0.000 
#
# Total GULP energy -78082.570238 kJ/mol
# GULP energy per Si atom -5577.326446 kJ/mol
# Density = 2.142391 g / cm^3
# Si number density = 21.472781 Si / 1000 Ang^3
#
#
#
# Elastic Constant Matrix: (Units=GPa)
#
#
# Indices 1 2 3 4 5 6 
#
# 1 86.3992 26.1505 39.0210 -2.9234 10.3678 -6.0339
# 2 26.1505 73.2215 12.4211 -2.2579 7.4115 -12.4447
# 3 39.0210 12.4211 157.0661 4.9977 11.0115 4.2135
# 4 -2.9234 -2.2579 4.9977 25.8967 -3.0689 -7.9823
# 5 10.3678 7.4115 11.0115 -3.0689 37.4262 4.6839
# 6 -6.0339 -12.4447 4.2135 -7.9823 4.6839 29.4588
#
#
#
# Elastic Compliance Matrix: (Units=1/GPa)
#
#
# Indices 1 2 3 4 5 6 
#
# 1 0.014877 -0.003897 -0.003375 0.002615 -0.002517 0.002993
# 2 -0.003897 0.016815 -0.000470 0.003149 -0.002814 0.007673
# 3 -0.003375 -0.000470 0.007475 -0.002775 -0.001081 -0.002539
# 4 0.002615 0.003149 -0.002775 0.044203 0.001338 0.014027
# 5 -0.002517 -0.002814 -0.001081 0.001338 0.029130 -0.005819
# 6 0.002993 0.007673 -0.002539 0.014027 -0.005819 0.042889
#
#
# Mechanical properties :
#
#
# Convention : Reuss Voigt Hill
#
# Bulk Modulus (GPa) = 42.22543 52.43023 47.32783
# Shear Modulus (GPa) = 27.96940 34.49595 31.23268
#
# Velocity S-wave (km/s) = 3.61300 4.01246 3.81796
# Velocity P-wave (km/s) = 6.09199 6.77765 6.44395
#
# Compressibility (1/GPa) = 0.02368241
#
# Stress axis : x y z
#
# Youngs Moduli (GPa) = 67.21610 59.47166 133.78618
#
# Poissons Ratio (x) = 0.23175 0.45152
# Poissons Ratio (y) = 0.26193 0.06293
# Poissons Ratio (z) = 0.22685 0.02797
#
# Static dielectric constant tensor:
#      x y z
#    x 1.884520 0.068280 0.002770 
#    y 0.068280 1.905670 0.077700 
#    z 0.002770 0.077700 1.914140 
# 
# From -- ./inp_files/332087.got.cif
#   From: 2010.05.17/outbox.cif.g08.bks.cpg/sg2_167_cif.got.tgz:332087.got - 2010.06.03 11:33:40.
