data_PCOD9041276
_publ_section_title
;
Structure prediction by ZEFSAII (Michael W. Deem and Ramdas Pophale) SiO2 
 PCOD9041276
Probable space group: P -1
;
_chemical_formula_sum "Si O2"
_cell_formula_units_Z 15
_cell_length_a 11.372860
_cell_length_b 11.944370
_cell_length_c 16.066718
_cell_angle_alpha 31.565057
_cell_angle_beta 28.209084
_cell_angle_gamma 43.069710
_cell_volume 538.214951
_symmetry_space_group_name_H-M "P -1"
_symmetry_group_IT_number 2
_symmetry_cell_setting 'triclinic'
loop_
_space_group_symop_operation_xyz
x,y,z
-x,-y,-z
loop_
_atom_site_type_symbol
_atom_site_label
_atom_site_fract_x
_atom_site_fract_y
_atom_site_fract_z
Si Si1 0.014038 0.095723 0.336378
Si Si2 0.291206 0.041710 0.797854
Si Si3 0.131320 0.466329 0.570460
Si Si4 0.077576 0.478210 0.155736
Si Si5 0.349757 0.276696 0.766103
Si Si6 0.500000 0.000000 0.000000
Si Si7 0.640506 0.901151 0.552143
Si Si8 0.339988 0.563517 0.213822
O O1 0.970383 0.337953 0.233582
O O2 0.838573 0.022831 0.413601
O O3 0.284603 0.048961 0.168382
O O4 0.000000 0.000000 0.500000
O O5 0.319630 0.283377 0.586794
O O6 0.403971 0.085399 0.790106
O O7 0.417780 0.861454 0.782740
O O8 0.000000 0.000000 0.000000
O O9 0.273223 0.621346 0.314191
O O10 0.032735 0.570631 0.651087
O O11 0.875014 0.352100 0.762749
O O12 0.947524 0.697061 0.078604
O O13 0.371094 0.434184 0.994915
O O14 0.500000 0.500000 0.500000
O O15 0.408458 0.195615 0.870499
O O16 0.500000 0.000000 0.500000
O O17 0.741885 0.690609 0.585392
#
# Coordination Sequence:
#
# PCOD9041276 Si02
#       8
#     2   2   2   2   2   1   2   2
#     4  12  29  51  77 118 162 209 268 339 402 482
#     4  11  24  44  75 105 152 201 259 322 395 468
#     4  10  23  43  72 108 153 193 254 326 385 462
#     4  11  25  47  76 106 153 206 258 323 399 469
#     4  11  26  50  79 115 158 208 264 333 399 476
#     4  12  30  50  84 116 160 212 270 324 410 480
#     4  12  25  46  73 108 155 202 259 326 400 481
#     4  11  24  43  74 111 145 201 262 314 390 480
#
# _framework density 27.869907999999999
#
# number of rings (size 3 to 8) (size 9 to 14) (size 15 to 20)
#    0.000    0.800    1.333    5.200    3.733    9.067 
#    0.000    0.000    0.000    0.000    0.000    0.000 
#    0.000    0.000    0.000    0.000    0.000    0.000 
#
# Total GULP energy -83634.536293 kJ/mol
# GULP energy per Si atom -5575.635753 kJ/mol
# Density = 2.780647 g / cm^3
# Si number density = 27.869908 Si / 1000 Ang^3
#
#
#
# Elastic Constant Matrix: (Units=GPa)
#
#
# Indices 1 2 3 4 5 6 
#
# 1 219.1868 53.9417 64.9902 9.8107 15.0813 7.2917
# 2 53.9417 112.7779 34.8721 47.9042 7.1343 7.2589
# 3 64.9902 34.8721 135.8730 47.9471 16.3905 0.3386
# 4 9.8107 47.9042 47.9471 62.2858 0.6500 6.2637
# 5 15.0813 7.1343 16.3905 0.6500 50.5695 5.0654
# 6 7.2917 7.2589 0.3386 6.2637 5.0654 65.0891
#
#
#
# Elastic Compliance Matrix: (Units=1/GPa)
#
#
# Indices 1 2 3 4 5 6 
#
# 1 0.006509 -0.004046 -0.003877 0.005147 -0.000105 -0.000745
# 2 -0.004046 0.015875 0.002971 -0.013854 -0.001832 0.000143
# 3 -0.003877 0.002971 0.013039 -0.011820 -0.003482 0.001444
# 4 0.005147 -0.013854 -0.011820 0.035226 0.004066 -0.002676
# 5 -0.000105 -0.001832 -0.003482 0.004066 0.021323 -0.001816
# 6 -0.000745 0.000143 0.001444 -0.002676 -0.001816 0.015822
#
#
# Mechanical properties :
#
#
# Convention : Reuss Voigt Hill
#
# Bulk Modulus (GPa) = 39.18620 86.16062 62.67341
# Shear Modulus (GPa) = 39.61769 56.52448 48.07109
#
# Velocity S-wave (km/s) = 3.77440 4.50839 4.15762
# Velocity P-wave (km/s) = 5.75202 7.62123 6.75162
#
# Compressibility (1/GPa) = 0.02551919
#
# Stress axis : x y z
#
# Youngs Moduli (GPa) = 153.62821 62.99063 76.69102
#
# Poissons Ratio (x) = 0.25488 0.29731
# Poissons Ratio (y) = 0.62163 -0.22782
# Poissons Ratio (z) = 0.59557 -0.18712
#
# Static dielectric constant tensor:
#      x y z
#    x 2.179470 -0.105360 0.012100 
#    y -0.105360 2.018110 -0.061950 
#    z 0.012100 -0.061950 2.359260 
# 
# From -- ./inp_files/518648.got.cif
#   From: 2010.05.17/outbox.cif.g08.bks.cpg/sg2_260_cif.got.tgz:518648.got - 2010.06.03 11:33:40.
