data_PCOD9041873
_publ_section_title
;
Structure prediction by ZEFSAII (Michael W. Deem and Ramdas Pophale) SiO2 
 PCOD9041873
Probable space group: P -1
;
_chemical_formula_sum "Si O2"
_cell_formula_units_Z 14
_cell_length_a 5.858687
_cell_length_b 15.489817
_cell_length_c 23.969611
_cell_angle_alpha 159.549548
_cell_angle_beta 111.382929
_cell_angle_gamma 78.792791
_cell_volume 631.059927
_symmetry_space_group_name_H-M "P -1"
_symmetry_group_IT_number 2
_symmetry_cell_setting 'triclinic'
loop_
_space_group_symop_operation_xyz
x,y,z
-x,-y,-z
loop_
_atom_site_type_symbol
_atom_site_label
_atom_site_fract_x
_atom_site_fract_y
_atom_site_fract_z
Si Si1 0.703642 0.085792 0.704771
Si Si2 0.768701 0.511483 0.059003
Si Si3 0.491256 0.438543 0.556070
Si Si4 0.264963 0.931334 0.485268
Si Si5 0.102351 0.239538 0.301442
Si Si6 0.141255 0.676749 0.930119
Si Si7 0.490193 0.026842 0.080787
O O1 0.963190 0.198554 0.754090
O O2 0.580703 0.781234 0.534793
O O3 0.448439 0.089153 0.650798
O O4 0.811022 0.282248 0.887406
O O5 0.736930 0.416048 0.062261
O O6 0.500000 0.500000 0.000000
O O7 0.217342 0.335356 0.431423
O O8 0.720776 0.499830 0.565779
O O9 0.605047 0.738476 0.775126
O O10 0.136047 0.597228 0.274044
O O11 0.500000 0.000000 0.500000
O O12 0.000000 0.000000 0.500000
O O13 0.788041 0.149485 0.208998
O O14 0.133382 0.960728 0.120310
O O15 0.309942 0.753970 0.934559
O O16 0.500000 0.000000 0.000000
#
# Coordination Sequence:
#
# PCOD9041873 Si02
#       7
#     2   2   2   2   2   2   2
#     4  11  25  42  72 102 141 185 240 302 362 445
#     4  11  24  44  69 105 139 183 241 299 370 435
#     4  10  23  44  68 100 130 180 236 298 357 436
#     4  12  28  48  71 109 153 201 250 300 371 448
#     4  10  23  45  68  96 136 177 239 291 370 423
#     4  11  25  45  70  99 145 189 235 308 365 439
#     4  11  27  42  69 101 137 189 234 301 369 449
#
# _framework density 22.184899000000001
#
# number of rings (size 3 to 8) (size 9 to 14) (size 15 to 20)
#    0.000    1.143    2.857    1.286    8.000    2.286 
#    0.000    0.000    0.000    0.000    0.000    0.000 
#    0.000    0.000    0.000    0.000    0.000    0.000 
#
# Total GULP energy -78086.027429 kJ/mol
# GULP energy per Si atom -5577.573388 kJ/mol
# Density = 2.213441 g / cm^3
# Si number density = 22.184899 Si / 1000 Ang^3
#
#
#
# Elastic Constant Matrix: (Units=GPa)
#
#
# Indices 1 2 3 4 5 6 
#
# 1 78.1949 55.6042 24.0494 17.9387 28.3553 9.2346
# 2 55.6042 116.3260 45.9783 26.5013 19.1518 37.1997
# 3 24.0494 45.9783 96.4536 12.7444 25.1864 17.3518
# 4 17.9387 26.5013 12.7444 46.5475 11.1906 1.8286
# 5 28.3553 19.1518 25.1864 11.1906 44.6411 -3.9376
# 6 9.2346 37.1997 17.3518 1.8286 -3.9376 26.4364
#
#
#
# Elastic Compliance Matrix: (Units=1/GPa)
#
#
# Indices 1 2 3 4 5 6 
#
# 1 0.024245 -0.012570 0.001412 -0.000413 -0.010099 0.006817
# 2 -0.012570 0.029872 -0.002213 -0.009049 -0.004510 -0.036236
# 3 0.001412 -0.002213 0.015073 -0.000918 -0.008975 -0.008546
# 4 -0.000413 -0.009049 -0.000918 0.026850 -0.001057 0.011465
# 5 -0.010099 -0.004510 -0.008975 -0.001057 0.037975 0.021495
# 6 0.006817 -0.036236 -0.008546 0.011465 0.021495 0.094453
#
#
# Mechanical properties :
#
#
# Convention : Reuss Voigt Hill
#
# Bulk Modulus (GPa) = 23.55846 60.24872 41.90359
# Shear Modulus (GPa) = 18.56260 34.54785 26.55523
#
# Velocity S-wave (km/s) = 2.89575 3.95051 3.46352
# Velocity P-wave (km/s) = 4.67148 6.93002 5.90965
#
# Compressibility (1/GPa) = 0.04244760
#
# Stress axis : x y z
#
# Youngs Moduli (GPa) = 41.24580 33.47612 66.34461
#
# Poissons Ratio (x) = 0.42081 -0.09371
# Poissons Ratio (y) = 0.51848 0.14683
# Poissons Ratio (z) = -0.05826 0.07409
#
# Static dielectric constant tensor:
#      x y z
#    x 1.895190 0.020500 -0.045710 
#    y 0.020500 1.817350 0.007530 
#    z -0.045710 0.007530 1.836020 
# 
# From -- ./inp_files/27030.got.cif
#   From: 2010.05.17/outbox.cif.g08.bks.cpg/sg2_14_cif.got.tgz:27030.got - 2010.06.03 11:33:40.
