data_PCOD9041962
_publ_section_title
;
Structure prediction by ZEFSAII (Michael W. Deem and Ramdas Pophale) SiO2 
 PCOD9041962
Probable space group: P -1
;
_chemical_formula_sum "Si O2"
_cell_formula_units_Z 16
_cell_length_a 13.150135
_cell_length_b 9.615256
_cell_length_c 16.149990
_cell_angle_alpha 117.536858
_cell_angle_beta 48.823015
_cell_angle_gamma 146.399506
_cell_volume 832.219203
_symmetry_space_group_name_H-M "P -1"
_symmetry_group_IT_number 2
_symmetry_cell_setting 'triclinic'
loop_
_space_group_symop_operation_xyz
x,y,z
-x,-y,-z
loop_
_atom_site_type_symbol
_atom_site_label
_atom_site_fract_x
_atom_site_fract_y
_atom_site_fract_z
Si Si1 0.780535 0.441127 0.519941
Si Si2 0.158876 0.228925 0.861137
Si Si3 0.437187 0.912733 0.298700
Si Si4 0.986216 0.057108 0.303115
Si Si5 0.031134 0.427879 0.284086
Si Si6 0.889002 0.145989 0.119860
Si Si7 0.751419 0.952050 0.544724
Si Si8 0.349550 0.345549 0.328122
O O1 0.674062 0.257853 0.605050
O O2 0.634281 0.461892 0.591387
O O3 0.832325 0.362644 0.399350
O O4 0.023964 0.735583 0.491376
O O5 0.412722 0.500525 0.781787
O O6 0.043723 0.089423 0.796525
O O7 0.161264 0.066756 0.866625
O O8 0.028908 0.233441 0.987893
O O9 0.262419 0.718074 0.265690
O O10 0.662073 0.028694 0.192903
O O11 0.448872 0.109805 0.360886
O O12 0.009311 0.249081 0.300807
O O13 0.194374 0.211744 0.293289
O O14 0.776770 0.872382 0.426813
O O15 0.018071 0.367040 0.179470
O O16 0.754776 0.854037 0.598683
#
# Coordination Sequence:
#
# PCOD9041962 Si02
#       8
#     2   2   2   2   2   2   2   2
#     4  10  17  33  58  84 110 139 176 223 275 329
#     4  10  22  37  54  81 112 141 193 227 259 323
#     4  11  18  36  58  82 111 144 176 228 276 316
#     4  10  18  34  57  81 112 145 174 224 277 323
#     4  10  18  32  58  84 112 136 179 229 276 318
#     4  10  22  36  55  84 106 143 193 230 260 316
#     4  10  20  34  57  86 115 140 178 218 276 342
#     4  11  21  36  56  83 115 147 173 222 277 325
#
# _framework density 19.225705000000001
#
# number of rings (size 3 to 8) (size 9 to 14) (size 15 to 20)
#    0.000    1.750    5.000    2.250    0.000    3.000 
#    0.000    6.875    0.000    3.750    0.000    0.000 
#    0.000    0.000    0.000    0.000    0.000    0.000 
#
# Total GULP energy -89279.466135 kJ/mol
# GULP energy per Si atom -5579.966633 kJ/mol
# Density = 1.918195 g / cm^3
# Si number density = 19.225705 Si / 1000 Ang^3
#
#
#
# Elastic Constant Matrix: (Units=GPa)
#
#
# Indices 1 2 3 4 5 6 
#
# 1 8.8740 30.3698 17.3341 -13.3182 58.4673 -18.3706
# 2 30.3698 33.1800 58.6235 7.5770 0.6038 11.3841
# 3 17.3341 58.6235 185.5841 4.0327 19.5949 9.6521
# 4 -13.3182 7.5770 4.0327 24.6206 24.9571 -4.5057
# 5 58.4673 0.6038 19.5949 24.9571 -16.1846 15.8837
# 6 -18.3706 11.3841 9.6521 -4.5057 15.8837 19.9759
#
#
#
# Elastic Compliance Matrix: (Units=1/GPa)
#
#
# Indices 1 2 3 4 5 6 
#
# 1 0.009262 -0.004318 -0.000749 -0.009398 0.015137 -0.002816
# 2 -0.004318 0.065572 -0.016996 0.008228 -0.029058 -0.008167
# 3 -0.000749 -0.016996 0.010362 -0.002224 0.005168 -0.000621
# 4 -0.009398 0.008228 -0.002224 0.029718 0.002269 -0.007358
# 5 0.015137 -0.029058 0.005168 0.002269 0.016589 0.015304
# 6 -0.002816 -0.008167 -0.000621 -0.007358 0.015304 0.038596
#
#
# Mechanical properties :
#
#
# Convention : Reuss Voigt Hill
#
# Bulk Modulus (GPa) = 24.34843 48.92142 36.63493
# Shear Modulus (GPa) = 21.93795 13.76976 17.85386
#
# Velocity S-wave (km/s) = 3.38164 2.67913 3.05067
# Velocity P-wave (km/s) = 5.28577 5.92211 5.61296
#
# Compressibility (1/GPa) = 0.04107041
#
# Stress axis : x y z
#
# Youngs Moduli (GPa) = 107.96618 15.25042 96.50623
#
# Poissons Ratio (x) = 0.06586 0.07225
# Poissons Ratio (y) = 0.46623 1.64021
# Poissons Ratio (z) = 0.08083 0.25920
#
# Static dielectric constant tensor:
#      x y z
#    x 1.679910 0.012790 -0.022950 
#    y 0.012790 1.703010 0.023060 
#    z -0.022950 0.023060 1.673340 
# 
# From -- ./inp_files/218616.got.cif
#   From: 2010.05.17/outbox.cif.g08.bks.cpg/sg2_110_cif.got.tgz:218616.got - 2010.06.03 11:33:40.
