data_PCOD9041950
_publ_section_title
;
Structure prediction by ZEFSAII (Michael W. Deem and Ramdas Pophale) SiO2 
 PCOD9041950
Probable space group: P -1
;
_chemical_formula_sum "Si O2"
_cell_formula_units_Z 16
_cell_length_a 9.668794
_cell_length_b 14.019496
_cell_length_c 12.390232
_cell_angle_alpha 61.764808
_cell_angle_beta 67.739004
_cell_angle_gamma 121.675773
_cell_volume 689.852839
_symmetry_space_group_name_H-M "P -1"
_symmetry_group_IT_number 2
_symmetry_cell_setting 'triclinic'
loop_
_space_group_symop_operation_xyz
x,y,z
-x,-y,-z
loop_
_atom_site_type_symbol
_atom_site_label
_atom_site_fract_x
_atom_site_fract_y
_atom_site_fract_z
Si Si1 0.805468 0.711003 0.731356
Si Si2 0.864921 0.165902 0.629667
Si Si3 0.365180 0.033050 0.549688
Si Si4 0.591504 0.378232 0.193350
Si Si5 0.071350 0.777995 0.970425
Si Si6 0.830426 0.383023 0.499319
Si Si7 0.776739 0.593903 0.382712
Si Si8 0.288188 0.681758 0.008572
O O1 0.728674 0.775731 0.659981
O O2 0.900384 0.695096 0.611696
O O3 0.077636 0.872884 0.646182
O O4 0.500000 0.500000 0.000000
O O5 0.699987 0.179604 0.658447
O O6 0.037028 0.268612 0.636881
O O7 0.624016 0.919232 0.819961
O O8 0.500000 0.000000 0.500000
O O9 0.578625 0.264326 0.332283
O O10 0.277376 0.983147 0.727738
O O11 0.766349 0.578869 0.098997
O O12 0.731620 0.426645 0.013428
O O13 0.990873 0.747124 0.134272
O O14 0.198938 0.736618 0.945887
O O15 0.677082 0.404448 0.516872
O O16 0.000000 0.500000 0.500000
O O17 0.070682 0.529950 0.253664
O O18 0.500000 0.500000 0.500000
#
# Coordination Sequence:
#
# PCOD9041950 Si02
#       8
#     2   2   2   2   2   2   2   2
#     4  12  24  42  70 102 138 178 223 291 342 398
#     4  11  23  45  69  96 133 175 231 277 332 409
#     4  12  25  42  66 101 135 179 226 273 339 413
#     4  12  24  42  67  99 142 172 226 275 349 394
#     4  11  24  42  66  99 136 182 217 280 339 407
#     4   9  22  41  67  94 125 175 222 274 332 399
#     4  10  23  44  68  94 131 177 224 277 337 395
#     4  11  23  40  69  99 133 176 226 277 338 405
#
# _framework density 23.193352999999998
#
# number of rings (size 3 to 8) (size 9 to 14) (size 15 to 20)
#    0.000    1.000    3.750    2.250    0.000    7.500 
#    0.000    1.250    0.000   10.500    0.000    0.000 
#    0.000    0.000    0.000    0.000    0.000    0.000 
#
# Total GULP energy -89445.468606 kJ/mol
# GULP energy per Si atom -5590.341788 kJ/mol
# Density = 2.314056 g / cm^3
# Si number density = 23.193353 Si / 1000 Ang^3
#
#
#
# Elastic Constant Matrix: (Units=GPa)
#
#
# Indices 1 2 3 4 5 6 
#
# 1 144.2440 17.9499 28.5363 13.0586 -5.6240 9.5022
# 2 17.9499 95.6886 35.9793 20.4648 5.3315 32.6459
# 3 28.5363 35.9793 60.5851 17.3276 9.1059 8.0195
# 4 13.0586 20.4648 17.3276 45.6584 5.7084 3.8029
# 5 -5.6240 5.3315 9.1059 5.7084 41.6146 0.6952
# 6 9.5022 32.6459 8.0195 3.8029 0.6952 39.8912
#
#
#
# Elastic Compliance Matrix: (Units=1/GPa)
#
#
# Indices 1 2 3 4 5 6 
#
# 1 0.007907 0.000644 -0.003859 -0.001209 0.002022 -0.001555
# 2 0.000644 0.019187 -0.008682 -0.004393 0.000360 -0.013698
# 3 -0.003859 -0.008682 0.024866 -0.004191 -0.004334 0.003501
# 4 -0.001209 -0.004393 -0.004191 0.025900 -0.002275 0.002296
# 5 0.002022 0.000360 -0.004334 -0.002275 0.025520 -0.000133
# 6 -0.001555 -0.013698 0.003501 0.002296 -0.000133 0.035728
#
#
# Mechanical properties :
#
#
# Convention : Reuss Voigt Hill
#
# Bulk Modulus (GPa) = 35.50466 51.71653 43.61060
# Shear Modulus (GPa) = 29.02058 39.96964 34.49511
#
# Velocity S-wave (km/s) = 3.54113 4.15580 3.86072
# Velocity P-wave (km/s) = 5.66223 6.73602 6.22233
#
# Compressibility (1/GPa) = 0.02816531
#
# Stress axis : x y z
#
# Youngs Moduli (GPa) = 126.47494 52.11831 40.21503
#
# Poissons Ratio (x) = -0.03357 0.15519
# Poissons Ratio (y) = -0.08147 0.34917
# Poissons Ratio (z) = 0.48808 0.45252
#
# Static dielectric constant tensor:
#      x y z
#    x 1.908730 -0.013470 0.021290 
#    y -0.013470 1.912300 -0.064850 
#    z 0.021290 -0.064850 1.894780 
# 
# From -- ./inp_files/398774.got.cif
#   From: 2010.05.17/outbox.cif.g08.bks.cpg/sg2_200_cif.got.tgz:398774.got - 2010.06.03 11:33:40.
