data_PCOD9041142
_publ_section_title
;
Structure prediction by ZEFSAII (Michael W. Deem and Ramdas Pophale) SiO2 
 PCOD9041142
Probable space group: P -1
;
_chemical_formula_sum "Si O2"
_cell_formula_units_Z 14
_cell_length_a 8.040900
_cell_length_b 9.135332
_cell_length_c 9.305924
_cell_angle_alpha 113.432033
_cell_angle_beta 95.277999
_cell_angle_gamma 99.824207
_cell_volume 608.272768
_symmetry_space_group_name_H-M "P -1"
_symmetry_group_IT_number 2
_symmetry_cell_setting 'triclinic'
loop_
_space_group_symop_operation_xyz
x,y,z
-x,-y,-z
loop_
_atom_site_type_symbol
_atom_site_label
_atom_site_fract_x
_atom_site_fract_y
_atom_site_fract_z
Si Si1 0.831568 0.301281 0.535075
Si Si2 0.856427 0.860949 0.030483
Si Si3 0.106444 0.962513 0.355967
Si Si4 0.972699 0.325539 0.260017
Si Si5 0.459514 0.171954 0.513035
Si Si6 0.471010 0.311297 0.878127
Si Si7 0.328008 0.871379 0.987941
O O1 0.842426 0.200004 0.640316
O O2 0.931535 0.247966 0.385544
O O3 0.626342 0.265536 0.474608
O O4 0.927539 0.487755 0.639722
O O5 0.911343 0.745116 0.870964
O O6 0.005098 0.083821 0.811670
O O7 0.692392 0.772807 0.074123
O O8 0.804071 0.011420 0.002744
O O9 0.274687 0.108362 0.399770
O O10 0.000000 0.000000 0.500000
O O11 0.778479 0.289608 0.167505
O O12 0.440776 0.278290 0.693769
O O13 0.500000 0.000000 0.500000
O O14 0.500000 0.500000 0.000000
O O15 0.615150 0.211857 0.898065
O O16 0.500000 0.000000 0.000000
#
# Coordination Sequence:
#
# PCOD9041142 Si02
#       7
#     2   2   2   2   2   2   2
#     4  10  25  44  66 102 145 194 234 292 364 421
#     4  11  24  44  71 107 137 186 239 292 362 423
#     4  11  22  41  74 103 137 183 243 298 350 432
#     4  11  24  44  69 101 150 184 238 295 359 426
#     4  10  23  43  71 102 142 187 240 291 358 425
#     4  11  24  45  73 106 140 183 243 301 358 421
#     4  10  25  42  69  99 143 183 230 297 354 427
#
# _framework density 23.015989000000001
#
# number of rings (size 3 to 8) (size 9 to 14) (size 15 to 20)
#    0.000    1.429    1.429    2.143   12.000    0.571 
#    0.000    0.000    0.000    8.571    0.000    0.000 
#    0.000    0.000    0.000    0.000    0.000    0.000 
#
# Total GULP energy -78096.615445 kJ/mol
# GULP energy per Si atom -5578.329675 kJ/mol
# Density = 2.296360 g / cm^3
# Si number density = 23.015989 Si / 1000 Ang^3
#
#
#
# Elastic Constant Matrix: (Units=GPa)
#
#
# Indices 1 2 3 4 5 6 
#
# 1 120.1992 51.8078 79.8346 -8.9054 11.6375 21.3112
# 2 51.8078 96.6086 52.8242 -1.3295 13.7102 28.2522
# 3 79.8346 52.8242 156.9676 -3.0415 -7.6353 0.7594
# 4 -8.9054 -1.3295 -3.0415 32.0088 7.7639 4.5485
# 5 11.6375 13.7102 -7.6353 7.7639 48.1518 -3.4989
# 6 21.3112 28.2522 0.7594 4.5485 -3.4989 43.9571
#
#
#
# Elastic Compliance Matrix: (Units=1/GPa)
#
#
# Indices 1 2 3 4 5 6 
#
# 1 0.017179 -0.000763 -0.008647 0.006916 -0.007072 -0.008967
# 2 -0.000763 0.019088 -0.006280 0.003686 -0.007770 -0.012789
# 3 -0.008647 -0.006280 0.013108 -0.004487 0.007338 0.009050
# 4 0.006916 0.003686 -0.004487 0.036803 -0.010112 -0.010257
# 5 -0.007072 -0.007770 0.007338 -0.010112 0.028326 0.011597
# 6 -0.008967 -0.012789 0.009050 -0.010257 0.011597 0.037145
#
#
# Mechanical properties :
#
#
# Convention : Reuss Voigt Hill
#
# Bulk Modulus (GPa) = 55.57325 82.52319 69.04822
# Shear Modulus (GPa) = 26.45136 37.44412 31.94774
#
# Velocity S-wave (km/s) = 3.39375 4.03783 3.72972
# Velocity P-wave (km/s) = 6.28925 7.59416 6.97230
#
# Compressibility (1/GPa) = 0.01799427
#
# Stress axis : x y z
#
# Youngs Moduli (GPa) = 58.21203 52.38995 76.28769
#
# Poissons Ratio (x) = 0.03997 0.65966
# Poissons Ratio (y) = 0.04442 0.47910
# Poissons Ratio (z) = 0.50336 0.32902
#
# Static dielectric constant tensor:
#      x y z
#    x 1.973420 -0.010730 -0.024080 
#    y -0.010730 1.889340 0.039940 
#    z -0.024080 0.039940 1.926300 
# 
# From -- ./inp_files/159765.got.cif
#   From: 2010.05.17/outbox.cif.g08.bks.cpg/sg2_80_cif.got.tgz:159765.got - 2010.06.03 11:33:40.
