data_PCOD9041102
_publ_section_title
;
Structure prediction by ZEFSAII (Michael W. Deem and Ramdas Pophale) SiO2 
 PCOD9041102
Probable space group: P -1
;
_chemical_formula_sum "Si O2"
_cell_formula_units_Z 14
_cell_length_a 12.885533
_cell_length_b 18.605762
_cell_length_c 12.460788
_cell_angle_alpha 146.012400
_cell_angle_beta 147.752792
_cell_angle_gamma 22.675712
_cell_volume 596.983481
_symmetry_space_group_name_H-M "P -1"
_symmetry_group_IT_number 2
_symmetry_cell_setting 'triclinic'
loop_
_space_group_symop_operation_xyz
x,y,z
-x,-y,-z
loop_
_atom_site_type_symbol
_atom_site_label
_atom_site_fract_x
_atom_site_fract_y
_atom_site_fract_z
Si Si1 0.146888 0.900286 0.751882
Si Si2 0.840164 0.278682 0.659918
Si Si3 0.129780 0.422775 0.636350
Si Si4 0.198089 0.207847 0.067668
Si Si5 0.198930 0.657222 0.657124
Si Si6 0.318508 0.712050 0.061559
Si Si7 0.329652 0.206046 0.959895
O O1 0.129248 0.854266 0.558985
O O2 0.070160 0.818780 0.659291
O O3 0.481708 0.780315 0.917543
O O4 0.943254 0.118256 0.879462
O O5 0.513123 0.462671 0.641614
O O6 0.036057 0.182209 0.819648
O O7 0.002937 0.320059 0.791613
O O8 0.028592 0.600050 0.828054
O O9 0.998633 0.367341 0.516228
O O10 0.000000 0.500000 0.500000
O O11 0.472646 0.266546 0.733946
O O12 0.321762 0.240931 0.123589
O O13 0.457476 0.023511 0.136476
O O14 0.229177 0.718344 0.871470
O O15 0.500000 0.500000 0.000000
#
# Coordination Sequence:
#
# PCOD9041102 Si02
#       7
#     2   2   2   2   2   2   2
#     4  12  27  42  71 106 138 181 229 280 346 417
#     4  10  23  43  70  99 140 182 226 274 350 404
#     4  12  25  42  72  95 136 182 234 282 337 408
#     4   9  20  43  65 104 133 176 230 291 328 394
#     4  12  27  46  67 104 143 181 227 282 347 405
#     4  12  26  48  72 100 133 186 232 283 341 403
#     4   9  21  40  68  97 141 167 230 285 336 393
#
# _framework density 23.451232999999998
#
# number of rings (size 3 to 8) (size 9 to 14) (size 15 to 20)
#    0.857    0.286    2.857    2.571    2.000    2.857 
#    0.000    0.000    0.000    0.000    0.000    0.000 
#    0.000    0.000    0.000    0.000    0.000    0.000 
#
# Total GULP energy -78132.111199 kJ/mol
# GULP energy per Si atom -5580.865086 kJ/mol
# Density = 2.339786 g / cm^3
# Si number density = 23.451233 Si / 1000 Ang^3
#
#
#
# Elastic Constant Matrix: (Units=GPa)
#
#
# Indices 1 2 3 4 5 6 
#
# 1 136.5247 38.9347 58.6162 12.3701 23.4670 -19.1070
# 2 38.9347 89.0872 32.5012 16.1485 3.1697 -27.6399
# 3 58.6162 32.5012 125.1173 8.0894 -3.0607 -14.3470
# 4 12.3701 16.1485 8.0894 21.3131 -13.2606 3.7535
# 5 23.4670 3.1697 -3.0607 -13.2606 58.3915 -4.0590
# 6 -19.1070 -27.6399 -14.3470 3.7535 -4.0590 46.1880
#
#
#
# Elastic Compliance Matrix: (Units=1/GPa)
#
#
# Indices 1 2 3 4 5 6 
#
# 1 0.012050 -0.000451 -0.004667 -0.009886 -0.007068 0.003448
# 2 -0.000451 0.019442 -0.002406 -0.018339 -0.004344 0.011810
# 3 -0.004667 -0.002406 0.010730 0.002388 0.003114 0.000042
# 4 -0.009886 -0.018339 0.002388 0.083092 0.022637 -0.019086
# 5 -0.007068 -0.004344 0.003114 0.022637 0.025216 -0.004180
# 6 0.003448 0.011810 0.000042 -0.019086 -0.004180 0.031341
#
#
# Mechanical properties :
#
#
# Convention : Reuss Voigt Hill
#
# Bulk Modulus (GPa) = 36.79592 67.87036 52.33314
# Shear Modulus (GPa) = 24.27460 39.89032 32.08246
#
# Velocity S-wave (km/s) = 3.22080 4.12878 3.70273
# Velocity P-wave (km/s) = 5.43653 7.19257 6.37530
#
# Compressibility (1/GPa) = 0.02717693
#
# Stress axis : x y z
#
# Youngs Moduli (GPa) = 82.98701 51.43387 93.19387
#
# Poissons Ratio (x) = 0.02318 0.43490
# Poissons Ratio (y) = 0.03739 0.22420
# Poissons Ratio (z) = 0.38727 0.12374
#
# Static dielectric constant tensor:
#      x y z
#    x 1.924760 0.040190 0.039650 
#    y 0.040190 1.877010 0.000850 
#    z 0.039650 0.000850 1.881980 
# 
# From -- ./inp_files/436091.got.cif
#   From: 2010.05.17/outbox.cif.g08.bks.cpg/sg2_219_cif.got.tgz:436091.got - 2010.06.03 11:33:40.
