data_PCOD9041717
_publ_section_title
;
Structure prediction by ZEFSAII (Michael W. Deem and Ramdas Pophale) SiO2 
 PCOD9041717
Probable space group: P -1
;
_chemical_formula_sum "Si O2"
_cell_formula_units_Z 16
_cell_length_a 12.826796
_cell_length_b 9.978073
_cell_length_c 20.311412
_cell_angle_alpha 28.008975
_cell_angle_beta 134.728513
_cell_angle_gamma 135.099384
_cell_volume 837.297172
_symmetry_space_group_name_H-M "P -1"
_symmetry_group_IT_number 2
_symmetry_cell_setting 'triclinic'
loop_
_space_group_symop_operation_xyz
x,y,z
-x,-y,-z
loop_
_atom_site_type_symbol
_atom_site_label
_atom_site_fract_x
_atom_site_fract_y
_atom_site_fract_z
Si Si1 0.398448 0.594708 0.357579
Si Si2 0.587735 0.454973 0.384289
Si Si3 0.596808 0.738318 0.889940
Si Si4 0.937941 0.720469 0.048125
Si Si5 0.401913 0.204189 0.284109
Si Si6 0.060865 0.169948 0.385231
Si Si7 0.064583 0.233810 0.618836
Si Si8 0.952051 0.786215 0.876725
O O1 0.500000 0.500000 0.500000
O O2 0.484619 0.585309 0.331343
O O3 0.237081 0.350061 0.391049
O O4 0.382998 0.923733 0.223547
O O5 0.508113 0.399327 0.301830
O O6 0.759166 0.654726 0.370423
O O7 0.597374 0.134862 0.554435
O O8 0.539492 0.718146 0.797738
O O9 0.500000 0.500000 0.000000
O O10 0.758401 0.666393 0.989394
O O11 0.979431 0.427791 0.218982
O O12 0.996915 0.820358 0.958040
O O13 0.000000 0.000000 0.000000
O O14 0.227988 0.229533 0.201974
O O15 0.000000 0.000000 0.500000
O O16 0.027441 0.940270 0.408923
O O17 0.000000 0.500000 0.500000
O O18 0.041783 0.029123 0.761227
O O19 0.000000 0.500000 0.000000
#
# Coordination Sequence:
#
# PCOD9041717 Si02
#       8
#     2   2   2   2   2   2   2   2
#     4  12  25  45  70 100 141 181 220 285 346 403
#     4  11  24  41  71 100 135 172 229 283 340 396
#     4  11  26  44  70  99 139 181 225 275 346 414
#     4  11  25  45  69  97 137 184 226 284 344 404
#     4  10  23  44  66  98 136 175 221 284 341 398
#     4  12  28  45  72 104 138 180 239 284 338 416
#     4  12  26  44  70 101 133 182 236 279 334 412
#     4  11  23  44  68  93 138 178 224 279 345 405
#
# _framework density 19.109107000000002
#
# number of rings (size 3 to 8) (size 9 to 14) (size 15 to 20)
#    0.000    0.750    5.000    1.500    7.000    1.000 
#    0.000    1.250    0.000    0.000    0.000    0.000 
#    0.000    0.000    0.000    0.000    0.000    0.000 
#
# Total GULP energy -89403.508837 kJ/mol
# GULP energy per Si atom -5587.719302 kJ/mol
# Density = 1.906561 g / cm^3
# Si number density = 19.109107 Si / 1000 Ang^3
#
#
#
# Elastic Constant Matrix: (Units=GPa)
#
#
# Indices 1 2 3 4 5 6 
#
# 1 143.5690 74.0874 62.4066 2.4491 -24.2467 -12.8818
# 2 74.0874 145.1149 64.5003 7.8824 -16.5386 -18.9827
# 3 62.4066 64.5003 137.8540 3.2496 -13.1623 -12.6040
# 4 2.4491 7.8824 3.2496 29.8738 -3.9003 -1.7171
# 5 -24.2467 -16.5386 -13.1623 -3.9003 50.2892 -0.7361
# 6 -12.8818 -18.9827 -12.6040 -1.7171 -0.7361 42.2659
#
#
#
# Elastic Compliance Matrix: (Units=1/GPa)
#
#
# Indices 1 2 3 4 5 6 
#
# 1 0.010737 -0.003851 -0.002690 0.000906 0.003289 0.000835
# 2 -0.003851 0.010691 -0.002890 -0.001932 0.000792 0.002701
# 3 -0.002690 -0.002890 0.009937 -0.000001 0.000366 0.000852
# 4 0.000906 -0.001932 -0.000001 0.034281 0.002472 0.000844
# 5 0.003289 0.000792 0.000366 0.002472 0.022047 0.001952
# 6 0.000835 0.002701 0.000852 0.000844 0.001952 0.025449
#
#
# Mechanical properties :
#
#
# Convention : Reuss Voigt Hill
#
# Bulk Modulus (GPa) = 79.99006 92.05849 86.02427
# Shear Modulus (GPa) = 36.71846 39.52205 38.12025
#
# Velocity S-wave (km/s) = 4.38827 4.55271 4.47125
# Velocity P-wave (km/s) = 8.22353 8.71298 8.47179
#
# Compressibility (1/GPa) = 0.01250155
#
# Stress axis : x y z
#
# Youngs Moduli (GPa) = 93.13897 93.54018 100.63582
#
# Poissons Ratio (x) = 0.36025 0.27067
# Poissons Ratio (y) = 0.35871 0.29088
# Poissons Ratio (z) = 0.25050 0.27037
#
# Static dielectric constant tensor:
#      x y z
#    x 1.647050 0.007830 -0.000280 
#    y 0.007830 1.646150 0.020920 
#    z -0.000280 0.020920 1.631550 
# 
# From -- ./inp_files/186775.got.cif
#   From: 2010.05.17/outbox.cif.g08.bks.cpg/sg2_94_cif.got.tgz:186775.got - 2010.06.03 11:33:40.
