data_PCOD9041793
_publ_section_title
;
Structure prediction by ZEFSAII (Michael W. Deem and Ramdas Pophale) SiO2 
 PCOD9041793
Probable space group: P -1
;
_chemical_formula_sum "Si O2"
_cell_formula_units_Z 14
_cell_length_a 8.309504
_cell_length_b 10.326862
_cell_length_c 7.593146
_cell_angle_alpha 82.293120
_cell_angle_beta 53.062103
_cell_angle_gamma 85.102741
_cell_volume 516.082933
_symmetry_space_group_name_H-M "P -1"
_symmetry_group_IT_number 2
_symmetry_cell_setting 'triclinic'
loop_
_space_group_symop_operation_xyz
x,y,z
-x,-y,-z
loop_
_atom_site_type_symbol
_atom_site_label
_atom_site_fract_x
_atom_site_fract_y
_atom_site_fract_z
Si Si1 0.301937 0.258794 0.947508
Si Si2 0.154318 0.130628 0.536241
Si Si3 0.211006 0.462196 0.673556
Si Si4 0.349145 0.386517 0.249263
Si Si5 0.788891 0.352403 0.029000
Si Si6 0.276677 0.873754 0.330942
Si Si7 0.117937 0.882288 0.802324
O O1 0.253423 0.351264 0.131092
O O2 0.109303 0.165919 0.068576
O O3 0.315888 0.350983 0.748848
O O4 0.508386 0.179465 0.859028
O O5 0.294748 0.254855 0.420941
O O6 0.926823 0.168635 0.625849
O O7 0.244553 0.030874 0.346892
O O8 0.142189 0.037915 0.733987
O O9 0.293864 0.490910 0.418542
O O10 0.205783 0.582342 0.791357
O O11 0.988570 0.405626 0.799925
O O12 0.586311 0.392906 0.060445
O O13 0.795733 0.196567 0.076596
O O14 0.247875 0.833021 0.559519
#
# Coordination Sequence:
#
# PCOD9041793 Si02
#       7
#     2   2   2   2   2   2   2
#     4  11  22  39  71  90 127 171 207 247 336 354
#     4   9  20  37  62  94 134 155 214 252 309 379
#     4  10  25  47  60  96 127 162 214 270 297 388
#     4  12  23  39  67 100 119 167 214 259 306 384
#     4  10  23  44  67  83 133 169 205 261 329 343
#     4   9  18  38  59  93 133 163 197 265 299 384
#     4   9  19  41  60  93 127 171 197 257 313 373
#
# _framework density 27.127424000000001
#
# number of rings (size 3 to 8) (size 9 to 14) (size 15 to 20)
#    0.857    1.143    1.429    1.286    2.000    3.429 
#    0.000    7.857    0.000    0.000    0.000    0.000 
#    0.000    0.000    0.000    0.000    0.000    0.000 
#
# Total GULP energy -78321.842274 kJ/mol
# GULP energy per Si atom -5594.417305 kJ/mol
# Density = 2.706568 g / cm^3
# Si number density = 27.127424 Si / 1000 Ang^3
#
#
#
# Elastic Constant Matrix: (Units=GPa)
#
#
# Indices 1 2 3 4 5 6 
#
# 1 75.3026 1.5236 46.4122 9.5350 -2.3775 -10.1680
# 2 1.5236 63.5368 7.2213 -1.8737 1.3765 -2.6783
# 3 46.4122 7.2213 122.2558 30.9825 10.2041 -1.4768
# 4 9.5350 -1.8737 30.9825 38.1956 8.0153 3.0483
# 5 -2.3775 1.3765 10.2041 8.0153 58.3849 9.6465
# 6 -10.1680 -2.6783 -1.4768 3.0483 9.6465 51.4985
#
#
#
# Elastic Compliance Matrix: (Units=1/GPa)
#
#
# Indices 1 2 3 4 5 6 
#
# 1 0.018038 0.000505 -0.007155 0.000795 0.001355 0.003082
# 2 0.000505 0.016013 -0.001588 0.001983 -0.000494 0.000862
# 3 -0.007155 -0.001588 0.013325 -0.008796 -0.001318 -0.000346
# 4 0.000795 0.001983 -0.008796 0.033939 -0.002895 -0.001459
# 5 0.001355 -0.000494 -0.001318 -0.002895 0.018328 -0.003058
# 6 0.003082 0.000862 -0.000346 -0.001459 -0.003058 0.020720
#
#
# Mechanical properties :
#
#
# Convention : Reuss Voigt Hill
#
# Bulk Modulus (GPa) = 32.36452 41.26770 36.81611
# Shear Modulus (GPa) = 33.98177 43.34500 38.66338
#
# Velocity S-wave (km/s) = 3.54315 4.00162 3.77935
# Velocity P-wave (km/s) = 5.35677 6.04948 5.71363
#
# Compressibility (1/GPa) = 0.03089803
#
# Stress axis : x y z
#
# Youngs Moduli (GPa) = 55.43983 62.44991 75.04958
#
# Poissons Ratio (x) = -0.03152 0.53697
# Poissons Ratio (y) = -0.02798 0.11920
# Poissons Ratio (z) = 0.39667 0.09918
#
# Static dielectric constant tensor:
#      x y z
#    x 2.023900 -0.039760 0.031440 
#    y -0.039760 2.177290 0.016810 
#    z 0.031440 0.016810 2.106710 
# 
# From -- ./inp_files/187271.got.cif
#   From: 2010.05.17/outbox.cif.g08.bks.cpg/sg2_94_cif.got.tgz:187271.got - 2010.06.03 11:33:40.
