data_PCOD9041487
_publ_section_title
;
Structure prediction by ZEFSAII (Michael W. Deem and Ramdas Pophale) SiO2 
 PCOD9041487
Probable space group: P -1
;
_chemical_formula_sum "Si O2"
_cell_formula_units_Z 16
_cell_length_a 6.897027
_cell_length_b 8.686926
_cell_length_c 17.938222
_cell_angle_alpha 60.533000
_cell_angle_beta 60.284478
_cell_angle_gamma 55.145506
_cell_volume 732.411883
_symmetry_space_group_name_H-M "P -1"
_symmetry_group_IT_number 2
_symmetry_cell_setting 'triclinic'
loop_
_space_group_symop_operation_xyz
x,y,z
-x,-y,-z
loop_
_atom_site_type_symbol
_atom_site_label
_atom_site_fract_x
_atom_site_fract_y
_atom_site_fract_z
Si Si1 0.954248 0.371886 0.239334
Si Si2 0.954132 0.285058 0.627962
Si Si3 0.615196 0.730338 0.023045
Si Si4 0.521247 0.224984 0.795216
Si Si5 0.879149 0.273221 0.112446
Si Si6 0.636805 0.609603 0.491515
Si Si7 0.856218 0.083346 0.430810
Si Si8 0.493911 0.164103 0.147255
O O1 0.734172 0.590824 0.224629
O O2 0.913963 0.274048 0.194100
O O3 0.925951 0.249793 0.342803
O O4 0.238602 0.339389 0.184919
O O5 0.759598 0.263424 0.725456
O O6 0.788122 0.463127 0.562961
O O7 0.170867 0.337433 0.604641
O O8 0.074692 0.091059 0.599989
O O9 0.486791 0.809876 0.106830
O O10 0.709279 0.496333 0.066285
O O11 0.478815 0.799487 0.954204
O O12 0.857609 0.772193 0.963009
O O13 0.541920 0.033629 0.793430
O O14 0.735988 0.148075 0.146566
O O15 0.500000 0.500000 0.500000
O O16 0.431491 0.806088 0.519968
O O17 0.000000 0.000000 0.500000
#
# Coordination Sequence:
#
# PCOD9041487 Si02
#       8
#     2   2   2   2   2   2   2   2
#     4  10  23  44  61  94 135 167 216 278 321 392
#     4  11  24  45  68  97 134 176 214 279 336 393
#     4   9  20  39  64  94 136 171 216 272 319 388
#     4  11  22  42  65  97 136 171 216 272 330 390
#     4   9  20  41  66  92 131 178 217 267 327 385
#     4  11  24  47  69  98 130 169 226 274 334 406
#     4  12  23  45  72  94 130 176 221 273 342 394
#     4  11  21  41  69  96 130 174 225 260 330 392
#
# _framework density 21.845631999999998
#
# number of rings (size 3 to 8) (size 9 to 14) (size 15 to 20)
#    0.000    1.500    3.750    1.875    0.000    0.500 
#   11.250    6.250    0.000    0.000    0.000    0.000 
#    0.000    0.000    0.000    0.000    0.000    0.000 
#
# Total GULP energy -89465.424497 kJ/mol
# GULP energy per Si atom -5591.589031 kJ/mol
# Density = 2.179591 g / cm^3
# Si number density = 21.845632 Si / 1000 Ang^3
#
#
#
# Elastic Constant Matrix: (Units=GPa)
#
#
# Indices 1 2 3 4 5 6 
#
# 1 76.5485 12.2863 28.2724 5.2794 -19.4208 10.4162
# 2 12.2863 98.2692 18.3166 3.5118 -13.8671 -17.3488
# 3 28.2724 18.3166 95.9675 2.5428 -14.3590 -3.6863
# 4 5.2794 3.5118 2.5428 31.6474 -11.3237 -2.1469
# 5 -19.4208 -13.8671 -14.3590 -11.3237 25.2285 -7.4683
# 6 10.4162 -17.3488 -3.6863 -2.1469 -7.4683 18.0777
#
#
#
# Elastic Compliance Matrix: (Units=1/GPa)
#
#
# Indices 1 2 3 4 5 6 
#
# 1 0.018322 -0.002518 -0.004351 -0.000858 0.006524 -0.011267
# 2 -0.002518 0.017783 0.001245 0.007468 0.020185 0.027996
# 3 -0.004351 0.001245 0.013248 0.003766 0.009791 0.010896
# 4 -0.000858 0.007468 0.003766 0.044579 0.033792 0.027684
# 5 0.006524 0.020185 0.009791 0.033792 0.094446 0.060640
# 6 -0.011267 0.027996 0.010896 0.027684 0.060640 0.119237
#
#
# Mechanical properties :
#
#
# Convention : Reuss Voigt Hill
#
# Bulk Modulus (GPa) = 26.24266 43.17063 34.70665
# Shear Modulus (GPa) = 15.08001 29.11804 22.09902
#
# Velocity S-wave (km/s) = 2.63020 3.65485 3.18402
# Velocity P-wave (km/s) = 4.61116 6.13312 5.42577
#
# Compressibility (1/GPa) = 0.03810589
#
# Stress axis : x y z
#
# Youngs Moduli (GPa) = 54.57861 56.23397 75.48252
#
# Poissons Ratio (x) = 0.14158 0.32844
# Poissons Ratio (y) = 0.13741 -0.09400
# Poissons Ratio (z) = 0.23749 -0.07003
#
# Static dielectric constant tensor:
#      x y z
#    x 1.776070 -0.001840 -0.017920 
#    y -0.001840 1.828920 0.004920 
#    z -0.017920 0.004920 1.794610 
# 
# From -- ./inp_files/547960.got.cif
#   From: 2010.05.17/outbox.cif.g08.bks.cpg/sg2_274_cif.got.tgz:547960.got - 2010.06.03 11:33:40.
