data_PCOD9041040
_publ_section_title
;
Structure prediction by ZEFSAII (Michael W. Deem and Ramdas Pophale) SiO2 
 PCOD9041040
Probable space group: P -1
;
_chemical_formula_sum "Si O2"
_cell_formula_units_Z 16
_cell_length_a 9.015700
_cell_length_b 13.021971
_cell_length_c 8.579373
_cell_angle_alpha 68.096089
_cell_angle_beta 117.511127
_cell_angle_gamma 121.982418
_cell_volume 746.623717
_symmetry_space_group_name_H-M "P -1"
_symmetry_group_IT_number 2
_symmetry_cell_setting 'triclinic'
loop_
_space_group_symop_operation_xyz
x,y,z
-x,-y,-z
loop_
_atom_site_type_symbol
_atom_site_label
_atom_site_fract_x
_atom_site_fract_y
_atom_site_fract_z
Si Si1 0.054154 0.326151 0.017667
Si Si2 0.694591 0.607741 0.474567
Si Si3 0.109108 0.107303 0.620406
Si Si4 0.622641 0.954602 0.984979
Si Si5 0.980962 0.466338 0.331113
Si Si6 0.938371 0.104444 0.855689
Si Si7 0.558294 0.481833 0.865675
Si Si8 0.714220 0.289650 0.096354
O O1 0.028064 0.429814 0.843400
O O2 0.042044 0.222385 0.948422
O O3 0.879511 0.279699 0.080395
O O4 0.261997 0.388190 0.157493
O O5 0.500000 0.500000 0.500000
O O6 0.767888 0.753343 0.461722
O O7 0.850325 0.564081 0.613674
O O8 0.639506 0.583231 0.279532
O O9 0.241448 0.067715 0.813582
O O10 0.973304 0.121908 0.678444
O O11 0.000000 0.000000 0.500000
O O12 0.475049 0.829382 0.912239
O O13 0.500000 0.000000 0.000000
O O14 0.728826 0.048916 0.846510
O O15 0.000000 0.500000 0.500000
O O16 0.798132 0.344063 0.273181
O O17 0.000000 0.000000 0.000000
O O18 0.500000 0.500000 0.000000
O O19 0.650403 0.388031 0.937029
#
# Coordination Sequence:
#
# PCOD9041040 Si02
#       8
#     2   2   2   2   2   2   2   2
#     4  11  22  42  67  92 131 175 220 273 341 393
#     4  12  24  41  65  97 131 170 220 271 328 398
#     4  11  26  47  66  97 142 178 218 281 348 401
#     4  11  23  43  72  97 121 176 236 274 322 407
#     4  11  24  40  61  95 134 171 207 270 341 394
#     4  10  23  43  70  95 131 175 229 274 334 403
#     4  11  22  39  65  95 125 171 219 277 321 391
#     4  11  22  42  65  92 130 170 222 269 327 397
#
# _framework density 21.429803
#
# number of rings (size 3 to 8) (size 9 to 14) (size 15 to 20)
#    0.000    1.000    2.500    6.000    3.500    2.000 
#    2.250    0.625    0.000    0.000    0.000    0.000 
#    0.000    0.000    0.000    0.000    0.000    0.000 
#
# Total GULP energy -89221.427805 kJ/mol
# GULP energy per Si atom -5576.339238 kJ/mol
# Density = 2.138103 g / cm^3
# Si number density = 21.429803 Si / 1000 Ang^3
#
#
#
# Elastic Constant Matrix: (Units=GPa)
#
#
# Indices 1 2 3 4 5 6 
#
# 1 90.5449 29.5751 12.8771 2.5101 -7.8367 5.1393
# 2 29.5751 163.5827 41.9064 34.1212 0.1776 10.7028
# 3 12.8771 41.9064 65.1205 22.8173 5.7632 3.7654
# 4 2.5101 34.1212 22.8173 45.0828 -2.3758 3.1085
# 5 -7.8367 0.1776 5.7632 -2.3758 39.3877 1.2303
# 6 5.1393 10.7028 3.7654 3.1085 1.2303 40.9321
#
#
#
# Elastic Compliance Matrix: (Units=1/GPa)
#
#
# Indices 1 2 3 4 5 6 
#
# 1 0.012265 -0.002077 -0.002037 0.002147 0.002910 -0.001060
# 2 -0.002077 0.008349 -0.003312 -0.004449 -0.000195 -0.001274
# 3 -0.002037 -0.003312 0.021152 -0.008290 -0.003983 -0.000075
# 4 0.002147 -0.004449 -0.008290 0.029858 0.003484 -0.000716
# 5 0.002910 -0.000195 -0.003983 0.003484 0.026793 -0.001018
# 6 -0.001060 -0.001274 -0.000075 -0.000716 -0.001018 0.024989
#
#
# Mechanical properties :
#
#
# Convention : Reuss Voigt Hill
#
# Bulk Modulus (GPa) = 37.15656 54.21837 45.68746
# Shear Modulus (GPa) = 33.96071 40.73981 37.35026
#
# Velocity S-wave (km/s) = 3.98520 4.36487 4.17935
# Velocity P-wave (km/s) = 6.20904 7.12448 6.68245
#
# Compressibility (1/GPa) = 0.02691315
#
# Stress axis : x y z
#
# Youngs Moduli (GPa) = 81.53299 119.77848 47.27725
#
# Poissons Ratio (x) = 0.24880 0.09631
# Poissons Ratio (y) = 0.16936 0.15658
# Poissons Ratio (z) = 0.16609 0.39670
#
# Static dielectric constant tensor:
#      x y z
#    x 1.866000 0.003700 -0.143050 
#    y 0.003700 1.848560 0.051110 
#    z -0.143050 0.051110 2.236640 
# 
# From -- ./inp_files/186154.got.cif
#   From: 2010.05.17/outbox.cif.g08.bks.cpg/sg2_94_cif.got.tgz:186154.got - 2010.06.03 11:33:40.
