data_PCOD9041647
_publ_section_title
;
Structure prediction by ZEFSAII (Michael W. Deem and Ramdas Pophale) SiO2 
 PCOD9041647
Probable space group: P -1
;
_chemical_formula_sum "Si O2"
_cell_formula_units_Z 16
_cell_length_a 18.986027
_cell_length_b 9.267220
_cell_length_c 4.897821
_cell_angle_alpha 93.689595
_cell_angle_beta 94.999103
_cell_angle_gamma 133.474311
_cell_volume 613.706997
_symmetry_space_group_name_H-M "P -1"
_symmetry_group_IT_number 2
_symmetry_cell_setting 'triclinic'
loop_
_space_group_symop_operation_xyz
x,y,z
-x,-y,-z
loop_
_atom_site_type_symbol
_atom_site_label
_atom_site_fract_x
_atom_site_fract_y
_atom_site_fract_z
Si Si1 0.919111 0.001012 0.211144
Si Si2 0.960733 0.306537 0.814984
Si Si3 0.474153 0.832877 0.759881
Si Si4 0.114031 0.323260 0.622834
Si Si5 0.307799 0.942834 0.056629
Si Si6 0.223827 0.030696 0.452766
Si Si7 0.294943 0.737164 0.495367
Si Si8 0.567563 0.547377 0.274417
O O1 0.033111 0.149061 0.358534
O O2 0.880359 0.782822 0.140265
O O3 0.846651 0.945875 0.430380
O O4 0.921669 0.124146 0.987885
O O5 0.054030 0.377756 0.700431
O O6 0.867303 0.214312 0.582407
O O7 0.000000 0.500000 0.000000
O O8 0.401534 0.810145 0.521479
O O9 0.414489 0.599294 0.775130
O O10 0.580985 0.911242 0.770698
O O11 0.500000 0.000000 0.000000
O O12 0.217583 0.514400 0.560234
O O13 0.259603 0.745476 0.194456
O O14 0.263031 0.028697 0.164474
O O15 0.304350 0.884453 0.735525
O O16 0.328469 0.220846 0.644670
O O17 0.500000 0.500000 0.500000
O O18 0.500000 0.500000 0.000000
#
# Coordination Sequence:
#
# PCOD9041647 Si02
#       8
#     2   2   2   2   2   2   2   2
#     4  10  24  44  69  97 144 184 244 300 372 444
#     4  11  25  43  72 107 143 191 249 311 375 450
#     4  10  24  48  73 108 145 196 249 309 369 450
#     4  10  23  44  66 102 136 192 237 306 366 442
#     4  11  25  42  71 104 145 185 240 310 359 441
#     4  11  26  43  71 105 145 194 244 305 379 447
#     4  11  25  43  72 103 141 190 245 298 375 433
#     4  12  28  47  74 109 150 199 246 307 376 444
#
# _framework density 26.071069999999999
#
# number of rings (size 3 to 8) (size 9 to 14) (size 15 to 20)
#    0.000    1.250    1.250    2.250   12.250    3.000 
#    2.250    0.000    0.000    0.000    0.000    0.000 
#    0.000    0.000    0.000    0.000    0.000    0.000 
#
# Total GULP energy -89106.520896 kJ/mol
# GULP energy per Si atom -5569.157556 kJ/mol
# Density = 2.601173 g / cm^3
# Si number density = 26.071070 Si / 1000 Ang^3
#
#
#
# Elastic Constant Matrix: (Units=GPa)
#
#
# Indices 1 2 3 4 5 6 
#
# 1 137.3627 32.9634 25.1142 0.2996 0.7481 34.3887
# 2 32.9634 147.9036 33.2697 14.9509 7.3286 4.9564
# 3 25.1142 33.2697 98.5952 -7.2926 -2.2913 2.0016
# 4 0.2996 14.9509 -7.2926 40.7611 6.1117 7.0910
# 5 0.7481 7.3286 -2.2913 6.1117 42.9770 2.9862
# 6 34.3887 4.9564 2.0016 7.0910 2.9862 51.8263
#
#
#
# Elastic Compliance Matrix: (Units=1/GPa)
#
#
# Indices 1 2 3 4 5 6 
#
# 1 0.009563 -0.001701 -0.001630 0.001318 0.000288 -0.006317
# 2 -0.001701 0.008091 -0.002596 -0.003431 -0.001069 0.000986
# 3 -0.001630 -0.002596 0.011652 0.002873 0.000652 0.000449
# 4 0.001318 -0.003431 0.002873 0.027469 -0.002896 -0.004249
# 5 0.000288 -0.001069 0.000652 -0.002896 0.023968 -0.001099
# 6 -0.006317 0.000986 0.000449 -0.004249 -0.001099 0.024020
#
#
# Mechanical properties :
#
#
# Convention : Reuss Voigt Hill
#
# Bulk Modulus (GPa) = 57.29300 62.95070 60.12185
# Shear Modulus (GPa) = 40.83881 46.61382 43.72631
#
# Velocity S-wave (km/s) = 3.96212 4.23301 4.09980
# Velocity P-wave (km/s) = 6.55398 6.93465 6.74700
#
# Compressibility (1/GPa) = 0.01745414
#
# Stress axis : x y z
#
# Youngs Moduli (GPa) = 104.57000 123.59814 85.82235
#
# Poissons Ratio (x) = 0.21018 0.13986
# Poissons Ratio (y) = 0.17782 0.22276
# Poissons Ratio (z) = 0.17042 0.32081
#
# Static dielectric constant tensor:
#      x y z
#    x 2.162940 -0.063520 0.093660 
#    y -0.063520 2.146750 -0.094420 
#    z 0.093660 -0.094420 2.211750 
# 
# From -- ./inp_files/106998.got.cif
#   From: 2010.05.17/outbox.cif.g08.bks.cpg/sg2_54_cif.got.tgz:106998.got - 2010.06.03 11:33:40.
