data_PCOD9041500
_publ_section_title
;
Structure prediction by ZEFSAII (Michael W. Deem and Ramdas Pophale) SiO2 
 PCOD9041500
Probable space group: P -1
;
_chemical_formula_sum "Si O2"
_cell_formula_units_Z 8
_cell_length_a 8.818701
_cell_length_b 7.907237
_cell_length_c 16.145999
_cell_angle_alpha 33.927622
_cell_angle_beta 31.040441
_cell_angle_gamma 34.981719
_cell_volume 300.167626
_symmetry_space_group_name_H-M "P -1"
_symmetry_group_IT_number 2
_symmetry_cell_setting 'triclinic'
loop_
_space_group_symop_operation_xyz
x,y,z
-x,-y,-z
loop_
_atom_site_type_symbol
_atom_site_label
_atom_site_fract_x
_atom_site_fract_y
_atom_site_fract_z
Si Si1 0.697649 0.732816 0.387115
Si Si2 0.240810 0.624513 0.919079
Si Si3 0.476567 0.297570 0.786728
Si Si4 0.665305 0.791302 0.769231
O O1 0.596918 0.548989 0.581434
O O2 0.005089 0.481040 0.300087
O O3 0.784885 0.037959 0.252174
O O4 0.418978 0.901539 0.381613
O O5 0.488616 0.345025 0.860084
O O6 0.378574 0.679039 0.920266
O O7 0.897208 0.613476 0.089980
O O8 0.645839 0.950521 0.803410
#
# Coordination Sequence:
#
# PCOD9041500 Si02
#       4
#     2   2   2   2
#     4  10  23  44  63  92 126 162 205 256 306 362
#     4   9  24  41  64  94 124 165 204 255 308 362
#     4  11  20  44  64  94 124 165 206 254 306 371
#     4  10  23  44  63  92 126 162 205 256 306 362
#
# _framework density 26.651776999999999
#
# number of rings (size 3 to 8) (size 9 to 14) (size 15 to 20)
#    1.500    0.500    0.000    3.000    0.000    2.000 
#    9.000    2.500    0.000    0.000    0.000    0.000 
#    0.000    0.000    0.000    0.000    0.000    0.000 
#
# Total GULP energy -44820.541381 kJ/mol
# GULP energy per Si atom -5602.567673 kJ/mol
# Density = 2.659112 g / cm^3
# Si number density = 26.651777 Si / 1000 Ang^3
#
#
#
# Elastic Constant Matrix: (Units=GPa)
#
#
# Indices 1 2 3 4 5 6 
#
# 1 67.6839 26.0342 23.6891 -2.0598 12.1406 14.3572
# 2 26.0342 190.7269 34.7150 19.8535 11.1302 18.3521
# 3 23.6891 34.7150 165.3473 2.1247 5.6935 21.3991
# 4 -2.0598 19.8535 2.1247 9.3196 10.5747 37.9387
# 5 12.1406 11.1302 5.6935 10.5747 37.6943 6.5032
# 6 14.3572 18.3521 21.3991 37.9387 6.5032 4.3887
#
#
#
# Elastic Compliance Matrix: (Units=1/GPa)
#
#
# Indices 1 2 3 4 5 6 
#
# 1 0.015933 -0.001503 -0.002276 -0.003784 -0.003939 0.003807
# 2 -0.001503 0.006014 -0.000665 -0.001604 -0.000272 -0.002722
# 3 -0.002276 -0.000665 0.006483 -0.002620 0.000628 0.000330
# 4 -0.003784 -0.001604 -0.002620 0.000988 -0.002972 0.027725
# 5 -0.003939 -0.000272 0.000628 -0.002972 0.029950 -0.007725
# 6 0.003807 -0.002722 0.000330 0.027725 -0.007725 -0.003045
#
#
# Mechanical properties :
#
#
# Convention : Reuss Voigt Hill
#
# Bulk Modulus (GPa) = 51.17061 65.84833 58.50947
# Shear Modulus (GPa) = 69.71124 32.90185 51.30654
#
# Velocity S-wave (km/s) = 5.11987 3.51737 4.39232
# Velocity P-wave (km/s) = 7.36153 6.42311 6.90828
#
# Compressibility (1/GPa) = 0.01954247
#
# Stress axis : x y z
#
# Youngs Moduli (GPa) = 62.76227 166.27766 154.25288
#
# Poissons Ratio (x) = 0.24995 0.35100
# Poissons Ratio (y) = 0.09434 0.10259
# Poissons Ratio (z) = 0.14282 0.11059
#
# Static dielectric constant tensor:
#      x y z
#    x 2.098420 0.008940 0.071110 
#    y 0.008940 2.076130 -0.158020 
#    z 0.071110 -0.158020 2.106200 
# 
# From -- ./inp_files/15244.got.cif
#   From: 2010.05.17/outbox.cif.g08.bks.cpg/sg2_8_cif.got.tgz:15244.got - 2010.06.03 11:33:40.
