data_PCOD9041601
_publ_section_title
;
Structure prediction by ZEFSAII (Michael W. Deem and Ramdas Pophale) SiO2 
 PCOD9041601
Probable space group: P -1
;
_chemical_formula_sum "Si O2"
_cell_formula_units_Z 14
_cell_length_a 12.501501
_cell_length_b 11.923219
_cell_length_c 8.970926
_cell_angle_alpha 58.364834
_cell_angle_beta 53.425211
_cell_angle_gamma 35.424490
_cell_volume 620.264359
_symmetry_space_group_name_H-M "P -1"
_symmetry_group_IT_number 2
_symmetry_cell_setting 'triclinic'
loop_
_space_group_symop_operation_xyz
x,y,z
-x,-y,-z
loop_
_atom_site_type_symbol
_atom_site_label
_atom_site_fract_x
_atom_site_fract_y
_atom_site_fract_z
Si Si1 0.627673 0.028487 0.808369
Si Si2 0.672868 0.388674 0.309318
Si Si3 0.650828 0.766632 0.374504
Si Si4 0.951930 0.971570 0.223834
Si Si5 0.354282 0.948173 0.742091
Si Si6 0.043877 0.598302 0.795761
Si Si7 0.634837 0.267253 0.863849
O O1 0.846086 0.814235 0.761874
O O2 0.514383 0.148960 0.668281
O O3 0.637186 0.149796 0.819981
O O4 0.500000 0.000000 0.000000
O O5 0.500000 0.500000 0.500000
O O6 0.815237 0.164335 0.305645
O O7 0.815723 0.403632 0.229473
O O8 0.550853 0.509887 0.176824
O O9 0.556581 0.822083 0.575491
O O10 0.835356 0.542518 0.346941
O O11 0.696408 0.888145 0.231232
O O12 0.821217 0.942765 0.305805
O O13 0.159286 0.804948 0.250597
O O14 0.000000 0.000000 0.000000
O O15 0.380346 0.801141 0.922827
O O16 0.000000 0.500000 0.000000
#
# Coordination Sequence:
#
# PCOD9041601 Si02
#       7
#     2   2   2   2   2   2   2
#     4  12  21  40  69  99 126 172 225 280 335 383
#     4  12  26  43  70 105 135 173 232 289 334 398
#     4  11  23  42  67 101 136 172 221 284 328 402
#     4  10  24  43  65  95 137 180 222 268 341 410
#     4  10  23  44  65  94 143 178 215 272 344 402
#     4  12  23  40  72 102 132 171 230 281 335 395
#     4  11  22  44  71  93 132 180 222 274 339 401
#
# _framework density 22.571020000000001
#
# number of rings (size 3 to 8) (size 9 to 14) (size 15 to 20)
#    0.000    0.857    5.714    0.857    2.000    4.000 
#    0.000    7.143    0.000    0.000    0.000    0.000 
#    0.000    0.000    0.000    0.000    0.000    0.000 
#
# Total GULP energy -78306.521565 kJ/mol
# GULP energy per Si atom -5593.322969 kJ/mol
# Density = 2.251965 g / cm^3
# Si number density = 22.571020 Si / 1000 Ang^3
#
#
#
# Elastic Constant Matrix: (Units=GPa)
#
#
# Indices 1 2 3 4 5 6 
#
# 1 121.7005 19.8152 5.4047 13.5599 -13.6284 -4.3030
# 2 19.8152 99.5810 6.1396 21.8707 -2.5581 -22.2893
# 3 5.4047 6.1396 46.5255 10.3606 -7.5892 -1.2082
# 4 13.5599 21.8707 10.3606 28.3641 -0.8082 3.0467
# 5 -13.6284 -2.5581 -7.5892 -0.8082 26.4348 8.0472
# 6 -4.3030 -22.2893 -1.2082 3.0467 8.0472 36.0713
#
#
#
# Elastic Compliance Matrix: (Units=1/GPa)
#
#
# Indices 1 2 3 4 5 6 
#
# 1 0.009303 -0.000999 0.000673 -0.003758 0.004854 -0.000250
# 2 -0.000999 0.015483 0.000848 -0.013041 -0.002566 0.011150
# 3 0.000673 0.000848 0.024658 -0.009859 0.006993 0.000703
# 4 -0.003758 -0.013041 -0.009859 0.052109 -0.000437 -0.013141
# 5 0.004854 -0.002566 0.006993 -0.000437 0.045384 -0.010860
# 6 -0.000250 0.011150 0.000703 -0.013141 -0.010860 0.038139
#
#
# Mechanical properties :
#
#
# Convention : Reuss Voigt Hill
#
# Bulk Modulus (GPa) = 19.80632 36.72510 28.26571
# Shear Modulus (GPa) = 24.89305 33.93720 29.41512
#
# Velocity S-wave (km/s) = 3.32456 3.88180 3.61394
# Velocity P-wave (km/s) = 4.85089 6.03303 5.47396
#
# Compressibility (1/GPa) = 0.05048894
#
# Stress axis : x y z
#
# Youngs Moduli (GPa) = 107.49148 64.58850 40.55508
#
# Poissons Ratio (x) = 0.06450 -0.02731
# Poissons Ratio (y) = 0.10734 -0.03439
# Poissons Ratio (z) = -0.07237 -0.05477
#
# Static dielectric constant tensor:
#      x y z
#    x 1.845630 0.009860 -0.028260 
#    y 0.009860 1.824720 -0.016720 
#    z -0.028260 -0.016720 1.924850 
# 
# From -- ./inp_files/257372.got.cif
#   From: 2010.05.17/outbox.cif.g08.bks.cpg/sg2_129_cif.got.tgz:257372.got - 2010.06.03 11:33:40.
