data_PCOD9041342
_publ_section_title
;
Structure prediction by ZEFSAII (Michael W. Deem and Ramdas Pophale) SiO2 
 PCOD9041342
Probable space group: P -1
;
_chemical_formula_sum "Si O2"
_cell_formula_units_Z 12
_cell_length_a 8.559696
_cell_length_b 28.076956
_cell_length_c 16.198668
_cell_angle_alpha 17.447917
_cell_angle_beta 139.178216
_cell_angle_gamma 150.247803
_cell_volume 508.027103
_symmetry_space_group_name_H-M "P -1"
_symmetry_group_IT_number 2
_symmetry_cell_setting 'triclinic'
loop_
_space_group_symop_operation_xyz
x,y,z
-x,-y,-z
loop_
_atom_site_type_symbol
_atom_site_label
_atom_site_fract_x
_atom_site_fract_y
_atom_site_fract_z
Si Si1 0.761324 0.762908 0.744209
Si Si2 0.177239 0.011143 0.133612
Si Si3 0.563258 0.661546 0.151316
Si Si4 0.175491 0.553537 0.734256
Si Si5 0.120772 0.533815 0.399859
Si Si6 0.282357 0.507182 0.126935
O O1 0.534985 0.743063 0.617325
O O2 0.933529 0.687422 0.902037
O O3 0.480350 0.557301 0.039826
O O4 0.000000 0.000000 0.500000
O O5 0.944870 0.746064 0.504736
O O6 0.210654 0.132405 0.030053
O O7 0.588481 0.192535 0.967813
O O8 0.000000 0.000000 0.000000
O O9 0.681015 0.537210 0.411217
O O10 0.568143 0.705566 0.982985
O O11 0.203458 0.615850 0.546822
O O12 0.850072 0.501435 0.722072
O O13 0.000000 0.500000 0.500000
O O14 0.000000 0.500000 0.000000
#
# Coordination Sequence:
#
# PCOD9041342 Si02
#       6
#     2   2   2   2   2   2
#     4  11  26  47  70 105 148 196 243 303 360 434
#     4  11  25  45  76 104 150 192 239 302 369 436
#     4  11  24  46  76 107 148 191 244 297 378 433
#     4  10  23  43  73 105 149 183 250 297 366 432
#     4  11  24  48  79 110 146 192 249 308 366 440
#     4  12  26  45  72 109 148 192 245 297 372 440
#
# _framework density 23.620788000000001
#
# number of rings (size 3 to 8) (size 9 to 14) (size 15 to 20)
#    0.000    1.000    3.333    3.000    4.667    3.333 
#    0.000    2.500    0.000    0.000    0.000    0.000 
#    0.000    0.000    0.000    0.000    0.000    0.000 
#
# Total GULP energy -67097.234989 kJ/mol
# GULP energy per Si atom -5591.436249 kJ/mol
# Density = 2.356703 g / cm^3
# Si number density = 23.620788 Si / 1000 Ang^3
#
#
#
# Elastic Constant Matrix: (Units=GPa)
#
#
# Indices 1 2 3 4 5 6 
#
# 1 122.0690 55.2564 43.4002 7.5389 10.6102 -11.4149
# 2 55.2564 230.8782 59.3296 29.3814 17.5824 -36.1030
# 3 43.4002 59.3296 105.5018 5.4175 5.1060 -2.3093
# 4 7.5389 29.3814 5.4175 45.2928 -5.5819 3.2703
# 5 10.6102 17.5824 5.1060 -5.5819 42.2616 11.5621
# 6 -11.4149 -36.1030 -2.3093 3.2703 11.5621 50.8197
#
#
#
# Elastic Compliance Matrix: (Units=1/GPa)
#
#
# Indices 1 2 3 4 5 6 
#
# 1 0.010347 -0.000875 -0.003530 -0.001208 -0.002570 0.002204
# 2 -0.000875 0.007407 -0.003152 -0.005352 -0.004936 0.006389
# 3 -0.003530 -0.003152 0.012475 0.001563 0.001705 -0.002953
# 4 -0.001208 -0.005352 0.001563 0.027095 0.007989 -0.007564
# 5 -0.002570 -0.004936 0.001705 0.007989 0.030335 -0.011422
# 6 0.002204 0.006389 -0.002953 -0.007564 -0.011422 0.027663
#
#
# Mechanical properties :
#
#
# Convention : Reuss Voigt Hill
#
# Bulk Modulus (GPa) = 66.15330 86.04684 76.10007
# Shear Modulus (GPa) = 36.90733 47.70565 42.30649
#
# Velocity S-wave (km/s) = 3.95713 4.49892 4.23670
# Velocity P-wave (km/s) = 6.99612 7.96835 7.49801
#
# Compressibility (1/GPa) = 0.01511640
#
# Stress axis : x y z
#
# Youngs Moduli (GPa) = 96.64298 135.01275 80.15737
#
# Poissons Ratio (x) = 0.11817 0.28293
# Poissons Ratio (y) = 0.08458 0.25263
# Poissons Ratio (z) = 0.34112 0.42551
#
# Static dielectric constant tensor:
#      x y z
#    x 1.966360 -0.053560 0.035500 
#    y -0.053560 1.985710 -0.051690 
#    z 0.035500 -0.051690 1.929600 
# 
# From -- ./inp_files/508903.got.cif
#   From: 2010.05.17/outbox.cif.g08.bks.cpg/sg2_255_cif.got.tgz:508903.got - 2010.06.03 11:33:40.
