data_PCOD9041461
_publ_section_title
;
Structure prediction by ZEFSAII (Michael W. Deem and Ramdas Pophale) SiO2 
 PCOD9041461
Probable space group: P -1
;
_chemical_formula_sum "Si O2"
_cell_formula_units_Z 14
_cell_length_a 7.930599
_cell_length_b 9.739680
_cell_length_c 12.632984
_cell_angle_alpha 75.859214
_cell_angle_beta 45.911763
_cell_angle_gamma 61.101869
_cell_volume 607.015014
_symmetry_space_group_name_H-M "P -1"
_symmetry_group_IT_number 2
_symmetry_cell_setting 'triclinic'
loop_
_space_group_symop_operation_xyz
x,y,z
-x,-y,-z
loop_
_atom_site_type_symbol
_atom_site_label
_atom_site_fract_x
_atom_site_fract_y
_atom_site_fract_z
Si Si1 0.676674 0.898734 0.037992
Si Si2 0.167602 0.827076 0.062314
Si Si3 0.564064 0.933316 0.365483
Si Si4 0.755698 0.347131 0.157192
Si Si5 0.614561 0.289408 0.778382
Si Si6 0.362573 0.683682 0.557258
Si Si7 0.944412 0.848078 0.551310
O O1 0.934983 0.734566 0.935330
O O2 0.487881 0.837585 0.189063
O O3 0.500000 0.000000 0.000000
O O4 0.791193 0.017053 0.004790
O O5 0.137285 0.122863 0.788126
O O6 0.264233 0.718423 0.936917
O O7 0.318834 0.741231 0.120376
O O8 0.360738 0.079942 0.355442
O O9 0.500000 0.000000 0.500000
O O10 0.499810 0.782529 0.426167
O O11 0.608193 0.535813 0.180039
O O12 0.637625 0.298656 0.319709
O O13 0.874257 0.258183 0.603852
O O14 0.500000 0.500000 0.500000
O O15 0.066789 0.758114 0.623727
O O16 0.000000 0.000000 0.500000
#
# Coordination Sequence:
#
# PCOD9041461 Si02
#       7
#     2   2   2   2   2   2   2
#     4  10  25  43  72 102 139 185 236 284 348 425
#     4  11  25  47  71 107 141 185 236 293 359 414
#     4  11  23  45  78 101 140 186 237 292 350 419
#     4  12  25  43  71 108 145 177 236 299 357 413
#     4  11  23  47  73 104 139 189 235 293 353 417
#     4  11  25  46  68 104 140 187 235 283 351 425
#     4  10  23  43  76  98 139 186 243 279 348 422
#
# _framework density 23.063680000000002
#
# number of rings (size 3 to 8) (size 9 to 14) (size 15 to 20)
#    0.000    1.143    2.857    2.143   10.000    1.143 
#    0.000    4.286    0.000    0.000    0.000    0.000 
#    0.000    0.000    0.000    0.000    0.000    0.000 
#
# Total GULP energy -78265.976551 kJ/mol
# GULP energy per Si atom -5590.426897 kJ/mol
# Density = 2.301119 g / cm^3
# Si number density = 23.063680 Si / 1000 Ang^3
#
#
#
# Elastic Constant Matrix: (Units=GPa)
#
#
# Indices 1 2 3 4 5 6 
#
# 1 121.5597 65.9327 61.1433 -6.5376 3.8203 -17.6279
# 2 65.9327 142.2121 57.1392 2.7218 1.7170 -25.8444
# 3 61.1433 57.1392 154.7285 -2.8843 17.1927 2.3132
# 4 -6.5376 2.7218 -2.8843 37.2457 0.2414 3.3338
# 5 3.8203 1.7170 17.1927 0.2414 48.9352 -3.5462
# 6 -17.6279 -25.8444 2.3132 3.3338 -3.5462 44.4288
#
#
#
# Elastic Compliance Matrix: (Units=1/GPa)
#
#
# Indices 1 2 3 4 5 6 
#
# 1 0.012696 -0.003961 -0.003628 0.001980 0.000617 0.002823
# 2 -0.003961 0.010937 -0.002734 -0.002180 0.001273 0.005198
# 3 -0.003628 -0.002734 0.009329 0.000648 -0.003178 -0.003818
# 4 0.001980 -0.002180 0.000648 0.027646 -0.000633 -0.002641
# 5 0.000617 0.001273 -0.003178 -0.000633 0.021674 0.002929
# 6 0.002823 0.005198 -0.003818 -0.002641 0.002929 0.027283
#
#
# Mechanical properties :
#
#
# Convention : Reuss Voigt Hill
#
# Bulk Modulus (GPa) = 81.19148 87.43674 84.31411
# Shear Modulus (GPa) = 37.22549 41.74095 39.48322
#
# Velocity S-wave (km/s) = 4.02186 4.25880 4.14203
# Velocity P-wave (km/s) = 7.53968 7.88521 7.71438
#
# Compressibility (1/GPa) = 0.01231656
#
# Stress axis : x y z
#
# Youngs Moduli (GPa) = 78.76397 91.42864 107.19776
#
# Poissons Ratio (x) = 0.36212 0.38895
# Poissons Ratio (y) = 0.31196 0.29305
# Poissons Ratio (z) = 0.28578 0.24995
#
# Static dielectric constant tensor:
#      x y z
#    x 1.969450 0.008320 0.042120 
#    y 0.008320 1.815070 0.017120 
#    z 0.042120 0.017120 1.893490 
# 
# From -- ./inp_files/298076.got.cif
#   From: 2010.05.17/outbox.cif.g08.bks.cpg/sg2_150_cif.got.tgz:298076.got - 2010.06.03 11:33:40.
