data_PCOD9041232
_publ_section_title
;
Structure prediction by ZEFSAII (Michael W. Deem and Ramdas Pophale) SiO2 
 PCOD9041232
Probable space group: P -1
;
_chemical_formula_sum "Si O2"
_cell_formula_units_Z 14
_cell_length_a 15.734824
_cell_length_b 24.875031
_cell_length_c 5.064423
_cell_angle_alpha 100.858963
_cell_angle_beta 89.486397
_cell_angle_gamma 19.190230
_cell_volume 521.767650
_symmetry_space_group_name_H-M "P -1"
_symmetry_group_IT_number 2
_symmetry_cell_setting 'triclinic'
loop_
_space_group_symop_operation_xyz
x,y,z
-x,-y,-z
loop_
_atom_site_type_symbol
_atom_site_label
_atom_site_fract_x
_atom_site_fract_y
_atom_site_fract_z
Si Si1 0.538748 0.558304 0.883394
Si Si2 0.345894 0.398866 0.880622
Si Si3 0.936256 0.218448 0.583937
Si Si4 0.453943 0.968634 0.601578
Si Si5 0.084415 0.990821 0.770364
Si Si6 0.519668 0.784990 0.927337
Si Si7 0.806074 0.716815 0.861003
O O1 0.725822 0.497730 0.892368
O O2 0.364335 0.632991 0.194680
O O3 0.214488 0.783206 0.986097
O O4 0.769949 0.371107 0.564459
O O5 0.320315 0.360892 0.029479
O O6 0.160003 0.516521 0.716566
O O7 0.722973 0.162740 0.601576
O O8 0.121580 0.142022 0.728036
O O9 0.212291 0.006850 0.275164
O O10 0.586407 0.885271 0.817484
O O11 0.500000 0.000000 0.500000
O O12 0.687914 0.790831 0.236150
O O13 0.372242 0.850747 0.731024
O O14 0.000000 0.000000 0.000000
O O15 0.757570 0.685052 0.754011
#
# Coordination Sequence:
#
# PCOD9041232 Si02
#       7
#     2   2   2   2   2   2   2
#     4  11  22  43  67 101 139 186 239 297 356 432
#     4  12  25  44  70 103 149 190 242 296 364 439
#     4  10  23  43  71  99 141 182 241 299 361 426
#     4  11  24  48  73 104 146 191 240 307 371 439
#     4  12  24  40  71 100 142 186 244 296 360 429
#     4  11  24  45  69 104 144 193 236 306 359 435
#     4  11  27  43  74 108 143 190 248 301 367 434
#
# _framework density 26.831868
#
# number of rings (size 3 to 8) (size 9 to 14) (size 15 to 20)
#    0.000    0.857    2.857    3.857    4.000    2.286 
#    0.000    4.286    0.000    0.000    0.000    0.000 
#    0.000    0.000    0.000    0.000    0.000    0.000 
#
# Total GULP energy -78070.961526 kJ/mol
# GULP energy per Si atom -5576.497252 kJ/mol
# Density = 2.677080 g / cm^3
# Si number density = 26.831868 Si / 1000 Ang^3
#
#
#
# Elastic Constant Matrix: (Units=GPa)
#
#
# Indices 1 2 3 4 5 6 
#
# 1 15.4811 -70.8564 -25.6866 78.6945 -38.6731 98.2847
# 2 -70.8564 47.0834 -14.6027 65.1109 -26.7304 66.4158
# 3 -25.6866 -14.6027 62.8127 21.8025 -1.5225 32.7312
# 4 78.6945 65.1109 21.8025 -22.8846 40.0538 -45.9022
# 5 -38.6731 -26.7304 -1.5225 40.0538 18.4307 36.6478
# 6 98.2847 66.4158 32.7312 -45.9022 36.6478 21.3228
#
#
#
# Elastic Compliance Matrix: (Units=1/GPa)
#
#
# Indices 1 2 3 4 5 6 
#
# 1 0.006498 -0.002395 -0.000415 0.006571 -0.004623 0.000236
# 2 -0.002395 0.008074 -0.001220 0.003313 -0.003945 0.001674
# 3 -0.000415 -0.001220 0.015021 0.003147 -0.005283 -0.001487
# 4 0.006571 0.003313 0.003147 0.017800 0.002346 -0.011153
# 5 -0.004623 -0.003945 -0.005283 0.002346 0.024680 0.004336
# 6 0.000236 0.001674 -0.001487 -0.011153 0.004336 0.011417
#
#
# Mechanical properties :
#
#
# Convention : Reuss Voigt Hill
#
# Bulk Modulus (GPa) = 46.44112 -10.76825 17.83644
# Shear Modulus (GPa) = 50.64439 19.14198 34.89318
#
# Velocity S-wave (km/s) = 4.34922 2.67386 3.61007
# Velocity P-wave (km/s) = 6.52432 2.34750 4.90293
#
# Compressibility (1/GPa) = 0.02153264
#
# Stress axis : x y z
#
# Youngs Moduli (GPa) = 153.90128 123.85385 66.57216
#
# Poissons Ratio (x) = 0.29658 0.02765
# Poissons Ratio (y) = 0.36853 0.08123
# Poissons Ratio (z) = 0.06393 0.15113
#
# Static dielectric constant tensor:
#      x y z
#    x 1.164530 -0.089360 0.213450 
#    y -0.089360 2.166700 0.028360 
#    z 0.213450 0.028360 2.114830 
# 
# From -- ./inp_files/101207.got.cif
#   From: 2010.05.17/outbox.cif.g08.bks.cpg/sg2_51_cif.got.tgz:101207.got - 2010.06.03 11:33:40.
