data_PCOD9041171
_publ_section_title
;
Structure prediction by ZEFSAII (Michael W. Deem and Ramdas Pophale) SiO2 
 PCOD9041171
Probable space group: P -1
;
_chemical_formula_sum "Si O2"
_cell_formula_units_Z 16
_cell_length_a 24.104059
_cell_length_b 9.017920
_cell_length_c 4.925475
_cell_angle_alpha 112.374288
_cell_angle_beta 117.099760
_cell_angle_gamma 43.016850
_cell_volume 648.220081
_symmetry_space_group_name_H-M "P -1"
_symmetry_group_IT_number 2
_symmetry_cell_setting 'triclinic'
loop_
_space_group_symop_operation_xyz
x,y,z
-x,-y,-z
loop_
_atom_site_type_symbol
_atom_site_label
_atom_site_fract_x
_atom_site_fract_y
_atom_site_fract_z
Si Si1 0.557617 0.283580 0.795634
Si Si2 0.665597 0.812416 0.799915
Si Si3 0.940423 0.287899 0.816562
Si Si4 0.787205 0.050600 0.591786
Si Si5 0.043815 0.125034 0.432695
Si Si6 0.686938 0.318187 0.036279
Si Si7 0.445082 0.229727 0.187437
Si Si8 0.770947 0.703237 0.441471
O O1 0.501779 0.273771 0.463399
O O2 0.500000 0.500000 0.000000
O O3 0.627288 0.271356 0.795172
O O4 0.610605 0.063869 0.938295
O O5 0.604558 0.769984 0.678423
O O6 0.697216 0.792432 0.555411
O O7 0.745145 0.661842 0.075401
O O8 0.855154 0.497826 0.636915
O O9 0.016794 0.212658 0.738083
O O10 0.939540 0.095624 0.685149
O O11 0.963619 0.299793 0.179707
O O12 0.767282 0.176893 0.916039
O O13 0.875761 0.931377 0.559912
O O14 0.779649 0.875639 0.514057
O O15 0.717289 0.235271 0.350574
O O16 0.627242 0.572171 0.028802
O O17 0.500000 0.000000 0.000000
#
# Coordination Sequence:
#
# PCOD9041171 Si02
#       8
#     2   2   2   2   2   2   2   2
#     4  12  25  50  77 104 150 204 253 318 384 454
#     4  12  27  46  72 109 151 191 254 317 373 451
#     4  10  23  43  71 106 145 190 237 303 371 439
#     4  12  25  46  72 108 147 196 248 303 370 458
#     4  10  23  43  71 106 145 188 244 297 366 452
#     4  12  27  46  74 107 147 198 252 312 380 450
#     4  12  29  48  77 112 148 201 262 325 387 453
#     4  12  25  46  72 106 151 196 242 309 374 445
#
# _framework density 24.682974000000002
#
# number of rings (size 3 to 8) (size 9 to 14) (size 15 to 20)
#    0.000    0.500    2.500    4.500    3.500    3.000 
#    0.000    0.000    0.000    0.000    0.000    0.000 
#    0.000    0.000    0.000    0.000    0.000    0.000 
#
# Total GULP energy -89728.500984 kJ/mol
# GULP energy per Si atom -5608.031312 kJ/mol
# Density = 2.462679 g / cm^3
# Si number density = 24.682974 Si / 1000 Ang^3
#
#
#
# Elastic Constant Matrix: (Units=GPa)
#
#
# Indices 1 2 3 4 5 6 
#
# 1 118.9127 13.2781 24.7189 0.4522 -29.0704 -6.1601
# 2 13.2781 78.5400 19.7306 -25.0030 0.7297 -2.5766
# 3 24.7189 19.7306 100.9878 -8.6767 -18.4211 8.8303
# 4 0.4522 -25.0030 -8.6767 43.2113 0.8155 -3.0656
# 5 -29.0704 0.7297 -18.4211 0.8155 38.2136 -4.5045
# 6 -6.1601 -2.5766 8.8303 -3.0656 -4.5045 26.7914
#
#
#
# Elastic Compliance Matrix: (Units=1/GPa)
#
#
# Indices 1 2 3 4 5 6 
#
# 1 0.011170 -0.001946 -0.001291 -0.001373 0.008420 0.004065
# 2 -0.001946 0.016900 -0.002799 0.009484 -0.003039 0.002675
# 3 -0.001291 -0.002799 0.011925 0.000443 0.004373 -0.003711
# 4 -0.001373 0.009484 0.000443 0.029009 -0.001210 0.003566
# 5 0.008420 -0.003039 0.004373 -0.001210 0.035477 0.006029
# 6 0.004065 0.002675 -0.003711 0.003566 0.006029 0.041162
#
#
# Mechanical properties :
#
#
# Convention : Reuss Voigt Hill
#
# Bulk Modulus (GPa) = 35.81342 45.98840 40.90091
# Shear Modulus (GPa) = 29.93624 37.69078 33.81351
#
# Velocity S-wave (km/s) = 3.48635 3.91192 3.70525
# Velocity P-wave (km/s) = 5.54500 6.25110 5.90861
#
# Compressibility (1/GPa) = 0.02792249
#
# Stress axis : x y z
#
# Youngs Moduli (GPa) = 89.52927 59.17295 83.85557
#
# Poissons Ratio (x) = 0.11514 0.10828
# Poissons Ratio (y) = 0.17420 0.23471
# Poissons Ratio (z) = 0.11561 0.16562
#
# Static dielectric constant tensor:
#      x y z
#    x 1.943240 -0.022460 0.005840 
#    y -0.022460 1.955260 -0.008680 
#    z 0.005840 -0.008680 1.939070 
# 
# From -- ./inp_files/122560.got.cif
#   From: 2010.05.17/outbox.cif.g08.bks.cpg/sg2_62_cif.got.tgz:122560.got - 2010.06.03 11:33:40.
