data_PCOD9041282
_publ_section_title
;
Structure prediction by ZEFSAII (Michael W. Deem and Ramdas Pophale) SiO2 
 PCOD9041282
Probable space group: P -1
;
_chemical_formula_sum "Si O2"
_cell_formula_units_Z 16
_cell_length_a 14.982642
_cell_length_b 11.932327
_cell_length_c 7.806480
_cell_angle_alpha 60.465516
_cell_angle_beta 83.705858
_cell_angle_gamma 40.282048
_cell_volume 691.457892
_symmetry_space_group_name_H-M "P -1"
_symmetry_group_IT_number 2
_symmetry_cell_setting 'triclinic'
loop_
_space_group_symop_operation_xyz
x,y,z
-x,-y,-z
loop_
_atom_site_type_symbol
_atom_site_label
_atom_site_fract_x
_atom_site_fract_y
_atom_site_fract_z
Si Si1 0.452740 0.174369 0.150709
Si Si2 0.392573 0.951482 0.423093
Si Si3 0.073562 0.176982 0.249983
Si Si4 0.112426 0.983841 0.040018
Si Si5 0.963722 0.418322 0.769359
Si Si6 0.389102 0.527106 0.416087
Si Si7 0.245331 0.262699 0.715495
Si Si8 0.211100 0.566594 0.684523
O O1 0.530747 0.122355 0.351535
O O2 0.397514 0.089526 0.237531
O O3 0.597758 0.004189 0.114763
O O4 0.318873 0.431852 0.932367
O O5 0.506535 0.714618 0.486032
O O6 0.219387 0.090477 0.348556
O O7 0.969800 0.231214 0.375481
O O8 0.124361 0.016097 0.212986
O O9 0.957739 0.399765 0.986690
O O10 0.284452 0.729819 0.148183
O O11 0.031671 0.209898 0.817627
O O12 0.000000 0.000000 0.000000
O O13 0.097557 0.365072 0.750028
O O14 0.805068 0.645138 0.539251
O O15 0.500000 0.500000 0.500000
O O16 0.264968 0.613847 0.511249
O O17 0.260688 0.377257 0.722575
#
# Coordination Sequence:
#
# PCOD9041282 Si02
#       8
#     2   2   2   2   2   2   2   2
#     4  11  27  41  73 101 145 176 232 291 344 413
#     4  11  25  47  69 102 143 183 228 283 353 406
#     4  10  25  45  67 103 138 180 229 280 349 406
#     4  10  23  43  72  93 137 183 231 279 339 413
#     4   9  23  40  68 102 134 182 223 276 349 404
#     4  12  25  48  72  97 136 190 231 282 343 418
#     4  11  22  42  69 104 140 176 231 284 343 417
#     4  12  27  41  71 104 137 178 233 286 351 405
#
# _framework density 23.139514999999999
#
# number of rings (size 3 to 8) (size 9 to 14) (size 15 to 20)
#    0.750    0.500    2.500    1.875   12.250    1.500 
#    0.000    0.625    0.000    0.000    0.000    0.000 
#    0.000    0.000    0.000    0.000    0.000    0.000 
#
# Total GULP energy -89370.207588 kJ/mol
# GULP energy per Si atom -5585.637974 kJ/mol
# Density = 2.308685 g / cm^3
# Si number density = 23.139515 Si / 1000 Ang^3
#
#
#
# Elastic Constant Matrix: (Units=GPa)
#
#
# Indices 1 2 3 4 5 6 
#
# 1 104.7480 17.1964 24.5693 5.4813 17.4513 11.8023
# 2 17.1964 61.4216 17.9016 -4.2161 -1.4431 -5.7468
# 3 24.5693 17.9016 41.8638 -15.4193 6.9294 -1.0254
# 4 5.4813 -4.2161 -15.4193 35.9844 -1.6688 -0.0942
# 5 17.4513 -1.4431 6.9294 -1.6688 30.7974 -7.7207
# 6 11.8023 -5.7468 -1.0254 -0.0942 -7.7207 38.8403
#
#
#
# Elastic Compliance Matrix: (Units=1/GPa)
#
#
# Indices 1 2 3 4 5 6 
#
# 1 0.014540 -0.002885 -0.008487 -0.006602 -0.008522 -0.006779
# 2 -0.002885 0.019881 -0.007694 -0.000262 0.005462 0.004700
# 3 -0.008487 -0.007694 0.038926 0.016941 -0.002908 0.001931
# 4 -0.006602 -0.000262 0.016941 0.036154 0.002635 0.003026
# 5 -0.008522 0.005462 -0.002908 0.002635 0.041241 0.011525
# 6 -0.006779 0.004700 0.001931 0.003026 0.011525 0.030851
#
#
# Mechanical properties :
#
#
# Convention : Reuss Voigt Hill
#
# Bulk Modulus (GPa) = 28.39625 36.37422 32.38524
# Shear Modulus (GPa) = 21.60155 31.01549 26.30852
#
# Velocity S-wave (km/s) = 3.05870 3.66508 3.37553
# Velocity P-wave (km/s) = 4.97720 5.80207 5.40540
#
# Compressibility (1/GPa) = 0.03521592
#
# Stress axis : x y z
#
# Youngs Moduli (GPa) = 68.77504 50.29908 25.68954
#
# Poissons Ratio (x) = 0.14511 0.21803
# Poissons Ratio (y) = 0.19841 0.19765
# Poissons Ratio (z) = 0.58370 0.38699
#
# Static dielectric constant tensor:
#      x y z
#    x 1.864650 -0.005090 0.053960 
#    y -0.005090 1.885930 0.026200 
#    z 0.053960 0.026200 2.025230 
# 
# From -- ./inp_files/306738.got.cif
#   From: 2010.05.17/outbox.cif.g08.bks.cpg/sg2_154_cif.got.tgz:306738.got - 2010.06.03 11:33:40.
