data_PCOD9041240
_publ_section_title
;
Structure prediction by ZEFSAII (Michael W. Deem and Ramdas Pophale) SiO2 
 PCOD9041240
Probable space group: P -1
;
_chemical_formula_sum "Si O2"
_cell_formula_units_Z 16
_cell_length_a 8.815696
_cell_length_b 8.197894
_cell_length_c 12.054318
_cell_angle_alpha 49.727997
_cell_angle_beta 106.609113
_cell_angle_gamma 97.374539
_cell_volume 635.055219
_symmetry_space_group_name_H-M "P -1"
_symmetry_group_IT_number 2
_symmetry_cell_setting 'triclinic'
loop_
_space_group_symop_operation_xyz
x,y,z
-x,-y,-z
loop_
_atom_site_type_symbol
_atom_site_label
_atom_site_fract_x
_atom_site_fract_y
_atom_site_fract_z
Si Si1 0.175442 0.396856 0.432086
Si Si2 0.537738 0.148554 0.215463
Si Si3 0.956971 0.910105 0.858720
Si Si4 0.354485 0.778896 0.388868
Si Si5 0.476232 0.249145 0.913928
Si Si6 0.885345 0.715857 0.154770
Si Si7 0.893284 0.041925 0.350284
Si Si8 0.589194 0.656066 0.678980
O O1 0.304238 0.548726 0.440509
O O2 0.134034 0.202251 0.586882
O O3 0.258546 0.299081 0.380760
O O4 0.016615 0.539301 0.304583
O O5 0.424417 0.247817 0.244224
O O6 0.484315 0.906557 0.293420
O O7 0.718755 0.146857 0.292618
O O8 0.519402 0.267282 0.043839
O O9 0.078717 0.054997 0.885076
O O10 0.033862 0.835816 0.790918
O O11 0.806246 0.070045 0.723295
O O12 0.904772 0.744711 0.013089
O O13 0.435268 0.752135 0.537224
O O14 0.291859 0.328895 0.830542
O O15 0.582318 0.400802 0.800108
O O16 0.500000 0.000000 0.000000
O O17 0.000000 0.000000 0.500000
#
# Coordination Sequence:
#
# PCOD9041240 Si02
#       8
#     2   2   2   2   2   2   2   2
#     4  11  27  44  72 110 140 187 244 290 356 425
#     4  12  26  48  71 103 146 189 240 293 358 423
#     4  10  23  43  72 100 142 185 234 288 361 416
#     4  11  23  46  75 102 138 186 242 299 347 420
#     4  12  27  46  77 103 139 188 242 297 350 425
#     4  10  24  45  70 105 141 182 235 298 349 419
#     4  12  28  45  70 105 148 191 233 292 364 425
#     4  12  27  44  72 104 146 185 239 298 360 419
#
# _framework density 25.194655999999998
#
# number of rings (size 3 to 8) (size 9 to 14) (size 15 to 20)
#    0.000    0.750    2.500    3.375   14.000    1.000 
#    0.000    1.250    0.000    0.000    0.000    0.000 
#    0.000    0.000    0.000    0.000    0.000    0.000 
#
# Total GULP energy -89674.672131 kJ/mol
# GULP energy per Si atom -5604.667008 kJ/mol
# Density = 2.513731 g / cm^3
# Si number density = 25.194656 Si / 1000 Ang^3
#
#
#
# Elastic Constant Matrix: (Units=GPa)
#
#
# Indices 1 2 3 4 5 6 
#
# 1 98.1227 10.2384 5.9712 13.2347 7.4101 3.3500
# 2 10.2384 65.3962 11.3259 7.2584 0.9338 2.2756
# 3 5.9712 11.3259 71.6043 6.8076 -12.6648 7.4220
# 4 13.2347 7.2584 6.8076 39.6299 0.5269 -2.0894
# 5 7.4101 0.9338 -12.6648 0.5269 47.0820 1.4434
# 6 3.3500 2.2756 7.4220 -2.0894 1.4434 31.9045
#
#
#
# Elastic Compliance Matrix: (Units=1/GPa)
#
#
# Indices 1 2 3 4 5 6 
#
# 1 0.010979 -0.001174 -0.000617 -0.003378 -0.001800 -0.001065
# 2 -0.001174 0.016150 -0.002312 -0.002191 -0.000714 -0.000602
# 3 -0.000617 -0.002312 0.015803 -0.002346 0.004537 -0.003805
# 4 -0.003378 -0.002191 -0.002346 0.027323 -0.000450 0.002866
# 5 -0.001800 -0.000714 0.004537 -0.000450 0.022820 -0.001877
# 6 -0.001065 -0.000602 -0.003805 0.002866 -0.001877 0.032656
#
#
# Mechanical properties :
#
#
# Convention : Reuss Voigt Hill
#
# Bulk Modulus (GPa) = 28.79741 32.24382 30.52062
# Shear Modulus (GPa) = 34.36120 37.56246 35.96183
#
# Velocity S-wave (km/s) = 3.69701 3.86539 3.78214
# Velocity P-wave (km/s) = 5.44781 5.72253 5.58686
#
# Compressibility (1/GPa) = 0.03472534
#
# Stress axis : x y z
#
# Youngs Moduli (GPa) = 91.08041 61.91937 63.28031
#
# Poissons Ratio (x) = 0.07272 0.03902
# Poissons Ratio (y) = 0.10697 0.14632
# Poissons Ratio (z) = 0.05616 0.14317
#
# Static dielectric constant tensor:
#      x y z
#    x 1.922190 0.016420 0.001810 
#    y 0.016420 2.079880 -0.010330 
#    z 0.001810 -0.010330 1.937420 
# 
# From -- ./inp_files/261816.got.cif
#   From: 2010.05.17/outbox.cif.g08.bks.cpg/sg2_131_cif.got.tgz:261816.got - 2010.06.03 11:33:40.
