data_PCOD9041922
_publ_section_title
;
Structure prediction by ZEFSAII (Michael W. Deem and Ramdas Pophale) SiO2 
 PCOD9041922
Probable space group: P -1
;
_chemical_formula_sum "Si O2"
_cell_formula_units_Z 16
_cell_length_a 5.032943
_cell_length_b 10.982194
_cell_length_c 11.730173
_cell_angle_alpha 79.793429
_cell_angle_beta 64.806208
_cell_angle_gamma 83.538138
_cell_volume 576.896998
_symmetry_space_group_name_H-M "P -1"
_symmetry_group_IT_number 2
_symmetry_cell_setting 'triclinic'
loop_
_space_group_symop_operation_xyz
x,y,z
-x,-y,-z
loop_
_atom_site_type_symbol
_atom_site_label
_atom_site_fract_x
_atom_site_fract_y
_atom_site_fract_z
Si Si1 0.558931 0.142832 0.488481
Si Si2 0.898250 0.623420 0.892544
Si Si3 0.988827 0.672415 0.605918
Si Si4 0.350939 0.550598 0.389629
Si Si5 0.708049 0.975939 0.857803
Si Si6 0.018010 0.779209 0.281472
Si Si7 0.680583 0.181688 0.205944
Si Si8 0.868012 0.637727 0.130980
O O1 0.880190 0.190070 0.460976
O O2 0.300885 0.189272 0.611609
O O3 0.539877 0.194002 0.354577
O O4 0.500000 0.000000 0.500000
O O5 0.887487 0.666783 0.756673
O O6 0.204761 0.684033 0.866345
O O7 0.899545 0.476226 0.911501
O O8 0.714240 0.664492 0.032129
O O9 0.289077 0.593127 0.524294
O O10 0.769681 0.582049 0.596933
O O11 0.656084 0.576159 0.271070
O O12 0.150965 0.656833 0.338671
O O13 0.775469 0.105103 0.762983
O O14 0.537689 0.884308 0.824512
O O15 0.024954 0.908143 0.833423
O O16 0.500000 0.000000 0.000000
O O17 0.983140 0.754543 0.156691
#
# Coordination Sequence:
#
# PCOD9041922 Si02
#       8
#     2   2   2   2   2   2   2   2
#     4  11  24  46  72 103 149 190 251 312 375 448
#     4  10  24  46  73 104 149 189 247 313 380 457
#     4  10  23  44  68 105 141 182 246 297 380 442
#     4  11  25  41  75 104 144 193 244 318 377 457
#     4  12  28  48  78 110 154 205 260 311 385 456
#     4  12  26  45  74 105 146 195 253 310 380 459
#     4  11  27  49  75 111 152 203 251 321 380 451
#     4  11  24  47  71 106 144 192 246 308 387 453
#
# _framework density 27.734587999999999
#
# number of rings (size 3 to 8) (size 9 to 14) (size 15 to 20)
#    0.000    1.000    3.750    1.125    5.250   10.000 
#    0.000    0.000    0.000    0.000    0.000    0.000 
#    0.000    0.000    0.000    0.000    0.000    0.000 
#
# Total GULP energy -89569.891138 kJ/mol
# GULP energy per Si atom -5598.118196 kJ/mol
# Density = 2.767146 g / cm^3
# Si number density = 27.734588 Si / 1000 Ang^3
#
#
#
# Elastic Constant Matrix: (Units=GPa)
#
#
# Indices 1 2 3 4 5 6 
#
# 1 99.1588 49.4496 32.8673 9.6444 -3.9475 20.5434
# 2 49.4496 194.4970 55.2579 -3.4185 2.7208 22.0910
# 3 32.8673 55.2579 186.7272 11.9940 17.1945 8.4135
# 4 9.6444 -3.4185 11.9940 72.3334 7.0656 -4.4836
# 5 -3.9475 2.7208 17.1945 7.0656 32.3970 6.4860
# 6 20.5434 22.0910 8.4135 -4.4836 6.4860 54.0472
#
#
#
# Elastic Compliance Matrix: (Units=1/GPa)
#
#
# Indices 1 2 3 4 5 6 
#
# 1 0.013151 -0.002483 -0.001608 -0.002272 0.004042 -0.004407
# 2 -0.002483 0.006348 -0.001433 0.000781 0.000028 -0.001367
# 3 -0.001608 -0.001433 0.006390 -0.000539 -0.003464 0.000573
# 4 -0.002272 0.000781 -0.000539 0.014762 -0.003737 0.002301
# 5 0.004042 0.000028 -0.003464 -0.003737 0.035118 -0.005533
# 6 -0.004407 -0.001367 0.000573 0.002301 -0.005533 0.021502
#
#
# Mechanical properties :
#
#
# Convention : Reuss Voigt Hill
#
# Bulk Modulus (GPa) = 67.37261 83.94807 75.66034
# Shear Modulus (GPa) = 44.14408 54.60941 49.37674
#
# Velocity S-wave (km/s) = 3.99389 4.44216 4.22397
# Velocity P-wave (km/s) = 6.75373 7.52625 7.15043
#
# Compressibility (1/GPa) = 0.01484283
#
# Stress axis : x y z
#
# Youngs Moduli (GPa) = 76.04104 157.52243 156.48884
#
# Poissons Ratio (x) = 0.39107 0.25160
# Poissons Ratio (y) = 0.18878 0.22422
# Poissons Ratio (z) = 0.12226 0.22570
#
# Static dielectric constant tensor:
#      x y z
#    x 2.389090 -0.094030 0.059680 
#    y -0.094030 2.116970 0.014090 
#    z 0.059680 0.014090 2.192880 
# 
# From -- ./inp_files/364454.got.cif
#   From: 2010.05.17/outbox.cif.g08.bks.cpg/sg2_183_cif.got.tgz:364454.got - 2010.06.03 11:33:40.
