data_PCOD9041235
_publ_section_title
;
Structure prediction by ZEFSAII (Michael W. Deem and Ramdas Pophale) SiO2 
 PCOD9041235
Probable space group: P -1
;
_chemical_formula_sum "Si O2"
_cell_formula_units_Z 12
_cell_length_a 5.513633
_cell_length_b 15.935962
_cell_length_c 6.835953
_cell_angle_alpha 69.601259
_cell_angle_beta 104.849383
_cell_angle_gamma 90.313295
_cell_volume 541.837055
_symmetry_space_group_name_H-M "P -1"
_symmetry_group_IT_number 2
_symmetry_cell_setting 'triclinic'
loop_
_space_group_symop_operation_xyz
x,y,z
-x,-y,-z
loop_
_atom_site_type_symbol
_atom_site_label
_atom_site_fract_x
_atom_site_fract_y
_atom_site_fract_z
Si Si1 0.269798 0.687723 0.693182
Si Si2 0.879278 0.276893 0.937434
Si Si3 0.240477 0.236090 0.362254
Si Si4 0.362720 0.039549 0.630178
Si Si5 0.199187 0.923958 0.012915
Si Si6 0.748498 0.448173 0.497754
O O1 0.970028 0.716245 0.575379
O O2 0.290951 0.705368 0.915538
O O3 0.683940 0.412930 0.296486
O O4 0.183175 0.642164 0.287892
O O5 0.528561 0.256419 0.421132
O O6 0.862623 0.178368 0.924812
O O7 0.152443 0.272519 0.100681
O O8 0.206233 0.131270 0.461157
O O9 0.500000 0.000000 0.500000
O O10 0.232972 0.960190 0.771452
O O11 0.552673 0.070482 0.809731
O O12 0.000000 0.000000 0.000000
O O13 0.500000 0.500000 0.500000
O O14 0.000000 0.500000 0.500000
#
# Coordination Sequence:
#
# PCOD9041235 Si02
#       6
#     2   2   2   2   2   2
#     4  10  24  47  70 103 139 184 228 292 355 418
#     4  10  26  44  72  99 146 183 234 290 358 412
#     4  10  23  43  71  99 142 188 226 284 348 417
#     4  11  24  41  66 102 148 187 244 283 351 410
#     4  11  25  42  69 106 142 190 240 292 339 433
#     4  12  28  47  75 106 136 182 238 297 358 428
#
# _framework density 22.146875999999999
#
# number of rings (size 3 to 8) (size 9 to 14) (size 15 to 20)
#    1.000    0.333    0.000    4.000    7.000    4.000 
#    0.000    0.000    0.000    0.000    0.000    0.000 
#    0.000    0.000    0.000    0.000    0.000    0.000 
#
# Total GULP energy -66936.742529 kJ/mol
# GULP energy per Si atom -5578.061877 kJ/mol
# Density = 2.209647 g / cm^3
# Si number density = 22.146876 Si / 1000 Ang^3
#
#
#
# Elastic Constant Matrix: (Units=GPa)
#
#
# Indices 1 2 3 4 5 6 
#
# 1 130.6704 54.0541 29.6498 0.4992 -21.6944 1.5412
# 2 54.0541 163.3947 39.3245 0.9483 -18.4596 -6.2475
# 3 29.6498 39.3245 78.4459 -13.5982 -15.5222 -5.8210
# 4 0.4992 0.9483 -13.5982 38.1359 2.0342 -7.6397
# 5 -21.6944 -18.4596 -15.5222 2.0342 26.6487 4.9216
# 6 1.5412 -6.2475 -5.8210 -7.6397 4.9216 34.8337
#
#
#
# Elastic Compliance Matrix: (Units=1/GPa)
#
#
# Indices 1 2 3 4 5 6 
#
# 1 0.010065 -0.002265 -0.001914 -0.001556 0.006066 -0.002370
# 2 -0.002265 0.007794 -0.002843 -0.001180 0.001897 0.000496
# 3 -0.001914 -0.002843 0.017367 0.006627 0.005500 0.003153
# 4 -0.001556 -0.001180 0.006627 0.030323 -0.001997 0.007897
# 5 0.006066 0.001897 0.005500 -0.001997 0.048292 -0.006270
# 6 -0.002370 0.000496 0.003153 0.007897 -0.006270 0.032047
#
#
# Mechanical properties :
#
#
# Convention : Reuss Voigt Hill
#
# Bulk Modulus (GPa) = 47.21070 68.72977 57.97024
# Shear Modulus (GPa) = 29.94117 36.55584 33.24851
#
# Velocity S-wave (km/s) = 3.68086 4.06718 3.87883
# Velocity P-wave (km/s) = 6.27920 7.29088 6.80387
#
# Compressibility (1/GPa) = 0.02118164
#
# Stress axis : x y z
#
# Youngs Moduli (GPa) = 99.35104 128.30399 57.57930
#
# Poissons Ratio (x) = 0.29066 0.11020
# Poissons Ratio (y) = 0.22507 0.16371
# Poissons Ratio (z) = 0.19015 0.36479
#
# Static dielectric constant tensor:
#      x y z
#    x 1.838980 -0.009290 0.017640 
#    y -0.009290 1.848610 0.028300 
#    z 0.017640 0.028300 1.854310 
# 
# From -- ./inp_files/10396.got.cif
#   From: 2010.05.17/outbox.cif.g08.bks.cpg/sg2_6_cif.got.tgz:10396.got - 2010.06.03 11:33:40.
