data_PCOD9041476
_publ_section_title
;
Structure prediction by ZEFSAII (Michael W. Deem and Ramdas Pophale) SiO2 
 PCOD9041476
Probable space group: P -1
;
_chemical_formula_sum "Si O2"
_cell_formula_units_Z 16
_cell_length_a 8.323887
_cell_length_b 11.287507
_cell_length_c 15.478200
_cell_angle_alpha 135.172905
_cell_angle_beta 47.858832
_cell_angle_gamma 130.940000
_cell_volume 714.020087
_symmetry_space_group_name_H-M "P -1"
_symmetry_group_IT_number 2
_symmetry_cell_setting 'triclinic'
loop_
_space_group_symop_operation_xyz
x,y,z
-x,-y,-z
loop_
_atom_site_type_symbol
_atom_site_label
_atom_site_fract_x
_atom_site_fract_y
_atom_site_fract_z
Si Si1 0.718059 0.400289 0.644724
Si Si2 0.603851 0.052649 0.894815
Si Si3 0.682665 0.460305 0.100459
Si Si4 0.021829 0.465946 0.124479
Si Si5 0.149533 0.879853 0.868552
Si Si6 0.292172 0.156276 0.389631
Si Si7 0.179099 0.805043 0.362435
Si Si8 0.756864 0.341183 0.404358
O O1 0.566045 0.519843 0.791020
O O2 0.666314 0.224832 0.631277
O O3 0.670267 0.351999 0.536986
O O4 0.994001 0.501277 0.609399
O O5 0.396181 0.997741 0.874603
O O6 0.740200 0.931167 0.740807
O O7 0.698972 0.265672 0.972976
O O8 0.500000 0.000000 0.000000
O O9 0.814819 0.503273 0.166544
O O10 0.820660 0.573888 0.028303
O O11 0.934838 0.299836 0.135459
O O12 0.154773 0.642904 0.221582
O O13 0.166554 0.826248 0.736138
O O14 0.000000 0.000000 0.000000
O O15 0.540557 0.309888 0.399805
O O16 0.076237 0.214221 0.521333
O O17 0.273521 0.993410 0.377558
#
# Coordination Sequence:
#
# PCOD9041476 Si02
#       8
#     2   2   2   2   2   2   2   2
#     4  11  24  42  66  95 127 169 218 269 320 385
#     4  11  22  40  62  95 131 170 210 262 324 382
#     4  11  24  42  67  96 132 171 217 264 324 390
#     4  11  23  44  66  97 130 171 219 264 325 389
#     4  11  23  41  65  95 131 168 212 266 325 383
#     4  10  24  43  66  93 131 172 217 268 315 395
#     4  11  23  43  68  94 126 173 220 264 325 375
#     4  10  23  44  60  96 129 165 213 263 325 378
#
# _framework density 22.408332000000001
#
# number of rings (size 3 to 8) (size 9 to 14) (size 15 to 20)
#    0.000    1.250    3.750    1.500    0.000    6.500 
#    0.000    0.000    0.000    0.000    0.000    0.000 
#    0.000    0.000    0.000    0.000    0.000    0.000 
#
# Total GULP energy -89264.281972 kJ/mol
# GULP energy per Si atom -5579.017623 kJ/mol
# Density = 2.235733 g / cm^3
# Si number density = 22.408332 Si / 1000 Ang^3
#
#
#
# Elastic Constant Matrix: (Units=GPa)
#
#
# Indices 1 2 3 4 5 6 
#
# 1 47.4276 30.7824 39.2616 -6.5932 -3.1720 -5.7787
# 2 30.7824 43.5166 24.7822 -9.1356 -8.0108 10.1427
# 3 39.2616 24.7822 131.9118 -19.3072 2.0769 -6.6071
# 4 -6.5932 -9.1356 -19.3072 32.5950 4.2376 2.9830
# 5 -3.1720 -8.0108 2.0769 4.2376 34.2458 2.3846
# 6 -5.7787 10.1427 -6.6071 2.9830 2.3846 16.7022
#
#
#
# Elastic Compliance Matrix: (Units=1/GPa)
#
#
# Indices 1 2 3 4 5 6 
#
# 1 0.090483 -0.084705 -0.008990 -0.016562 -0.014705 0.084246
# 2 -0.084705 0.116591 0.000889 0.022762 0.024025 -0.107253
# 3 -0.008990 0.000889 0.010869 0.005117 -0.001918 0.000009
# 4 -0.016562 0.022762 0.005117 0.038938 0.000371 -0.024536
# 5 -0.014705 0.024025 -0.001918 0.000371 0.035308 -0.025544
# 6 0.084246 -0.107253 0.000009 -0.024536 -0.025544 0.162185
#
#
# Mechanical properties :
#
#
# Convention : Reuss Voigt Hill
#
# Bulk Modulus (GPa) = 30.93074 45.83428 38.38251
# Shear Modulus (GPa) = 7.68326 25.24391 16.46359
#
# Velocity S-wave (km/s) = 1.85370 3.36004 2.71349
# Velocity P-wave (km/s) = 4.29125 5.96252 5.19454
#
# Compressibility (1/GPa) = 0.03233030
#
# Stress axis : x y z
#
# Youngs Moduli (GPa) = 11.05178 8.57696 92.00131
#
# Poissons Ratio (x) = 0.72651 0.82713
# Poissons Ratio (y) = 0.93614 -0.08176
# Poissons Ratio (z) = 0.09936 -0.00762
#
# Static dielectric constant tensor:
#      x y z
#    x 1.813730 -0.004760 0.001990 
#    y -0.004760 1.891210 -0.044800 
#    z 0.001990 -0.044800 1.799940 
# 
# From -- ./inp_files/416248.got.cif
#   From: 2010.05.17/outbox.cif.g08.bks.cpg/sg2_209_cif.got.tgz:416248.got - 2010.06.03 11:33:40.
