data_PCOD9041214
_publ_section_title
;
Structure prediction by ZEFSAII (Michael W. Deem and Ramdas Pophale) SiO2 
 PCOD9041214
Probable space group: P -1
;
_chemical_formula_sum "Si O2"
_cell_formula_units_Z 14
_cell_length_a 11.288782
_cell_length_b 10.129779
_cell_length_c 8.056702
_cell_angle_alpha 43.436745
_cell_angle_beta 70.754071
_cell_angle_gamma 62.506924
_cell_volume 561.886698
_symmetry_space_group_name_H-M "P -1"
_symmetry_group_IT_number 2
_symmetry_cell_setting 'triclinic'
loop_
_space_group_symop_operation_xyz
x,y,z
-x,-y,-z
loop_
_atom_site_type_symbol
_atom_site_label
_atom_site_fract_x
_atom_site_fract_y
_atom_site_fract_z
Si Si1 0.617258 0.089714 0.822572
Si Si2 0.409996 0.808703 0.892781
Si Si3 0.871215 0.322664 0.629851
Si Si4 0.086953 0.057258 0.266695
Si Si5 0.326131 0.165069 0.392732
Si Si6 0.067577 0.529796 0.191744
Si Si7 0.408234 0.411454 0.414050
O O1 0.753593 0.982522 0.755779
O O2 0.535143 0.294036 0.573523
O O3 0.660622 0.107141 0.977054
O O4 0.500000 0.000000 0.000000
O O5 0.553658 0.837197 0.780863
O O6 0.328660 0.940729 0.654284
O O7 0.432533 0.570808 0.126779
O O8 0.914399 0.096196 0.744107
O O9 0.881411 0.350296 0.797403
O O10 0.719099 0.462492 0.531204
O O11 0.966970 0.431557 0.408299
O O12 0.000000 0.000000 0.500000
O O13 0.011609 0.294995 0.055097
O O14 0.190571 0.338911 0.246205
O O15 0.365069 0.251288 0.470702
#
# Coordination Sequence:
#
# PCOD9041214 Si02
#       7
#     2   2   2   2   2   2   2
#     4  12  25  44  69  97 140 181 224 272 339 404
#     4  11  23  41  67  97 130 166 225 276 336 387
#     4  10  23  43  71  98 129 179 231 275 341 401
#     4  12  28  45  66 103 140 181 229 277 338 414
#     4  10  24  42  66 103 128 167 221 290 329 392
#     4  10  24  44  71  95 138 176 224 280 345 404
#     4  11  22  42  69  97 130 175 222 275 330 402
#
# _framework density 24.916056000000001
#
# number of rings (size 3 to 8) (size 9 to 14) (size 15 to 20)
#    0.000    1.143    2.857    2.143    6.000    4.000 
#    0.000    0.000    0.000    0.000    0.000    0.000 
#    0.000    0.000    0.000    0.000    0.000    0.000 
#
# Total GULP energy -78256.986926 kJ/mol
# GULP energy per Si atom -5589.784780 kJ/mol
# Density = 2.485935 g / cm^3
# Si number density = 24.916056 Si / 1000 Ang^3
#
#
#
# Elastic Constant Matrix: (Units=GPa)
#
#
# Indices 1 2 3 4 5 6 
#
# 1 94.4519 45.7516 35.0530 -9.8373 4.2752 -32.9432
# 2 45.7516 154.8775 72.4540 0.8870 10.9939 -50.4870
# 3 35.0530 72.4540 118.4371 -35.6606 2.0606 -28.1123
# 4 -9.8373 0.8870 -35.6606 48.6394 -7.4673 5.6175
# 5 4.2752 10.9939 2.0606 -7.4673 33.5466 -6.4598
# 6 -32.9432 -50.4870 -28.1123 5.6175 -6.4598 60.3613
#
#
#
# Elastic Compliance Matrix: (Units=1/GPa)
#
#
# Indices 1 2 3 4 5 6 
#
# 1 0.013957 -0.001692 -0.001450 0.001190 0.000176 0.005434
# 2 -0.001692 0.013517 -0.008614 -0.008329 -0.004251 0.006691
# 3 -0.001450 -0.008614 0.018203 0.014003 0.004950 -0.000292
# 4 0.001190 -0.008329 0.014003 0.032767 0.008642 -0.001920
# 5 0.000176 -0.004251 0.004950 0.008642 0.033105 0.001585
# 6 0.005434 0.006691 -0.000292 -0.001920 0.001585 0.025341
#
#
# Mechanical properties :
#
#
# Convention : Reuss Voigt Hill
#
# Bulk Modulus (GPa) = 45.11983 74.92042 60.02013
# Shear Modulus (GPa) = 29.79908 42.80998 36.30453
#
# Velocity S-wave (km/s) = 3.46204 4.14958 3.82130
# Velocity P-wave (km/s) = 5.84201 7.28650 6.60387
#
# Compressibility (1/GPa) = 0.02216320
#
# Stress axis : x y z
#
# Youngs Moduli (GPa) = 71.65015 73.98230 54.93593
#
# Poissons Ratio (x) = 0.12519 0.07968
# Poissons Ratio (y) = 0.12124 0.47322
# Poissons Ratio (z) = 0.10393 0.63728
#
# Static dielectric constant tensor:
#      x y z
#    x 2.090950 0.111800 -0.001940 
#    y 0.111800 2.076280 -0.018870 
#    z -0.001940 -0.018870 1.926170 
# 
# From -- ./inp_files/261281.got.cif
#   From: 2010.05.17/outbox.cif.g08.bks.cpg/sg2_131_cif.got.tgz:261281.got - 2010.06.03 11:33:40.
