data_PCOD9041503
_publ_section_title
;
Structure prediction by ZEFSAII (Michael W. Deem and Ramdas Pophale) SiO2 
 PCOD9041503
Probable space group: P -1
;
_chemical_formula_sum "Si O2"
_cell_formula_units_Z 16
_cell_length_a 19.562080
_cell_length_b 5.878062
_cell_length_c 9.450118
_cell_angle_alpha 128.503516
_cell_angle_beta 75.073366
_cell_angle_gamma 94.757929
_cell_volume 817.361152
_symmetry_space_group_name_H-M "P -1"
_symmetry_group_IT_number 2
_symmetry_cell_setting 'triclinic'
loop_
_space_group_symop_operation_xyz
x,y,z
-x,-y,-z
loop_
_atom_site_type_symbol
_atom_site_label
_atom_site_fract_x
_atom_site_fract_y
_atom_site_fract_z
Si Si1 0.319054 0.189829 0.905745
Si Si2 0.220654 0.265673 0.265554
Si Si3 0.526568 0.732382 0.182636
Si Si4 0.782976 0.383476 0.035938
Si Si5 0.714227 0.422672 0.385713
Si Si6 0.940160 0.664209 0.693232
Si Si7 0.440377 0.323168 0.534013
Si Si8 0.940343 0.370048 0.888959
O O1 0.402428 0.158479 0.880243
O O2 0.303097 0.908610 0.714947
O O3 0.273035 0.240090 0.092356
O O4 0.288062 0.453473 0.927400
O O5 0.254054 0.430448 0.439361
O O6 0.140627 0.397685 0.324881
O O7 0.211947 0.926953 0.165758
O O8 0.552932 0.622294 0.280975
O O9 0.465154 0.988448 0.350262
O O10 0.500000 0.500000 0.000000
O O11 0.858830 0.499514 0.014781
O O12 0.769464 0.390170 0.213309
O O13 0.638964 0.591359 0.445052
O O14 0.952876 0.504151 0.777596
O O15 0.000000 0.500000 0.500000
O O16 0.943533 0.018493 0.796257
O O17 0.500000 0.500000 0.500000
O O18 0.000000 0.500000 0.000000
#
# Coordination Sequence:
#
# PCOD9041503 Si02
#       8
#     2   2   2   2   2   2   2   2
#     4  11  22  43  61  93 126 164 217 269 316 403
#     4  10  25  41  66  94 128 170 215 268 334 389
#     4  11  26  40  64  89 124 170 211 266 336 386
#     4  10  23  44  63  93 134 163 223 265 321 399
#     4  11  24  41  66  92 126 172 211 272 333 386
#     4  11  24  45  67 104 139 174 231 280 332 411
#     4  11  24  43  58  92 126 157 219 266 314 403
#     4  11  24  44  71  99 139 183 222 279 341 401
#
# _framework density 19.575192000000001
#
# number of rings (size 3 to 8) (size 9 to 14) (size 15 to 20)
#    0.000    1.250    3.750    0.750    5.250    2.500 
#    0.000    0.000    0.000    0.000    0.000    0.000 
#    0.000    0.000    0.000    0.000    0.000    0.000 
#
# Total GULP energy -89121.073812 kJ/mol
# GULP energy per Si atom -5570.067113 kJ/mol
# Density = 1.953064 g / cm^3
# Si number density = 19.575192 Si / 1000 Ang^3
#
#
#
# Elastic Constant Matrix: (Units=GPa)
#
#
# Indices 1 2 3 4 5 6 
#
# 1 120.0526 28.6473 84.4209 -3.3831 8.8665 3.5585
# 2 28.6473 66.5617 33.5391 -3.0705 10.0389 -4.7581
# 3 84.4209 33.5391 133.1477 2.7228 27.5727 -2.3208
# 4 -3.3831 -3.0705 2.7228 17.9755 1.7466 -4.9300
# 5 8.8665 10.0389 27.5727 1.7466 46.8110 -1.8368
# 6 3.5585 -4.7581 -2.3208 -4.9300 -1.8368 33.7721
#
#
#
# Elastic Compliance Matrix: (Units=1/GPa)
#
#
# Indices 1 2 3 4 5 6 
#
# 1 0.016122 -0.002157 -0.010482 0.003363 0.003377 -0.002048
# 2 -0.002157 0.018068 -0.002835 0.004133 -0.001829 0.003082
# 3 -0.010482 -0.002835 0.016393 -0.004034 -0.006878 0.000869
# 4 0.003363 0.004133 -0.004034 0.060058 -0.001049 0.008661
# 5 0.003377 -0.001829 -0.006878 -0.001049 0.025210 0.000132
# 6 -0.002048 0.003082 0.000869 0.008661 0.000132 0.031591
#
#
# Mechanical properties :
#
#
# Convention : Reuss Voigt Hill
#
# Bulk Modulus (GPa) = 50.93669 68.10850 59.52259
# Shear Modulus (GPa) = 24.39788 31.25538 27.82663
#
# Velocity S-wave (km/s) = 3.53422 4.00019 3.77440
# Velocity P-wave (km/s) = 6.53696 7.49694 7.03335
#
# Compressibility (1/GPa) = 0.01963222
#
# Stress axis : x y z
#
# Youngs Moduli (GPa) = 62.02851 55.34766 61.00306
#
# Poissons Ratio (x) = 0.11941 0.63945
# Poissons Ratio (y) = 0.13382 0.17296
# Poissons Ratio (z) = 0.65020 0.15692
#
# Static dielectric constant tensor:
#      x y z
#    x 1.739740 -0.004760 -0.034410 
#    y -0.004760 1.811160 -0.010930 
#    z -0.034410 -0.010930 1.666620 
# 
# From -- ./inp_files/10670.got.cif
#   From: 2010.05.17/outbox.cif.g08.bks.cpg/sg2_6_cif.got.tgz:10670.got - 2010.06.03 11:33:40.
