data_PCOD9041026
_publ_section_title
;
Structure prediction by ZEFSAII (Michael W. Deem and Ramdas Pophale) SiO2 
 PCOD9041026
Probable space group: P -1
;
_chemical_formula_sum "Si O2"
_cell_formula_units_Z 8
_cell_length_a 4.954301
_cell_length_b 12.067827
_cell_length_c 5.533103
_cell_angle_alpha 114.228126
_cell_angle_beta 92.303458
_cell_angle_gamma 85.845453
_cell_volume 300.860333
_symmetry_space_group_name_H-M "P -1"
_symmetry_group_IT_number 2
_symmetry_cell_setting 'triclinic'
loop_
_space_group_symop_operation_xyz
x,y,z
-x,-y,-z
loop_
_atom_site_type_symbol
_atom_site_label
_atom_site_fract_x
_atom_site_fract_y
_atom_site_fract_z
Si Si1 0.706428 0.107460 0.340954
Si Si2 0.506747 0.300424 0.859278
Si Si3 0.823107 0.851134 0.940389
Si Si4 0.741023 0.510487 0.332881
O O1 0.681190 0.185937 0.651796
O O2 0.824648 0.968369 0.222541
O O3 0.399671 0.107618 0.233179
O O4 0.893113 0.171026 0.205932
O O5 0.308342 0.256444 0.019076
O O6 0.317171 0.365264 0.705038
O O7 0.706712 0.400829 0.045568
O O8 0.500000 0.500000 0.500000
O O9 0.000000 0.500000 0.500000
#
# Coordination Sequence:
#
# PCOD9041026 Si02
#       4
#     2   2   2   2
#     4  10  23  43  70 108 146 181 231 290 351 429
#     4  11  25  46  78 102 141 197 236 288 366 425
#     4  10  23  43  70 108 146 181 231 290 351 429
#     4  11  28  49  69 104 143 183 246 305 349 414
#
# _framework density 26.590411
#
# number of rings (size 3 to 8) (size 9 to 14) (size 15 to 20)
#    0.000    1.500    0.000    2.250    0.000   18.000 
#    0.000   11.250    0.000    4.500    0.000    0.000 
#    0.000    0.000    0.000    0.000    0.000    0.000 
#
# Total GULP energy -44932.809863 kJ/mol
# GULP energy per Si atom -5616.601233 kJ/mol
# Density = 2.652989 g / cm^3
# Si number density = 26.590411 Si / 1000 Ang^3
#
#
#
# Elastic Constant Matrix: (Units=GPa)
#
#
# Indices 1 2 3 4 5 6 
#
# 1 166.0933 20.8957 40.1571 -4.0566 5.4996 -6.9308
# 2 20.8957 94.8665 -0.0623 -4.4899 10.2403 3.9426
# 3 40.1571 -0.0623 122.1401 29.4213 4.8216 -11.5355
# 4 -4.0566 -4.4899 29.4213 44.9895 -1.2087 1.3650
# 5 5.4996 10.2403 4.8216 -1.2087 42.2865 -14.3535
# 6 -6.9308 3.9426 -11.5355 1.3650 -14.3535 38.5218
#
#
#
# Elastic Compliance Matrix: (Units=1/GPa)
#
#
# Indices 1 2 3 4 5 6 
#
# 1 0.006954 -0.001444 -0.002795 0.002296 -0.000008 0.000478
# 2 -0.001444 0.011390 0.000145 0.000900 -0.003482 -0.002711
# 3 -0.002795 0.000145 0.011256 -0.007695 -0.000131 0.003077
# 4 0.002296 0.000900 -0.007695 0.027649 0.000166 -0.002901
# 5 -0.000008 -0.003482 -0.000131 0.000166 0.028182 0.010811
# 6 0.000478 -0.002711 0.003077 -0.002901 0.010811 0.031375
#
#
# Mechanical properties :
#
#
# Convention : Reuss Voigt Hill
#
# Bulk Modulus (GPa) = 46.70062 56.12007 51.41035
# Shear Modulus (GPa) = 37.84120 46.63352 42.23736
#
# Velocity S-wave (km/s) = 3.77651 4.19235 3.98985
# Velocity P-wave (km/s) = 6.05121 6.67724 6.37192
#
# Compressibility (1/GPa) = 0.02141299
#
# Stress axis : x y z
#
# Youngs Moduli (GPa) = 143.79476 87.79327 88.84440
#
# Poissons Ratio (x) = 0.12677 0.24830
# Poissons Ratio (y) = 0.20763 -0.01288
# Poissons Ratio (z) = 0.40188 -0.01273
#
# Static dielectric constant tensor:
#      x y z
#    x 1.986990 -0.022620 0.030590 
#    y -0.022620 2.078070 0.043220 
#    z 0.030590 0.043220 2.090590 
# 
# From -- ./inp_files/1741.got.cif
#   From: 2010.05.17/outbox.cif.g08.bks.cpg/sg2_1_cif.got.tgz:1741.got - 2010.06.03 11:33:40.
