data_PCOD9041655
_publ_section_title
;
Structure prediction by ZEFSAII (Michael W. Deem and Ramdas Pophale) SiO2 
 PCOD9041655
Probable space group: P -1
;
_chemical_formula_sum "Si O2"
_cell_formula_units_Z 12
_cell_length_a 11.672262
_cell_length_b 9.207509
_cell_length_c 7.423040
_cell_angle_alpha 89.848082
_cell_angle_beta 94.619829
_cell_angle_gamma 36.911055
_cell_volume 474.559819
_symmetry_space_group_name_H-M "P -1"
_symmetry_group_IT_number 2
_symmetry_cell_setting 'triclinic'
loop_
_space_group_symop_operation_xyz
x,y,z
-x,-y,-z
loop_
_atom_site_type_symbol
_atom_site_label
_atom_site_fract_x
_atom_site_fract_y
_atom_site_fract_z
Si Si1 0.805604 0.736502 0.369879
Si Si2 0.824076 0.004969 0.937570
Si Si3 0.564187 0.001161 0.816105
Si Si4 0.771274 0.301279 0.645652
Si Si5 0.910068 0.436002 0.823573
Si Si6 0.325538 0.809028 0.676490
O O1 0.000000 0.500000 0.500000
O O2 0.897666 0.665417 0.183102
O O3 0.625250 0.812892 0.333281
O O4 0.724806 0.978484 0.404362
O O5 0.848142 0.112457 0.805794
O O6 0.664050 0.055608 0.840909
O O7 0.741104 0.131432 0.124306
O O8 0.029778 0.715370 0.992061
O O9 0.727290 0.721848 0.780068
O O10 0.500000 0.000000 0.000000
O O11 0.886727 0.333838 0.670659
O O12 0.554056 0.557658 0.681906
O O13 0.766977 0.223285 0.456265
#
# Coordination Sequence:
#
# PCOD9041655 Si02
#       6
#     2   2   2   2   2   2
#     4  11  26  43  70 105 143 185 241 294 355 421
#     4  11  24  42  73 104 139 189 235 288 362 423
#     4  12  23  45  70  99 147 188 231 303 347 416
#     4  11  23  43  73 100 144 189 228 294 356 425
#     4  11  24  44  71 103 142 186 239 291 354 426
#     4  10  23  44  66 103 143 181 239 288 350 424
#
# _framework density 25.286591000000001
#
# number of rings (size 3 to 8) (size 9 to 14) (size 15 to 20)
#    0.000    1.000    5.000    1.500    2.333    6.000 
#    0.000    1.667    0.000    0.000    0.000    0.000 
#    0.000    0.000    0.000    0.000    0.000    0.000 
#
# Total GULP energy -67195.310319 kJ/mol
# GULP energy per Si atom -5599.609193 kJ/mol
# Density = 2.522904 g / cm^3
# Si number density = 25.286591 Si / 1000 Ang^3
#
#
#
# Elastic Constant Matrix: (Units=GPa)
#
#
# Indices 1 2 3 4 5 6 
#
# 1 118.0971 29.0185 44.6469 5.0557 36.2030 0.5720
# 2 29.0185 139.9853 55.9558 -15.3066 17.8958 -0.9335
# 3 44.6469 55.9558 114.5212 -2.2605 20.2410 2.7175
# 4 5.0557 -15.3066 -2.2605 52.3594 -1.6821 9.6510
# 5 36.2030 17.8958 20.2410 -1.6821 48.1816 -5.2420
# 6 0.5720 -0.9335 2.7175 9.6510 -5.2420 37.8082
#
#
#
# Elastic Compliance Matrix: (Units=1/GPa)
#
#
# Indices 1 2 3 4 5 6 
#
# 1 0.012254 -0.000440 -0.003195 -0.001582 -0.007828 -0.000648
# 2 -0.000440 0.009325 -0.004085 0.002608 -0.001361 -0.000324
# 3 -0.003195 -0.004085 0.012232 -0.000204 -0.001344 -0.001066
# 4 -0.001582 0.002608 -0.000204 0.020976 0.000474 -0.005186
# 5 -0.007828 -0.001361 -0.001344 0.000474 0.028154 0.003964
# 6 -0.000648 -0.000324 -0.001066 -0.005186 0.003964 0.028401
#
#
# Mechanical properties :
#
#
# Convention : Reuss Voigt Hill
#
# Bulk Modulus (GPa) = 54.43068 70.20513 62.31791
# Shear Modulus (GPa) = 37.62082 43.86868 40.74475
#
# Velocity S-wave (km/s) = 3.86136 4.16968 4.01848
# Velocity P-wave (km/s) = 6.43835 7.14183 6.79919
#
# Compressibility (1/GPa) = 0.01837199
#
# Stress axis : x y z
#
# Youngs Moduli (GPa) = 81.60659 107.24296 81.75121
#
# Poissons Ratio (x) = 0.04716 0.26117
# Poissons Ratio (y) = 0.03589 0.33395
# Poissons Ratio (z) = 0.26071 0.43808
#
# Static dielectric constant tensor:
#      x y z
#    x 1.990540 -0.022970 -0.054120 
#    y -0.022970 2.000890 0.018510 
#    z -0.054120 0.018510 2.122800 
# 
# From -- ./inp_files/182095.got.cif
#   From: 2010.05.17/outbox.cif.g08.bks.cpg/sg2_92_cif.got.tgz:182095.got - 2010.06.03 11:33:40.
