data_PCOD9041525
_publ_section_title
;
Structure prediction by ZEFSAII (Michael W. Deem and Ramdas Pophale) SiO2 
 PCOD9041525
Probable space group: P -1
;
_chemical_formula_sum "Si O2"
_cell_formula_units_Z 16
_cell_length_a 11.723605
_cell_length_b 11.697026
_cell_length_c 6.130357
_cell_angle_alpha 57.418013
_cell_angle_beta 87.317577
_cell_angle_gamma 93.782661
_cell_volume 703.422019
_symmetry_space_group_name_H-M "P -1"
_symmetry_group_IT_number 2
_symmetry_cell_setting 'triclinic'
loop_
_space_group_symop_operation_xyz
x,y,z
-x,-y,-z
loop_
_atom_site_type_symbol
_atom_site_label
_atom_site_fract_x
_atom_site_fract_y
_atom_site_fract_z
Si Si1 0.829398 0.560636 0.512874
Si Si2 0.042100 0.923431 0.369712
Si Si3 0.818840 0.861799 0.141687
Si Si4 0.917585 0.377253 0.377474
Si Si5 0.465512 0.441315 0.808674
Si Si6 0.261071 0.523910 0.961300
Si Si7 0.422275 0.056245 0.758363
Si Si8 0.421766 0.789080 0.768866
O O1 0.821881 0.703594 0.244415
O O2 0.831804 0.415797 0.539769
O O3 0.956217 0.584349 0.582795
O O4 0.737411 0.546922 0.730698
O O5 0.087951 0.777271 0.540963
O O6 0.926191 0.895015 0.263997
O O7 0.000000 0.000000 0.500000
O O8 0.144738 0.027215 0.158563
O O9 0.693329 0.885117 0.214117
O O10 0.870011 0.471174 0.101401
O O11 0.500000 0.500000 0.500000
O O12 0.331957 0.454976 0.841451
O O13 0.500000 0.500000 0.000000
O O14 0.505888 0.291811 0.980760
O O15 0.316967 0.679557 0.822536
O O16 0.499677 0.167235 0.492014
O O17 0.387316 0.926015 0.739087
O O18 0.500000 0.000000 0.000000
#
# Coordination Sequence:
#
# PCOD9041525 Si02
#       8
#     2   2   2   2   2   2   2   2
#     4  10  23  44  64 104 140 176 232 297 364 433
#     4  10  24  42  71  99 132 181 233 289 357 433
#     4  10  24  44  67  97 138 179 230 292 355 429
#     4  10  24  40  69 100 137 174 232 290 366 427
#     4  10  24  42  68 102 141 182 239 299 357 431
#     4  11  24  39  74  94 137 182 235 295 363 434
#     4  11  26  43  69  97 143 187 239 299 366 428
#     4  10  26  44  64 103 136 184 243 299 356 442
#
# _framework density 22.745947000000001
#
# number of rings (size 3 to 8) (size 9 to 14) (size 15 to 20)
#    0.000    1.750    0.000    1.125   12.250    7.000 
#    0.000    0.000    0.000    0.000    0.000    0.000 
#    0.000    0.000    0.000    0.000    0.000    0.000 
#
# Total GULP energy -89188.794241 kJ/mol
# GULP energy per Si atom -5574.299640 kJ/mol
# Density = 2.269418 g / cm^3
# Si number density = 22.745947 Si / 1000 Ang^3
#
#
#
# Elastic Constant Matrix: (Units=GPa)
#
#
# Indices 1 2 3 4 5 6 
#
# 1 97.2759 21.9227 4.6578 1.2179 6.0888 -18.2344
# 2 21.9227 111.8015 18.2800 5.1889 -4.5566 -12.7103
# 3 4.6578 18.2800 80.5544 3.9523 2.9650 -16.5242
# 4 1.2179 5.1889 3.9523 22.4674 -12.0680 0.8658
# 5 6.0888 -4.5566 2.9650 -12.0680 27.3741 0.0363
# 6 -18.2344 -12.7103 -16.5242 0.8658 0.0363 44.1085
#
#
#
# Elastic Compliance Matrix: (Units=1/GPa)
#
#
# Indices 1 2 3 4 5 6 
#
# 1 0.011890 -0.002002 0.001054 -0.002904 -0.004379 0.004794
# 2 -0.002002 0.009916 -0.001888 -0.000873 0.001914 0.001338
# 3 0.001054 -0.001888 0.014246 -0.004533 -0.004097 0.005321
# 4 -0.002904 -0.000873 -0.004533 0.060756 0.027782 -0.004366
# 5 -0.004379 0.001914 -0.004097 0.027782 0.050519 -0.003381
# 6 0.004794 0.001338 0.005321 -0.004366 -0.003381 0.027121
#
#
# Mechanical properties :
#
#
# Convention : Reuss Voigt Hill
#
# Bulk Modulus (GPa) = 32.91639 42.15032 37.53335
# Shear Modulus (GPa) = 26.28156 35.10810 30.69483
#
# Velocity S-wave (km/s) = 3.40286 3.93299 3.67749
# Velocity P-wave (km/s) = 5.47193 6.26064 5.87953
#
# Compressibility (1/GPa) = 0.03038000
#
# Stress axis : x y z
#
# Youngs Moduli (GPa) = 84.10520 100.84343 70.19455
#
# Poissons Ratio (x) = 0.20193 -0.07398
# Poissons Ratio (y) = 0.16842 0.13250
# Poissons Ratio (z) = -0.08864 0.19036
#
# Static dielectric constant tensor:
#      x y z
#    x 1.939580 0.056590 0.070420 
#    y 0.056590 1.842460 0.062880 
#    z 0.070420 0.062880 1.881310 
# 
# From -- ./inp_files/68463.got.cif
#   From: 2010.05.17/outbox.cif.g08.bks.cpg/sg2_35_cif.got.tgz:68463.got - 2010.06.03 11:33:40.
