data_PCOD9041290
_publ_section_title
;
Structure prediction by ZEFSAII (Michael W. Deem and Ramdas Pophale) SiO2 
 PCOD9041290
Probable space group: P -1
;
_chemical_formula_sum "Si O2"
_cell_formula_units_Z 14
_cell_length_a 14.297514
_cell_length_b 24.552590
_cell_length_c 24.710283
_cell_angle_alpha 11.658210
_cell_angle_beta 23.623578
_cell_angle_gamma 21.857029
_cell_volume 649.550824
_symmetry_space_group_name_H-M "P -1"
_symmetry_group_IT_number 2
_symmetry_cell_setting 'triclinic'
loop_
_space_group_symop_operation_xyz
x,y,z
-x,-y,-z
loop_
_atom_site_type_symbol
_atom_site_label
_atom_site_fract_x
_atom_site_fract_y
_atom_site_fract_z
Si Si1 0.927531 0.368559 0.821738
Si Si2 0.122252 0.211720 0.751216
Si Si3 0.789949 0.792208 0.060569
Si Si4 0.296799 0.147867 0.220923
Si Si5 0.575259 0.024730 0.373629
Si Si6 0.013886 0.143317 0.531767
Si Si7 0.982017 0.221785 0.215750
O O1 0.783076 0.711094 0.555485
O O2 0.065359 0.248407 0.809419
O O3 0.128529 0.298775 0.832156
O O4 0.707742 0.250488 0.069952
O O5 0.000000 0.500000 0.500000
O O6 0.414617 0.051199 0.740106
O O7 0.000000 0.000000 0.000000
O O8 0.864042 0.488205 0.284032
O O9 0.500000 0.000000 0.000000
O O10 0.961299 0.972340 0.777048
O O11 0.202839 0.237663 0.121650
O O12 0.161095 0.945022 0.512954
O O13 0.208845 0.443635 0.015098
O O14 0.500000 0.000000 0.500000
O O15 0.308724 0.089943 0.421510
O O16 0.930172 0.979984 0.686918
#
# Coordination Sequence:
#
# PCOD9041290 Si02
#       7
#     2   2   2   2   2   2   2
#     4  12  26  46  69  99 138 187 221 287 342 400
#     4  12  28  46  68 100 137 184 233 279 345 412
#     4  12  26  46  68 104 142 180 227 272 345 428
#     4  10  23  46  66  96 134 174 233 277 341 397
#     4  12  23  44  71  99 138 173 229 277 337 406
#     4  12  25  42  72 104 134 177 229 281 343 402
#     4  10  23  43  72  97 129 176 223 292 332 392
#
# _framework density 21.553356999999998
#
# number of rings (size 3 to 8) (size 9 to 14) (size 15 to 20)
#    0.000    0.571    2.857    4.286    8.000    0.000 
#    2.571    0.000    0.000    0.000    0.000    0.000 
#    0.000    0.000    0.000    0.000    0.000    0.000 
#
# Total GULP energy -78265.833058 kJ/mol
# GULP energy per Si atom -5590.416647 kJ/mol
# Density = 2.150430 g / cm^3
# Si number density = 21.553357 Si / 1000 Ang^3
#
#
#
# Elastic Constant Matrix: (Units=GPa)
#
#
# Indices 1 2 3 4 5 6 
#
# 1 109.9449 30.8499 23.8629 -36.5510 5.8042 27.9210
# 2 30.8499 167.5400 65.6549 -2.0472 -21.7606 -88.6341
# 3 23.8629 65.6549 103.7475 -4.4942 -19.7089 -25.9293
# 4 -36.5510 -2.0472 -4.4942 65.9961 -7.9677 -55.3092
# 5 5.8042 -21.7606 -19.7089 -7.9677 39.5810 31.3196
# 6 27.9210 -88.6341 -25.9293 -55.3092 31.3196 138.8281
#
#
#
# Elastic Compliance Matrix: (Units=1/GPa)
#
#
# Indices 1 2 3 4 5 6 
#
# 1 0.012615 -0.003580 -0.001518 0.003863 -0.001185 -0.003300
# 2 -0.003580 0.016773 -0.006161 0.010435 -0.003218 0.015161
# 3 -0.001518 -0.006161 0.014157 -0.001950 0.005947 -0.003102
# 4 0.003863 0.010435 -0.001950 0.033693 -0.004879 0.020046
# 5 -0.001185 -0.003218 0.005947 -0.004879 0.033774 -0.010268
# 6 -0.003300 0.015161 -0.003102 0.020046 -0.010268 0.027270
#
#
# Mechanical properties :
#
#
# Convention : Reuss Voigt Hill
#
# Bulk Modulus (GPa) = 47.56210 69.10755 58.33483
# Shear Modulus (GPa) = 29.79604 66.27201 48.03402
#
# Velocity S-wave (km/s) = 3.72214 5.55109 4.72594
# Velocity P-wave (km/s) = 6.37083 8.55683 7.54343
#
# Compressibility (1/GPa) = 0.02102514
#
# Stress axis : x y z
#
# Youngs Moduli (GPa) = 79.27354 59.62129 70.63802
#
# Poissons Ratio (x) = 0.21346 0.10725
# Poissons Ratio (y) = 0.28382 0.43518
# Poissons Ratio (z) = 0.12036 0.36731
#
# Static dielectric constant tensor:
#      x y z
#    x 1.502860 0.062040 0.106120 
#    y 0.062040 1.718580 -0.026310 
#    z 0.106120 -0.026310 1.717900 
# 
# From -- ./inp_files/619960.got.cif
#   From: 2010.05.17/outbox.cif.g08.bks.cpg/sg2_310_cif.got.tgz:619960.got - 2010.06.03 11:33:40.
