data_PCOD9041911
_publ_section_title
;
Structure prediction by ZEFSAII (Michael W. Deem and Ramdas Pophale) SiO2 
 PCOD9041911
Probable space group: P -1
;
_chemical_formula_sum "Si O2"
_cell_formula_units_Z 14
_cell_length_a 9.975869
_cell_length_b 14.602118
_cell_length_c 4.956875
_cell_angle_alpha 98.094712
_cell_angle_beta 84.054348
_cell_angle_gamma 134.108593
_cell_volume 513.275061
_symmetry_space_group_name_H-M "P -1"
_symmetry_group_IT_number 2
_symmetry_cell_setting 'triclinic'
loop_
_space_group_symop_operation_xyz
x,y,z
-x,-y,-z
loop_
_atom_site_type_symbol
_atom_site_label
_atom_site_fract_x
_atom_site_fract_y
_atom_site_fract_z
Si Si1 0.100800 0.711453 0.282212
Si Si2 0.138177 0.428402 0.204233
Si Si3 0.769219 0.908208 0.229332
Si Si4 0.575783 0.310367 0.424255
Si Si5 0.361459 0.370132 0.305372
Si Si6 0.526768 0.121183 0.993403
Si Si7 0.978756 0.851178 0.328713
O O1 0.019814 0.670674 0.581859
O O2 0.076733 0.803779 0.207626
O O3 0.318376 0.794906 0.238178
O O4 0.960483 0.589991 0.060738
O O5 0.270121 0.399239 0.124692
O O6 0.740591 0.436348 0.611047
O O7 0.593330 0.784454 0.374950
O O8 0.895317 0.878318 0.124886
O O9 0.675861 0.930321 0.041430
O O10 0.883423 0.023829 0.464256
O O11 0.490448 0.340640 0.225050
O O12 0.611827 0.229998 0.243475
O O13 0.500000 0.500000 0.500000
O O14 0.191662 0.259269 0.487052
O O15 0.500000 0.000000 0.000000
#
# Coordination Sequence:
#
# PCOD9041911 Si02
#       7
#     2   2   2   2   2   2   2
#     4  11  26  45  72 107 144 188 235 292 360 429
#     4  10  24  45  74 106 144 184 237 292 361 427
#     4  10  23  45  70 100 140 186 246 294 358 418
#     4  10  23  44  68 103 139 185 236 297 356 422
#     4   8  17  39  67 105 137 176 229 293 356 418
#     4  12  29  43  69 101 142 195 237 296 355 427
#     4   9  20  43  72 103 137 186 238 299 353 421
#
# _framework density 27.275827
#
# number of rings (size 3 to 8) (size 9 to 14) (size 15 to 20)
#    0.000    2.000    0.000    0.857   10.000    2.286 
#    0.000    7.143    0.000    0.000    0.000    0.000 
#    0.000    0.000    0.000    0.000    0.000    0.000 
#
# Total GULP energy -78442.565355 kJ/mol
# GULP energy per Si atom -5603.040382 kJ/mol
# Density = 2.721375 g / cm^3
# Si number density = 27.275827 Si / 1000 Ang^3
#
#
#
# Elastic Constant Matrix: (Units=GPa)
#
#
# Indices 1 2 3 4 5 6 
#
# 1 162.0292 51.3087 36.6672 27.4003 12.7766 -14.3458
# 2 51.3087 129.7008 20.9148 8.7861 -4.3980 -6.6228
# 3 36.6672 20.9148 81.9455 6.5462 -4.9279 -6.9720
# 4 27.4003 8.7861 6.5462 29.9474 -0.0110 -6.0199
# 5 12.7766 -4.3980 -4.9279 -0.0110 38.7409 4.3967
# 6 -14.3458 -6.6228 -6.9720 -6.0199 4.3967 57.8275
#
#
#
# Elastic Compliance Matrix: (Units=1/GPa)
#
#
# Indices 1 2 3 4 5 6 
#
# 1 0.009313 -0.002804 -0.003041 -0.006791 -0.003916 0.001213
# 2 -0.002804 0.009029 -0.000943 0.000144 0.001818 0.000101
# 3 -0.003041 -0.000943 0.014006 0.000127 0.002605 0.000641
# 4 -0.006791 0.000144 0.000127 0.040010 0.002016 0.002359
# 5 -0.003916 0.001818 0.002605 0.002016 0.027910 -0.002361
# 6 0.001213 0.000101 0.000641 0.002359 -0.002361 0.018108
#
#
# Mechanical properties :
#
#
# Convention : Reuss Voigt Hill
#
# Bulk Modulus (GPa) = 53.27695 65.71744 59.49720
# Shear Modulus (GPa) = 36.17730 42.95545 39.56638
#
# Velocity S-wave (km/s) = 3.64586 3.97275 3.81281
# Velocity P-wave (km/s) = 6.10722 6.72232 6.42214
#
# Compressibility (1/GPa) = 0.01876984
#
# Stress axis : x y z
#
# Youngs Moduli (GPa) = 107.38253 110.75920 71.39966
#
# Poissons Ratio (x) = 0.31062 0.21713
# Poissons Ratio (y) = 0.30115 0.06733
# Poissons Ratio (z) = 0.32655 0.10445
#
# Static dielectric constant tensor:
#      x y z
#    x 2.240670 -0.047040 0.055900 
#    y -0.047040 2.109700 0.007310 
#    z 0.055900 0.007310 2.121530 
# 
# From -- ./inp_files/38805.got.cif
#   From: 2010.05.17/outbox.cif.g08.bks.cpg/sg2_20_cif.got.tgz:38805.got - 2010.06.03 11:33:40.
