data_PCOD9041264
_publ_section_title
;
Structure prediction by ZEFSAII (Michael W. Deem and Ramdas Pophale) SiO2 
 PCOD9041264
Probable space group: P -1
;
_chemical_formula_sum "Si O2"
_cell_formula_units_Z 12
_cell_length_a 7.318923
_cell_length_b 20.476146
_cell_length_c 5.195557
_cell_angle_alpha 63.269627
_cell_angle_beta 45.490840
_cell_angle_gamma 52.022777
_cell_volume 437.456663
_symmetry_space_group_name_H-M "P -1"
_symmetry_group_IT_number 2
_symmetry_cell_setting 'triclinic'
loop_
_space_group_symop_operation_xyz
x,y,z
-x,-y,-z
loop_
_atom_site_type_symbol
_atom_site_label
_atom_site_fract_x
_atom_site_fract_y
_atom_site_fract_z
Si Si1 0.755749 0.337441 0.373843
Si Si2 0.067490 0.405976 0.109325
Si Si3 0.330112 0.095773 0.075456
Si Si4 0.813427 0.599672 0.467451
Si Si5 0.084865 0.780062 0.090426
Si Si6 0.172619 0.903975 0.084184
O O1 0.756466 0.408047 0.480161
O O2 0.394775 0.381892 0.610932
O O3 0.782541 0.283669 0.165109
O O4 0.901936 0.263969 0.572943
O O5 0.252370 0.361864 0.259148
O O6 0.000000 0.500000 0.000000
O O7 0.996352 0.370261 0.954739
O O8 0.535638 0.114229 0.025474
O O9 0.044756 0.106326 0.484825
O O10 0.230092 0.154981 0.822230
O O11 0.500000 0.000000 0.000000
O O12 0.000000 0.500000 0.500000
O O13 0.223109 0.840141 0.916955
O O14 0.000000 0.000000 0.000000
#
# Coordination Sequence:
#
# PCOD9041264 Si02
#       6
#     2   2   2   2   2   2
#     4  12  26  48  69 112 154 196 262 322 412 459
#     4  10  23  43  72 105 140 195 247 315 388 474
#     4  12  27  50  82 118 160 215 279 332 397 486
#     4  10  23  43  72 105 140 195 247 315 388 474
#     4  12  28  48  73 114 154 220 250 350 392 475
#     4  12  27  50  82 118 160 215 279 332 397 486
#
# _framework density 27.431290000000001
#
# number of rings (size 3 to 8) (size 9 to 14) (size 15 to 20)
#    0.000    0.667    3.333    3.000    0.000    9.333 
#    6.000    0.000    0.000    0.000    0.000    0.000 
#    0.000    0.000    0.000    0.000    0.000    0.000 
#
# Total GULP energy -66807.752883 kJ/mol
# GULP energy per Si atom -5567.312740 kJ/mol
# Density = 2.736885 g / cm^3
# Si number density = 27.431290 Si / 1000 Ang^3
#
#
#
# Elastic Constant Matrix: (Units=GPa)
#
#
# Indices 1 2 3 4 5 6 
#
# 1 323.2224 99.5520 113.3402 -26.0925 27.5441 -1.2888
# 2 99.5520 168.3791 69.1344 -13.8691 8.4843 21.8227
# 3 113.3402 69.1344 164.8045 -10.0238 31.0059 -10.0428
# 4 -26.0925 -13.8691 -10.0238 41.0347 1.7854 13.1647
# 5 27.5441 8.4843 31.0059 1.7854 81.5086 -14.3638
# 6 -1.2888 21.8227 -10.0428 13.1647 -14.3638 60.6608
#
#
#
# Elastic Compliance Matrix: (Units=1/GPa)
#
#
# Indices 1 2 3 4 5 6 
#
# 1 0.004578 -0.001537 -0.002288 0.001955 -0.000612 -0.000298
# 2 -0.001537 0.008720 -0.002662 0.002687 -0.000181 -0.004236
# 3 -0.002288 -0.002662 0.009235 -0.000679 -0.002079 0.002093
# 4 0.001955 0.002687 -0.000679 0.029035 -0.002725 -0.007984
# 5 -0.000612 -0.000181 -0.002079 -0.002725 0.013981 0.003610
# 6 -0.000298 -0.004236 0.002093 -0.007984 0.003610 0.020937
#
#
# Mechanical properties :
#
#
# Convention : Reuss Voigt Hill
#
# Bulk Modulus (GPa) = 104.59803 135.60656 120.10230
# Shear Modulus (GPa) = 48.71116 61.59944 55.15530
#
# Velocity S-wave (km/s) = 4.21854 4.74391 4.48892
# Velocity P-wave (km/s) = 7.87031 8.91900 8.41101
#
# Compressibility (1/GPa) = 0.00956041
#
# Stress axis : x y z
#
# Youngs Moduli (GPa) = 218.42095 114.67887 108.28177
#
# Poissons Ratio (x) = 0.17626 0.24774
# Poissons Ratio (y) = 0.33571 0.28820
# Poissons Ratio (z) = 0.49973 0.30523
#
# Static dielectric constant tensor:
#      x y z
#    x 2.422680 -0.209580 -0.279170 
#    y -0.209580 2.460930 0.458820 
#    z -0.279170 0.458820 2.885410 
# 
# From -- ./inp_files/5928.got.cif
#   From: 2010.05.17/outbox.cif.g08.bks.cpg/sg2_3_cif.got.tgz:5928.got - 2010.06.03 11:33:40.
