data_PCOD9041792
_publ_section_title
;
Structure prediction by ZEFSAII (Michael W. Deem and Ramdas Pophale) SiO2 
 PCOD9041792
Probable space group: P -1
;
_chemical_formula_sum "Si O2"
_cell_formula_units_Z 13
_cell_length_a 12.631042
_cell_length_b 5.203464
_cell_length_c 9.323316
_cell_angle_alpha 112.964505
_cell_angle_beta 91.082099
_cell_angle_gamma 101.582841
_cell_volume 549.501927
_symmetry_space_group_name_H-M "P -1"
_symmetry_group_IT_number 2
_symmetry_cell_setting 'triclinic'
loop_
_space_group_symop_operation_xyz
x,y,z
-x,-y,-z
loop_
_atom_site_type_symbol
_atom_site_label
_atom_site_fract_x
_atom_site_fract_y
_atom_site_fract_z
Si Si1 0.410455 0.772884 0.139998
Si Si2 0.866058 0.221187 0.188938
Si Si3 0.000000 0.500000 0.000000
Si Si4 0.360994 0.111174 0.941983
Si Si5 0.628840 0.045828 0.522350
Si Si6 0.246360 0.414508 0.539494
Si Si7 0.960544 0.994478 0.662611
O O1 0.541386 0.897053 0.167703
O O2 0.351196 0.881838 0.293352
O O3 0.390414 0.431432 0.073954
O O4 0.368912 0.879157 0.013563
O O5 0.819101 0.475630 0.310735
O O6 0.959556 0.153575 0.276208
O O7 0.761086 0.956046 0.132146
O O8 0.910412 0.271668 0.040772
O O9 0.970225 0.299662 0.806625
O O10 0.691714 0.310453 0.487666
O O11 0.500000 0.000000 0.500000
O O12 0.670706 0.760625 0.432594
O O13 0.160171 0.203771 0.390940
O O14 0.000000 0.000000 0.500000
#
# Coordination Sequence:
#
# PCOD9041792 Si02
#       7
#     2   2   1   2   2   2   2
#     4  10  23  44  67 110 143 197 251 323 375 473
#     4  12  28  49  77 114 156 210 258 328 390 478
#     4  12  30  48  82 112 158 206 280 316 390 484
#     4  10  24  43  74 102 153 191 252 317 397 445
#     4  12  27  47  76 111 149 202 263 315 391 481
#     4  12  28  47  81 106 160 204 251 326 399 453
#     4  12  28  53  76 118 158 208 267 330 395 469
#
# _framework density 23.657788
#
# number of rings (size 3 to 8) (size 9 to 14) (size 15 to 20)
#    0.000    0.615    1.538    4.154    8.615    3.692 
#    0.000    0.000    0.000    0.000    0.000    0.000 
#    0.000    0.000    0.000    0.000    0.000    0.000 
#
# Total GULP energy -72578.507374 kJ/mol
# GULP energy per Si atom -5582.962106 kJ/mol
# Density = 2.360394 g / cm^3
# Si number density = 23.657788 Si / 1000 Ang^3
#
#
#
# Elastic Constant Matrix: (Units=GPa)
#
#
# Indices 1 2 3 4 5 6 
#
# 1 119.4026 27.3759 15.9458 -22.9975 7.7577 3.4056
# 2 27.3759 82.4917 22.2399 -21.5582 -7.8955 15.2531
# 3 15.9458 22.2399 104.1818 -14.4558 -6.1563 22.5858
# 4 -22.9975 -21.5582 -14.4558 35.4457 8.3180 -1.2176
# 5 7.7577 -7.8955 -6.1563 8.3180 22.6313 0.8490
# 6 3.4056 15.2531 22.5858 -1.2176 0.8490 35.1990
#
#
#
# Elastic Compliance Matrix: (Units=1/GPa)
#
#
# Indices 1 2 3 4 5 6 
#
# 1 0.010841 -0.002435 -0.000812 0.006988 -0.007391 0.000947
# 2 -0.002435 0.016498 -0.000536 0.007055 0.004093 -0.006425
# 3 -0.000812 -0.000536 0.012023 0.003223 0.002453 -0.007352
# 4 0.006988 0.007055 0.003223 0.041540 -0.014174 -0.004022
# 5 -0.007391 0.004093 0.002453 -0.014174 0.054191 -0.004430
# 6 0.000947 -0.006425 -0.007352 -0.004022 -0.004430 0.035787
#
#
# Mechanical properties :
#
#
# Convention : Reuss Voigt Hill
#
# Bulk Modulus (GPa) = 31.44910 48.57772 40.01341
# Shear Modulus (GPa) = 26.44876 34.68949 30.56913
#
# Velocity S-wave (km/s) = 3.34724 3.83339 3.59853
# Velocity P-wave (km/s) = 5.31609 6.33808 5.84945
#
# Compressibility (1/GPa) = 0.03179741
#
# Stress axis : x y z
#
# Youngs Moduli (GPa) = 92.24334 60.61212 83.17285
#
# Poissons Ratio (x) = 0.14759 0.06753
# Poissons Ratio (y) = 0.22461 0.04455
# Poissons Ratio (z) = 0.07489 0.03247
#
# Static dielectric constant tensor:
#      x y z
#    x 1.893900 0.021910 0.009050 
#    y 0.021910 1.827770 0.027250 
#    z 0.009050 0.027250 1.915120 
# 
# From -- ./inp_files/230015.got.cif
#   From: 2010.05.17/outbox.cif.g08.bks.cpg/sg2_116_cif.got.tgz:230015.got - 2010.06.03 11:33:40.
