data_PCOD9041939
_publ_section_title
;
Structure prediction by ZEFSAII (Michael W. Deem and Ramdas Pophale) SiO2 
 PCOD9041939
Probable space group: P -1
;
_chemical_formula_sum "Si O2"
_cell_formula_units_Z 16
_cell_length_a 20.262024
_cell_length_b 9.299620
_cell_length_c 23.235458
_cell_angle_alpha 150.925513
_cell_angle_beta 160.708191
_cell_angle_gamma 29.492263
_cell_volume 674.079504
_symmetry_space_group_name_H-M "P -1"
_symmetry_group_IT_number 2
_symmetry_cell_setting 'triclinic'
loop_
_space_group_symop_operation_xyz
x,y,z
-x,-y,-z
loop_
_atom_site_type_symbol
_atom_site_label
_atom_site_fract_x
_atom_site_fract_y
_atom_site_fract_z
Si Si1 0.455991 0.586547 0.694197
Si Si2 0.995280 0.852943 0.611173
Si Si3 0.923884 0.307973 0.509113
Si Si4 0.745715 0.750879 0.802268
Si Si5 0.418148 0.583693 0.537778
Si Si6 0.561747 0.226005 0.003238
Si Si7 0.898156 0.352954 0.023399
Si Si8 0.215901 0.565428 0.915413
O O1 0.312280 0.556016 0.618167
O O2 0.376340 0.492418 0.535780
O O3 0.682936 0.387754 0.827497
O O4 0.472568 0.934037 0.816745
O O5 0.046715 0.824458 0.576368
O O6 0.191147 0.889663 0.822271
O O7 0.000000 0.500000 0.500000
O O8 0.769755 0.104504 0.522615
O O9 0.061544 0.520365 0.721665
O O10 0.000000 0.000000 0.500000
O O11 0.645252 0.641722 0.737654
O O12 0.579974 0.703862 0.602228
O O13 0.953716 0.565535 0.874585
O O14 0.769751 0.086316 0.949445
O O15 0.500000 0.500000 0.000000
O O16 0.443757 0.363392 0.013085
O O17 0.853906 0.516714 0.107087
O O18 0.000000 0.000000 0.000000
#
# Coordination Sequence:
#
# PCOD9041939 Si02
#       8
#     2   2   2   2   2   2   2   2
#     4  12  24  42  72 100 138 182 232 296 357 418
#     4  12  25  43  70 104 145 181 228 295 354 423
#     4  12  24  42  72 107 140 181 231 291 359 431
#     4  10  23  44  68  91 135 186 227 290 336 413
#     4  11  23  43  68 101 136 180 240 283 351 420
#     4  12  25  42  70 106 142 181 228 290 367 431
#     4  10  24  44  65  96 133 186 238 286 344 415
#     4  11  22  44  68  96 142 174 231 283 352 418
#
# _framework density 23.736072
#
# number of rings (size 3 to 8) (size 9 to 14) (size 15 to 20)
#    0.000    0.750    2.500    5.250    1.750    2.500 
#    0.000   22.500    0.000    0.000    0.000    0.000 
#    0.000    0.000    0.000    0.000    0.000    0.000 
#
# Total GULP energy -89330.046985 kJ/mol
# GULP energy per Si atom -5583.127937 kJ/mol
# Density = 2.368205 g / cm^3
# Si number density = 23.736072 Si / 1000 Ang^3
#
#
#
# Elastic Constant Matrix: (Units=GPa)
#
#
# Indices 1 2 3 4 5 6 
#
# 1 115.5030 26.7244 6.6412 -10.5525 11.0099 -15.1987
# 2 26.7244 89.8000 31.5474 -5.5755 1.6032 -1.5187
# 3 6.6412 31.5474 103.8031 9.5525 12.5437 -3.1256
# 4 -10.5525 -5.5755 9.5525 47.8835 -15.6511 -1.0735
# 5 11.0099 1.6032 12.5437 -15.6511 44.6151 -10.1581
# 6 -15.1987 -1.5187 -3.1256 -1.0735 -10.1581 28.4791
#
#
#
# Elastic Compliance Matrix: (Units=1/GPa)
#
#
# Indices 1 2 3 4 5 6 
#
# 1 0.010225 -0.002952 0.000328 0.001718 -0.000737 0.005137
# 2 -0.002952 0.013711 -0.004510 0.002595 0.002320 -0.000414
# 3 0.000328 -0.004510 0.011984 -0.004504 -0.005031 -0.000714
# 4 0.001718 0.002595 -0.004504 0.026257 0.011225 0.005555
# 5 -0.000737 0.002320 -0.005031 0.011225 0.030229 0.010384
# 6 0.005137 -0.000414 -0.000714 0.005555 0.010384 0.041668
#
#
# Mechanical properties :
#
#
# Convention : Reuss Voigt Hill
#
# Bulk Modulus (GPa) = 46.17950 48.77023 47.47487
# Shear Modulus (GPa) = 32.14237 40.47506 36.30871
#
# Velocity S-wave (km/s) = 3.68388 4.13390 3.91536
# Velocity P-wave (km/s) = 6.13125 6.58612 6.36275
#
# Compressibility (1/GPa) = 0.02165463
#
# Stress axis : x y z
#
# Youngs Moduli (GPa) = 97.79850 72.93278 83.44388
#
# Poissons Ratio (x) = 0.21527 -0.02741
# Poissons Ratio (y) = 0.28867 0.37631
# Poissons Ratio (z) = -0.03212 0.32891
#
# Static dielectric constant tensor:
#      x y z
#    x 1.880780 -0.033310 -0.004370 
#    y -0.033310 1.906230 0.036040 
#    z -0.004370 0.036040 1.971770 
# 
# From -- ./inp_files/613639.got.cif
#   From: 2010.05.17/outbox.cif.g08.bks.cpg/sg2_307_cif.got.tgz:613639.got - 2010.06.03 11:33:40.
