data_PCOD9041191
_publ_section_title
;
Structure prediction by ZEFSAII (Michael W. Deem and Ramdas Pophale) SiO2 
 PCOD9041191
Probable space group: P -1
;
_chemical_formula_sum "Si O2"
_cell_formula_units_Z 10
_cell_length_a 10.811897
_cell_length_b 8.228003
_cell_length_c 8.902256
_cell_angle_alpha 144.994343
_cell_angle_beta 75.161042
_cell_angle_gamma 116.760218
_cell_volume 395.708878
_symmetry_space_group_name_H-M "P -1"
_symmetry_group_IT_number 2
_symmetry_cell_setting 'triclinic'
loop_
_space_group_symop_operation_xyz
x,y,z
-x,-y,-z
loop_
_atom_site_type_symbol
_atom_site_label
_atom_site_fract_x
_atom_site_fract_y
_atom_site_fract_z
Si Si1 0.596607 0.917886 0.020519
Si Si2 0.908126 0.777994 0.995896
Si Si3 0.180205 0.785054 0.059663
Si Si4 0.839204 0.875453 0.398525
Si Si5 0.390946 0.702487 0.400286
O O1 0.545934 0.556429 0.807907
O O2 0.736854 0.995958 0.937945
O O3 0.500000 0.000000 0.000000
O O4 0.624032 0.153491 0.327759
O O5 0.766472 0.490532 0.765031
O O6 0.852325 0.942456 0.267045
O O7 0.015637 0.675357 0.978047
O O8 0.000000 0.000000 0.000000
O O9 0.224283 0.976044 0.346088
O O10 0.221341 0.497546 0.842992
O O11 0.000000 0.000000 0.500000
O O12 0.500000 0.000000 0.500000
#
# Coordination Sequence:
#
# PCOD9041191 Si02
#       5
#     2   2   2   2   2
#     4  12  28  53  78 109 156 209 258 309 381 469
#     4  11  24  48  79 113 152 190 256 323 377 445
#     4  11  24  48  75 111 146 199 254 308 377 452
#     4  10  23  43  71 110 149 191 245 312 380 448
#     4  12  29  53  78 113 156 204 254 319 391 446
#
# _framework density 25.271103
#
# number of rings (size 3 to 8) (size 9 to 14) (size 15 to 20)
#    0.000    0.800    2.000    4.800    5.600    5.600 
#    3.600    0.000    0.000    0.000    0.000    0.000 
#    0.000    0.000    0.000    0.000    0.000    0.000 
#
# Total GULP energy -56012.125135 kJ/mol
# GULP energy per Si atom -5601.212513 kJ/mol
# Density = 2.521358 g / cm^3
# Si number density = 25.271103 Si / 1000 Ang^3
#
#
#
# Elastic Constant Matrix: (Units=GPa)
#
#
# Indices 1 2 3 4 5 6 
#
# 1 148.4907 48.0509 68.4708 10.3831 14.5814 -15.0255
# 2 48.0509 127.0953 84.7861 -11.8821 31.7590 -0.7380
# 3 68.4708 84.7861 252.0825 -23.2202 15.3287 -14.5285
# 4 10.3831 -11.8821 -23.2202 58.4690 -15.4441 -0.8296
# 5 14.5814 31.7590 15.3287 -15.4441 41.4962 9.4272
# 6 -15.0255 -0.7380 -14.5285 -0.8296 9.4272 38.4187
#
#
#
# Elastic Compliance Matrix: (Units=1/GPa)
#
#
# Indices 1 2 3 4 5 6 
#
# 1 0.009044 -0.001692 -0.001802 -0.003494 -0.003328 0.003565
# 2 -0.001692 0.012754 -0.003369 -0.000613 -0.008222 0.000314
# 3 -0.001802 -0.003369 0.005764 0.002399 0.001739 0.001035
# 4 -0.003494 -0.000613 0.002399 0.020926 0.009111 -0.002255
# 5 -0.003328 -0.008222 0.001739 0.009111 0.036480 -0.009556
# 6 0.003565 0.000314 0.001035 -0.002255 -0.009556 0.030117
#
#
# Mechanical properties :
#
#
# Convention : Reuss Voigt Hill
#
# Bulk Modulus (GPa) = 72.26284 103.36490 87.81387
# Shear Modulus (GPa) = 37.47487 49.43416 43.45452
#
# Velocity S-wave (km/s) = 3.85504 4.42764 4.15122
# Velocity P-wave (km/s) = 6.96220 8.19328 7.60270
#
# Compressibility (1/GPa) = 0.01383837
#
# Stress axis : x y z
#
# Youngs Moduli (GPa) = 110.56469 78.40719 173.48588
#
# Poissons Ratio (x) = 0.13266 0.31256
# Poissons Ratio (y) = 0.18707 0.58440
# Poissons Ratio (z) = 0.19920 0.26412
#
# Static dielectric constant tensor:
#      x y z
#    x 2.159640 0.070620 -0.081510 
#    y 0.070620 2.048590 -0.021710 
#    z -0.081510 -0.021710 1.998480 
# 
# From -- ./inp_files/27448.got.cif
#   From: 2010.05.17/outbox.cif.g08.bks.cpg/sg2_14_cif.got.tgz:27448.got - 2010.06.03 11:33:40.
