data_PCOD9041606
_publ_section_title
;
Structure prediction by ZEFSAII (Michael W. Deem and Ramdas Pophale) SiO2 
 PCOD9041606
Probable space group: P -1
;
_chemical_formula_sum "Si O2"
_cell_formula_units_Z 16
_cell_length_a 15.876824
_cell_length_b 10.116161
_cell_length_c 10.943874
_cell_angle_alpha 136.691068
_cell_angle_beta 37.969815
_cell_angle_gamma 135.254039
_cell_volume 701.860673
_symmetry_space_group_name_H-M "P -1"
_symmetry_group_IT_number 2
_symmetry_cell_setting 'triclinic'
loop_
_space_group_symop_operation_xyz
x,y,z
-x,-y,-z
loop_
_atom_site_type_symbol
_atom_site_label
_atom_site_fract_x
_atom_site_fract_y
_atom_site_fract_z
Si Si1 0.575460 0.396939 0.218088
Si Si2 0.213193 0.362043 0.205268
Si Si3 0.831377 0.373038 0.774849
Si Si4 0.291835 0.768234 0.555563
Si Si5 0.973070 0.034673 0.406278
Si Si6 0.604931 0.789195 0.298123
Si Si7 0.264392 0.362047 0.589615
Si Si8 0.930468 0.451609 0.178834
O O1 0.602075 0.627359 0.296273
O O2 0.403232 0.293050 0.352278
O O3 0.661788 0.441047 0.276998
O O4 0.663833 0.310614 0.963389
O O5 0.135190 0.449189 0.244843
O O6 0.258614 0.567605 0.374162
O O7 0.119663 0.168191 0.261180
O O8 0.333593 0.292272 0.947838
O O9 0.873441 0.171849 0.577470
O O10 0.936630 0.471586 0.831974
O O11 0.443555 0.787123 0.456589
O O12 0.171190 0.757126 0.789511
O O13 0.307896 0.979223 0.610389
O O14 0.874440 0.815880 0.320126
O O15 0.000000 0.000000 0.500000
O O16 0.190105 0.432288 0.606865
O O17 0.000000 0.500000 0.000000
#
# Coordination Sequence:
#
# PCOD9041606 Si02
#       8
#     2   2   2   2   2   2   2   2
#     4  10  23  44  65  95 137 176 228 293 342 412
#     4  11  25  45  70 103 145 179 234 298 349 412
#     4  11  24  43  68 100 138 179 229 284 359 407
#     4  11  23  44  70  98 142 184 233 288 350 422
#     4  12  25  42  68 101 134 183 230 281 351 423
#     4  10  24  42  69 103 132 190 235 279 357 423
#     4  11  23  41  67  94 137 178 226 286 348 412
#     4  12  23  41  70 100 138 185 226 291 350 415
#
# _framework density 22.796547
#
# number of rings (size 3 to 8) (size 9 to 14) (size 15 to 20)
#    0.000    1.000    5.000    0.750    3.500    0.500 
#    0.000    2.500    0.000    0.000    0.000    0.000 
#    0.000    0.000    0.000    0.000    0.000    0.000 
#
# Total GULP energy -89087.738640 kJ/mol
# GULP energy per Si atom -5567.983665 kJ/mol
# Density = 2.274466 g / cm^3
# Si number density = 22.796547 Si / 1000 Ang^3
#
#
#
# Elastic Constant Matrix: (Units=GPa)
#
#
# Indices 1 2 3 4 5 6 
#
# 1 84.6212 12.2242 -7.9058 -14.9596 3.6469 -2.1430
# 2 12.2242 99.6787 17.2888 -14.2086 12.7743 10.3429
# 3 -7.9058 17.2888 75.1244 -16.7945 -3.2371 11.9997
# 4 -14.9596 -14.2086 -16.7945 35.9597 -1.5131 -2.5253
# 5 3.6469 12.7743 -3.2371 -1.5131 29.7671 -0.6741
# 6 -2.1430 10.3429 11.9997 -2.5253 -0.6741 26.8726
#
#
#
# Elastic Compliance Matrix: (Units=1/GPa)
#
#
# Indices 1 2 3 4 5 6 
#
# 1 0.013483 -0.001275 0.003030 0.006560 -0.000423 0.000819
# 2 -0.001275 0.011963 -0.001877 0.002843 -0.005122 -0.003729
# 3 0.003030 -0.001877 0.016907 0.008118 0.002555 -0.005759
# 4 0.006560 0.002843 0.008118 0.035420 0.000640 -0.000851
# 5 -0.000423 -0.005122 0.002555 0.000640 0.036194 0.001765
# 6 0.000819 -0.003729 -0.005759 -0.000851 0.001765 0.041249
#
#
# Mechanical properties :
#
#
# Convention : Reuss Voigt Hill
#
# Bulk Modulus (GPa) = 23.74753 33.62652 28.68702
# Shear Modulus (GPa) = 29.49938 34.37435 31.93686
#
# Velocity S-wave (km/s) = 3.60116 3.88735 3.74699
# Velocity P-wave (km/s) = 5.26602 5.91028 5.59742
#
# Compressibility (1/GPa) = 0.04210965
#
# Stress axis : x y z
#
# Youngs Moduli (GPa) = 74.16584 83.59428 59.14800
#
# Poissons Ratio (x) = 0.10655 -0.17921
# Poissons Ratio (y) = 0.09453 0.11100
# Poissons Ratio (z) = -0.22471 0.15688
#
# Static dielectric constant tensor:
#      x y z
#    x 1.793100 -0.083340 -0.032500 
#    y -0.083340 1.802220 -0.107530 
#    z -0.032500 -0.107530 1.841000 
# 
# From -- ./inp_files/448163.got.cif
#   From: 2010.05.17/outbox.cif.g08.bks.cpg/sg2_225_cif.got.tgz:448163.got - 2010.06.03 11:33:40.
