data_PCOD9041794
_publ_section_title
;
Structure prediction by ZEFSAII (Michael W. Deem and Ramdas Pophale) SiO2 
 PCOD9041794
Probable space group: P -1
;
_chemical_formula_sum "Si O2"
_cell_formula_units_Z 16
_cell_length_a 13.951222
_cell_length_b 11.488232
_cell_length_c 19.301234
_cell_angle_alpha 50.428133
_cell_angle_beta 149.245957
_cell_angle_gamma 148.471009
_cell_volume 772.702008
_symmetry_space_group_name_H-M "P -1"
_symmetry_group_IT_number 2
_symmetry_cell_setting 'triclinic'
loop_
_space_group_symop_operation_xyz
x,y,z
-x,-y,-z
loop_
_atom_site_type_symbol
_atom_site_label
_atom_site_fract_x
_atom_site_fract_y
_atom_site_fract_z
Si Si1 0.291803 0.121531 0.671137
Si Si2 0.111350 0.476706 0.849135
Si Si3 0.103880 0.396213 0.127601
Si Si4 0.283626 0.113373 0.985787
Si Si5 0.235872 0.773775 0.522178
Si Si6 0.567538 0.046827 0.763827
Si Si7 0.148756 0.885448 0.290045
Si Si8 0.190772 0.831047 0.831222
O O1 0.547774 0.399298 0.744386
O O2 0.448942 0.094315 0.728377
O O3 0.202635 0.992485 0.737190
O O4 0.000000 0.000000 0.500000
O O5 0.131523 0.667865 0.798881
O O6 0.905544 0.288663 0.855512
O O7 0.957695 0.323432 0.742316
O O8 0.459782 0.656407 0.990952
O O9 0.056219 0.344725 0.198759
O O10 0.900128 0.140355 0.064938
O O11 0.000000 0.500000 0.000000
O O12 0.056866 0.104540 0.864044
O O13 0.435672 0.123648 0.141199
O O14 0.121634 0.827447 0.376013
O O15 0.000000 0.500000 0.500000
O O16 0.366286 0.925648 0.616182
O O17 0.514500 0.876016 0.614483
O O18 0.500000 0.000000 0.000000
#
# Coordination Sequence:
#
# PCOD9041794 Si02
#       8
#     2   2   2   2   2   2   2   2
#     4  12  27  43  63 102 136 171 227 278 335 401
#     4  11  21  40  69  92 132 165 219 274 328 390
#     4  12  22  43  69  98 131 174 226 274 331 401
#     4  12  23  40  70  97 132 166 224 278 324 392
#     4  10  23  44  67  87 137 176 215 264 339 397
#     4  11  23  42  65  92 129 175 215 275 331 391
#     4  10  25  42  63 103 127 171 222 271 328 397
#     4  12  21  41  73  93 127 180 218 268 339 388
#
# _framework density 20.706558000000001
#
# number of rings (size 3 to 8) (size 9 to 14) (size 15 to 20)
#    0.000    0.750    6.250    1.125    0.000    5.500 
#    4.500    0.000    0.000    0.000    0.000    0.000 
#    0.000    0.000    0.000    0.000    0.000    0.000 
#
# Total GULP energy -89292.320758 kJ/mol
# GULP energy per Si atom -5580.770047 kJ/mol
# Density = 2.065943 g / cm^3
# Si number density = 20.706558 Si / 1000 Ang^3
#
#
#
# Elastic Constant Matrix: (Units=GPa)
#
#
# Indices 1 2 3 4 5 6 
#
# 1 56.4447 31.4438 22.3547 -4.4180 -16.7649 11.9607
# 2 31.4438 109.3433 43.9445 22.2799 -0.7697 28.0450
# 3 22.3547 43.9445 105.2993 -0.4904 -5.9595 12.1868
# 4 -4.4180 22.2799 -0.4904 32.3575 7.3183 -3.9157
# 5 -16.7649 -0.7697 -5.9595 7.3183 32.1465 9.2177
# 6 11.9607 28.0450 12.1868 -3.9157 9.2177 38.0102
#
#
#
# Elastic Compliance Matrix: (Units=1/GPa)
#
#
# Indices 1 2 3 4 5 6 
#
# 1 0.028279 -0.006344 -0.001651 0.003864 0.015426 -0.007031
# 2 -0.006344 0.020398 -0.005363 -0.017678 0.004280 -0.014194
# 3 -0.001651 -0.005363 0.011993 0.003748 0.000095 0.000994
# 4 0.003864 -0.017678 0.003748 0.049249 -0.014430 0.019199
# 5 0.015426 0.004280 0.000095 -0.014430 0.048675 -0.021333
# 6 -0.007031 -0.014194 0.000994 0.019199 -0.021333 0.045826
#
#
# Mechanical properties :
#
#
# Convention : Reuss Voigt Hill
#
# Bulk Modulus (GPa) = 29.45235 51.84150 40.64693
# Shear Modulus (GPa) = 20.62249 32.05912 26.34080
#
# Velocity S-wave (km/s) = 3.15928 3.93906 3.57052
# Velocity P-wave (km/s) = 5.25001 6.76601 6.05564
#
# Compressibility (1/GPa) = 0.03395314
#
# Stress axis : x y z
#
# Youngs Moduli (GPa) = 35.36246 49.02429 83.37978
#
# Poissons Ratio (x) = 0.31101 0.13767
# Poissons Ratio (y) = 0.22434 0.44719
# Poissons Ratio (z) = 0.05839 0.26293
#
# Static dielectric constant tensor:
#      x y z
#    x 1.844760 0.002440 0.028430 
#    y 0.002440 1.732500 0.033910 
#    z 0.028430 0.033910 1.769220 
# 
# From -- ./inp_files/521961.got.cif
#   From: 2010.05.17/outbox.cif.g08.bks.cpg/sg2_261_cif.got.tgz:521961.got - 2010.06.03 11:33:40.
