data_PCOD9041129
_publ_section_title
;
Structure prediction by ZEFSAII (Michael W. Deem and Ramdas Pophale) SiO2 
 PCOD9041129
Probable space group: P -1
;
_chemical_formula_sum "Si O2"
_cell_formula_units_Z 10
_cell_length_a 8.855317
_cell_length_b 12.233496
_cell_length_c 5.851391
_cell_angle_alpha 72.113076
_cell_angle_beta 68.777795
_cell_angle_gamma 122.239050
_cell_volume 386.330218
_symmetry_space_group_name_H-M "P -1"
_symmetry_group_IT_number 2
_symmetry_cell_setting 'triclinic'
loop_
_space_group_symop_operation_xyz
x,y,z
-x,-y,-z
loop_
_atom_site_type_symbol
_atom_site_label
_atom_site_fract_x
_atom_site_fract_y
_atom_site_fract_z
Si Si1 0.694667 0.756537 0.798918
Si Si2 0.170263 0.933283 0.652913
Si Si3 0.099902 0.518164 0.682979
Si Si4 0.306230 0.418925 0.467913
Si Si5 0.469758 0.894032 0.284952
O O1 0.703865 0.897185 0.667518
O O2 0.761704 0.727190 0.543617
O O3 0.437764 0.573571 0.118307
O O4 0.897082 0.819395 0.824447
O O5 0.282130 0.001970 0.797267
O O6 0.275949 0.865764 0.557341
O O7 0.106668 0.385062 0.731765
O O8 0.353285 0.711397 0.419955
O O9 0.000000 0.500000 0.500000
O O10 0.000000 0.500000 0.000000
O O11 0.500000 0.500000 0.500000
O O12 0.500000 0.000000 0.000000
#
# Coordination Sequence:
#
# PCOD9041129 Si02
#       5
#     2   2   2   2   2
#     4  10  23  44  71 108 142 191 238 306 372 437
#     4  10  23  43  71 101 146 184 243 299 371 437
#     4  12  30  48  78 109 152 197 251 307 377 444
#     4  11  25  43  74 104 148 186 252 299 372 439
#     4  11  25  44  73 103 147 191 251 300 371 438
#
# _framework density 25.884589999999999
#
# number of rings (size 3 to 8) (size 9 to 14) (size 15 to 20)
#    0.000    1.200    0.000    3.600   16.800    1.600 
#    0.000    5.000    0.000    0.000    0.000    0.000 
#    0.000    0.000    0.000    0.000    0.000    0.000 
#
# Total GULP energy -55904.288300 kJ/mol
# GULP energy per Si atom -5590.428830 kJ/mol
# Density = 2.582568 g / cm^3
# Si number density = 25.884590 Si / 1000 Ang^3
#
#
#
# Elastic Constant Matrix: (Units=GPa)
#
#
# Indices 1 2 3 4 5 6 
#
# 1 133.4210 36.8728 2.6528 23.3934 17.1834 16.9120
# 2 36.8728 139.9726 18.0180 12.9509 -6.8526 -1.2944
# 3 2.6528 18.0180 109.4811 10.9344 -5.4218 7.0870
# 4 23.3934 12.9509 10.9344 51.6037 -1.4322 1.9127
# 5 17.1834 -6.8526 -5.4218 -1.4322 38.0526 9.8388
# 6 16.9120 -1.2944 7.0870 1.9127 9.8388 63.4834
#
#
#
# Elastic Compliance Matrix: (Units=1/GPa)
#
#
# Indices 1 2 3 4 5 6 
#
# 1 0.009661 -0.002476 0.000467 -0.003910 -0.004404 -0.001876
# 2 -0.002476 0.008117 -0.001143 -0.000634 0.002231 0.000626
# 3 0.000467 -0.001143 0.009648 -0.001885 0.001239 -0.001360
# 4 -0.003910 -0.000634 -0.001885 0.021759 0.002137 0.000252
# 5 -0.004404 0.002231 0.001239 0.002137 0.029861 -0.003612
# 6 -0.001876 0.000626 -0.001360 0.000252 -0.003612 0.016969
#
#
# Mechanical properties :
#
#
# Convention : Reuss Voigt Hill
#
# Bulk Modulus (GPa) = 47.34161 55.32909 51.33535
# Shear Modulus (GPa) = 45.72098 52.31669 49.01883
#
# Velocity S-wave (km/s) = 4.20734 4.50060 4.35644
# Velocity P-wave (km/s) = 6.47546 6.95909 6.72162
#
# Compressibility (1/GPa) = 0.02112307
#
# Stress axis : x y z
#
# Youngs Moduli (GPa) = 103.51331 123.19325 103.64474
#
# Poissons Ratio (x) = 0.30506 -0.04843
# Poissons Ratio (y) = 0.25632 0.11843
# Poissons Ratio (z) = -0.04837 0.14076
#
# Static dielectric constant tensor:
#      x y z
#    x 2.017830 -0.007980 0.045580 
#    y -0.007980 1.972100 0.004620 
#    z 0.045580 0.004620 2.298250 
# 
# From -- ./inp_files/15323.got.cif
#   From: 2010.05.17/outbox.cif.g08.bks.cpg/sg2_8_cif.got.tgz:15323.got - 2010.06.03 11:33:40.
