data_PCOD9041659
_publ_section_title
;
Structure prediction by ZEFSAII (Michael W. Deem and Ramdas Pophale) SiO2 
 PCOD9041659
Probable space group: P -1
;
_chemical_formula_sum "Si O2"
_cell_formula_units_Z 12
_cell_length_a 14.055831
_cell_length_b 6.230693
_cell_length_c 13.613158
_cell_angle_alpha 52.283372
_cell_angle_beta 149.750494
_cell_angle_gamma 125.069800
_cell_volume 471.905899
_symmetry_space_group_name_H-M "P -1"
_symmetry_group_IT_number 2
_symmetry_cell_setting 'triclinic'
loop_
_space_group_symop_operation_xyz
x,y,z
-x,-y,-z
loop_
_atom_site_type_symbol
_atom_site_label
_atom_site_fract_x
_atom_site_fract_y
_atom_site_fract_z
Si Si1 0.778586 0.014446 0.310655
Si Si2 0.926834 0.427339 0.063909
Si Si3 0.342051 0.933731 0.179041
Si Si4 0.524160 0.451017 0.919152
Si Si5 0.257865 0.134502 0.466782
Si Si6 0.278792 0.054323 0.286732
O O1 0.745103 0.049221 0.387912
O O2 0.650914 0.741476 0.232946
O O3 0.701915 0.273277 0.117330
O O4 0.000000 0.000000 0.500000
O O5 0.788134 0.658539 0.888239
O O6 0.112634 0.349753 0.306497
O O7 0.000000 0.500000 0.000000
O O8 0.790464 0.141288 0.010757
O O9 0.433076 0.247014 0.171393
O O10 0.520020 0.757439 0.380363
O O11 0.220520 0.882578 0.184954
O O12 0.500000 0.500000 0.000000
O O13 0.205732 0.008686 0.346623
O O14 0.500000 0.000000 0.500000
#
# Coordination Sequence:
#
# PCOD9041659 Si02
#       6
#     2   2   2   2   2   2
#     4  11  27  46  73 102 141 188 239 300 347 413
#     4  10  24  43  68 101 145 179 234 284 349 417
#     4  11  24  44  71 100 144 188 225 291 350 418
#     4  11  26  48  71 102 144 187 243 286 357 416
#     4  10  23  44  66 105 135 181 234 285 351 411
#     4   9  22  43  68 100 136 181 227 280 351 418
#
# _framework density 25.428799999999999
#
# number of rings (size 3 to 8) (size 9 to 14) (size 15 to 20)
#    0.000    1.667    1.667    0.000    7.000   10.667 
#    6.000    0.000    0.000    0.000    0.000    0.000 
#    0.000    0.000    0.000    0.000    0.000    0.000 
#
# Total GULP energy -66914.272658 kJ/mol
# GULP energy per Si atom -5576.189388 kJ/mol
# Density = 2.537092 g / cm^3
# Si number density = 25.428800 Si / 1000 Ang^3
#
#
#
# Elastic Constant Matrix: (Units=GPa)
#
#
# Indices 1 2 3 4 5 6 
#
# 1 145.6862 22.6993 43.4392 1.3174 -3.6245 -30.5329
# 2 22.6993 117.0162 85.7293 -6.1708 17.4771 1.5561
# 3 43.4392 85.7293 161.1751 -26.7008 21.4296 -12.2125
# 4 1.3174 -6.1708 -26.7008 33.6777 -6.8979 -10.5858
# 5 -3.6245 17.4771 21.4296 -6.8979 50.6540 -10.9472
# 6 -30.5329 1.5561 -12.2125 -10.5858 -10.9472 30.3670
#
#
#
# Elastic Compliance Matrix: (Units=1/GPa)
#
#
# Indices 1 2 3 4 5 6 
#
# 1 0.010348 -0.002403 -0.000490 0.004156 0.005302 0.013691
# 2 -0.002403 0.017165 -0.010419 -0.010416 -0.005973 -0.013270
# 3 -0.000490 -0.010419 0.014803 0.013756 0.001630 0.011377
# 4 0.004156 -0.010416 0.013756 0.051192 0.012052 0.032434
# 5 0.005302 -0.005973 0.001630 0.012052 0.027548 0.020424
# 6 0.013691 -0.013270 0.011377 0.032434 0.020424 0.070621
#
#
# Mechanical properties :
#
#
# Convention : Reuss Voigt Hill
#
# Bulk Modulus (GPa) = 63.73021 80.84593 72.28807
# Shear Modulus (GPa) = 22.36830 41.07374 31.72102
#
# Velocity S-wave (km/s) = 2.96910 4.02337 3.53575
# Velocity P-wave (km/s) = 6.07212 7.31064 6.71997
#
# Compressibility (1/GPa) = 0.01569115
#
# Stress axis : x y z
#
# Youngs Moduli (GPa) = 96.63522 58.25945 67.55556
#
# Poissons Ratio (x) = 0.14002 0.03308
# Poissons Ratio (y) = 0.23225 0.70387
# Poissons Ratio (z) = 0.04732 0.60701
#
# Static dielectric constant tensor:
#      x y z
#    x 2.063980 -0.039520 0.044710 
#    y -0.039520 2.079850 -0.029050 
#    z 0.044710 -0.029050 2.068080 
# 
# From -- ./inp_files/525238.got.cif
#   From: 2010.05.17/outbox.cif.g08.bks.cpg/sg2_263_cif.got.tgz:525238.got - 2010.06.03 11:33:40.
