data_PCOD9041311
_publ_section_title
;
Structure prediction by ZEFSAII (Michael W. Deem and Ramdas Pophale) SiO2 
 PCOD9041311
Probable space group: P -1
;
_chemical_formula_sum "Si O2"
_cell_formula_units_Z 14
_cell_length_a 11.328865
_cell_length_b 11.511615
_cell_length_c 7.167464
_cell_angle_alpha 61.994694
_cell_angle_beta 54.115013
_cell_angle_gamma 96.000968
_cell_volume 566.619874
_symmetry_space_group_name_H-M "P -1"
_symmetry_group_IT_number 2
_symmetry_cell_setting 'triclinic'
loop_
_space_group_symop_operation_xyz
x,y,z
-x,-y,-z
loop_
_atom_site_type_symbol
_atom_site_label
_atom_site_fract_x
_atom_site_fract_y
_atom_site_fract_z
Si Si1 0.561038 0.828532 0.036591
Si Si2 0.140068 0.918748 0.250424
Si Si3 0.653999 0.075290 0.444015
Si Si4 0.815711 0.425094 0.981905
Si Si5 0.010295 0.888397 0.826378
Si Si6 0.812464 0.365150 0.601811
Si Si7 0.690287 0.622214 0.158327
O O1 0.663255 0.932460 0.042839
O O2 0.588566 0.957018 0.765383
O O3 0.360293 0.702923 0.304328
O O4 0.663252 0.741887 0.970424
O O5 0.144041 0.768706 0.307423
O O6 0.074491 0.894355 0.546840
O O7 0.024576 0.973841 0.218332
O O8 0.834820 0.092394 0.207920
O O9 0.500000 0.000000 0.500000
O O10 0.711303 0.252087 0.288783
O O11 0.786412 0.413722 0.793748
O O12 0.019596 0.498244 0.757317
O O13 0.760449 0.534480 0.042148
O O14 0.827229 0.725770 0.115232
O O15 0.500000 0.500000 0.500000
#
# Coordination Sequence:
#
# PCOD9041311 Si02
#       7
#     2   2   2   2   2   2   2
#     4  10  23  43  73 100 139 190 231 289 344 419
#     4   9  18  39  70 100 131 180 234 281 343 414
#     4  11  23  45  68 100 140 187 237 285 347 425
#     4  11  26  43  67 102 147 182 230 290 358 415
#     4   9  20  39  68  97 136 178 230 289 342 406
#     4  11  22  42  70 103 145 182 231 287 356 414
#     4  11  25  46  71 106 140 181 240 290 350 418
#
# _framework density 24.707920999999999
#
# number of rings (size 3 to 8) (size 9 to 14) (size 15 to 20)
#    0.000    1.714    2.857    1.286    2.000    5.714 
#    0.000    0.714    0.000    0.000    0.000    0.000 
#    0.000    0.000    0.000    0.000    0.000    0.000 
#
# Total GULP energy -78362.180313 kJ/mol
# GULP energy per Si atom -5597.298594 kJ/mol
# Density = 2.465169 g / cm^3
# Si number density = 24.707921 Si / 1000 Ang^3
#
#
#
# Elastic Constant Matrix: (Units=GPa)
#
#
# Indices 1 2 3 4 5 6 
#
# 1 166.0912 44.2898 49.8232 -13.4432 -32.1375 -22.9877
# 2 44.2898 148.3485 32.3634 -12.4350 4.2561 -28.6699
# 3 49.8232 32.3634 111.5996 -12.6194 -33.7525 5.7586
# 4 -13.4432 -12.4350 -12.6194 43.0279 5.9556 2.5910
# 5 -32.1375 4.2561 -33.7525 5.9556 54.3807 -9.5531
# 6 -22.9877 -28.6699 5.7586 2.5910 -9.5531 31.9997
#
#
#
# Elastic Compliance Matrix: (Units=1/GPa)
#
#
# Indices 1 2 3 4 5 6 
#
# 1 0.009146 -0.000718 -0.002654 0.000688 0.005122 0.007877
# 2 -0.000718 0.009316 -0.003216 0.001328 -0.001938 0.007724
# 3 -0.002654 -0.003216 0.013303 0.001681 0.005773 -0.005594
# 4 0.000688 0.001328 0.001681 0.024610 -0.001537 -0.001070
# 5 0.005122 -0.001938 0.005773 -0.001537 0.026911 0.009063
# 6 0.007877 0.007724 -0.005594 -0.001070 0.009063 0.047628
#
#
# Mechanical properties :
#
#
# Convention : Reuss Voigt Hill
#
# Bulk Modulus (GPa) = 53.79649 75.44357 64.62003
# Shear Modulus (GPa) = 33.26993 45.85252 39.56122
#
# Velocity S-wave (km/s) = 3.67349 4.31255 4.00579
# Velocity P-wave (km/s) = 6.30975 7.44298 6.89967
#
# Compressibility (1/GPa) = 0.01858857
#
# Stress axis : x y z
#
# Youngs Moduli (GPa) = 109.34240 107.33749 75.17215
#
# Poissons Ratio (x) = 0.07710 0.19953
# Poissons Ratio (y) = 0.07854 0.24172
# Poissons Ratio (z) = 0.29022 0.34515
#
# Static dielectric constant tensor:
#      x y z
#    x 1.980650 0.020630 -0.021530 
#    y 0.020630 1.951590 0.031180 
#    z -0.021530 0.031180 2.055260 
# 
# From -- ./inp_files/256214.got.cif
#   From: 2010.05.17/outbox.cif.g08.bks.cpg/sg2_129_cif.got.tgz:256214.got - 2010.06.03 11:33:40.
