data_PCOD9041054
_publ_section_title
;
Structure prediction by ZEFSAII (Michael W. Deem and Ramdas Pophale) SiO2 
 PCOD9041054
Probable space group: P -1
;
_chemical_formula_sum "Si O2"
_cell_formula_units_Z 16
_cell_length_a 11.039339
_cell_length_b 11.035011
_cell_length_c 11.947280
_cell_angle_alpha 112.800928
_cell_angle_beta 134.701909
_cell_angle_gamma 102.381277
_cell_volume 637.977693
_symmetry_space_group_name_H-M "P -1"
_symmetry_group_IT_number 2
_symmetry_cell_setting 'triclinic'
loop_
_space_group_symop_operation_xyz
x,y,z
-x,-y,-z
loop_
_atom_site_type_symbol
_atom_site_label
_atom_site_fract_x
_atom_site_fract_y
_atom_site_fract_z
Si Si1 0.551826 0.886835 0.429738
Si Si2 0.175203 0.431280 0.676956
Si Si3 0.781275 0.729670 0.566825
Si Si4 0.760776 0.651225 0.846711
Si Si5 0.717261 0.909884 0.877606
Si Si6 0.983110 0.246781 0.711721
Si Si7 0.382416 0.788230 0.825942
Si Si8 0.238079 0.623693 0.309850
O O1 0.720829 0.849516 0.547827
O O2 0.283936 0.673246 0.224311
O O3 0.500000 0.000000 0.500000
O O4 0.699620 0.019244 0.459987
O O5 0.152200 0.334936 0.742354
O O6 0.898002 0.337116 0.444576
O O7 0.216377 0.351558 0.575203
O O8 0.360931 0.664585 0.865209
O O9 0.542035 0.538025 0.410997
O O10 0.049322 0.865939 0.852629
O O11 0.829993 0.829554 0.905787
O O12 0.850110 0.575700 0.810332
O O13 0.872510 0.711678 0.066533
O O14 0.539335 0.810315 0.836344
O O15 0.522058 0.814238 0.614610
O O16 0.930488 0.370849 0.733124
O O17 0.500000 0.000000 0.000000
#
# Coordination Sequence:
#
# PCOD9041054 Si02
#       8
#     2   2   2   2   2   2   2   2
#     4   9  21  42  64  95 139 176 230 277 332 409
#     4  11  24  42  72 100 138 177 234 277 347 413
#     4  11  23  42  69 102 136 182 227 286 335 410
#     4  11  24  43  65  99 140 175 235 287 337 413
#     4  12  22  44  69 100 135 178 231 288 347 399
#     4  11  22  45  67  99 140 184 224 286 347 407
#     4  11  23  45  67 102 139 178 224 289 339 415
#     4  10  23  43  70  96 134 187 232 285 347 403
#
# _framework density 25.079249000000001
#
# number of rings (size 3 to 8) (size 9 to 14) (size 15 to 20)
#    0.000    1.250    5.000    0.750    0.000    3.000 
#    6.750    0.000    0.000    0.000    0.000    0.000 
#    0.000    0.000    0.000    0.000    0.000    0.000 
#
# Total GULP energy -89189.744798 kJ/mol
# GULP energy per Si atom -5574.359050 kJ/mol
# Density = 2.502217 g / cm^3
# Si number density = 25.079249 Si / 1000 Ang^3
#
#
#
# Elastic Constant Matrix: (Units=GPa)
#
#
# Indices 1 2 3 4 5 6 
#
# 1 119.0423 45.0263 15.7862 12.6072 1.5587 12.0606
# 2 45.0263 143.8393 24.0506 20.7229 -14.6861 8.9330
# 3 15.7862 24.0506 68.4252 6.3922 -12.8011 -8.6387
# 4 12.6072 20.7229 6.3922 42.9544 -1.0237 5.9467
# 5 1.5587 -14.6861 -12.8011 -1.0237 28.9506 1.6757
# 6 12.0606 8.9330 -8.6387 5.9467 1.6757 38.9778
#
#
#
# Elastic Compliance Matrix: (Units=1/GPa)
#
#
# Indices 1 2 3 4 5 6 
#
# 1 0.010157 -0.002795 -0.002129 -0.001008 -0.002785 -0.002700
# 2 -0.002795 0.009024 -0.001667 -0.003013 0.003959 -0.001283
# 3 -0.002129 -0.001667 0.017744 -0.001735 0.006767 0.004947
# 4 -0.001008 -0.003013 -0.001735 0.025712 -0.001144 -0.003256
# 5 -0.002785 0.003959 0.006767 -0.001144 0.039656 -0.000076
# 6 -0.002700 -0.001283 0.004947 -0.003256 -0.000076 0.028382
#
#
# Mechanical properties :
#
#
# Convention : Reuss Voigt Hill
#
# Bulk Modulus (GPa) = 42.11602 55.67033 48.89318
# Shear Modulus (GPa) = 32.94475 38.60615 35.77545
#
# Velocity S-wave (km/s) = 3.62833 3.92773 3.78100
# Velocity P-wave (km/s) = 5.86367 6.54335 6.21281
#
# Compressibility (1/GPa) = 0.02374393
#
# Stress axis : x y z
#
# Youngs Moduli (GPa) = 98.45807 110.81863 56.35644
#
# Poissons Ratio (x) = 0.30972 0.11996
# Poissons Ratio (y) = 0.27517 0.09394
# Poissons Ratio (z) = 0.20958 0.18472
#
# Static dielectric constant tensor:
#      x y z
#    x 1.974980 0.017700 -0.028870 
#    y 0.017700 2.083580 -0.045440 
#    z -0.028870 -0.045440 2.084690 
# 
# From -- ./inp_files/519864.got.cif
#   From: 2010.05.17/outbox.cif.g08.bks.cpg/sg2_260_cif.got.tgz:519864.got - 2010.06.03 11:33:40.
