data_PCOD9041885
_publ_section_title
;
Structure prediction by ZEFSAII (Michael W. Deem and Ramdas Pophale) SiO2 
 PCOD9041885
Probable space group: P -1
;
_chemical_formula_sum "Si O2"
_cell_formula_units_Z 15
_cell_length_a 8.628109
_cell_length_b 8.291030
_cell_length_c 13.348044
_cell_angle_alpha 44.361203
_cell_angle_beta 112.755985
_cell_angle_gamma 108.859582
_cell_volume 614.036996
_symmetry_space_group_name_H-M "P -1"
_symmetry_group_IT_number 2
_symmetry_cell_setting 'triclinic'
loop_
_space_group_symop_operation_xyz
x,y,z
-x,-y,-z
loop_
_atom_site_type_symbol
_atom_site_label
_atom_site_fract_x
_atom_site_fract_y
_atom_site_fract_z
Si Si1 0.093644 0.788840 0.228836
Si Si2 0.227407 0.338125 0.357048
Si Si3 0.928005 0.329880 0.144640
Si Si4 0.747541 0.601341 0.149625
Si Si5 0.000000 0.500000 0.500000
Si Si6 0.585384 0.905904 0.845948
Si Si7 0.517206 0.243802 0.337825
Si Si8 0.266949 0.139226 0.668491
O O1 0.164769 0.573024 0.283382
O O2 0.897889 0.770269 0.157341
O O3 0.095845 0.728029 0.372544
O O4 0.218434 0.007346 0.145582
O O5 0.392660 0.385454 0.310637
O O6 0.245416 0.160388 0.532254
O O7 0.082740 0.247152 0.285027
O O8 0.818832 0.479148 0.124500
O O9 0.814379 0.097060 0.197384
O O10 0.000000 0.500000 0.000000
O O11 0.695390 0.393070 0.305946
O O12 0.584207 0.725609 0.017263
O O13 0.831231 0.648685 0.412437
O O14 0.537508 0.800713 0.771921
O O15 0.466022 0.113847 0.742912
O O16 0.500000 0.000000 0.500000
#
# Coordination Sequence:
#
# PCOD9041885 Si02
#       8
#     2   2   2   2   1   2   2   2
#     4  10  26  46  70  99 147 194 241 293 365 431
#     4  10  23  44  68 100 142 185 240 296 358 424
#     4  11  23  41  71 103 142 186 239 297 363 427
#     4  11  25  46  70 107 150 189 237 300 365 440
#     4  10  26  44  72 102 140 190 244 294 356 428
#     4  12  25  45  72 107 150 187 240 300 366 431
#     4  12  24  42  75 108 141 185 245 303 357 421
#     4  11  24  45  69 106 141 188 242 298 356 427
#
# _framework density 24.428494000000001
#
# number of rings (size 3 to 8) (size 9 to 14) (size 15 to 20)
#    0.000    1.067    2.667    2.000    7.467    4.267 
#    0.000    1.333    0.000    0.000    0.000    0.000 
#    0.000    0.000    0.000    0.000    0.000    0.000 
#
# Total GULP energy -83554.511152 kJ/mol
# GULP energy per Si atom -5570.300743 kJ/mol
# Density = 2.437289 g / cm^3
# Si number density = 24.428494 Si / 1000 Ang^3
#
#
#
# Elastic Constant Matrix: (Units=GPa)
#
#
# Indices 1 2 3 4 5 6 
#
# 1 119.0006 22.1856 49.1198 9.3336 -4.1949 -4.8549
# 2 22.1856 72.4894 27.3892 4.0076 1.4661 14.4723
# 3 49.1198 27.3892 136.8382 6.4333 6.6192 9.1993
# 4 9.3336 4.0076 6.4333 13.3727 -0.4868 -4.8938
# 5 -4.1949 1.4661 6.6192 -0.4868 43.9539 -10.3972
# 6 -4.8549 14.4723 9.1993 -4.8938 -10.3972 39.3620
#
#
#
# Elastic Compliance Matrix: (Units=1/GPa)
#
#
# Indices 1 2 3 4 5 6 
#
# 1 0.010844 -0.002454 -0.003551 -0.003862 0.002369 0.003215
# 2 -0.002454 0.017009 -0.001652 -0.005411 -0.002380 -0.007472
# 3 -0.003551 -0.001652 0.009360 -0.002715 -0.002433 -0.002998
# 4 -0.003862 -0.005411 -0.002715 0.085683 0.004477 0.013983
# 5 0.002369 -0.002380 -0.002433 0.004477 0.025615 0.009059
# 6 0.003215 -0.007472 -0.002998 0.013983 0.009059 0.033381
#
#
# Mechanical properties :
#
#
# Convention : Reuss Voigt Hill
#
# Bulk Modulus (GPa) = 45.66010 58.41304 52.03657
# Shear Modulus (GPa) = 24.44923 34.64663 29.54793
#
# Velocity S-wave (km/s) = 3.16705 3.77010 3.48166
# Velocity P-wave (km/s) = 5.66617 6.55098 6.12457
#
# Compressibility (1/GPa) = 0.02190096
#
# Stress axis : x y z
#
# Youngs Moduli (GPa) = 92.21735 58.79168 106.83756
#
# Poissons Ratio (x) = 0.14425 0.37934
# Poissons Ratio (y) = 0.22626 0.17649
# Poissons Ratio (z) = 0.32743 0.09712
#
# Static dielectric constant tensor:
#      x y z
#    x 2.102300 0.037870 0.069740 
#    y 0.037870 1.981260 0.076540 
#    z 0.069740 0.076540 2.063100 
# 
# From -- ./inp_files/491870.got.cif
#   From: 2010.05.17/outbox.cif.g08.bks.cpg/sg2_246_cif.got.tgz:491870.got - 2010.06.03 11:33:40.
