data_PCOD9041284
_publ_section_title
;
Structure prediction by ZEFSAII (Michael W. Deem and Ramdas Pophale) SiO2 
 PCOD9041284
Probable space group: P -1
;
_chemical_formula_sum "Si O2"
_cell_formula_units_Z 16
_cell_length_a 11.769392
_cell_length_b 16.715834
_cell_length_c 9.057741
_cell_angle_alpha 104.025997
_cell_angle_beta 137.652454
_cell_angle_gamma 44.439771
_cell_volume 669.223131
_symmetry_space_group_name_H-M "P -1"
_symmetry_group_IT_number 2
_symmetry_cell_setting 'triclinic'
loop_
_space_group_symop_operation_xyz
x,y,z
-x,-y,-z
loop_
_atom_site_type_symbol
_atom_site_label
_atom_site_fract_x
_atom_site_fract_y
_atom_site_fract_z
Si Si1 0.226665 0.832375 0.161770
Si Si2 0.127238 0.779844 0.331932
Si Si3 0.890087 0.718046 0.898797
Si Si4 0.624226 0.550621 0.925567
Si Si5 0.334268 0.985091 0.782878
Si Si6 0.158732 0.352039 0.894372
Si Si7 0.729007 0.559944 0.340068
Si Si8 0.312143 0.014149 0.430134
O O1 0.268067 0.783319 0.345809
O O2 0.515342 0.708989 0.285082
O O3 0.004558 0.855296 0.885921
O O4 0.000000 0.000000 0.000000
O O5 0.355378 0.643931 0.598469
O O6 0.931494 0.914907 0.312586
O O7 0.942233 0.782444 0.069675
O O8 0.552043 0.843453 0.579082
O O9 0.947179 0.624774 0.032636
O O10 0.117438 0.615846 0.940470
O O11 0.738301 0.596412 0.011071
O O12 0.570416 0.576839 0.060691
O O13 0.254344 0.037216 0.560316
O O14 0.500000 0.000000 0.000000
O O15 0.559230 0.819397 0.935686
O O16 0.891330 0.440089 0.565249
O O17 0.000000 0.500000 0.500000
O O18 0.500000 0.000000 0.500000
#
# Coordination Sequence:
#
# PCOD9041284 Si02
#       8
#     2   2   2   2   2   2   2   2
#     4  12  28  44  73 106 144 185 238 302 349 422
#     4  12  25  45  68 104 144 181 240 291 357 420
#     4  11  23  45  68 100 139 193 223 289 352 430
#     4  11  25  41  71  98 138 180 239 292 351 413
#     4  11  22  43  71 101 135 191 231 289 346 426
#     4  10  23  43  72  95 137 182 243 278 358 412
#     4  10  25  48  66 105 140 183 236 294 360 417
#     4  11  23  45  69 106 144 183 237 282 360 415
#
# _framework density 23.908315999999999
#
# number of rings (size 3 to 8) (size 9 to 14) (size 15 to 20)
#    0.000    1.000    3.750    2.250   10.500    1.500 
#    0.000    1.250    0.000    0.000    0.000    0.000 
#    0.000    0.000    0.000    0.000    0.000    0.000 
#
# Total GULP energy -89313.359944 kJ/mol
# GULP energy per Si atom -5582.084996 kJ/mol
# Density = 2.385390 g / cm^3
# Si number density = 23.908316 Si / 1000 Ang^3
#
#
#
# Elastic Constant Matrix: (Units=GPa)
#
#
# Indices 1 2 3 4 5 6 
#
# 1 93.2056 47.7527 19.2672 -9.4857 -16.5930 -19.0387
# 2 47.7527 120.6898 9.7263 -8.0064 2.5127 -33.8429
# 3 19.2672 9.7263 93.6555 -7.1866 -21.3153 -19.0366
# 4 -9.4857 -8.0064 -7.1866 21.0279 -10.8922 3.8658
# 5 -16.5930 2.5127 -21.3153 -10.8922 39.7784 -3.2407
# 6 -19.0387 -33.8429 -19.0366 3.8658 -3.2407 50.2227
#
#
#
# Elastic Compliance Matrix: (Units=1/GPa)
#
#
# Indices 1 2 3 4 5 6 
#
# 1 0.017147 -0.005488 0.001172 0.011438 0.011513 0.003109
# 2 -0.005488 0.012208 0.000644 0.000119 -0.002174 0.006241
# 3 0.001172 0.000644 0.015372 0.011170 0.012285 0.006638
# 4 0.011438 0.000119 0.011170 0.071572 0.030765 0.005126
# 5 0.011513 -0.002174 0.012285 0.030765 0.045749 0.008139
# 6 0.003109 0.006241 0.006638 0.005126 0.008139 0.027942
#
#
# Mechanical properties :
#
#
# Convention : Reuss Voigt Hill
#
# Bulk Modulus (GPa) = 26.75004 51.22706 38.98855
# Shear Modulus (GPa) = 23.83282 37.59277 30.71280
#
# Velocity S-wave (km/s) = 3.16071 3.96962 3.58803
# Velocity P-wave (km/s) = 4.95308 6.51793 5.78863
#
# Compressibility (1/GPa) = 0.03738312
#
# Stress axis : x y z
#
# Youngs Moduli (GPa) = 58.31919 81.91036 65.05478
#
# Poissons Ratio (x) = 0.44954 -0.07625
# Poissons Ratio (y) = 0.32006 -0.04189
# Poissons Ratio (z) = -0.06836 -0.05275
#
# Static dielectric constant tensor:
#      x y z
#    x 25.437160 28.659400 15.473710 
#    y 28.659400 37.033240 18.994100 
#    z 15.473710 18.994100 12.269060 
# 
# From -- ./inp_files/279552.got.cif
#   From: 2010.05.17/outbox.cif.g08.bks.cpg/sg2_140_cif.got.tgz:279552.got - 2010.06.03 11:33:40.
