data_PCOD9041889
_publ_section_title
;
Structure prediction by ZEFSAII (Michael W. Deem and Ramdas Pophale) SiO2 
 PCOD9041889
Probable space group: P -1
;
_chemical_formula_sum "Si O2"
_cell_formula_units_Z 14
_cell_length_a 9.770472
_cell_length_b 8.459165
_cell_length_c 9.332643
_cell_angle_alpha 130.870173
_cell_angle_beta 102.762979
_cell_angle_gamma 80.338629
_cell_volume 568.590502
_symmetry_space_group_name_H-M "P -1"
_symmetry_group_IT_number 2
_symmetry_cell_setting 'triclinic'
loop_
_space_group_symop_operation_xyz
x,y,z
-x,-y,-z
loop_
_atom_site_type_symbol
_atom_site_label
_atom_site_fract_x
_atom_site_fract_y
_atom_site_fract_z
Si Si1 0.859172 0.027815 0.885217
Si Si2 0.253617 0.137636 0.988572
Si Si3 0.457029 0.489805 0.243433
Si Si4 0.979779 0.426369 0.111604
Si Si5 0.635107 0.221052 0.355018
Si Si6 0.101189 0.153071 0.528000
Si Si7 0.425943 0.141385 0.687527
O O1 0.728511 0.946691 0.895594
O O2 0.881161 0.915799 0.672734
O O3 0.848847 0.275478 0.002784
O O4 0.000000 0.000000 0.000000
O O5 0.364945 0.300942 0.054520
O O6 0.120022 0.287320 0.071301
O O7 0.237263 0.921435 0.767998
O O8 0.571160 0.371520 0.304815
O O9 0.360664 0.634186 0.416546
O O10 0.517911 0.632343 0.215776
O O11 0.963812 0.614670 0.329244
O O12 0.000000 0.500000 0.000000
O O13 0.548391 0.020978 0.270061
O O14 0.256809 0.151830 0.632692
O O15 0.000000 0.000000 0.500000
O O16 0.500000 0.000000 0.500000
#
# Coordination Sequence:
#
# PCOD9041889 Si02
#       7
#     2   2   2   2   2   2   2
#     4  10  26  44  67 105 145 183 247 304 360 437
#     4  11  25  42  70 103 142 187 242 303 369 435
#     4  10  24  44  70 105 142 194 242 297 372 443
#     4  11  24  44  69 108 139 188 244 299 365 443
#     4  10  23  44  68 100 150 181 242 305 360 429
#     4  12  26  46  78 103 147 202 239 304 380 436
#     4  10  25  45  73 109 142 189 247 302 365 445
#
# _framework density 24.62229
#
# number of rings (size 3 to 8) (size 9 to 14) (size 15 to 20)
#    0.000    1.429    1.429    1.286   14.000    2.857 
#    0.000    0.000    0.000    0.000    0.000    0.000 
#    0.000    0.000    0.000    0.000    0.000    0.000 
#
# Total GULP energy -77977.447265 kJ/mol
# GULP energy per Si atom -5569.817662 kJ/mol
# Density = 2.456625 g / cm^3
# Si number density = 24.622290 Si / 1000 Ang^3
#
#
#
# Elastic Constant Matrix: (Units=GPa)
#
#
# Indices 1 2 3 4 5 6 
#
# 1 58.0889 3.6988 0.2584 19.5030 0.7478 1.8421
# 2 3.6988 133.6842 23.3455 22.5011 8.0221 47.6112
# 3 0.2584 23.3455 154.4668 40.1361 -21.7001 -13.4200
# 4 19.5030 22.5011 40.1361 47.0762 -11.0807 -5.3625
# 5 0.7478 8.0221 -21.7001 -11.0807 34.4009 4.4254
# 6 1.8421 47.6112 -13.4200 -5.3625 4.4254 45.8891
#
#
#
# Elastic Compliance Matrix: (Units=1/GPa)
#
#
# Indices 1 2 3 4 5 6 
#
# 1 0.021884 0.003407 0.002103 -0.013956 -0.003788 -0.005064
# 2 0.003407 0.016771 -0.002172 -0.011267 -0.006559 -0.018857
# 3 0.002103 -0.002172 0.009341 -0.006476 0.003781 0.003780
# 4 -0.013956 -0.011267 -0.006476 0.042038 0.010553 0.014251
# 5 -0.003788 -0.006559 0.003781 0.010553 0.035712 0.005852
# 6 -0.005064 -0.018857 0.003780 0.014251 0.005852 0.043766
#
#
# Mechanical properties :
#
#
# Convention : Reuss Voigt Hill
#
# Bulk Modulus (GPa) = 18.29145 44.53836 31.41491
# Shear Modulus (GPa) = 27.61495 46.73573 37.17534
#
# Velocity S-wave (km/s) = 3.35258 4.36145 3.88986
# Velocity P-wave (km/s) = 4.73617 6.59477 5.74118
#
# Compressibility (1/GPa) = 0.05467034
#
# Stress axis : x y z
#
# Youngs Moduli (GPa) = 45.69644 59.62531 107.05517
#
# Poissons Ratio (x) = -0.20315 -0.22509
# Poissons Ratio (y) = -0.15570 0.23258
# Poissons Ratio (z) = -0.09608 0.12954
#
# Static dielectric constant tensor:
#      x y z
#    x 2.233230 0.050280 0.257210 
#    y 0.050280 2.110700 -0.165780 
#    z 0.257210 -0.165780 2.578650 
# 
# From -- ./inp_files/245959.got.cif
#   From: 2010.05.17/outbox.cif.g08.bks.cpg/sg2_123_cif.got.tgz:245959.got - 2010.06.03 11:33:40.
