data_PCOD9041431
_publ_section_title
;
Structure prediction by ZEFSAII (Michael W. Deem and Ramdas Pophale) SiO2 
 PCOD9041431
Probable space group: P -1
;
_chemical_formula_sum "Si O2"
_cell_formula_units_Z 13
_cell_length_a 8.771758
_cell_length_b 9.096763
_cell_length_c 13.522558
_cell_angle_alpha 43.912824
_cell_angle_beta 129.475613
_cell_angle_gamma 108.086349
_cell_volume 555.295236
_symmetry_space_group_name_H-M "P -1"
_symmetry_group_IT_number 2
_symmetry_cell_setting 'triclinic'
loop_
_space_group_symop_operation_xyz
x,y,z
-x,-y,-z
loop_
_atom_site_type_symbol
_atom_site_label
_atom_site_fract_x
_atom_site_fract_y
_atom_site_fract_z
Si Si1 0.493376 0.105130 0.053537
Si Si2 0.308002 0.569015 0.812863
Si Si3 0.682350 0.980566 0.506724
Si Si4 0.078455 0.974980 0.782271
Si Si5 0.159319 0.399686 0.391960
Si Si6 0.000000 0.500000 0.500000
Si Si7 0.796317 0.157013 0.886044
O O1 0.728736 0.084457 0.185218
O O2 0.379773 0.967123 0.140486
O O3 0.355926 0.355773 0.864075
O O4 0.500000 0.000000 0.000000
O O5 0.077786 0.586697 0.745350
O O6 0.319779 0.783818 0.655169
O O7 0.500000 0.500000 0.000000
O O8 0.702437 0.810474 0.507484
O O9 0.889719 0.908672 0.690676
O O10 0.500000 0.000000 0.500000
O O11 0.008928 0.236130 0.651585
O O12 0.159786 0.840134 0.980293
O O13 0.134479 0.417988 0.491508
O O14 0.236300 0.604893 0.288013
O O15 0.000000 0.000000 0.000000
#
# Coordination Sequence:
#
# PCOD9041431 Si02
#       7
#     2   2   2   2   2   1   2
#     4  10  23  43  75 106 144 194 246 302 375 451
#     4  12  26  47  73 106 151 201 249 302 381 453
#     4  12  31  49  72 112 152 200 255 313 377 447
#     4  11  25  46  75 106 153 199 247 310 383 443
#     4  12  26  50  78 107 157 196 251 311 379 450
#     4  12  24  46  80 104 150 200 244 316 368 446
#     4  11  22  44  74 116 145 189 252 313 370 448
#
# _framework density 23.410968
#
# number of rings (size 3 to 8) (size 9 to 14) (size 15 to 20)
#    0.000    0.615    4.615    2.308    8.615    0.615 
#    0.000    1.538    0.000    0.000    0.000    0.000 
#    0.000    0.000    0.000    0.000    0.000    0.000 
#
# Total GULP energy -72492.067112 kJ/mol
# GULP energy per Si atom -5576.312855 kJ/mol
# Density = 2.335768 g / cm^3
# Si number density = 23.410968 Si / 1000 Ang^3
#
#
#
# Elastic Constant Matrix: (Units=GPa)
#
#
# Indices 1 2 3 4 5 6 
#
# 1 185.1015 52.8581 45.0345 -17.8688 14.8852 1.5014
# 2 52.8581 75.4363 24.7180 -36.8797 7.1944 -19.6156
# 3 45.0345 24.7180 59.5737 -25.9001 -5.5890 -5.4321
# 4 -17.8688 -36.8797 -25.9001 61.5987 3.4313 7.4722
# 5 14.8852 7.1944 -5.5890 3.4313 50.7958 0.1814
# 6 1.5014 -19.6156 -5.4321 7.4722 0.1814 48.2644
#
#
#
# Elastic Compliance Matrix: (Units=1/GPa)
#
#
# Indices 1 2 3 4 5 6 
#
# 1 0.008406 -0.006150 -0.005621 -0.003144 -0.001988 -0.002899
# 2 -0.006150 0.026680 -0.000134 0.013206 -0.002916 0.008986
# 3 -0.005621 -0.000134 0.025305 0.008515 0.003869 0.001636
# 4 -0.003144 0.013206 0.008515 0.026630 -0.001819 0.002307
# 5 -0.001988 -0.002916 0.003869 -0.001819 0.021233 -0.000486
# 6 -0.002899 0.008986 0.001636 0.002307 -0.000486 0.024290
#
#
# Mechanical properties :
#
#
# Convention : Reuss Voigt Hill
#
# Bulk Modulus (GPa) = 27.33609 62.81476 45.07542
# Shear Modulus (GPa) = 29.66549 45.29851 37.48200
#
# Velocity S-wave (km/s) = 3.56358 4.40355 4.00565
# Velocity P-wave (km/s) = 5.35109 7.26255 6.37882
#
# Compressibility (1/GPa) = 0.03658168
#
# Stress axis : x y z
#
# Youngs Moduli (GPa) = 118.96336 37.48122 39.51858
#
# Poissons Ratio (x) = 0.23051 0.22212
# Poissons Ratio (y) = 0.73161 0.00529
# Poissons Ratio (z) = 0.66866 0.00502
#
# Static dielectric constant tensor:
#      x y z
#    x 1.948910 0.169210 0.110210 
#    y 0.169210 1.657990 -0.180020 
#    z 0.110210 -0.180020 1.771950 
# 
# From -- ./inp_files/491886.got.cif
#   From: 2010.05.17/outbox.cif.g08.bks.cpg/sg2_246_cif.got.tgz:491886.got - 2010.06.03 11:33:40.
