data_PCOD9041071
_publ_section_title
;
Structure prediction by ZEFSAII (Michael W. Deem and Ramdas Pophale) SiO2 
 PCOD9041071
Probable space group: P -1
;
_chemical_formula_sum "Si O2"
_cell_formula_units_Z 12
_cell_length_a 9.193451
_cell_length_b 10.389627
_cell_length_c 7.144107
_cell_angle_alpha 64.412419
_cell_angle_beta 127.119430
_cell_angle_gamma 98.101147
_cell_volume 483.905385
_symmetry_space_group_name_H-M "P -1"
_symmetry_group_IT_number 2
_symmetry_cell_setting 'triclinic'
loop_
_space_group_symop_operation_xyz
x,y,z
-x,-y,-z
loop_
_atom_site_type_symbol
_atom_site_label
_atom_site_fract_x
_atom_site_fract_y
_atom_site_fract_z
Si Si1 0.691757 0.672247 0.818100
Si Si2 0.205053 0.911731 0.943332
Si Si3 0.212250 0.102264 0.507959
Si Si4 0.969538 0.355920 0.671505
Si Si5 0.309894 0.594017 0.222484
Si Si6 0.294708 0.842628 0.478197
O O1 0.728601 0.750382 0.603412
O O2 0.743361 0.501299 0.930099
O O3 0.481508 0.728104 0.673793
O O4 0.832693 0.716882 0.049818
O O5 0.998528 0.895247 0.726355
O O6 0.244862 0.051152 0.776925
O O7 0.325339 0.757221 0.075867
O O8 0.231899 0.914695 0.183734
O O9 0.322929 0.969645 0.558090
O O10 0.000000 0.500000 0.500000
O O11 0.837417 0.391827 0.730113
O O12 0.869107 0.246269 0.542031
O O13 0.500000 0.500000 0.500000
#
# Coordination Sequence:
#
# PCOD9041071 Si02
#       6
#     2   2   2   2   2   2
#     4  12  24  44  71  99 136 181 232 279 349 408
#     4  10  23  43  70  97 134 186 225 277 350 399
#     4  11  24  42  71 102 135 185 226 281 344 415
#     4  11  26  42  68 104 133 183 228 282 351 404
#     4  11  22  47  69  96 140 177 225 293 337 401
#     4  11  24  47  66  99 146 173 229 291 335 410
#
# _framework density 24.798234999999998
#
# number of rings (size 3 to 8) (size 9 to 14) (size 15 to 20)
#    0.000    1.000    6.667    1.500    2.333    4.000 
#    0.000    0.000    0.000    0.000    0.000    0.000 
#    0.000    0.000    0.000    0.000    0.000    0.000 
#
# Total GULP energy -67209.054363 kJ/mol
# GULP energy per Si atom -5600.754530 kJ/mol
# Density = 2.474179 g / cm^3
# Si number density = 24.798235 Si / 1000 Ang^3
#
#
#
# Elastic Constant Matrix: (Units=GPa)
#
#
# Indices 1 2 3 4 5 6 
#
# 1 39.6694 9.0532 49.7537 3.8062 3.9065 1.7754
# 2 9.0532 40.0067 15.3013 -6.3034 -5.3699 4.3737
# 3 49.7537 15.3013 105.7509 -13.2854 -3.6110 20.1910
# 4 3.8062 -6.3034 -13.2854 37.3589 12.8182 1.5264
# 5 3.9065 -5.3699 -3.6110 12.8182 40.2520 -8.2111
# 6 1.7754 4.3737 20.1910 1.5264 -8.2111 42.0879
#
#
#
# Elastic Compliance Matrix: (Units=1/GPa)
#
#
# Indices 1 2 3 4 5 6 
#
# 1 0.090879 -0.008738 -0.049269 -0.028859 -0.000809 0.021599
# 2 -0.008738 0.027933 0.001389 0.005400 0.002381 -0.002932
# 3 -0.049269 0.001389 0.038238 0.020101 -0.001562 -0.017444
# 4 -0.028859 0.005400 0.020101 0.041913 -0.010587 -0.012572
# 5 -0.000809 0.002381 -0.001562 -0.010587 0.029847 0.006743
# 6 0.021599 -0.002932 -0.017444 -0.012572 0.006743 0.033293
#
#
# Mechanical properties :
#
#
# Convention : Reuss Voigt Hill
#
# Bulk Modulus (GPa) = 22.82467 37.07149 29.94808
# Shear Modulus (GPa) = 12.82236 31.36101 22.09168
#
# Velocity S-wave (km/s) = 2.27638 3.56005 2.98796
# Velocity P-wave (km/s) = 4.01663 5.64626 4.89967
#
# Compressibility (1/GPa) = 0.04381223
#
# Stress axis : x y z
#
# Youngs Moduli (GPa) = 11.00368 35.80006 26.15201
#
# Poissons Ratio (x) = 0.31282 1.28850
# Poissons Ratio (y) = 0.09615 -0.03632
# Poissons Ratio (z) = 0.54215 -0.04972
#
# Static dielectric constant tensor:
#      x y z
#    x 1.982020 0.001820 -0.008870 
#    y 0.001820 1.998230 0.027230 
#    z -0.008870 0.027230 1.945170 
# 
# From -- ./inp_files/161481.got.cif
#   From: 2010.05.17/outbox.cif.g08.bks.cpg/sg2_81_cif.got.tgz:161481.got - 2010.06.03 11:33:40.
