data_PCOD9041428
_publ_section_title
;
Structure prediction by ZEFSAII (Michael W. Deem and Ramdas Pophale) SiO2 
 PCOD9041428
Probable space group: P -1
;
_chemical_formula_sum "Si O2"
_cell_formula_units_Z 12
_cell_length_a 7.640293
_cell_length_b 15.561896
_cell_length_c 5.265725
_cell_angle_alpha 102.634179
_cell_angle_beta 59.183978
_cell_angle_gamma 119.556699
_cell_volume 467.234491
_symmetry_space_group_name_H-M "P -1"
_symmetry_group_IT_number 2
_symmetry_cell_setting 'triclinic'
loop_
_space_group_symop_operation_xyz
x,y,z
-x,-y,-z
loop_
_atom_site_type_symbol
_atom_site_label
_atom_site_fract_x
_atom_site_fract_y
_atom_site_fract_z
Si Si1 0.258648 0.568277 0.782988
Si Si2 0.151858 0.274938 0.343803
Si Si3 0.360957 0.403778 0.786659
Si Si4 0.315060 0.894242 0.288626
Si Si5 0.769771 0.950540 0.302400
Si Si6 0.521786 0.795743 0.764543
O O1 0.369927 0.510535 0.823560
O O2 0.375271 0.576100 0.425363
O O3 0.332078 0.682321 0.847904
O O4 0.000000 0.500000 0.000000
O O5 0.232397 0.336718 0.589173
O O6 0.290226 0.209120 0.186982
O O7 0.882803 0.203653 0.501955
O O8 0.226676 0.345549 0.092792
O O9 0.557660 0.937212 0.276181
O O10 0.217485 0.973379 0.432239
O O11 0.382577 0.858445 0.956314
O O12 0.680068 0.843881 0.432551
O O13 0.000000 0.000000 0.000000
#
# Coordination Sequence:
#
# PCOD9041428 Si02
#       6
#     2   2   2   2   2   2
#     4  10  23  43  75 104 151 188 249 292 369 434
#     4  11  26  45  80 103 157 190 251 297 377 434
#     4  10  25  47  67 115 146 199 238 309 357 441
#     4  11  26  44  74 107 142 196 242 310 370 445
#     4  11  27  48  73 107 146 187 250 309 374 439
#     4  11  26  45  72 106 145 196 244 306 368 440
#
# _framework density 25.683036999999999
#
# number of rings (size 3 to 8) (size 9 to 14) (size 15 to 20)
#    0.000    1.333    0.000    2.500   14.000   10.000 
#    0.000    5.000    0.000    0.000    0.000    0.000 
#    0.000    0.000    0.000    0.000    0.000    0.000 
#
# Total GULP energy -67030.761128 kJ/mol
# GULP energy per Si atom -5585.896761 kJ/mol
# Density = 2.562458 g / cm^3
# Si number density = 25.683037 Si / 1000 Ang^3
#
#
#
# Elastic Constant Matrix: (Units=GPa)
#
#
# Indices 1 2 3 4 5 6 
#
# 1 55.0685 43.0101 55.6375 -11.2372 -20.3966 15.5134
# 2 43.0101 141.9229 100.7775 -34.5563 -18.0756 6.9489
# 3 55.6375 100.7775 206.3090 -49.1757 -18.1218 19.5072
# 4 -11.2372 -34.5563 -49.1757 66.3254 8.7192 -10.5526
# 5 -20.3966 -18.0756 -18.1218 8.7192 49.8857 -15.4219
# 6 15.5134 6.9489 19.5072 -10.5526 -15.4219 42.7199
#
#
#
# Elastic Compliance Matrix: (Units=1/GPa)
#
#
# Indices 1 2 3 4 5 6 
#
# 1 0.031796 -0.005226 -0.005583 -0.003484 0.007770 -0.006203
# 2 -0.005226 0.012196 -0.004056 0.002761 0.001219 0.002888
# 3 -0.005583 -0.004056 0.009216 0.003785 -0.001404 -0.001093
# 4 -0.003484 0.002761 0.003785 0.019455 -0.001402 0.003387
# 5 0.007770 0.001219 -0.001404 -0.001402 0.025391 0.006441
# 6 -0.006203 0.002888 -0.001093 0.003387 0.006441 0.028852
#
#
# Mechanical properties :
#
#
# Convention : Reuss Voigt Hill
#
# Bulk Modulus (GPa) = 42.59415 89.12784 65.86099
# Shear Modulus (GPa) = 30.40188 45.37789 37.88988
#
# Velocity S-wave (km/s) = 3.44428 4.20794 3.84512
# Velocity P-wave (km/s) = 5.69543 7.64116 6.73889
#
# Compressibility (1/GPa) = 0.02347740
#
# Stress axis : x y z
#
# Youngs Moduli (GPa) = 31.45004 81.99292 108.50386
#
# Poissons Ratio (x) = 0.42852 0.60582
# Poissons Ratio (y) = 0.16437 0.44010
# Poissons Ratio (z) = 0.17560 0.33257
#
# Static dielectric constant tensor:
#      x y z
#    x 2.070110 0.041090 0.019330 
#    y 0.041090 2.111270 0.131100 
#    z 0.019330 0.131100 2.057600 
# 
# From -- ./inp_files/39139.got.cif
#   From: 2010.05.17/outbox.cif.g08.bks.cpg/sg2_20_cif.got.tgz:39139.got - 2010.06.03 11:33:40.
