data_PCOD9041124
_publ_section_title
;
Structure prediction by ZEFSAII (Michael W. Deem and Ramdas Pophale) SiO2 
 PCOD9041124
Probable space group: P -1
;
_chemical_formula_sum "Si O2"
_cell_formula_units_Z 12
_cell_length_a 7.494098
_cell_length_b 12.738697
_cell_length_c 7.388178
_cell_angle_alpha 101.534635
_cell_angle_beta 102.852976
_cell_angle_gamma 131.726884
_cell_volume 450.695788
_symmetry_space_group_name_H-M "P -1"
_symmetry_group_IT_number 2
_symmetry_cell_setting 'triclinic'
loop_
_space_group_symop_operation_xyz
x,y,z
-x,-y,-z
loop_
_atom_site_type_symbol
_atom_site_label
_atom_site_fract_x
_atom_site_fract_y
_atom_site_fract_z
Si Si1 0.682159 0.182655 0.561666
Si Si2 0.748132 0.666928 0.712970
Si Si3 0.819369 0.920466 0.660043
Si Si4 0.109380 0.428063 0.020819
Si Si5 0.383583 0.264823 0.921722
Si Si6 0.464888 0.866545 0.869142
O O1 0.462667 0.182572 0.548988
O O2 0.746545 0.222956 0.377871
O O3 0.500000 0.000000 0.500000
O O4 0.948912 0.297188 0.781405
O O5 0.500000 0.500000 0.500000
O O6 0.864340 0.814697 0.669755
O O7 0.938284 0.656013 0.833461
O O8 0.654037 0.686479 0.882307
O O9 0.732709 0.943991 0.837063
O O10 0.091383 0.099432 0.722008
O O11 0.430515 0.581070 0.109077
O O12 0.000000 0.500000 0.000000
O O13 0.539904 0.224553 0.008209
O O14 0.500000 0.000000 0.000000
#
# Coordination Sequence:
#
# PCOD9041124 Si02
#       6
#     2   2   2   2   2   2
#     4  10  23  43  71 101 141 179 233 284 348 409
#     4  11  23  47  72 101 142 187 230 288 354 414
#     4   9  22  46  75  94 141 183 235 275 349 419
#     4  12  28  45  71 103 147 179 236 296 350 408
#     4  11  24  45  72 101 139 186 234 288 343 423
#     4   9  21  41  74 103 137 182 236 286 349 412
#
# _framework density 26.625496999999999
#
# number of rings (size 3 to 8) (size 9 to 14) (size 15 to 20)
#    1.000    0.667    0.000    4.500    4.667    0.667 
#    6.000    3.333    0.000    1.000    0.000    0.000 
#    0.000    0.000    0.000    0.000    0.000    0.000 
#
# Total GULP energy -67193.932259 kJ/mol
# GULP energy per Si atom -5599.494355 kJ/mol
# Density = 2.656490 g / cm^3
# Si number density = 26.625497 Si / 1000 Ang^3
#
#
#
# Elastic Constant Matrix: (Units=GPa)
#
#
# Indices 1 2 3 4 5 6 
#
# 1 89.4269 39.6688 16.5583 -0.0516 4.4183 -27.1133
# 2 39.6688 177.7207 52.7758 2.3265 11.1733 -7.3943
# 3 16.5583 52.7758 183.6460 11.7044 21.9301 2.3370
# 4 -0.0516 2.3265 11.7044 52.6731 -6.0348 6.8438
# 5 4.4183 11.1733 21.9301 -6.0348 38.9231 -3.8487
# 6 -27.1133 -7.3943 2.3370 6.8438 -3.8487 59.1346
#
#
#
# Elastic Compliance Matrix: (Units=1/GPa)
#
#
# Indices 1 2 3 4 5 6 
#
# 1 0.014451 -0.002792 -0.000547 -0.000567 0.000011 0.006364
# 2 -0.002792 0.006753 -0.001594 0.000021 -0.000762 -0.000425
# 3 -0.000547 -0.001594 0.006482 -0.001672 -0.003465 -0.000738
# 4 -0.000567 0.000021 -0.001672 0.020095 0.003892 -0.002264
# 5 0.000011 -0.000762 -0.003465 0.003892 0.028609 0.001458
# 6 0.006364 -0.000425 -0.000738 -0.002264 0.001458 0.020162
#
#
# Mechanical properties :
#
#
# Convention : Reuss Voigt Hill
#
# Bulk Modulus (GPa) = 56.11176 74.31103 65.21140
# Shear Modulus (GPa) = 44.50096 52.93220 48.71658
#
# Velocity S-wave (km/s) = 4.09267 4.46357 4.28214
# Velocity P-wave (km/s) = 6.59192 7.38477 6.99958
#
# Compressibility (1/GPa) = 0.01782158
#
# Stress axis : x y z
#
# Youngs Moduli (GPa) = 69.20087 148.07728 154.26618
#
# Poissons Ratio (x) = 0.41337 0.08436
# Poissons Ratio (y) = 0.19318 0.24589
# Poissons Ratio (z) = 0.03784 0.23602
#
# Static dielectric constant tensor:
#      x y z
#    x 2.274660 0.053910 -0.044380 
#    y 0.053910 2.043400 -0.085930 
#    z -0.044380 -0.085930 2.139250 
# 
# From -- ./inp_files/180643.got.cif
#   From: 2010.05.17/outbox.cif.g08.bks.cpg/sg2_91_cif.got.tgz:180643.got - 2010.06.03 11:33:40.
