data_PCOD9041975
_publ_section_title
;
Structure prediction by ZEFSAII (Michael W. Deem and Ramdas Pophale) SiO2 
 PCOD9041975
Probable space group: P -1
;
_chemical_formula_sum "Si O2"
_cell_formula_units_Z 16
_cell_length_a 8.313344
_cell_length_b 16.014056
_cell_length_c 7.345888
_cell_angle_alpha 107.133771
_cell_angle_beta 46.741675
_cell_angle_gamma 110.296931
_cell_volume 665.676550
_symmetry_space_group_name_H-M "P -1"
_symmetry_group_IT_number 2
_symmetry_cell_setting 'triclinic'
loop_
_space_group_symop_operation_xyz
x,y,z
-x,-y,-z
loop_
_atom_site_type_symbol
_atom_site_label
_atom_site_fract_x
_atom_site_fract_y
_atom_site_fract_z
Si Si1 0.906143 0.218928 0.602995
Si Si2 0.321085 0.376944 0.493154
Si Si3 0.969923 0.490605 0.235621
Si Si4 0.611191 0.359414 0.935846
Si Si5 0.652143 0.984342 0.159556
Si Si6 0.952651 0.852967 0.936928
Si Si7 0.239190 0.973056 0.293245
Si Si8 0.205754 0.341674 0.963322
O O1 0.817606 0.134417 0.746548
O O2 0.114259 0.293715 0.560475
O O3 0.988983 0.179574 0.328864
O O4 0.705160 0.271282 0.763550
O O5 0.537328 0.362179 0.206186
O O6 0.329972 0.379161 0.705069
O O7 0.245068 0.465957 0.534781
O O8 0.186015 0.556303 0.199775
O O9 0.000293 0.391747 0.194175
O O10 0.000000 0.500000 0.000000
O O11 0.388858 0.359640 0.992580
O O12 0.390767 0.992634 0.373628
O O13 0.743605 0.903295 0.122951
O O14 0.831160 0.074501 0.119389
O O15 0.658630 0.971166 0.927302
O O16 0.888841 0.763681 0.045960
O O17 0.000000 0.000000 0.500000
#
# Coordination Sequence:
#
# PCOD9041975 Si02
#       8
#     2   2   2   2   2   2   2   2
#     4  11  23  43  64  96 138 173 216 282 326 400
#     4  10  23  44  68  96 136 174 216 277 329 397
#     4   9  22  43  66  99 134 172 221 275 330 398
#     4  11  23  44  66  97 136 173 224 273 332 395
#     4  10  24  42  67  93 131 176 225 281 334 402
#     4  11  22  45  65  99 137 173 226 281 337 402
#     4  11  22  42  65  95 128 177 225 274 340 397
#     4  11  22  43  69 100 131 176 224 272 337 400
#
# _framework density 24.035696999999999
#
# number of rings (size 3 to 8) (size 9 to 14) (size 15 to 20)
#    0.000    1.500    2.500    1.875    0.000    3.000 
#   15.750    0.000    0.000    0.000    0.000    0.000 
#    0.000    0.000    0.000    0.000    0.000    0.000 
#
# Total GULP energy -89490.788919 kJ/mol
# GULP energy per Si atom -5593.174307 kJ/mol
# Density = 2.398099 g / cm^3
# Si number density = 24.035697 Si / 1000 Ang^3
#
#
#
# Elastic Constant Matrix: (Units=GPa)
#
#
# Indices 1 2 3 4 5 6 
#
# 1 88.5440 59.7266 14.7572 11.7485 -21.4030 -2.5621
# 2 59.7266 166.0821 23.4140 14.6301 -27.3359 -16.6246
# 3 14.7572 23.4140 81.3893 13.8797 2.4039 -12.6588
# 4 11.7485 14.6301 13.8797 39.2941 -2.8234 -6.8777
# 5 -21.4030 -27.3359 2.4039 -2.8234 32.1098 2.3703
# 6 -2.5621 -16.6246 -12.6588 -6.8777 2.3703 37.7151
#
#
#
# Elastic Compliance Matrix: (Units=1/GPa)
#
#
# Indices 1 2 3 4 5 6 
#
# 1 0.016730 -0.004558 -0.001886 -0.002535 0.007369 -0.002431
# 2 -0.004558 0.008904 -0.001316 -0.000688 0.004376 0.002773
# 3 -0.001886 -0.001316 0.014322 -0.003650 -0.004042 0.003688
# 4 -0.002535 -0.000688 -0.003650 0.028375 0.000238 0.003459
# 5 0.007369 0.004376 -0.004042 0.000238 0.040208 -0.001411
# 6 -0.002431 0.002773 0.003688 0.003459 -0.001411 0.029529
#
#
# Mechanical properties :
#
#
# Convention : Reuss Voigt Hill
#
# Bulk Modulus (GPa) = 40.91963 59.09012 50.00487
# Shear Modulus (GPa) = 30.91534 37.69830 34.30682
#
# Velocity S-wave (km/s) = 3.59029 3.96464 3.78210
# Velocity P-wave (km/s) = 5.85221 6.75244 6.31838
#
# Compressibility (1/GPa) = 0.02443815
#
# Stress axis : x y z
#
# Youngs Moduli (GPa) = 59.77402 112.30896 69.82030
#
# Poissons Ratio (x) = 0.51186 0.13166
# Poissons Ratio (y) = 0.27243 0.09186
# Poissons Ratio (z) = 0.11271 0.14777
#
# Static dielectric constant tensor:
#      x y z
#    x 1.995010 0.034490 -0.132540 
#    y 0.034490 1.905230 -0.071130 
#    z -0.132540 -0.071130 2.218650 
# 
# From -- ./inp_files/208118.got.cif
#   From: 2010.05.17/outbox.cif.g08.bks.cpg/sg2_105_cif.got.tgz:208118.got - 2010.06.03 11:33:40.
