data_PCOD9041722
_publ_section_title
;
Structure prediction by ZEFSAII (Michael W. Deem and Ramdas Pophale) SiO2 
 PCOD9041722
Probable space group: P -1
;
_chemical_formula_sum "Si O2"
_cell_formula_units_Z 16
_cell_length_a 6.084410
_cell_length_b 15.556854
_cell_length_c 20.899332
_cell_angle_alpha 157.037961
_cell_angle_beta 111.213811
_cell_angle_gamma 76.869763
_cell_volume 688.202382
_symmetry_space_group_name_H-M "P -1"
_symmetry_group_IT_number 2
_symmetry_cell_setting 'triclinic'
loop_
_space_group_symop_operation_xyz
x,y,z
-x,-y,-z
loop_
_atom_site_type_symbol
_atom_site_label
_atom_site_fract_x
_atom_site_fract_y
_atom_site_fract_z
Si Si1 0.251017 0.399445 0.948209
Si Si2 0.665060 0.685617 0.397685
Si Si3 0.708040 0.185593 0.190038
Si Si4 0.575252 0.642795 0.502933
Si Si5 0.981675 0.601122 0.752483
Si Si6 0.786069 0.549960 0.883116
Si Si7 0.904883 0.084304 0.611455
Si Si8 0.934962 0.044683 0.881446
O O1 0.122229 0.156432 0.735911
O O2 0.500000 0.500000 0.000000
O O3 0.334549 0.394671 0.026536
O O4 0.000000 0.500000 0.000000
O O5 0.695404 0.738853 0.512379
O O6 0.866454 0.561232 0.314037
O O7 0.403263 0.498791 0.228998
O O8 0.690383 0.899390 0.499767
O O9 0.629775 0.400273 0.356619
O O10 0.909454 0.299744 0.236119
O O11 0.837012 0.064607 0.172209
O O12 0.500000 0.000000 0.000000
O O13 0.689519 0.838637 0.701103
O O14 0.287875 0.561913 0.402408
O O15 0.029145 0.819274 0.954386
O O16 0.846028 0.314013 0.740829
O O17 0.021589 0.757695 0.032050
O O18 0.000000 0.000000 0.500000
#
# Coordination Sequence:
#
# PCOD9041722 Si02
#       8
#     2   2   2   2   2   2   2   2
#     4  10  23  44  66  98 139 184 243 299 363 439
#     4  11  23  45  66  99 141 179 237 294 353 423
#     4  11  23  46  73 100 143 180 225 294 351 424
#     4  11  25  45  70 100 141 180 231 290 347 431
#     4  11  24  47  66 102 140 183 231 288 358 417
#     4  11  23  45  70 100 144 188 235 301 367 428
#     4  11  23  41  70 104 134 187 241 296 370 428
#     4  12  23  44  72 104 138 184 235 286 358 422
#
# _framework density 23.248977
#
# number of rings (size 3 to 8) (size 9 to 14) (size 15 to 20)
#    0.000    1.000    2.500    4.125    0.000    2.500 
#   15.750    0.000    0.000    0.000    0.000    0.000 
#    0.000    0.000    0.000    0.000    0.000    0.000 
#
# Total GULP energy -89320.941569 kJ/mol
# GULP energy per Si atom -5582.558848 kJ/mol
# Density = 2.319606 g / cm^3
# Si number density = 23.248977 Si / 1000 Ang^3
#
#
#
# Elastic Constant Matrix: (Units=GPa)
#
#
# Indices 1 2 3 4 5 6 
#
# 1 65.1903 10.0938 40.4487 2.7907 11.3801 -3.7141
# 2 10.0938 60.2808 22.8820 12.3909 -3.7994 -6.5822
# 3 40.4487 22.8820 155.8439 -7.8991 18.6521 -12.2941
# 4 2.7907 12.3909 -7.8991 48.3909 -3.7178 0.8436
# 5 11.3801 -3.7994 18.6521 -3.7178 26.7352 2.8435
# 6 -3.7141 -6.5822 -12.2941 0.8436 2.8435 35.9089
#
#
#
# Elastic Compliance Matrix: (Units=1/GPa)
#
#
# Indices 1 2 3 4 5 6 
#
# 1 0.019283 -0.001580 -0.004094 -0.001845 -0.005920 0.000816
# 2 -0.001580 0.019620 -0.003127 -0.005118 0.004706 0.002110
# 3 -0.004094 -0.003127 0.008803 0.002063 -0.004807 0.002350
# 4 -0.001845 -0.005118 0.002063 0.022582 0.001876 -0.001102
# 5 -0.005920 0.004706 -0.004807 0.001876 0.044737 -0.004982
# 6 0.000816 0.002110 0.002350 -0.001102 -0.004982 0.029544
#
#
# Mechanical properties :
#
#
# Convention : Reuss Voigt Hill
#
# Bulk Modulus (GPa) = 33.21639 47.57378 40.39509
# Shear Modulus (GPa) = 29.03518 36.06636 32.55077
#
# Velocity S-wave (km/s) = 3.53778 3.94294 3.74584
# Velocity P-wave (km/s) = 5.56832 6.42154 6.01009
#
# Compressibility (1/GPa) = 0.03010562
#
# Stress axis : x y z
#
# Youngs Moduli (GPa) = 51.85882 50.96951 113.59159
#
# Poissons Ratio (x) = 0.08053 0.46499
# Poissons Ratio (y) = 0.08193 0.35518
# Poissons Ratio (z) = 0.21229 0.15937
#
# Static dielectric constant tensor:
#      x y z
#    x 1.924270 -0.074180 -0.000250 
#    y -0.074180 1.913750 0.017260 
#    z -0.000250 0.017260 1.888110 
# 
# From -- ./inp_files/605040.got.cif
#   From: 2010.05.17/outbox.cif.g08.bks.cpg/sg2_303_cif.got.tgz:605040.got - 2010.06.03 11:33:40.
