data_PCOD9041985
_publ_section_title
;
Structure prediction by ZEFSAII (Michael W. Deem and Ramdas Pophale) SiO2 
 PCOD9041985
Probable space group: P -1
;
_chemical_formula_sum "Si O2"
_cell_formula_units_Z 16
_cell_length_a 22.766455
_cell_length_b 5.128077
_cell_length_c 9.065640
_cell_angle_alpha 75.827892
_cell_angle_beta 142.422698
_cell_angle_gamma 106.821916
_cell_volume 617.606806
_symmetry_space_group_name_H-M "P -1"
_symmetry_group_IT_number 2
_symmetry_cell_setting 'triclinic'
loop_
_space_group_symop_operation_xyz
x,y,z
-x,-y,-z
loop_
_atom_site_type_symbol
_atom_site_label
_atom_site_fract_x
_atom_site_fract_y
_atom_site_fract_z
Si Si1 0.783294 0.835036 0.652260
Si Si2 0.090779 0.299422 0.480227
Si Si3 0.936279 0.164250 0.747251
Si Si4 0.288873 0.859244 0.131765
Si Si5 0.163424 0.307402 0.914656
Si Si6 0.386247 0.936460 0.611746
Si Si7 0.296391 0.522383 0.735868
Si Si8 0.441689 0.669062 0.245893
O O1 0.756178 0.657683 0.478445
O O2 0.834876 0.122145 0.646969
O O3 0.679842 0.835040 0.520055
O O4 0.850565 0.776744 0.930745
O O5 0.029181 0.517609 0.258181
O O6 0.077191 0.253116 0.633070
O O7 0.200662 0.476257 0.659159
O O8 0.081776 0.021159 0.409520
O O9 0.000000 0.000000 0.000000
O O10 0.336047 0.782729 0.390264
O O11 0.368339 0.828005 0.170172
O O12 0.199243 0.627111 0.950276
O O13 0.244990 0.134234 0.037008
O O14 0.364095 0.758116 0.739649
O O15 0.487882 0.096715 0.735713
O O16 0.379581 0.474972 0.027667
O O17 0.500000 0.500000 0.500000
#
# Coordination Sequence:
#
# PCOD9041985 Si02
#       8
#     2   2   2   2   2   2   2   2
#     4  10  23  44  68  97 132 181 226 275 348 405
#     4  11  23  43  71 103 132 181 227 266 342 407
#     4  11  24  45  72 106 142 172 217 278 339 412
#     4  11  23  43  65  92 131 179 228 279 338 384
#     4  11  22  42  74  95 132 176 232 276 326 410
#     4  11  23  42  62  90 131 176 230 281 335 398
#     4  11  23  42  64  92 133 178 232 278 335 405
#     4  12  26  43  62  96 135 180 237 291 337 384
#
# _framework density 25.906448000000001
#
# number of rings (size 3 to 8) (size 9 to 14) (size 15 to 20)
#    0.000    1.000    3.750    3.375    0.000    0.500 
#    2.250    1.250    0.000    0.000    0.000    0.000 
#    0.000    0.000    0.000    0.000    0.000    0.000 
#
# Total GULP energy -89218.958287 kJ/mol
# GULP energy per Si atom -5576.184893 kJ/mol
# Density = 2.584748 g / cm^3
# Si number density = 25.906448 Si / 1000 Ang^3
#
#
#
# Elastic Constant Matrix: (Units=GPa)
#
#
# Indices 1 2 3 4 5 6 
#
# 1 113.1164 22.0113 46.9745 -6.3753 -18.0519 2.0564
# 2 22.0113 64.8113 22.5483 -9.3500 -14.3648 -6.3163
# 3 46.9745 22.5483 86.5025 8.3487 -37.7934 13.5630
# 4 -6.3753 -9.3500 8.3487 28.6248 -6.0303 -6.6190
# 5 -18.0519 -14.3648 -37.7934 -6.0303 38.3805 2.6648
# 6 2.0564 -6.3163 13.5630 -6.6190 2.6648 32.2207
#
#
#
# Elastic Compliance Matrix: (Units=1/GPa)
#
#
# Indices 1 2 3 4 5 6 
#
# 1 0.012511 -0.000427 -0.009036 0.005738 -0.002571 0.004313
# 2 -0.000427 0.020936 -0.006886 0.011295 0.001992 0.009186
# 3 -0.009036 -0.006886 0.034033 -0.013337 0.025977 -0.019987
# 4 0.005738 0.011295 -0.013337 0.047809 0.000106 0.017274
# 5 -0.002571 0.001992 0.025977 0.000106 0.052207 -0.014676
# 6 0.004313 0.009186 -0.019987 0.017274 -0.014676 0.045737
#
#
# Mechanical properties :
#
#
# Convention : Reuss Voigt Hill
#
# Bulk Modulus (GPa) = 28.75018 49.72206 39.23612
# Shear Modulus (GPa) = 19.41575 31.37161 25.39368
#
# Velocity S-wave (km/s) = 2.74059 3.48366 3.13422
# Velocity P-wave (km/s) = 4.59742 5.95111 5.31752
#
# Compressibility (1/GPa) = 0.03478239
#
# Stress axis : x y z
#
# Youngs Moduli (GPa) = 79.93259 47.76422 29.38354
#
# Poissons Ratio (x) = 0.02040 0.26550
# Poissons Ratio (y) = 0.03413 0.20233
# Poissons Ratio (z) = 0.72225 0.32889
#
# Static dielectric constant tensor:
#      x y z
#    x 2.055760 0.027770 -0.003980 
#    y 0.027770 2.025920 -0.061930 
#    z -0.003980 -0.061930 2.245770 
# 
# From -- ./inp_files/350729.got.cif
#   From: 2010.05.17/outbox.cif.g08.bks.cpg/sg2_176_cif.got.tgz:350729.got - 2010.06.03 11:33:40.
