data_PCOD9041292
_publ_section_title
;
Structure prediction by ZEFSAII (Michael W. Deem and Ramdas Pophale) SiO2 
 PCOD9041292
Probable space group: P -1
;
_chemical_formula_sum "Si O2"
_cell_formula_units_Z 16
_cell_length_a 12.465681
_cell_length_b 12.445032
_cell_length_c 5.448729
_cell_angle_alpha 86.075149
_cell_angle_beta 49.767020
_cell_angle_gamma 92.009349
_cell_volume 640.307019
_symmetry_space_group_name_H-M "P -1"
_symmetry_group_IT_number 2
_symmetry_cell_setting 'triclinic'
loop_
_space_group_symop_operation_xyz
x,y,z
-x,-y,-z
loop_
_atom_site_type_symbol
_atom_site_label
_atom_site_fract_x
_atom_site_fract_y
_atom_site_fract_z
Si Si1 0.493080 0.221184 0.667591
Si Si2 0.351795 0.960161 0.364183
Si Si3 0.892232 0.327258 0.840281
Si Si4 0.924071 0.110960 0.543117
Si Si5 0.928030 0.708717 0.032898
Si Si6 0.675107 0.810845 0.572391
Si Si7 0.176286 0.450104 0.168322
Si Si8 0.519411 0.563733 0.210106
O O1 0.602286 0.132368 0.510748
O O2 0.423806 0.238765 0.500203
O O3 0.566862 0.334153 0.645127
O O4 0.387501 0.189181 0.059122
O O5 0.220945 0.921725 0.387087
O O6 0.304121 0.063548 0.557264
O O7 0.500000 0.000000 0.000000
O O8 0.880161 0.203160 0.786632
O O9 0.794723 0.419076 0.887909
O O10 0.920424 0.316199 0.087554
O O11 0.041645 0.395324 0.523955
O O12 0.000000 0.000000 0.500000
O O13 0.039825 0.191239 0.214557
O O14 0.819498 0.757343 0.367351
O O15 0.856522 0.596585 0.047272
O O16 0.314698 0.398447 0.048814
O O17 0.500000 0.500000 0.500000
O O18 0.500000 0.500000 0.000000
#
# Coordination Sequence:
#
# PCOD9041292 Si02
#       8
#     2   2   2   2   2   2   2   2
#     4  11  24  47  69 103 139 189 239 286 354 428
#     4  10  25  45  71 101 142 188 234 291 355 433
#     4  10  23  43  72  97 138 184 237 299 354 422
#     4  11  26  45  67 107 142 182 239 299 360 424
#     4  11  23  42  72 101 135 188 236 300 357 428
#     4  11  23  43  76 101 136 186 240 289 352 425
#     4  10  23  44  69 100 138 184 240 292 358 424
#     4  12  27  43  68 105 142 186 231 296 353 424
#
# _framework density 24.988012999999999
#
# number of rings (size 3 to 8) (size 9 to 14) (size 15 to 20)
#    0.000    1.250    1.250    3.000    8.750    3.000 
#    4.500    0.000    0.000    0.000    0.000    0.000 
#    0.000    0.000    0.000    0.000    0.000    0.000 
#
# Total GULP energy -89202.775979 kJ/mol
# GULP energy per Si atom -5575.173499 kJ/mol
# Density = 2.493114 g / cm^3
# Si number density = 24.988013 Si / 1000 Ang^3
#
#
#
# Elastic Constant Matrix: (Units=GPa)
#
#
# Indices 1 2 3 4 5 6 
#
# 1 85.4453 20.7883 -5.6720 10.2648 -8.8022 7.9677
# 2 20.7883 163.5139 -10.2423 10.9321 7.3925 -16.2635
# 3 -5.6720 -10.2423 64.5620 -6.9762 -10.6017 2.0677
# 4 10.2648 10.9321 -6.9762 21.1943 5.3718 6.0740
# 5 -8.8022 7.3925 -10.6017 5.3718 24.1134 9.0259
# 6 7.9677 -16.2635 2.0677 6.0740 9.0259 53.6165
#
#
#
# Elastic Compliance Matrix: (Units=1/GPa)
#
#
# Indices 1 2 3 4 5 6 
#
# 1 0.014483 -0.002081 0.001924 -0.006687 0.009655 -0.003725
# 2 -0.002081 0.007055 -0.000055 -0.002700 -0.003604 0.003364
# 3 0.001924 -0.000055 0.017548 0.003476 0.008724 -0.002842
# 4 -0.006687 -0.002700 0.003476 0.057076 -0.011094 -0.004557
# 5 0.009655 -0.003604 0.008724 -0.011094 0.056574 -0.011131
# 6 -0.003725 0.003364 -0.002842 -0.004557 -0.011131 0.022725
#
#
# Mechanical properties :
#
#
# Convention : Reuss Voigt Hill
#
# Bulk Modulus (GPa) = 25.86402 35.91878 30.89140
# Shear Modulus (GPa) = 26.48724 40.36133 33.42429
#
# Velocity S-wave (km/s) = 3.25929 4.02335 3.66131
# Velocity P-wave (km/s) = 4.95349 5.99906 5.50117
#
# Compressibility (1/GPa) = 0.03866376
#
# Stress axis : x y z
#
# Youngs Moduli (GPa) = 69.04813 141.74772 56.98494
#
# Poissons Ratio (x) = 0.29493 -0.10966
# Poissons Ratio (y) = 0.14366 0.00313
# Poissons Ratio (z) = -0.13288 0.00778
#
# Static dielectric constant tensor:
#      x y z
#    x 2.021960 -0.039940 -0.026360 
#    y -0.039940 2.207450 0.139350 
#    z -0.026360 0.139350 2.274080 
# 
# From -- ./inp_files/70306.got.cif
#   From: 2010.05.17/outbox.cif.g08.bks.cpg/sg2_36_cif.got.tgz:70306.got - 2010.06.03 11:33:40.
