data_PCOD9041786
_publ_section_title
;
Structure prediction by ZEFSAII (Michael W. Deem and Ramdas Pophale) SiO2 
 PCOD9041786
Probable space group: P -1
;
_chemical_formula_sum "Si O2"
_cell_formula_units_Z 16
_cell_length_a 5.601826
_cell_length_b 6.148292
_cell_length_c 23.683102
_cell_angle_alpha 102.049553
_cell_angle_beta 123.176733
_cell_angle_gamma 80.055363
_cell_volume 665.970751
_symmetry_space_group_name_H-M "P -1"
_symmetry_group_IT_number 2
_symmetry_cell_setting 'triclinic'
loop_
_space_group_symop_operation_xyz
x,y,z
-x,-y,-z
loop_
_atom_site_type_symbol
_atom_site_label
_atom_site_fract_x
_atom_site_fract_y
_atom_site_fract_z
Si Si1 0.634754 0.744497 0.017653
Si Si2 0.912420 0.205653 0.326664
Si Si3 0.049221 0.635696 0.157862
Si Si4 0.938314 0.353114 0.220700
Si Si5 0.686723 0.146404 0.573309
Si Si6 0.626914 0.005016 0.804390
Si Si7 0.298159 0.246256 0.098555
Si Si8 0.145931 0.415529 0.572976
O O1 0.783717 0.714531 0.974228
O O2 0.500000 0.500000 0.000000
O O3 0.815609 0.777493 0.099284
O O4 0.500000 0.000000 0.000000
O O5 0.007560 0.355944 0.295474
O O6 0.671562 0.078800 0.256322
O O7 0.799038 0.370567 0.370093
O O8 0.139639 0.026775 0.372505
O O9 0.084031 0.404886 0.116405
O O10 0.991774 0.586773 0.211646
O O11 0.344567 0.746346 0.197325
O O12 0.618963 0.313802 0.155553
O O13 0.145629 0.154378 0.210059
O O14 0.447150 0.290317 0.586655
O O15 0.917009 0.275547 0.571839
O O16 0.500000 0.000000 0.500000
O O17 0.697679 0.985419 0.879413
O O18 0.000000 0.500000 0.500000
#
# Coordination Sequence:
#
# PCOD9041786 Si02
#       8
#     2   2   2   2   2   2   2   2
#     4  12  26  44  77 108 144 202 261 330 411 484
#     4  11  28  48  75 111 158 199 265 315 402 484
#     4  11  24  44  76 102 149 193 259 319 398 468
#     4  10  23  46  68 100 151 194 249 313 387 471
#     4  12  28  49  84 119 157 206 263 326 409 484
#     4  10  25  44  70 103 148 202 249 322 384 481
#     4  10  23  44  67 105 142 190 253 316 395 465
#     4  12  28  50  83 117 161 206 257 336 404 480
#
# _framework density 24.025079999999999
#
# number of rings (size 3 to 8) (size 9 to 14) (size 15 to 20)
#    0.000    1.000    2.500    1.875    7.000    6.500 
#    0.000    0.000    0.000    0.000    0.000    0.000 
#    0.000    0.000    0.000    0.000    0.000    0.000 
#
# Total GULP energy -89296.895249 kJ/mol
# GULP energy per Si atom -5581.055953 kJ/mol
# Density = 2.397040 g / cm^3
# Si number density = 24.025080 Si / 1000 Ang^3
#
#
#
# Elastic Constant Matrix: (Units=GPa)
#
#
# Indices 1 2 3 4 5 6 
#
# 1 119.0364 61.3726 45.7530 -24.3403 -13.6371 -3.7601
# 2 61.3726 115.8637 65.5767 -22.5652 -8.7730 5.8562
# 3 45.7530 65.5767 131.1860 -33.3947 -27.0479 5.1497
# 4 -24.3403 -22.5652 -33.3947 43.1403 5.6397 -1.0382
# 5 -13.6371 -8.7730 -27.0479 5.6397 45.4756 -2.6254
# 6 -3.7601 5.8562 5.1497 -1.0382 -2.6254 61.4636
#
#
#
# Elastic Compliance Matrix: (Units=1/GPa)
#
#
# Indices 1 2 3 4 5 6 
#
# 1 0.012445 -0.005690 -0.000176 0.003662 0.002160 0.001472
# 2 -0.005690 0.014891 -0.005810 0.000363 -0.002414 -0.001377
# 3 -0.000176 -0.005810 0.013501 0.006518 0.006035 -0.000220
# 4 0.003662 0.000363 0.006518 0.030317 0.001297 0.000211
# 5 0.002160 -0.002414 0.006035 0.001297 0.025657 0.000974
# 6 0.001472 -0.001377 -0.000220 0.000211 0.000974 0.016555
#
#
# Mechanical properties :
#
#
# Convention : Reuss Voigt Hill
#
# Bulk Modulus (GPa) = 57.19641 79.05450 68.12546
# Shear Modulus (GPa) = 35.07625 42.90817 38.99221
#
# Velocity S-wave (km/s) = 3.82512 4.23066 4.03299
# Velocity P-wave (km/s) = 6.58539 7.53930 7.07843
#
# Compressibility (1/GPa) = 0.01748362
#
# Stress axis : x y z
#
# Youngs Moduli (GPa) = 80.35399 67.15529 74.06908
#
# Poissons Ratio (x) = 0.38211 0.01306
# Poissons Ratio (y) = 0.45721 0.43037
# Poissons Ratio (z) = 0.01417 0.39019
#
# Static dielectric constant tensor:
#      x y z
#    x 2.131410 -0.001840 -0.035380 
#    y -0.001840 2.037750 0.056860 
#    z -0.035380 0.056860 1.985960 
# 
# From -- ./inp_files/10574.got.cif
#   From: 2010.05.17/outbox.cif.g08.bks.cpg/sg2_6_cif.got.tgz:10574.got - 2010.06.03 11:33:40.
