data_PCOD9041790
_publ_section_title
;
Structure prediction by ZEFSAII (Michael W. Deem and Ramdas Pophale) SiO2 
 PCOD9041790
Probable space group: P -1
;
_chemical_formula_sum "Si O2"
_cell_formula_units_Z 14
_cell_length_a 11.679239
_cell_length_b 7.230410
_cell_length_c 8.120752
_cell_angle_alpha 109.351834
_cell_angle_beta 105.129048
_cell_angle_gamma 118.369830
_cell_volume 491.702103
_symmetry_space_group_name_H-M "P -1"
_symmetry_group_IT_number 2
_symmetry_cell_setting 'triclinic'
loop_
_space_group_symop_operation_xyz
x,y,z
-x,-y,-z
loop_
_atom_site_type_symbol
_atom_site_label
_atom_site_fract_x
_atom_site_fract_y
_atom_site_fract_z
Si Si1 0.622484 0.537059 0.180890
Si Si2 0.885858 0.055557 0.531712
Si Si3 0.992001 0.730800 0.690042
Si Si4 0.823751 0.728209 0.008766
Si Si5 0.746278 0.234498 0.712920
Si Si6 0.661746 0.243204 0.336143
Si Si7 0.284540 0.964083 0.016196
O O1 0.571801 0.329467 0.237665
O O2 0.718073 0.796569 0.388966
O O3 0.500000 0.500000 0.000000
O O4 0.749281 0.587811 0.113786
O O5 0.912817 0.211330 0.424517
O O6 0.874770 0.202522 0.714798
O O7 0.000000 0.000000 0.500000
O O8 0.824823 0.513956 0.506674
O O9 0.101795 0.736092 0.862053
O O10 0.019408 0.992202 0.823098
O O11 0.815559 0.523895 0.841674
O O12 0.722295 0.804467 0.922897
O O13 0.640867 0.139274 0.482018
O O14 0.670235 0.090886 0.812388
O O15 0.654389 0.072588 0.139730
#
# Coordination Sequence:
#
# PCOD9041790 Si02
#       7
#     2   2   2   2   2   2   2
#     4  11  24  47  78 105 143 195 240 299 365 426
#     4  11  23  44  73 110 146 186 239 295 359 433
#     4   9  21  41  64 101 151 181 233 297 357 426
#     4   9  23  45  67 107 147 183 240 302 352 425
#     4  12  25  43  75 112 141 196 238 297 366 423
#     4  12  22  43  71 102 145 194 240 296 362 430
#     4  10  23  44  67 108 152 181 242 300 357 430
#
# _framework density 28.472528000000001
#
# number of rings (size 3 to 8) (size 9 to 14) (size 15 to 20)
#    0.857    0.571    4.286    0.429    2.000    1.143 
#    5.143    4.286    0.000    0.000    0.000    0.000 
#    0.000    0.000    0.000    0.000    0.000    0.000 
#
# Total GULP energy -78111.520654 kJ/mol
# GULP energy per Si atom -5579.394332 kJ/mol
# Density = 2.840772 g / cm^3
# Si number density = 28.472528 Si / 1000 Ang^3
#
#
#
# Elastic Constant Matrix: (Units=GPa)
#
#
# Indices 1 2 3 4 5 6 
#
# 1 73.9990 35.9656 60.4125 13.4545 -5.5032 -36.1529
# 2 35.9656 155.5446 71.1419 -15.5201 -9.3907 -18.3470
# 3 60.4125 71.1419 184.6305 -16.5961 -22.9036 -21.0471
# 4 13.4545 -15.5201 -16.5961 66.3759 -11.0847 -10.3437
# 5 -5.5032 -9.3907 -22.9036 -11.0847 47.5663 -5.0150
# 6 -36.1529 -18.3470 -21.0471 -10.3437 -5.0150 55.6379
#
#
#
# Elastic Compliance Matrix: (Units=1/GPa)
#
#
# Indices 1 2 3 4 5 6 
#
# 1 0.028544 -0.002172 -0.007587 -0.006178 -0.000770 0.013743
# 2 -0.002172 0.008264 -0.002029 0.002200 0.001026 0.001048
# 3 -0.007587 -0.002029 0.009440 0.003963 0.004093 -0.000923
# 4 -0.006178 0.002200 0.003963 0.019254 0.006364 0.002364
# 5 -0.000770 0.001026 0.004093 0.006364 0.025100 0.004832
# 6 0.013743 0.001048 -0.000923 0.002364 0.004832 0.027775
#
#
# Mechanical properties :
#
#
# Convention : Reuss Voigt Hill
#
# Bulk Modulus (GPa) = 44.10843 83.24600 63.67722
# Shear Modulus (GPa) = 33.44247 50.35963 41.90105
#
# Velocity S-wave (km/s) = 3.43089 4.21017 3.84035
# Velocity P-wave (km/s) = 5.58748 7.27563 6.48670
#
# Compressibility (1/GPa) = 0.02267140
#
# Stress axis : x y z
#
# Youngs Moduli (GPa) = 35.03423 121.00086 105.93719
#
# Poissons Ratio (x) = 0.26277 0.80375
# Poissons Ratio (y) = 0.07608 0.21498
# Poissons Ratio (z) = 0.26581 0.24555
#
# Static dielectric constant tensor:
#      x y z
#    x 2.373710 -0.005490 0.199280 
#    y -0.005490 2.436360 -0.174260 
#    z 0.199280 -0.174260 2.482190 
# 
# From -- ./inp_files/241133.got.cif
#   From: 2010.05.17/outbox.cif.g08.bks.cpg/sg2_121_cif.got.tgz:241133.got - 2010.06.03 11:33:40.
