data_PCOD9041524
_publ_section_title
;
Structure prediction by ZEFSAII (Michael W. Deem and Ramdas Pophale) SiO2 
 PCOD9041524
Probable space group: P -1
;
_chemical_formula_sum "Si O2"
_cell_formula_units_Z 16
_cell_length_a 6.569280
_cell_length_b 16.041257
_cell_length_c 25.814691
_cell_angle_alpha 26.184626
_cell_angle_beta 137.062371
_cell_angle_gamma 122.812668
_cell_volume 755.418293
_symmetry_space_group_name_H-M "P -1"
_symmetry_group_IT_number 2
_symmetry_cell_setting 'triclinic'
loop_
_space_group_symop_operation_xyz
x,y,z
-x,-y,-z
loop_
_atom_site_type_symbol
_atom_site_label
_atom_site_fract_x
_atom_site_fract_y
_atom_site_fract_z
Si Si1 0.615074 0.138568 0.096223
Si Si2 0.487185 0.098102 0.885766
Si Si3 0.177867 0.750236 0.461990
Si Si4 0.345177 0.546098 0.790192
Si Si5 0.126728 0.563593 0.384244
Si Si6 0.545111 0.774935 0.617774
Si Si7 0.292501 0.495514 0.914031
Si Si8 0.782666 0.407245 0.731714
O O1 0.456169 0.040751 0.077767
O O2 0.647768 0.327713 0.965183
O O3 0.413929 0.267376 0.037210
O O4 0.934364 0.959610 0.275666
O O5 0.708637 0.231662 0.846505
O O6 0.116079 0.259641 0.723741
O O7 0.500000 0.000000 0.000000
O O8 0.407686 0.781937 0.531035
O O9 0.433055 0.592645 0.558455
O O10 0.974695 0.629051 0.518038
O O11 0.331147 0.698103 0.658322
O O12 0.364830 0.622585 0.808899
O O13 0.032489 0.486028 0.762378
O O14 0.500000 0.500000 0.500000
O O15 0.078497 0.646185 0.270260
O O16 0.910079 0.611669 0.785572
O O17 0.500000 0.000000 0.500000
O O18 0.500000 0.500000 0.000000
#
# Coordination Sequence:
#
# PCOD9041524 Si02
#       8
#     2   2   2   2   2   2   2   2
#     4  10  23  44  64 103 143 177 234 279 345 409
#     4  11  25  40  69 102 141 194 235 278 340 409
#     4  11  22  43  67 101 141 185 233 288 343 411
#     4  10  24  45  69 100 136 180 227 286 356 412
#     4  11  23  39  65  99 144 185 233 278 339 402
#     4  12  25  46  75 100 133 181 235 291 356 421
#     4  10  24  48  71 100 137 174 226 298 352 411
#     4  11  22  43  67  98 144 184 235 279 334 423
#
# _framework density 21.180319000000001
#
# number of rings (size 3 to 8) (size 9 to 14) (size 15 to 20)
#    0.750    0.500    2.500    3.000    1.750    6.000 
#    6.750    0.000    0.000    0.000    0.000    0.000 
#    0.000    0.000    0.000    0.000    0.000    0.000 
#
# Total GULP energy -89162.173640 kJ/mol
# GULP energy per Si atom -5572.635853 kJ/mol
# Density = 2.113211 g / cm^3
# Si number density = 21.180319 Si / 1000 Ang^3
#
#
#
# Elastic Constant Matrix: (Units=GPa)
#
#
# Indices 1 2 3 4 5 6 
#
# 1 89.1646 50.2602 51.7463 -10.0104 10.1024 -5.8638
# 2 50.2602 125.6175 55.7755 8.4795 10.6570 -10.7944
# 3 51.7463 55.7755 122.6513 3.7034 6.8119 8.8234
# 4 -10.0104 8.4795 3.7034 40.8260 0.6495 -2.4798
# 5 10.1024 10.6570 6.8119 0.6495 39.9475 0.6004
# 6 -5.8638 -10.7944 8.8234 -2.4798 0.6004 27.4699
#
#
#
# Elastic Compliance Matrix: (Units=1/GPa)
#
#
# Indices 1 2 3 4 5 6 
#
# 1 0.018724 -0.004509 -0.006247 0.006432 -0.002645 0.004870
# 2 -0.004509 0.012203 -0.003821 -0.002977 -0.001488 0.004824
# 3 -0.006247 -0.003821 0.013092 -0.002375 0.000515 -0.007266
# 4 0.006432 -0.002977 -0.002375 0.027128 -0.000920 0.003435
# 5 -0.002645 -0.001488 0.000515 -0.000920 0.026055 -0.001967
# 6 0.004870 0.004824 -0.007266 0.003435 -0.001967 0.042026
#
#
# Mechanical properties :
#
#
# Convention : Reuss Voigt Hill
#
# Bulk Modulus (GPa) = 67.27315 72.55526 69.91420
# Shear Modulus (GPa) = 28.84501 33.62544 31.23523
#
# Velocity S-wave (km/s) = 3.69437 3.98877 3.84439
# Velocity P-wave (km/s) = 7.07311 7.45279 7.26543
#
# Compressibility (1/GPa) = 0.01486477
#
# Stress axis : x y z
#
# Youngs Moduli (GPa) = 53.40606 81.94438 76.38032
#
# Poissons Ratio (x) = 0.36952 0.47713
# Poissons Ratio (y) = 0.24083 0.29189
# Poissons Ratio (z) = 0.33362 0.31315
#
# Static dielectric constant tensor:
#      x y z
#    x 1.549140 0.084530 0.029090 
#    y 0.084530 1.718190 -0.006180 
#    z 0.029090 -0.006180 1.811250 
# 
# From -- ./inp_files/604630.got.cif
#   From: 2010.05.17/outbox.cif.g08.bks.cpg/sg2_303_cif.got.tgz:604630.got - 2010.06.03 11:33:40.
