data_PCOD9041698
_publ_section_title
;
Structure prediction by ZEFSAII (Michael W. Deem and Ramdas Pophale) SiO2 
 PCOD9041698
Probable space group: P -1
;
_chemical_formula_sum "Si O2"
_cell_formula_units_Z 10
_cell_length_a 6.173152
_cell_length_b 16.446972
_cell_length_c 13.569879
_cell_angle_alpha 23.866608
_cell_angle_beta 66.257701
_cell_angle_gamma 79.013827
_cell_volume 447.756898
_symmetry_space_group_name_H-M "P -1"
_symmetry_group_IT_number 2
_symmetry_cell_setting 'triclinic'
loop_
_space_group_symop_operation_xyz
x,y,z
-x,-y,-z
loop_
_atom_site_type_symbol
_atom_site_label
_atom_site_fract_x
_atom_site_fract_y
_atom_site_fract_z
Si Si1 0.538538 0.288262 0.767703
Si Si2 0.477741 0.722504 0.782569
Si Si3 0.050648 0.841160 0.742539
Si Si4 0.940274 0.128674 0.778849
Si Si5 0.450219 0.585615 0.158097
O O1 0.500000 0.500000 0.500000
O O2 0.767087 0.251830 0.710471
O O3 0.614912 0.328042 0.824416
O O4 0.254346 0.060559 0.053331
O O5 0.214471 0.728477 0.786348
O O6 0.740189 0.959713 0.444072
O O7 0.500000 0.500000 0.000000
O O8 0.441095 0.709247 0.922955
O O9 0.000000 0.000000 0.500000
O O10 0.762400 0.647440 0.046330
O O11 0.231338 0.322382 0.475760
O O12 0.000000 0.000000 0.000000
#
# Coordination Sequence:
#
# PCOD9041698 Si02
#       5
#     2   2   2   2   2
#     4  11  25  44  65  96 139 168 222 274 316 393
#     4  10  23  44  66  96 133 169 220 272 326 393
#     4   9  22  44  64  96 129 165 220 275 321 385
#     4  11  25  44  65  99 132 175 221 267 325 391
#     4  11  24  41  70  97 131 179 214 268 336 380
#
# _framework density 22.333548
#
# number of rings (size 3 to 8) (size 9 to 14) (size 15 to 20)
#    0.000    1.600    2.000    0.600    5.600    3.200 
#    7.200    0.000    0.000    0.000    0.000    0.000 
#    0.000    0.000    0.000    0.000    0.000    0.000 
#
# Total GULP energy -55809.449697 kJ/mol
# GULP energy per Si atom -5580.944970 kJ/mol
# Density = 2.228272 g / cm^3
# Si number density = 22.333548 Si / 1000 Ang^3
#
#
#
# Elastic Constant Matrix: (Units=GPa)
#
#
# Indices 1 2 3 4 5 6 
#
# 1 92.2050 31.7812 64.6350 -17.7720 -5.9201 -23.4494
# 2 31.7812 79.2554 37.3282 -27.0247 8.5482 -2.0405
# 3 64.6350 37.3282 149.7430 -17.1001 -41.4219 -21.2181
# 4 -17.7720 -27.0247 -17.1001 35.5396 -3.2572 8.0680
# 5 -5.9201 8.5482 -41.4219 -3.2572 60.4708 -1.7880
# 6 -23.4494 -2.0405 -21.2181 8.0680 -1.7880 51.1354
#
#
#
# Elastic Compliance Matrix: (Units=1/GPa)
#
#
# Indices 1 2 3 4 5 6 
#
# 1 0.018147 -0.002992 -0.006714 0.002241 -0.002131 0.004988
# 2 -0.002992 0.020911 -0.004813 0.012613 -0.006007 -0.004735
# 3 -0.006714 -0.004813 0.013801 -0.000140 0.009552 0.002812
# 4 0.002241 0.012613 -0.000140 0.039906 0.000348 -0.004811
# 5 -0.002131 -0.006007 0.009552 0.000348 0.023843 0.003525
# 6 0.004988 -0.004735 0.002812 -0.004811 0.003525 0.023704
#
#
# Mechanical properties :
#
#
# Convention : Reuss Voigt Hill
#
# Bulk Modulus (GPa) = 41.98157 65.41025 53.69591
# Shear Modulus (GPa) = 28.20235 41.92643 35.06439
#
# Velocity S-wave (km/s) = 3.55742 4.33746 3.96666
# Velocity P-wave (km/s) = 5.97595 7.37809 6.71373
#
# Compressibility (1/GPa) = 0.02381997
#
# Stress axis : x y z
#
# Youngs Moduli (GPa) = 55.10625 47.82124 72.46102
#
# Poissons Ratio (x) = 0.14310 0.48648
# Poissons Ratio (y) = 0.16490 0.34878
# Poissons Ratio (z) = 0.36996 0.23018
#
# Static dielectric constant tensor:
#      x y z
#    x 1.977400 0.016180 -0.025940 
#    y 0.016180 1.857470 0.010420 
#    z -0.025940 0.010420 1.843790 
# 
# From -- ./inp_files/1546.got.cif
#   From: 2010.05.17/outbox.cif.g08.bks.cpg/sg2_1_cif.got.tgz:1546.got - 2010.06.03 11:33:40.
