data_PCOD9041435
_publ_section_title
;
Structure prediction by ZEFSAII (Michael W. Deem and Ramdas Pophale) SiO2 
 PCOD9041435
Probable space group: P -1
;
_chemical_formula_sum "Si O2"
_cell_formula_units_Z 12
_cell_length_a 9.008592
_cell_length_b 7.988401
_cell_length_c 10.079309
_cell_angle_alpha 71.456135
_cell_angle_beta 42.057049
_cell_angle_gamma 68.240973
_cell_volume 450.202471
_symmetry_space_group_name_H-M "P -1"
_symmetry_group_IT_number 2
_symmetry_cell_setting 'triclinic'
loop_
_space_group_symop_operation_xyz
x,y,z
-x,-y,-z
loop_
_atom_site_type_symbol
_atom_site_label
_atom_site_fract_x
_atom_site_fract_y
_atom_site_fract_z
Si Si1 0.429016 0.885862 0.696348
Si Si2 0.251854 0.542173 0.800457
Si Si3 0.062162 0.287495 0.537742
Si Si4 0.947259 0.275973 0.344592
Si Si5 0.569688 0.643976 0.019901
Si Si6 0.180649 0.939708 0.102180
O O1 0.300867 0.730096 0.776532
O O2 0.670666 0.789566 0.622498
O O3 0.500000 0.000000 0.500000
O O4 0.265187 0.994114 0.890168
O O5 0.421016 0.403384 0.817448
O O6 0.248254 0.577894 0.634675
O O7 0.000000 0.500000 0.000000
O O8 0.928175 0.216685 0.522885
O O9 0.000000 0.500000 0.500000
O O10 0.967567 0.215764 0.753439
O O11 0.027118 0.104672 0.239622
O O12 0.171629 0.356660 0.181693
O O13 0.410556 0.836419 0.046688
O O14 0.500000 0.500000 0.000000
#
# Coordination Sequence:
#
# PCOD9041435 Si02
#       6
#     2   2   2   2   2   2
#     4  12  27  50  75 111 152 198 255 310 380 453
#     4  10  23  43  75 107 149 191 247 310 366 441
#     4  12  27  47  78 110 148 200 256 304 381 458
#     4  11  24  45  70 114 149 190 251 310 375 451
#     4  11  20  44  75 102 144 198 246 299 375 442
#     4  12  25  46  80 104 155 198 248 314 381 440
#
# _framework density 26.654672000000001
#
# number of rings (size 3 to 8) (size 9 to 14) (size 15 to 20)
#    0.000    0.667    3.333    4.000    2.333    2.667 
#    3.000    1.667    0.000    0.000    0.000    0.000 
#    0.000    0.000    0.000    0.000    0.000    0.000 
#
# Total GULP energy -67103.121604 kJ/mol
# GULP energy per Si atom -5591.926800 kJ/mol
# Density = 2.659400 g / cm^3
# Si number density = 26.654672 Si / 1000 Ang^3
#
#
#
# Elastic Constant Matrix: (Units=GPa)
#
#
# Indices 1 2 3 4 5 6 
#
# 1 148.6612 23.7724 29.6426 -11.7625 -0.9188 -42.9703
# 2 23.7724 80.0008 31.8322 -17.1664 -9.9130 -7.9984
# 3 29.6426 31.8322 177.2211 -20.8803 14.4259 -6.9354
# 4 -11.7625 -17.1664 -20.8803 32.4414 -11.3034 -7.9367
# 5 -0.9188 -9.9130 14.4259 -11.3034 43.7662 -18.8274
# 6 -42.9703 -7.9984 -6.9354 -7.9367 -18.8274 51.4811
#
#
#
# Elastic Compliance Matrix: (Units=1/GPa)
#
#
# Indices 1 2 3 4 5 6 
#
# 1 0.012938 0.003222 -0.001389 0.014445 0.012969 0.018082
# 2 0.003222 0.020471 -0.002689 0.019852 0.017093 0.014820
# 3 -0.001389 -0.002689 0.006650 0.000711 -0.003432 -0.001827
# 4 0.014445 0.019852 0.000711 0.071232 0.040633 0.041079
# 5 0.012969 0.017093 -0.003432 0.040633 0.055671 0.039642
# 6 0.018082 0.014820 -0.001827 0.041079 0.039642 0.057405
#
#
# Mechanical properties :
#
#
# Convention : Reuss Voigt Hill
#
# Bulk Modulus (GPa) = 26.07634 64.04194 45.05914
# Shear Modulus (GPa) = 20.93275 46.91347 33.92311
#
# Velocity S-wave (km/s) = 2.80542 4.19984 3.57135
# Velocity P-wave (km/s) = 4.50534 6.89905 5.82645
#
# Compressibility (1/GPa) = 0.03834893
#
# Stress axis : x y z
#
# Youngs Moduli (GPa) = 77.29086 48.84851 150.38621
#
# Poissons Ratio (x) = -0.15741 0.20889
# Poissons Ratio (y) = -0.24907 0.40432
# Poissons Ratio (z) = 0.10736 0.13133
#
# Static dielectric constant tensor:
#      x y z
#    x 2.165740 0.042470 0.117160 
#    y 0.042470 2.157450 0.007650 
#    z 0.117160 0.007650 2.210720 
# 
# From -- ./inp_files/157028.got.cif
#   From: 2010.05.17/outbox.cif.g08.bks.cpg/sg2_79_cif.got.tgz:157028.got - 2010.06.03 11:33:40.
