data_PCOD9041455
_publ_section_title
;
Structure prediction by ZEFSAII (Michael W. Deem and Ramdas Pophale) SiO2 
 PCOD9041455
Probable space group: P -1
;
_chemical_formula_sum "Si O2"
_cell_formula_units_Z 10
_cell_length_a 12.513060
_cell_length_b 14.250061
_cell_length_c 7.368135
_cell_angle_alpha 143.876180
_cell_angle_beta 37.293686
_cell_angle_gamma 148.605091
_cell_volume 378.664422
_symmetry_space_group_name_H-M "P -1"
_symmetry_group_IT_number 2
_symmetry_cell_setting 'triclinic'
loop_
_space_group_symop_operation_xyz
x,y,z
-x,-y,-z
loop_
_atom_site_type_symbol
_atom_site_label
_atom_site_fract_x
_atom_site_fract_y
_atom_site_fract_z
Si Si1 0.515460 0.797123 0.400276
Si Si2 0.433527 0.640585 0.871382
Si Si3 0.949133 0.471646 0.311584
Si Si4 0.781263 0.946236 0.616364
Si Si5 0.066924 0.856922 0.626046
O O1 0.529147 0.328610 0.914200
O O2 0.647879 0.792974 0.386793
O O3 0.288723 0.735742 0.695292
O O4 0.683580 0.021544 0.451170
O O5 0.500000 0.500000 0.500000
O O6 0.598594 0.845429 0.860658
O O7 0.178229 0.540167 0.020676
O O8 0.917038 0.637952 0.556426
O O9 0.000000 0.500000 0.500000
O O10 0.895840 0.138039 0.630981
O O11 0.000000 0.000000 0.500000
O O12 0.000000 0.000000 0.000000
#
# Coordination Sequence:
#
# PCOD9041455 Si02
#       5
#     2   2   2   2   2
#     4   9  24  46  75 107 150 198 250 313 379 443
#     4  11  25  45  72 112 147 203 254 308 379 458
#     4  10  24  46  76 110 154 197 252 314 380 453
#     4  10  24  44  71 110 146 197 252 311 371 447
#     4  10  23  43  76 110 148 200 250 305 381 453
#
# _framework density 26.408608999999998
#
# number of rings (size 3 to 8) (size 9 to 14) (size 15 to 20)
#    1.200    0.800    0.000    1.200    5.600    9.600 
#    3.600    0.000    0.000    0.000    0.000    0.000 
#    0.000    0.000    0.000    0.000    0.000    0.000 
#
# Total GULP energy -55710.123492 kJ/mol
# GULP energy per Si atom -5571.012349 kJ/mol
# Density = 2.634850 g / cm^3
# Si number density = 26.408609 Si / 1000 Ang^3
#
#
#
# Elastic Constant Matrix: (Units=GPa)
#
#
# Indices 1 2 3 4 5 6 
#
# 1 151.7302 17.5664 44.5902 -17.2716 21.8557 8.9585
# 2 17.5664 144.9845 31.3228 -39.4952 0.0463 -5.8458
# 3 44.5902 31.3228 156.2865 -39.4384 12.8447 -1.4215
# 4 -17.2716 -39.4952 -39.4384 53.1101 7.0358 -7.5867
# 5 21.8557 0.0463 12.8447 7.0358 29.0623 -20.7775
# 6 8.9585 -5.8458 -1.4215 -7.5867 -20.7775 54.4170
#
#
#
# Elastic Compliance Matrix: (Units=1/GPa)
#
#
# Indices 1 2 3 4 5 6 
#
# 1 0.009110 -0.000391 -0.001026 0.002582 -0.010847 -0.005350
# 2 -0.000391 0.008859 0.000066 0.006789 0.000016 0.001970
# 3 -0.001026 0.000066 0.008843 0.006887 -0.005263 -0.000642
# 4 0.002582 0.006789 0.006887 0.031508 -0.012569 0.000078
# 5 -0.010847 0.000016 -0.005263 -0.012569 0.065832 0.025033
# 6 -0.005350 0.001970 -0.000642 0.000078 0.025033 0.029021
#
#
# Mechanical properties :
#
#
# Convention : Reuss Voigt Hill
#
# Bulk Modulus (GPa) = 41.47765 71.10668 56.29216
# Shear Modulus (GPa) = 30.50421 51.28601 40.89511
#
# Velocity S-wave (km/s) = 3.40234 4.41161 3.93943
# Velocity P-wave (km/s) = 5.58344 7.27556 6.48493
#
# Compressibility (1/GPa) = 0.02410937
#
# Stress axis : x y z
#
# Youngs Moduli (GPa) = 109.77307 112.87499 113.08649
#
# Poissons Ratio (x) = 0.04411 0.11606
# Poissons Ratio (y) = 0.04289 -0.00745
# Poissons Ratio (z) = 0.11266 -0.00743
#
# Static dielectric constant tensor:
#      x y z
#    x 1.983570 0.049740 -0.077750 
#    y 0.049740 2.150030 0.038680 
#    z -0.077750 0.038680 2.089930 
# 
# From -- ./inp_files/65066.got.cif
#   From: 2010.05.17/outbox.cif.g08.bks.cpg/sg2_33_cif.got.tgz:65066.got - 2010.06.03 11:33:40.
