data_PCOD9041715
_publ_section_title
;
Structure prediction by ZEFSAII (Michael W. Deem and Ramdas Pophale) SiO2 
 PCOD9041715
Probable space group: P -1
;
_chemical_formula_sum "Si O2"
_cell_formula_units_Z 14
_cell_length_a 11.306224
_cell_length_b 8.267929
_cell_length_c 16.022758
_cell_angle_alpha 57.203616
_cell_angle_beta 148.553220
_cell_angle_gamma 106.249727
_cell_volume 597.427706
_symmetry_space_group_name_H-M "P -1"
_symmetry_group_IT_number 2
_symmetry_cell_setting 'triclinic'
loop_
_space_group_symop_operation_xyz
x,y,z
-x,-y,-z
loop_
_atom_site_type_symbol
_atom_site_label
_atom_site_fract_x
_atom_site_fract_y
_atom_site_fract_z
Si Si1 0.230552 0.389211 0.232883
Si Si2 0.749190 0.197112 0.591561
Si Si3 0.084213 0.448181 0.469390
Si Si4 0.872702 0.237102 0.828060
Si Si5 0.232385 0.980769 0.700481
Si Si6 0.917794 0.198755 0.181503
Si Si7 0.262485 0.403505 0.940007
O O1 0.482309 0.226125 0.386391
O O2 0.263922 0.591843 0.231911
O O3 0.146390 0.271499 0.288299
O O4 0.000000 0.500000 0.000000
O O5 0.806457 0.384164 0.535722
O O6 0.697365 0.241402 0.645383
O O7 0.987551 0.972411 0.789023
O O8 0.263029 0.198972 0.647780
O O9 0.000000 0.500000 0.500000
O O10 0.876956 0.482602 0.261953
O O11 0.086690 0.302418 0.902297
O O12 0.000000 0.000000 0.000000
O O13 0.141770 0.945609 0.746880
O O14 0.000000 0.000000 0.500000
O O15 0.477205 0.781604 0.876069
O O16 0.715053 0.430071 0.025464
#
# Coordination Sequence:
#
# PCOD9041715 Si02
#       7
#     2   2   2   2   2   2   2
#     4  11  25  43  68 100 136 181 226 278 339 406
#     4  11  24  44  70 100 138 173 230 286 330 412
#     4  11  24  45  66 103 134 182 225 278 350 389
#     4  10  23  44  66  98 133 179 223 282 346 389
#     4  12  25  43  72  99 138 182 222 281 341 405
#     4  11  23  43  67  99 133 178 228 277 335 398
#     4  10  25  44  67 100 136 174 235 275 330 419
#
# _framework density 23.433796999999998
#
# number of rings (size 3 to 8) (size 9 to 14) (size 15 to 20)
#    0.000    1.143    2.857    2.143    2.000    5.143 
#    0.000    0.000    0.000    0.000    0.000    0.000 
#    0.000    0.000    0.000    0.000    0.000    0.000 
#
# Total GULP energy -77997.524047 kJ/mol
# GULP energy per Si atom -5571.251718 kJ/mol
# Density = 2.338046 g / cm^3
# Si number density = 23.433797 Si / 1000 Ang^3
#
#
#
# Elastic Constant Matrix: (Units=GPa)
#
#
# Indices 1 2 3 4 5 6 
#
# 1 55.9196 22.4716 39.5353 -17.6428 5.7062 -6.9332
# 2 22.4716 103.2845 36.0390 -48.0945 3.0832 -3.4282
# 3 39.5353 36.0390 116.2867 -28.7819 9.5149 -9.1952
# 4 -17.6428 -48.0945 -28.7819 39.7020 2.8056 0.1851
# 5 5.7062 3.0832 9.5149 2.8056 28.9681 -9.4568
# 6 -6.9332 -3.4282 -9.1952 0.1851 -9.4568 48.1213
#
#
#
# Elastic Compliance Matrix: (Units=1/GPa)
#
#
# Indices 1 2 3 4 5 6 
#
# 1 0.025092 0.000099 -0.006516 0.006743 -0.002884 0.001785
# 2 0.000099 0.022983 0.000370 0.028515 -0.005153 0.000600
# 3 -0.006516 0.000370 0.012789 0.007058 -0.003365 0.000843
# 4 0.006743 0.028515 0.007058 0.068743 -0.012828 0.001566
# 5 -0.002884 -0.005153 -0.003365 -0.012828 0.040109 0.006506
# 6 0.001785 0.000600 0.000843 0.001566 0.006506 0.022514
#
#
# Mechanical properties :
#
#
# Convention : Reuss Voigt Hill
#
# Bulk Modulus (GPa) = 20.50360 52.39809 36.45084
# Shear Modulus (GPa) = 22.66746 35.18793 28.92769
#
# Velocity S-wave (km/s) = 3.11351 3.87924 3.51728
# Velocity P-wave (km/s) = 4.65767 6.51715 5.66424
#
# Compressibility (1/GPa) = 0.04877193
#
# Stress axis : x y z
#
# Youngs Moduli (GPa) = 39.85262 43.51021 78.19305
#
# Poissons Ratio (x) = -0.00432 0.50949
# Poissons Ratio (y) = -0.00395 -0.02896
# Poissons Ratio (z) = 0.25967 -0.01611
#
# Static dielectric constant tensor:
#      x y z
#    x 1.890540 -0.025650 -0.005760 
#    y -0.025650 1.958160 0.057590 
#    z -0.005760 0.057590 2.031920 
# 
# From -- ./inp_files/77148.got.cif
#   From: 2010.05.17/outbox.cif.g08.bks.cpg/sg2_39_cif.got.tgz:77148.got - 2010.06.03 11:33:40.
