data_PCOD9041091
_publ_section_title
;
Structure prediction by ZEFSAII (Michael W. Deem and Ramdas Pophale) SiO2 
 PCOD9041091
Probable space group: P -1
;
_chemical_formula_sum "Si O2"
_cell_formula_units_Z 12
_cell_length_a 9.028876
_cell_length_b 9.601985
_cell_length_c 11.545932
_cell_angle_alpha 60.842125
_cell_angle_beta 132.879720
_cell_angle_gamma 131.466171
_cell_volume 548.420793
_symmetry_space_group_name_H-M "P -1"
_symmetry_group_IT_number 2
_symmetry_cell_setting 'triclinic'
loop_
_space_group_symop_operation_xyz
x,y,z
-x,-y,-z
loop_
_atom_site_type_symbol
_atom_site_label
_atom_site_fract_x
_atom_site_fract_y
_atom_site_fract_z
Si Si1 0.762390 0.797938 0.957966
Si Si2 0.410936 0.141187 0.396719
Si Si3 0.103450 0.899651 0.524073
Si Si4 0.277053 0.488816 0.452233
Si Si5 0.966402 0.391957 0.903890
Si Si6 0.463093 0.026539 0.105773
O O1 0.627975 0.797048 0.771698
O O2 0.618218 0.821877 0.977420
O O3 0.834242 0.642294 0.035538
O O4 0.000000 0.000000 0.000000
O O5 0.603309 0.323142 0.489488
O O6 0.500000 0.000000 0.500000
O O7 0.177446 0.018824 0.397319
O O8 0.321244 0.920794 0.710232
O O9 0.888720 0.688436 0.484855
O O10 0.000000 0.000000 0.500000
O O11 0.500000 0.500000 0.500000
O O12 0.102764 0.495417 0.264449
O O13 0.745420 0.180917 0.885175
O O14 0.000000 0.500000 0.000000
O O15 0.500000 0.000000 0.000000
#
# Coordination Sequence:
#
# PCOD9041091 Si02
#       6
#     2   2   2   2   2   2
#     4  10  23  43  70  98 138 189 223 287 357 407
#     4  12  23  46  72 100 147 175 233 297 345 418
#     4  12  25  43  73 104 134 187 238 284 351 415
#     4  12  24  45  71 103 138 184 237 284 350 420
#     4  11  22  42  70 101 142 183 226 290 350 415
#     4  11  23  44  67 101 140 183 236 284 347 419
#
# _framework density 21.881008999999999
#
# number of rings (size 3 to 8) (size 9 to 14) (size 15 to 20)
#    0.000    0.667    5.000    3.000    4.667    0.667 
#    0.000    3.333    0.000    0.000    0.000    0.000 
#    0.000    0.000    0.000    0.000    0.000    0.000 
#
# Total GULP energy -66924.543884 kJ/mol
# GULP energy per Si atom -5577.045324 kJ/mol
# Density = 2.183121 g / cm^3
# Si number density = 21.881009 Si / 1000 Ang^3
#
#
#
# Elastic Constant Matrix: (Units=GPa)
#
#
# Indices 1 2 3 4 5 6 
#
# 1 126.5720 22.8341 18.2708 -4.3671 7.8299 -29.9110
# 2 22.8341 142.0732 1.5282 11.7061 0.9721 -6.9579
# 3 18.2708 1.5282 70.4032 7.0898 6.4461 -21.7932
# 4 -4.3671 11.7061 7.0898 29.1057 -5.1601 -3.8854
# 5 7.8299 0.9721 6.4461 -5.1601 41.8134 -11.2012
# 6 -29.9110 -6.9579 -21.7932 -3.8854 -11.2012 48.3997
#
#
#
# Elastic Compliance Matrix: (Units=1/GPa)
#
#
# Indices 1 2 3 4 5 6 
#
# 1 0.009760 -0.001543 -0.001099 0.003153 0.000275 0.005632
# 2 -0.001543 0.007573 0.000641 -0.003499 -0.000404 0.000049
# 3 -0.001099 0.000641 0.016980 -0.003903 -0.001174 0.006473
# 4 0.003153 -0.003499 -0.003903 0.038813 0.006006 0.004194
# 5 0.000275 -0.000404 -0.001174 0.006006 0.026453 0.006188
# 6 0.005632 0.000049 0.006473 0.004194 0.006188 0.028833
#
#
# Mechanical properties :
#
#
# Convention : Reuss Voigt Hill
#
# Bulk Modulus (GPa) = 32.99132 47.14605 40.06869
# Shear Modulus (GPa) = 35.08338 43.62477 39.35408
#
# Velocity S-wave (km/s) = 4.00856 4.46996 4.24553
# Velocity P-wave (km/s) = 6.04442 6.94508 6.51034
#
# Compressibility (1/GPa) = 0.03031101
#
# Stress axis : x y z
#
# Youngs Moduli (GPa) = 102.45576 132.04585 58.89452
#
# Poissons Ratio (x) = 0.20371 0.06471
# Poissons Ratio (y) = 0.15806 -0.03773
# Poissons Ratio (z) = 0.11258 -0.08459
#
# Static dielectric constant tensor:
#      x y z
#    x 1.899720 0.007080 -0.022060 
#    y 0.007080 1.883510 0.104530 
#    z -0.022060 0.104530 1.935360 
# 
# From -- ./inp_files/150871.got.cif
#   From: 2010.05.17/outbox.cif.g08.bks.cpg/sg2_76_cif.got.tgz:150871.got - 2010.06.03 11:33:40.
