data_PCOD9041847
_publ_section_title
;
Structure prediction by ZEFSAII (Michael W. Deem and Ramdas Pophale) SiO2 
 PCOD9041847
Probable space group: P -1
;
_chemical_formula_sum "Si O2"
_cell_formula_units_Z 15
_cell_length_a 10.731034
_cell_length_b 11.770997
_cell_length_c 7.806746
_cell_angle_alpha 47.430200
_cell_angle_beta 107.785071
_cell_angle_gamma 82.445017
_cell_volume 605.831323
_symmetry_space_group_name_H-M "P -1"
_symmetry_group_IT_number 2
_symmetry_cell_setting 'triclinic'
loop_
_space_group_symop_operation_xyz
x,y,z
-x,-y,-z
loop_
_atom_site_type_symbol
_atom_site_label
_atom_site_fract_x
_atom_site_fract_y
_atom_site_fract_z
Si Si1 0.624613 0.722435 0.576803
Si Si2 0.834687 0.794605 0.028781
Si Si3 0.317028 0.974137 0.604019
Si Si4 0.381006 0.642362 0.437408
Si Si5 0.076732 0.565877 0.104189
Si Si6 0.000000 0.000000 0.000000
Si Si7 0.368302 0.358811 0.946186
Si Si8 0.110116 0.887769 0.832069
O O1 0.465763 0.743592 0.439408
O O2 0.628613 0.903141 0.401160
O O3 0.754675 0.586182 0.648034
O O4 0.668025 0.635017 0.873889
O O5 0.974600 0.629991 0.163442
O O6 0.737733 0.932500 0.696904
O O7 0.906372 0.884186 0.086186
O O8 0.725282 0.718278 0.116220
O O9 0.188768 0.963944 0.667366
O O10 0.456688 0.781233 0.848490
O O11 0.500000 0.500000 0.500000
O O12 0.346570 0.539123 0.675324
O O13 0.225284 0.775690 0.149060
O O14 0.083566 0.741730 0.874531
O O15 0.000000 0.500000 0.000000
O O16 0.024837 0.981569 0.239259
#
# Coordination Sequence:
#
# PCOD9041847 Si02
#       8
#     2   2   2   2   2   1   2   2
#     4  11  23  41  69  98 123 171 218 270 321 383
#     4  10  23  44  67  98 132 170 217 271 320 386
#     4  11  23  42  70  96 128 167 225 268 323 376
#     4  12  24  44  64  93 134 165 212 268 331 383
#     4  11  20  44  66  93 133 168 221 256 320 391
#     4  10  26  46  62  98 136 170 218 258 332 384
#     4  11  23  42  67  97 127 168 219 269 321 385
#     4  11  26  46  64  97 132 175 213 268 326 388
#
# _framework density 24.759366
#
# number of rings (size 3 to 8) (size 9 to 14) (size 15 to 20)
#    0.000    1.067    5.333    2.000    3.733    3.733 
#    4.800    1.333    0.000    0.000    0.000    0.000 
#    0.000    0.000    0.000    0.000    0.000    0.000 
#
# Total GULP energy -83772.817162 kJ/mol
# GULP energy per Si atom -5584.854477 kJ/mol
# Density = 2.470301 g / cm^3
# Si number density = 24.759366 Si / 1000 Ang^3
#
#
#
# Elastic Constant Matrix: (Units=GPa)
#
#
# Indices 1 2 3 4 5 6 
#
# 1 89.1946 23.1147 15.6880 4.0280 -11.4300 28.5209
# 2 23.1147 124.8792 12.4843 -7.7122 -9.8070 39.1992
# 3 15.6880 12.4843 88.9693 9.2471 -1.4141 0.7598
# 4 4.0280 -7.7122 9.2471 16.6801 -0.0815 -0.0911
# 5 -11.4300 -9.8070 -1.4141 -0.0815 41.7429 -3.7724
# 6 28.5209 39.1992 0.7598 -0.0911 -3.7724 66.5299
#
#
#
# Elastic Compliance Matrix: (Units=1/GPa)
#
#
# Indices 1 2 3 4 5 6 
#
# 1 0.013976 -0.000586 -0.002022 -0.002539 0.003123 -0.005450
# 2 -0.000586 0.010686 -0.001956 0.006143 0.001761 -0.005914
# 3 -0.002022 -0.001956 0.012618 -0.007403 -0.000434 0.001841
# 4 -0.002539 0.006143 -0.007403 0.067499 0.000418 -0.002330
# 5 0.003123 0.001761 -0.000434 0.000418 0.025126 -0.000947
# 6 -0.005450 -0.005914 0.001841 -0.002330 -0.000947 0.020774
#
#
# Mechanical properties :
#
#
# Convention : Reuss Voigt Hill
#
# Bulk Modulus (GPa) = 35.52140 45.06858 40.29499
# Shear Modulus (GPa) = 29.55244 41.77432 35.66338
#
# Velocity S-wave (km/s) = 3.45858 4.11203 3.79938
# Velocity P-wave (km/s) = 5.50698 6.38648 5.96297
#
# Compressibility (1/GPa) = 0.02815205
#
# Stress axis : x y z
#
# Youngs Moduli (GPa) = 71.54894 93.58111 79.25352
#
# Poissons Ratio (x) = 0.05481 0.16026
# Poissons Ratio (y) = 0.04191 0.15503
# Poissons Ratio (z) = 0.14468 0.18306
#
# Static dielectric constant tensor:
#      x y z
#    x 1.924730 0.048470 0.001550 
#    y 0.048470 1.929760 0.015690 
#    z 0.001550 0.015690 1.961580 
# 
# From -- ./inp_files/256070.got.cif
#   From: 2010.05.17/outbox.cif.g08.bks.cpg/sg2_129_cif.got.tgz:256070.got - 2010.06.03 11:33:40.
