data_PCOD9041259
_publ_section_title
;
Structure prediction by ZEFSAII (Michael W. Deem and Ramdas Pophale) SiO2 
 PCOD9041259
Probable space group: P -1
;
_chemical_formula_sum "Si O2"
_cell_formula_units_Z 12
_cell_length_a 8.797199
_cell_length_b 10.068911
_cell_length_c 16.522323
_cell_angle_alpha 40.423163
_cell_angle_beta 42.851731
_cell_angle_gamma 29.039867
_cell_volume 449.922824
_symmetry_space_group_name_H-M "P -1"
_symmetry_group_IT_number 2
_symmetry_cell_setting 'triclinic'
loop_
_space_group_symop_operation_xyz
x,y,z
-x,-y,-z
loop_
_atom_site_type_symbol
_atom_site_label
_atom_site_fract_x
_atom_site_fract_y
_atom_site_fract_z
Si Si1 0.946265 0.875116 0.823984
Si Si2 0.810006 0.274515 0.831791
Si Si3 0.343348 0.885110 0.420843
Si Si4 0.532467 0.217230 0.405011
Si Si5 0.934113 0.543353 0.250659
Si Si6 0.709238 0.652708 0.960742
O O1 0.661425 0.921817 0.879319
O O2 0.107753 0.927070 0.676054
O O3 0.921871 0.016284 0.850648
O O4 0.194051 0.531545 0.909664
O O5 0.660685 0.529965 0.704647
O O6 0.044377 0.261035 0.798011
O O7 0.582421 0.302463 0.970620
O O8 0.544929 0.702571 0.507922
O O9 0.412662 0.317688 0.653908
O O10 0.220876 0.201388 0.324385
O O11 0.000000 0.000000 0.500000
O O12 0.500000 0.000000 0.500000
O O13 0.028190 0.516447 0.133538
#
# Coordination Sequence:
#
# PCOD9041259 Si02
#       6
#     2   2   2   2   2   2
#     4  10  23  43  72 103 146 200 248 307 373 443
#     4  11  24  43  79 109 146 199 249 314 371 446
#     4  12  28  49  73 110 152 203 249 308 378 449
#     4  11  23  45  72 105 150 193 257 304 372 448
#     4  12  27  47  77 108 153 196 250 313 377 443
#     4  10  24  46  68 110 149 194 250 307 377 448
#
# _framework density 26.671240999999998
#
# number of rings (size 3 to 8) (size 9 to 14) (size 15 to 20)
#    0.000    1.000    1.667    3.500    7.000    2.000 
#    9.000    0.000    0.000    0.000    0.000    0.000 
#    0.000    0.000    0.000    0.000    0.000    0.000 
#
# Total GULP energy -67062.443354 kJ/mol
# GULP energy per Si atom -5588.536946 kJ/mol
# Density = 2.661054 g / cm^3
# Si number density = 26.671241 Si / 1000 Ang^3
#
#
#
# Elastic Constant Matrix: (Units=GPa)
#
#
# Indices 1 2 3 4 5 6 
#
# 1 84.3064 23.1740 57.0876 -4.1088 -7.3810 18.9250
# 2 23.1740 106.2292 52.2892 12.4857 -3.4911 8.8589
# 3 57.0876 52.2892 166.8692 8.2319 -14.1709 12.8180
# 4 -4.1088 12.4857 8.2319 55.3200 9.1084 -3.4311
# 5 -7.3810 -3.4911 -14.1709 9.1084 58.5769 0.4898
# 6 18.9250 8.8589 12.8180 -3.4311 0.4898 39.0175
#
#
#
# Elastic Compliance Matrix: (Units=1/GPa)
#
#
# Indices 1 2 3 4 5 6 
#
# 1 0.017129 -0.000868 -0.005137 0.001736 0.000646 -0.006279
# 2 -0.000868 0.011511 -0.003071 -0.002326 0.000207 -0.001391
# 3 -0.005137 -0.003071 0.008892 -0.001252 0.001514 0.000138
# 4 0.001736 -0.002326 -0.001252 0.019573 -0.003282 0.001860
# 5 0.000646 0.000207 0.001514 -0.003282 0.018054 -0.001373
# 6 -0.006279 -0.001391 0.000138 0.001860 -0.001373 0.029126
#
#
# Mechanical properties :
#
#
# Convention : Reuss Voigt Hill
#
# Bulk Modulus (GPa) = 51.59551 69.16738 60.38144
# Shear Modulus (GPa) = 38.79136 45.57314 42.18225
#
# Velocity S-wave (km/s) = 3.81783 4.13813 3.98120
# Velocity P-wave (km/s) = 6.23069 6.98726 6.61979
#
# Compressibility (1/GPa) = 0.01938153
#
# Stress axis : x y z
#
# Youngs Moduli (GPa) = 58.38072 86.87611 112.45993
#
# Poissons Ratio (x) = 0.07537 0.57766
# Poissons Ratio (y) = 0.05065 0.34536
# Poissons Ratio (z) = 0.29988 0.26679
#
# Static dielectric constant tensor:
#      x y z
#    x 2.304350 -0.124610 0.019710 
#    y -0.124610 2.141250 -0.010390 
#    z 0.019710 -0.010390 2.107710 
# 
# From -- ./inp_files/21675.got.cif
#   From: 2010.05.17/outbox.cif.g08.bks.cpg/sg2_11_cif.got.tgz:21675.got - 2010.06.03 11:33:40.
