data_PCOD9041878
_publ_section_title
;
Structure prediction by ZEFSAII (Michael W. Deem and Ramdas Pophale) SiO2 
 PCOD9041878
Probable space group: P -1
;
_chemical_formula_sum "Si O2"
_cell_formula_units_Z 16
_cell_length_a 5.488406
_cell_length_b 19.226376
_cell_length_c 7.756404
_cell_angle_alpha 89.616996
_cell_angle_beta 44.979691
_cell_angle_gamma 90.128376
_cell_volume 578.501220
_symmetry_space_group_name_H-M "P -1"
_symmetry_group_IT_number 2
_symmetry_cell_setting 'triclinic'
loop_
_space_group_symop_operation_xyz
x,y,z
-x,-y,-z
loop_
_atom_site_type_symbol
_atom_site_label
_atom_site_fract_x
_atom_site_fract_y
_atom_site_fract_z
Si Si1 0.853569 0.225307 0.224205
Si Si2 0.128074 0.526080 0.746547
Si Si3 0.845331 0.404584 0.722458
Si Si4 0.884979 0.723672 0.534506
Si Si5 0.098957 0.102732 0.275220
Si Si6 0.106922 0.353105 0.962495
Si Si7 0.163257 0.846888 0.224015
Si Si8 0.867882 0.974318 0.250435
O O1 0.488326 0.247613 0.330132
O O2 0.961721 0.253607 0.359027
O O3 0.882930 0.143038 0.234302
O O4 0.115252 0.270060 0.974892
O O5 0.500000 0.500000 0.500000
O O6 0.880786 0.486985 0.733970
O O7 0.116433 0.608465 0.777353
O O8 0.000000 0.500000 0.000000
O O9 0.113088 0.359486 0.478758
O O10 0.484085 0.383790 0.817731
O O11 0.936312 0.374411 0.867224
O O12 0.120186 0.764963 0.275636
O O13 0.919896 0.122308 0.544371
O O14 0.477129 0.133673 0.045107
O O15 0.115377 0.020124 0.250435
O O16 0.890358 0.891451 0.251437
O O17 0.500000 0.000000 0.500000
O O18 0.000000 0.000000 0.000000
#
# Coordination Sequence:
#
# PCOD9041878 Si02
#       8
#     2   2   2   2   2   2   2   2
#     4  11  24  43  68 102 138 181 229 283 342 408
#     4  10  23  44  68 100 136 180 228 282 342 408
#     4  11  23  42  67 100 137 180 228 283 342 408
#     4  11  24  43  68 102 138 181 229 283 342 408
#     4  11  24  44  67  96 135 182 228 281 341 408
#     4  11  23  42  67 100 137 180 228 283 342 408
#     4  11  24  44  67  96 135 182 228 281 341 408
#     4  12  24  40  66 100 136 180 229 284 341 406
#
# _framework density 27.657677
#
# number of rings (size 3 to 8) (size 9 to 14) (size 15 to 20)
#    0.000    1.000    0.000    6.375    0.000    7.000 
#    0.000    5.625    0.000    0.000    0.000    0.000 
#    0.000    0.000    0.000    0.000    0.000    0.000 
#
# Total GULP energy -89487.098985 kJ/mol
# GULP energy per Si atom -5592.943687 kJ/mol
# Density = 2.759473 g / cm^3
# Si number density = 27.657677 Si / 1000 Ang^3
#
#
#
# Elastic Constant Matrix: (Units=GPa)
#
#
# Indices 1 2 3 4 5 6 
#
# 1 142.2974 26.6757 63.1855 0.6217 7.4479 -7.2142
# 2 26.6757 97.6135 14.8888 0.3983 24.8633 -0.1728
# 3 63.1855 14.8888 135.9074 10.8686 -1.8906 -1.7235
# 4 0.6217 0.3983 10.8686 47.3980 -0.7581 4.2297
# 5 7.4479 24.8633 -1.8906 -0.7581 71.4767 0.5706
# 6 -7.2142 -0.1728 -1.7235 4.2297 0.5706 49.9786
#
#
#
# Elastic Compliance Matrix: (Units=1/GPa)
#
#
# Indices 1 2 3 4 5 6 
#
# 1 0.009296 -0.001787 -0.004177 0.000742 -0.000459 0.001134
# 2 -0.001787 0.011814 -0.000520 -0.000003 -0.003936 -0.000190
# 3 -0.004177 -0.000520 0.009536 -0.002104 0.000847 -0.000108
# 4 0.000742 -0.000003 -0.002104 0.021734 0.000113 -0.001806
# 5 -0.000459 -0.003936 0.000847 0.000113 0.015433 -0.000236
# 6 0.001134 -0.000190 -0.000108 -0.001806 -0.000236 0.020323
#
#
# Mechanical properties :
#
#
# Convention : Reuss Voigt Hill
#
# Bulk Modulus (GPa) = 56.57378 65.03534 60.80456
# Shear Modulus (GPa) = 46.72993 51.84189 49.28591
#
# Velocity S-wave (km/s) = 4.11491 4.33415 4.22595
# Velocity P-wave (km/s) = 6.56324 6.97222 6.77082
#
# Compressibility (1/GPa) = 0.01767603
#
# Stress axis : x y z
#
# Youngs Moduli (GPa) = 107.57622 84.64215 104.86871
#
# Poissons Ratio (x) = 0.15129 0.43807
# Poissons Ratio (y) = 0.19228 0.05456
# Poissons Ratio (z) = 0.44938 0.04403
#
# Static dielectric constant tensor:
#      x y z
#    x 1.968540 0.238200 -0.201050 
#    y 0.238200 2.059690 0.166160 
#    z -0.201050 0.166160 2.034610 
# 
# From -- ./inp_files/13738.got.cif
#   From: 2010.05.17/outbox.cif.g08.bks.cpg/sg2_7_cif.got.tgz:13738.got - 2010.06.03 11:33:40.
