data_PCOD9041704
_publ_section_title
;
Structure prediction by ZEFSAII (Michael W. Deem and Ramdas Pophale) SiO2 
 PCOD9041704
Probable space group: P -1
;
_chemical_formula_sum "Si O2"
_cell_formula_units_Z 16
_cell_length_a 13.874716
_cell_length_b 23.924968
_cell_length_c 10.112409
_cell_angle_alpha 25.436799
_cell_angle_beta 138.729106
_cell_angle_gamma 146.599585
_cell_volume 793.660467
_symmetry_space_group_name_H-M "P -1"
_symmetry_group_IT_number 2
_symmetry_cell_setting 'triclinic'
loop_
_space_group_symop_operation_xyz
x,y,z
-x,-y,-z
loop_
_atom_site_type_symbol
_atom_site_label
_atom_site_fract_x
_atom_site_fract_y
_atom_site_fract_z
Si Si1 0.253769 0.600484 0.671199
Si Si2 0.444710 0.052082 0.703393
Si Si3 0.472231 0.086052 0.166799
Si Si4 0.675155 0.553126 0.703793
Si Si5 0.863111 0.908911 0.169104
Si Si6 0.965536 0.093482 0.372238
Si Si7 0.666259 0.458098 0.613635
Si Si8 0.897879 0.588486 0.325460
O O1 0.423922 0.760814 0.555243
O O2 0.247963 0.557451 0.602962
O O3 0.076120 0.595225 0.513104
O O4 0.244819 0.471855 0.030979
O O5 0.479555 0.974923 0.780926
O O6 0.241005 0.988331 0.639503
O O7 0.500000 0.000000 0.000000
O O8 0.500000 0.000000 0.500000
O O9 0.272116 0.039265 0.059011
O O10 0.586830 0.275765 0.889469
O O11 0.756186 0.733518 0.379978
O O12 0.709684 0.482296 0.762486
O O13 0.473178 0.491817 0.649446
O O14 0.947586 0.907665 0.397870
O O15 0.000000 0.000000 0.000000
O O16 0.000000 0.000000 0.500000
O O17 0.047163 0.261313 0.027909
O O18 0.817238 0.566889 0.433079
#
# Coordination Sequence:
#
# PCOD9041704 Si02
#       8
#     2   2   2   2   2   2   2   2
#     4  11  24  43  68  99 134 176 218 276 334 401
#     4  12  24  43  69  96 138 177 222 276 336 400
#     4  11  24  44  68 102 135 178 226 277 340 399
#     4  10  23  44  66  97 132 175 226 268 340 393
#     4  11  25  44  69  98 137 181 228 279 332 400
#     4  12  27  45  67 103 136 177 226 281 338 402
#     4  10  24  42  68  97 133 175 220 280 332 400
#     4  11  25  44  67 100 137 171 225 275 336 402
#
# _framework density 20.159755000000001
#
# number of rings (size 3 to 8) (size 9 to 14) (size 15 to 20)
#    0.000    1.000    2.500    3.000    5.250    4.000 
#    0.000    0.000    0.000    0.000    0.000    0.000 
#    0.000    0.000    0.000    0.000    0.000    0.000 
#
# Total GULP energy -89354.340348 kJ/mol
# GULP energy per Si atom -5584.646272 kJ/mol
# Density = 2.011387 g / cm^3
# Si number density = 20.159755 Si / 1000 Ang^3
#
#
#
# Elastic Constant Matrix: (Units=GPa)
#
#
# Indices 1 2 3 4 5 6 
#
# 1 134.5870 42.7250 37.4685 -3.8010 2.1320 2.1238
# 2 42.7250 79.3702 22.1618 3.6041 9.8858 2.5019
# 3 37.4685 22.1618 95.6677 18.8681 -0.5428 12.0122
# 4 -3.8010 3.6041 18.8681 39.7187 -2.9573 4.3545
# 5 2.1320 9.8858 -0.5428 -2.9573 27.4843 -1.1872
# 6 2.1238 2.5019 12.0122 4.3545 -1.1872 32.1861
#
#
#
# Elastic Compliance Matrix: (Units=1/GPa)
#
#
# Indices 1 2 3 4 5 6 
#
# 1 0.009946 -0.004690 -0.003484 0.003052 0.001202 0.000640
# 2 -0.004690 0.016378 -0.001641 -0.001544 -0.005741 -0.000354
# 3 -0.003484 -0.001641 0.013952 -0.006355 0.000280 -0.003980
# 4 0.003052 -0.001544 -0.006355 0.029037 0.003252 -0.001518
# 5 0.001202 -0.005741 0.000280 0.003252 0.038766 0.001252
# 6 0.000640 -0.000354 -0.003980 -0.001518 0.001252 0.032791
#
#
# Mechanical properties :
#
#
# Convention : Reuss Voigt Hill
#
# Bulk Modulus (GPa) = 48.43439 57.14839 52.79139
# Shear Modulus (GPa) = 29.87170 33.69578 31.78374
#
# Velocity S-wave (km/s) = 3.85353 4.09276 3.97494
# Velocity P-wave (km/s) = 6.62397 7.12345 6.87825
#
# Compressibility (1/GPa) = 0.02064649
#
# Stress axis : x y z
#
# Youngs Moduli (GPa) = 100.54343 61.05716 71.67224
#
# Poissons Ratio (x) = 0.28633 0.24974
# Poissons Ratio (y) = 0.47150 0.11761
# Poissons Ratio (z) = 0.35034 0.10019
#
# Static dielectric constant tensor:
#      x y z
#    x 1.011730 -0.922330 0.762210 
#    y -0.922330 0.430960 1.001430 
#    z 0.762210 1.001430 0.898580 
# 
# From -- ./inp_files/190706.got.cif
#   From: 2010.05.17/outbox.cif.g08.bks.cpg/sg2_96_cif.got.tgz:190706.got - 2010.06.03 11:33:40.
