data_PCOD9041398
_publ_section_title
;
Structure prediction by ZEFSAII (Michael W. Deem and Ramdas Pophale) SiO2 
 PCOD9041398
Probable space group: P -1
;
_chemical_formula_sum "Si O2"
_cell_formula_units_Z 16
_cell_length_a 16.188239
_cell_length_b 16.754541
_cell_length_c 5.141335
_cell_angle_alpha 119.063395
_cell_angle_beta 102.173798
_cell_angle_gamma 32.938043
_cell_volume 603.245263
_symmetry_space_group_name_H-M "P -1"
_symmetry_group_IT_number 2
_symmetry_cell_setting 'triclinic'
loop_
_space_group_symop_operation_xyz
x,y,z
-x,-y,-z
loop_
_atom_site_type_symbol
_atom_site_label
_atom_site_fract_x
_atom_site_fract_y
_atom_site_fract_z
Si Si1 0.301616 0.704937 0.151807
Si Si2 0.339730 0.208118 0.814813
Si Si3 0.071019 0.364142 0.553534
Si Si4 0.367318 0.301757 0.493935
Si Si5 0.675101 0.393447 0.487635
Si Si6 0.841652 0.401877 0.541736
Si Si7 0.730647 0.981522 0.059392
Si Si8 0.163576 0.025567 0.389761
O O1 0.229964 0.751981 0.460710
O O2 0.249053 0.850872 0.239764
O O3 0.500000 0.500000 0.000000
O O4 0.243798 0.688703 0.871242
O O5 0.171009 0.313177 0.784616
O O6 0.340640 0.291750 0.748015
O O7 0.500000 0.000000 0.500000
O O8 0.354251 0.232312 0.156009
O O9 0.000000 0.500000 0.500000
O O10 0.945418 0.402438 0.640550
O O11 0.213131 0.174169 0.193308
O O12 0.235322 0.499895 0.633403
O O13 0.553870 0.161215 0.358781
O O14 0.500000 0.500000 0.500000
O O15 0.682975 0.494189 0.712672
O O16 0.986527 0.197228 0.399590
O O17 0.854581 0.907741 0.238807
O O18 0.725455 0.029050 0.844666
#
# Coordination Sequence:
#
# PCOD9041398 Si02
#       8
#     2   2   2   2   2   2   2   2
#     4  10  23  43  74 104 141 190 237 297 368 439
#     4  12  26  47  71 104 143 193 253 303 358 428
#     4  11  25  49  73 108 152 195 246 309 366 429
#     4  12  27  44  73 104 141 196 249 295 361 439
#     4  10  24  46  72 107 144 185 245 294 366 443
#     4  11  28  46  74 112 148 195 242 307 377 426
#     4  11  26  45  73 107 148 197 245 300 367 438
#     4  11  26  46  72 109 151 188 244 309 370 437
#
# _framework density 26.523208
#
# number of rings (size 3 to 8) (size 9 to 14) (size 15 to 20)
#    0.000    1.000    2.500    1.875   10.500    4.500 
#    0.000    0.000    0.000    0.000    0.000    0.000 
#    0.000    0.000    0.000    0.000    0.000    0.000 
#
# Total GULP energy -89306.891021 kJ/mol
# GULP energy per Si atom -5581.680689 kJ/mol
# Density = 2.646284 g / cm^3
# Si number density = 26.523208 Si / 1000 Ang^3
#
#
#
# Elastic Constant Matrix: (Units=GPa)
#
#
# Indices 1 2 3 4 5 6 
#
# 1 164.0825 73.2490 13.9639 -5.2301 4.3111 22.9925
# 2 73.2490 180.0132 37.9501 -1.4064 6.9289 29.7318
# 3 13.9639 37.9501 88.3797 -27.1140 7.6980 10.1382
# 4 -5.2301 -1.4064 -27.1140 51.7106 -5.8507 -5.6362
# 5 4.3111 6.9289 7.6980 -5.8507 34.4908 -0.9689
# 6 22.9925 29.7318 10.1382 -5.6362 -0.9689 57.0917
#
#
#
# Elastic Compliance Matrix: (Units=1/GPa)
#
#
# Indices 1 2 3 4 5 6 
#
# 1 0.007609 -0.002920 0.000490 0.000732 -0.000394 -0.001565
# 2 -0.002920 0.007862 -0.003195 -0.002144 -0.000937 -0.002579
# 3 0.000490 -0.003195 0.015155 0.007684 -0.001512 -0.000492
# 4 0.000732 -0.002144 0.007684 0.023895 0.002730 0.001862
# 5 -0.000394 -0.000937 -0.001512 0.002730 0.030079 0.001695
# 6 -0.001565 -0.002579 -0.000492 0.001862 0.001695 0.019789
#
#
# Mechanical properties :
#
#
# Convention : Reuss Voigt Hill
#
# Bulk Modulus (GPa) = 51.60932 75.86683 63.73807
# Shear Modulus (GPa) = 40.95062 49.14613 45.04838
#
# Velocity S-wave (km/s) = 3.93358 4.30926 4.12570
# Velocity P-wave (km/s) = 6.33492 7.30929 6.83947
#
# Compressibility (1/GPa) = 0.01937634
#
# Stress axis : x y z
#
# Youngs Moduli (GPa) = 131.41546 127.19087 65.98557
#
# Poissons Ratio (x) = 0.37144 -0.03234
# Poissons Ratio (y) = 0.38377 0.21082
# Poissons Ratio (z) = -0.06441 0.40636
#
# Static dielectric constant tensor:
#      x y z
#    x 2.264110 -0.054880 0.138950 
#    y -0.054880 2.039870 0.103650 
#    z 0.138950 0.103650 2.168540 
# 
# From -- ./inp_files/111671.got.cif
#   From: 2010.05.17/outbox.cif.g08.bks.cpg/sg2_56_cif.got.tgz:111671.got - 2010.06.03 11:33:40.
