data_PCOD9041846
_publ_section_title
;
Structure prediction by ZEFSAII (Michael W. Deem and Ramdas Pophale) SiO2 
 PCOD9041846
Probable space group: P -1
;
_chemical_formula_sum "Si O2"
_cell_formula_units_Z 14
_cell_length_a 20.913194
_cell_length_b 9.838508
_cell_length_c 8.276356
_cell_angle_alpha 84.417609
_cell_angle_beta 59.661574
_cell_angle_gamma 34.880546
_cell_volume 644.075487
_symmetry_space_group_name_H-M "P -1"
_symmetry_group_IT_number 2
_symmetry_cell_setting 'triclinic'
loop_
_space_group_symop_operation_xyz
x,y,z
-x,-y,-z
loop_
_atom_site_type_symbol
_atom_site_label
_atom_site_fract_x
_atom_site_fract_y
_atom_site_fract_z
Si Si1 0.632309 0.989962 0.556525
Si Si2 0.980615 0.641240 0.866206
Si Si3 0.305142 0.068661 0.887607
Si Si4 0.521640 0.624744 0.969311
Si Si5 0.949653 0.997840 0.911456
Si Si6 0.817267 0.330784 0.620405
Si Si7 0.680040 0.660181 0.059914
O O1 0.549650 0.210555 0.784400
O O2 0.514234 0.050770 0.690357
O O3 0.827182 0.654898 0.397473
O O4 0.630665 0.053891 0.366588
O O5 0.909460 0.904381 0.985399
O O6 0.000000 0.500000 0.000000
O O7 0.847010 0.786222 0.906058
O O8 0.255241 0.311023 0.938910
O O9 0.432871 0.835786 0.899528
O O10 0.500000 0.500000 0.000000
O O11 0.710768 0.368941 0.748739
O O12 0.123345 0.716964 0.621493
O O13 0.790119 0.345633 0.005663
O O14 0.000000 0.000000 0.000000
O O15 0.715334 0.606328 0.828836
O O16 0.000000 0.000000 0.500000
#
# Coordination Sequence:
#
# PCOD9041846 Si02
#       7
#     2   2   2   2   2   2   2
#     4  10  24  45  69  97 139 176 233 279 334 414
#     4  10  24  44  66 103 138 177 225 283 343 406
#     4  11  25  43  71  99 141 177 227 286 348 401
#     4  11  27  43  67 106 138 181 227 285 354 398
#     4  11  23  40  73  97 134 180 228 275 338 409
#     4   9  23  42  64  94 136 173 230 276 325 412
#     4  10  23  44  67  98 130 179 230 277 339 403
#
# _framework density 21.73658
#
# number of rings (size 3 to 8) (size 9 to 14) (size 15 to 20)
#    0.000    1.714    0.000    2.143   12.000    6.857 
#    0.000    0.000    0.000    0.000    0.000    0.000 
#    0.000    0.000    0.000    0.000    0.000    0.000 
#
# Total GULP energy -78061.533304 kJ/mol
# GULP energy per Si atom -5575.823807 kJ/mol
# Density = 2.168711 g / cm^3
# Si number density = 21.736580 Si / 1000 Ang^3
#
#
#
# Elastic Constant Matrix: (Units=GPa)
#
#
# Indices 1 2 3 4 5 6 
#
# 1 167.8348 51.1543 58.7099 0.8286 -24.3423 14.6975
# 2 51.1543 89.2541 33.5288 1.4058 -6.3646 16.1805
# 3 58.7099 33.5288 122.4540 -3.3160 -14.1512 -5.3632
# 4 0.8286 1.4058 -3.3160 24.1082 -15.6763 -6.1188
# 5 -24.3423 -6.3646 -14.1512 -15.6763 44.5231 -3.8158
# 6 14.6975 16.1805 -5.3632 -6.1188 -3.8158 45.8370
#
#
#
# Elastic Compliance Matrix: (Units=1/GPa)
#
#
# Indices 1 2 3 4 5 6 
#
# 1 0.008634 -0.003415 -0.002777 0.001662 0.003819 -0.001348
# 2 -0.003415 0.015231 -0.003204 -0.004362 -0.002712 -0.005464
# 3 -0.002777 -0.003204 0.011160 0.005438 0.003860 0.004375
# 4 0.001662 -0.004362 0.005438 0.061500 0.024687 0.011908
# 5 0.003819 -0.002712 0.003860 0.024687 0.034625 0.006362
# 6 -0.001348 -0.005464 0.004375 0.011908 0.006362 0.026809
#
#
# Mechanical properties :
#
#
# Convention : Reuss Voigt Hill
#
# Bulk Modulus (GPa) = 61.60314 74.03653 67.81983
# Shear Modulus (GPa) = 27.44810 38.63700 33.04255
#
# Velocity S-wave (km/s) = 3.55739 4.22063 3.90312
# Velocity P-wave (km/s) = 6.72872 7.60831 7.18199
#
# Compressibility (1/GPa) = 0.01623294
#
# Stress axis : x y z
#
# Youngs Moduli (GPa) = 115.81611 65.65771 89.60443
#
# Poissons Ratio (x) = 0.22420 0.24887
# Poissons Ratio (y) = 0.39547 0.28709
# Poissons Ratio (z) = 0.32167 0.21037
#
# Static dielectric constant tensor:
#      x y z
#    x 1.766250 -0.034800 -0.020110 
#    y -0.034800 1.902370 -0.041650 
#    z -0.020110 -0.041650 1.831520 
# 
# From -- ./inp_files/343518.got.cif
#   From: 2010.05.17/outbox.cif.g08.bks.cpg/sg2_172_cif.got.tgz:343518.got - 2010.06.03 11:33:40.
