data_PCOD9041789
_publ_section_title
;
Structure prediction by ZEFSAII (Michael W. Deem and Ramdas Pophale) SiO2 
 PCOD9041789
Probable space group: P -1
;
_chemical_formula_sum "Si O2"
_cell_formula_units_Z 14
_cell_length_a 24.734168
_cell_length_b 5.662237
_cell_length_c 12.367487
_cell_angle_alpha 123.302187
_cell_angle_beta 24.489817
_cell_angle_gamma 112.001583
_cell_volume 559.657946
_symmetry_space_group_name_H-M "P -1"
_symmetry_group_IT_number 2
_symmetry_cell_setting 'triclinic'
loop_
_space_group_symop_operation_xyz
x,y,z
-x,-y,-z
loop_
_atom_site_type_symbol
_atom_site_label
_atom_site_fract_x
_atom_site_fract_y
_atom_site_fract_z
Si Si1 0.585588 0.149063 0.251893
Si Si2 0.784799 0.369081 0.527165
Si Si3 0.231332 0.766970 0.238625
Si Si4 0.241180 0.163014 0.703658
Si Si5 0.529924 0.814282 0.009296
Si Si6 0.993914 0.389937 0.860174
Si Si7 0.296156 0.143618 0.836443
O O1 0.500000 0.500000 0.500000
O O2 0.462898 0.020179 0.468059
O O3 0.698744 0.061038 0.120308
O O4 0.668454 0.099694 0.977076
O O5 0.718414 0.350347 0.760475
O O6 0.926889 0.424693 0.304422
O O7 0.799887 0.074750 0.355373
O O8 0.694451 0.654578 0.690296
O O9 0.082493 0.036517 0.593807
O O10 0.240018 0.479349 0.076808
O O11 0.214791 0.148077 0.875277
O O12 0.408650 0.053949 0.360917
O O13 0.160853 0.486310 0.876071
O O14 0.500000 0.500000 0.000000
O O15 0.500000 0.000000 0.000000
O O16 0.000000 0.500000 0.000000
#
# Coordination Sequence:
#
# PCOD9041789 Si02
#       7
#     2   2   2   2   2   2   2
#     4   9  21  43  70 100 142 191 227 285 364 436
#     4  11  25  46  74  99 142 186 244 300 365 433
#     4  11  24  44  72 101 137 195 235 289 362 441
#     4  11  25  44  69 109 139 184 242 308 360 428
#     4  10  24  44  68 109 145 185 241 314 371 429
#     4  12  25  46  72 100 141 192 241 290 370 443
#     4  10  23  44  67 106 145 179 237 297 363 431
#
# _framework density 25.015280000000001
#
# number of rings (size 3 to 8) (size 9 to 14) (size 15 to 20)
#    0.000    1.429    1.429    2.143   10.000    0.571 
#   12.857    2.857    0.000    0.000    0.000    0.000 
#    0.000    0.000    0.000    0.000    0.000    0.000 
#
# Total GULP energy -78130.839431 kJ/mol
# GULP energy per Si atom -5580.774245 kJ/mol
# Density = 2.495834 g / cm^3
# Si number density = 25.015280 Si / 1000 Ang^3
#
#
#
# Elastic Constant Matrix: (Units=GPa)
#
#
# Indices 1 2 3 4 5 6 
#
# 1 118.4710 40.9651 47.1408 8.5735 25.3847 -34.9114
# 2 40.9651 85.6496 36.4686 3.0871 10.7779 -42.4831
# 3 47.1408 36.4686 157.1601 34.8286 3.7778 -24.4246
# 4 8.5735 3.0871 34.8286 44.0450 -9.0503 -4.7139
# 5 25.3847 10.7779 3.7778 -9.0503 47.9620 2.1097
# 6 -34.9114 -42.4831 -24.4246 -4.7139 2.1097 44.9699
#
#
#
# Elastic Compliance Matrix: (Units=1/GPa)
#
#
# Indices 1 2 3 4 5 6 
#
# 1 0.014063 0.000396 -0.002147 -0.001631 -0.008125 0.010336
# 2 0.000396 0.024404 -0.002413 0.001240 -0.006258 0.022475
# 3 -0.002147 -0.002413 0.009092 -0.006631 -0.000302 0.000311
# 4 -0.001631 0.001240 -0.006631 0.029457 0.006706 -0.000923
# 5 -0.008125 -0.006258 -0.000302 0.006706 0.028418 -0.013014
# 6 0.010336 0.022475 0.000311 -0.000923 -0.013014 0.052176
#
#
# Mechanical properties :
#
#
# Convention : Reuss Voigt Hill
#
# Bulk Modulus (GPa) = 25.49044 67.82552 46.65798
# Shear Modulus (GPa) = 27.93037 43.17579 35.55308
#
# Velocity S-wave (km/s) = 3.34508 4.15899 3.77404
# Velocity P-wave (km/s) = 5.01313 7.08770 6.13869
#
# Compressibility (1/GPa) = 0.03923040
#
# Stress axis : x y z
#
# Youngs Moduli (GPa) = 71.10782 40.97652 109.98553
#
# Poissons Ratio (x) = -0.01622 0.23616
# Poissons Ratio (y) = -0.02815 0.26542
# Poissons Ratio (z) = 0.15268 0.09888
#
# Static dielectric constant tensor:
#      x y z
#    x 2.112880 0.065580 0.019000 
#    y 0.065580 2.069990 -0.093490 
#    z 0.019000 -0.093490 2.107920 
# 
# From -- ./inp_files/475916.got.cif
#   From: 2010.05.17/outbox.cif.g08.bks.cpg/sg2_238_cif.got.tgz:475916.got - 2010.06.03 11:33:40.
