data_PCOD9041285
_publ_section_title
;
Structure prediction by ZEFSAII (Michael W. Deem and Ramdas Pophale) SiO2 
 PCOD9041285
Probable space group: P -1
;
_chemical_formula_sum "Si O2"
_cell_formula_units_Z 16
_cell_length_a 9.406254
_cell_length_b 12.228576
_cell_length_c 11.758064
_cell_angle_alpha 52.483284
_cell_angle_beta 53.510442
_cell_angle_gamma 88.130782
_cell_volume 738.367540
_symmetry_space_group_name_H-M "P -1"
_symmetry_group_IT_number 2
_symmetry_cell_setting 'triclinic'
loop_
_space_group_symop_operation_xyz
x,y,z
-x,-y,-z
loop_
_atom_site_type_symbol
_atom_site_label
_atom_site_fract_x
_atom_site_fract_y
_atom_site_fract_z
Si Si1 0.739436 0.836628 0.518143
Si Si2 0.202248 0.064069 0.943759
Si Si3 0.512534 0.228717 0.109205
Si Si4 0.046242 0.647283 0.804277
Si Si5 0.484116 0.083809 0.611290
Si Si6 0.974657 0.503048 0.680519
Si Si7 0.978877 0.716855 0.347445
Si Si8 0.841460 0.845428 0.849194
O O1 0.585467 0.736236 0.755818
O O2 0.652410 0.924864 0.425708
O O3 0.792134 0.732200 0.475757
O O4 0.955942 0.976961 0.378027
O O5 0.163225 0.896635 0.120681
O O6 0.201216 0.164241 0.988753
O O7 0.401188 0.141270 0.720449
O O8 0.000000 0.000000 0.000000
O O9 0.347887 0.172180 0.122047
O O10 0.542280 0.084385 0.231059
O O11 0.728584 0.378400 0.873296
O O12 0.281356 0.792105 0.610747
O O13 0.021689 0.584178 0.728096
O O14 0.899716 0.716442 0.861304
O O15 0.000000 0.500000 0.000000
O O16 0.040202 0.636751 0.468136
O O17 0.070168 0.393692 0.670014
#
# Coordination Sequence:
#
# PCOD9041285 Si02
#       8
#     2   2   2   2   2   2   2   2
#     4  11  23  43  74 100 138 178 239 291 342 407
#     4  11  23  45  77 101 137 182 238 292 339 414
#     4  12  25  43  74 103 138 184 237 283 346 425
#     4  12  29  45  69 104 149 182 230 291 349 417
#     4  12  25  43  75 105 130 193 237 280 348 418
#     4  11  26  45  67 103 148 182 225 290 356 406
#     4  10  23  43  72  95 140 185 222 286 357 397
#     4  11  26  44  70 104 141 177 235 292 349 402
#
# _framework density 21.669425
#
# number of rings (size 3 to 8) (size 9 to 14) (size 15 to 20)
#    0.000    0.750    5.000    2.250    7.000    5.500 
#    0.000    1.250    0.000    0.000    0.000    0.000 
#    0.000    0.000    0.000    0.000    0.000    0.000 
#
# Total GULP energy -89506.338142 kJ/mol
# GULP energy per Si atom -5594.146134 kJ/mol
# Density = 2.162010 g / cm^3
# Si number density = 21.669425 Si / 1000 Ang^3
#
#
#
# Elastic Constant Matrix: (Units=GPa)
#
#
# Indices 1 2 3 4 5 6 
#
# 1 82.9137 29.4068 4.7690 -1.4265 -1.6641 9.0219
# 2 29.4068 159.9276 6.5180 22.6540 7.5859 4.0436
# 3 4.7690 6.5180 73.8061 8.2709 5.3058 5.7829
# 4 -1.4265 22.6540 8.2709 39.5640 0.1419 4.6397
# 5 -1.6641 7.5859 5.3058 0.1419 27.1318 4.5561
# 6 9.0219 4.0436 5.7829 4.6397 4.5561 27.3946
#
#
#
# Elastic Compliance Matrix: (Units=1/GPa)
#
#
# Indices 1 2 3 4 5 6 
#
# 1 0.013768 -0.002910 -0.000762 0.002883 0.002609 -0.004866
# 2 -0.002910 0.007517 0.000131 -0.004545 -0.002450 0.000998
# 3 -0.000762 0.000131 0.014235 -0.002850 -0.002539 -0.001868
# 4 0.002883 -0.004545 -0.002850 0.029162 0.002703 -0.005066
# 5 0.002609 -0.002450 -0.002539 0.002703 0.039354 -0.006965
# 6 -0.004866 0.000998 -0.001868 -0.005066 -0.006965 0.040369
#
#
# Mechanical properties :
#
#
# Convention : Reuss Voigt Hill
#
# Bulk Modulus (GPa) = 35.16231 44.22611 39.69421
# Shear Modulus (GPa) = 31.06245 37.21498 34.13871
#
# Velocity S-wave (km/s) = 3.79023 4.14864 3.97348
# Velocity P-wave (km/s) = 5.95116 6.58803 6.27768
#
# Compressibility (1/GPa) = 0.02843954
#
# Stress axis : x y z
#
# Youngs Moduli (GPa) = 72.63233 133.02737 70.24958
#
# Poissons Ratio (x) = 0.38706 0.05353
# Poissons Ratio (y) = 0.21133 -0.00923
# Poissons Ratio (z) = 0.05535 -0.01748
#
# Static dielectric constant tensor:
#      x y z
#    x 1.789650 -0.021840 0.007170 
#    y -0.021840 1.845730 0.023300 
#    z 0.007170 0.023300 1.767790 
# 
# From -- ./inp_files/392040.got.cif
#   From: 2010.05.17/outbox.cif.g08.bks.cpg/sg2_197_cif.got.tgz:392040.got - 2010.06.03 11:33:40.
