data_PCOD9041958
_publ_section_title
;
Structure prediction by ZEFSAII (Michael W. Deem and Ramdas Pophale) SiO2 
 PCOD9041958
Probable space group: P -1
;
_chemical_formula_sum "Si O2"
_cell_formula_units_Z 12
_cell_length_a 11.933214
_cell_length_b 8.719926
_cell_length_c 10.173522
_cell_angle_alpha 75.474870
_cell_angle_beta 50.616983
_cell_angle_gamma 49.630262
_cell_volume 599.892301
_symmetry_space_group_name_H-M "P -1"
_symmetry_group_IT_number 2
_symmetry_cell_setting 'triclinic'
loop_
_space_group_symop_operation_xyz
x,y,z
-x,-y,-z
loop_
_atom_site_type_symbol
_atom_site_label
_atom_site_fract_x
_atom_site_fract_y
_atom_site_fract_z
Si Si1 0.008586 0.320299 0.684446
Si Si2 0.476674 0.491726 0.363703
Si Si3 0.819427 0.012864 0.150442
Si Si4 0.599632 0.678170 0.037497
Si Si5 0.937492 0.343630 0.435572
Si Si6 0.727163 0.937393 0.959285
O O1 0.000890 0.261043 0.554927
O O2 0.076349 0.454730 0.602799
O O3 0.793490 0.476199 0.869856
O O4 0.139209 0.124294 0.724629
O O5 0.500000 0.500000 0.500000
O O6 0.628767 0.250303 0.260046
O O7 0.527863 0.611355 0.216850
O O8 0.263458 0.589513 0.465796
O O9 0.797819 0.924457 0.054646
O O10 0.000000 0.000000 0.000000
O O11 0.646056 0.817175 0.034267
O O12 0.438543 0.824686 0.015788
O O13 0.099187 0.176024 0.248633
#
# Coordination Sequence:
#
# PCOD9041958 Si02
#       6
#     2   2   2   2   2   2
#     4  10  23  44  68  95 132 171 213 264 320 389
#     4  12  27  42  65  99 133 166 218 271 320 374
#     4  12  25  42  68  97 128 171 221 261 322 379
#     4  10  23  45  68  92 133 172 216 256 326 387
#     4  10  24  43  67  98 131 169 213 267 324 373
#     4  10  24  44  71  94 126 177 213 262 321 386
#
# _framework density 20.003589999999999
#
# number of rings (size 3 to 8) (size 9 to 14) (size 15 to 20)
#    0.000    1.333    1.667    2.000    7.000    5.333 
#    0.000    0.000    0.000    0.000    0.000    0.000 
#    0.000    0.000    0.000    0.000    0.000    0.000 
#
# Total GULP energy -67166.610188 kJ/mol
# GULP energy per Si atom -5597.217516 kJ/mol
# Density = 1.995806 g / cm^3
# Si number density = 20.003590 Si / 1000 Ang^3
#
#
#
# Elastic Constant Matrix: (Units=GPa)
#
#
# Indices 1 2 3 4 5 6 
#
# 1 135.1272 40.9417 82.7295 -15.4307 12.1639 -23.2871
# 2 40.9417 99.4686 49.1033 -18.1777 0.0784 -25.4202
# 3 82.7295 49.1033 117.0767 -25.6005 -1.3316 -3.5293
# 4 -15.4307 -18.1777 -25.6005 36.4306 -5.0757 8.6418
# 5 12.1639 0.0784 -1.3316 -5.0757 41.1770 -2.2926
# 6 -23.2871 -25.4202 -3.5293 8.6418 -2.2926 17.9112
#
#
#
# Elastic Compliance Matrix: (Units=1/GPa)
#
#
# Indices 1 2 3 4 5 6 
#
# 1 0.030681 0.014910 -0.029743 -0.016370 -0.008620 0.061985
# 2 0.014910 0.028880 -0.023109 -0.010269 -0.003111 0.060375
# 3 -0.029743 -0.023109 0.042487 0.024491 0.009117 -0.073745
# 4 -0.016370 -0.010269 0.024491 0.046165 0.008430 -0.052227
# 5 -0.008620 -0.003111 0.009117 0.008430 0.027371 -0.014391
# 6 0.061985 0.060375 -0.073745 -0.052227 -0.014391 0.230932
#
#
# Mechanical properties :
#
#
# Convention : Reuss Voigt Hill
#
# Bulk Modulus (GPa) = 38.22062 77.46906 57.84484
# Shear Modulus (GPa) = 10.18082 31.03030 20.60556
#
# Velocity S-wave (km/s) = 2.25844 3.94285 3.21299
# Velocity P-wave (km/s) = 5.09402 7.71620 6.53792
#
# Compressibility (1/GPa) = 0.02616388
#
# Stress axis : x y z
#
# Youngs Moduli (GPa) = 32.59336 34.62653 23.53684
#
# Poissons Ratio (x) = -0.51629 0.70005
# Poissons Ratio (y) = -0.48598 0.54392
# Poissons Ratio (z) = 0.96941 0.80019
#
# Static dielectric constant tensor:
#      x y z
#    x 1.676200 0.012680 -0.004090 
#    y 0.012680 1.686330 -0.000650 
#    z -0.004090 -0.000650 1.676460 
# 
# From -- ./inp_files/144481.got.cif
#   From: 2010.05.17/outbox.cif.g08.bks.cpg/sg2_73_cif.got.tgz:144481.got - 2010.06.03 11:33:40.
