data_PCOD9041350
_publ_section_title
;
Structure prediction by ZEFSAII (Michael W. Deem and Ramdas Pophale) SiO2 
 PCOD9041350
Probable space group: P -1
;
_chemical_formula_sum "Si O2"
_cell_formula_units_Z 12
_cell_length_a 9.019454
_cell_length_b 10.042172
_cell_length_c 12.702864
_cell_angle_alpha 47.277144
_cell_angle_beta 147.303004
_cell_angle_gamma 131.041856
_cell_volume 445.837211
_symmetry_space_group_name_H-M "P -1"
_symmetry_group_IT_number 2
_symmetry_cell_setting 'triclinic'
loop_
_space_group_symop_operation_xyz
x,y,z
-x,-y,-z
loop_
_atom_site_type_symbol
_atom_site_label
_atom_site_fract_x
_atom_site_fract_y
_atom_site_fract_z
Si Si1 0.227768 0.025880 0.259564
Si Si2 0.737525 0.686170 0.183087
Si Si3 0.806538 0.508754 0.539351
Si Si4 0.059254 0.712543 0.955566
Si Si5 0.460447 0.842492 0.313074
Si Si6 0.164243 0.809756 0.733884
O O1 0.181336 0.229714 0.146963
O O2 0.500000 0.000000 0.500000
O O3 0.276409 0.963865 0.203829
O O4 0.954211 0.884581 0.216009
O O5 0.707189 0.589284 0.330517
O O6 0.916171 0.571123 0.280857
O O7 0.441546 0.717575 0.948777
O O8 0.573351 0.339418 0.536928
O O9 0.914323 0.668064 0.602998
O O10 0.103460 0.824753 0.812948
O O11 0.325600 0.768511 0.161251
O O12 0.000000 0.500000 0.000000
O O13 0.736102 0.997212 0.371677
#
# Coordination Sequence:
#
# PCOD9041350 Si02
#       6
#     2   2   2   2   2   2
#     4  11  25  48  76 106 148 201 252 302 369 456
#     4  10  23  43  73 106 151 190 254 298 375 443
#     4  10  23  44  68 112 146 196 248 304 359 460
#     4  12  26  46  74 113 148 191 250 310 378 436
#     4  11  24  47  75 103 147 198 250 294 370 454
#     4  12  24  44  76 103 150 192 242 313 379 426
#
# _framework density 26.915654
#
# number of rings (size 3 to 8) (size 9 to 14) (size 15 to 20)
#    0.000    1.000    3.333    2.500    2.333    5.333 
#    3.000    3.333    0.000    0.000    0.000    0.000 
#    0.000    0.000    0.000    0.000    0.000    0.000 
#
# Total GULP energy -67389.016162 kJ/mol
# GULP energy per Si atom -5615.751347 kJ/mol
# Density = 2.685439 g / cm^3
# Si number density = 26.915654 Si / 1000 Ang^3
#
#
#
# Elastic Constant Matrix: (Units=GPa)
#
#
# Indices 1 2 3 4 5 6 
#
# 1 169.8103 95.4276 40.3202 -10.2754 -20.0003 16.0099
# 2 95.4276 187.8997 51.1396 -2.9597 -15.4532 -7.0549
# 3 40.3202 51.1396 112.3359 0.9991 -5.4572 26.6003
# 4 -10.2754 -2.9597 0.9991 38.4609 2.8165 3.7291
# 5 -20.0003 -15.4532 -5.4572 2.8165 62.6100 -10.9327
# 6 16.0099 -7.0549 26.6003 3.7291 -10.9327 61.0273
#
#
#
# Elastic Compliance Matrix: (Units=1/GPa)
#
#
# Indices 1 2 3 4 5 6 
#
# 1 0.009003 -0.004367 -0.000607 0.002241 0.001204 -0.002523
# 2 -0.004367 0.008635 -0.003199 -0.000873 0.001160 0.003799
# 3 -0.000607 -0.003199 0.011842 -0.000113 -0.000912 -0.005529
# 4 0.002241 -0.000873 -0.000113 0.026861 -0.001152 -0.002487
# 5 0.001204 0.001160 -0.000912 -0.001152 0.017203 0.003368
# 6 -0.002523 0.003799 -0.005529 -0.002487 0.003368 0.020652
#
#
# Mechanical properties :
#
#
# Convention : Reuss Voigt Hill
#
# Bulk Modulus (GPa) = 76.14548 93.75787 84.95168
# Shear Modulus (GPa) = 43.50852 51.29687 47.40270
#
# Velocity S-wave (km/s) = 4.02490 4.37033 4.20117
# Velocity P-wave (km/s) = 7.06765 7.77019 7.42723
#
# Compressibility (1/GPa) = 0.01313276
#
# Stress axis : x y z
#
# Youngs Moduli (GPa) = 111.07814 115.80793 84.44593
#
# Poissons Ratio (x) = 0.50578 0.05126
# Poissons Ratio (y) = 0.48512 0.27014
# Poissons Ratio (z) = 0.06743 0.37047
#
# Static dielectric constant tensor:
#      x y z
#    x 2.071500 -0.046380 0.078280 
#    y -0.046380 2.073720 -0.085830 
#    z 0.078280 -0.085830 2.135150 
# 
# From -- ./inp_files/381555.got.cif
#   From: 2010.05.17/outbox.cif.g08.bks.cpg/sg2_191_cif.got.tgz:381555.got - 2010.06.03 11:33:40.
