data_PCOD9041679
_publ_section_title
;
Structure prediction by ZEFSAII (Michael W. Deem and Ramdas Pophale) SiO2 
 PCOD9041679
Probable space group: P -1
;
_chemical_formula_sum "Si O2"
_cell_formula_units_Z 16
_cell_length_a 6.140554
_cell_length_b 16.329935
_cell_length_c 14.320589
_cell_angle_alpha 148.329671
_cell_angle_beta 100.765300
_cell_angle_gamma 67.286304
_cell_volume 664.976201
_symmetry_space_group_name_H-M "P -1"
_symmetry_group_IT_number 2
_symmetry_cell_setting 'triclinic'
loop_
_space_group_symop_operation_xyz
x,y,z
-x,-y,-z
loop_
_atom_site_type_symbol
_atom_site_label
_atom_site_fract_x
_atom_site_fract_y
_atom_site_fract_z
Si Si1 0.748083 0.562236 0.482552
Si Si2 0.517565 0.129901 0.919289
Si Si3 0.796156 0.689845 0.197046
Si Si4 0.454623 0.616145 0.980791
Si Si5 0.950247 0.788984 0.625795
Si Si6 0.148024 0.733307 0.400622
Si Si7 0.685164 0.249925 0.222143
Si Si8 0.902377 0.884011 0.228052
O O1 0.790044 0.682329 0.526282
O O2 0.717954 0.389062 0.290780
O O3 0.530677 0.663691 0.635888
O O4 0.000000 0.500000 0.500000
O O5 0.466416 0.296007 0.013456
O O6 0.283957 0.091999 0.849106
O O7 0.762416 0.972327 0.746778
O O8 0.590824 0.143511 0.044209
O O9 0.548521 0.671958 0.137503
O O10 0.803423 0.830274 0.261201
O O11 0.900762 0.721720 0.333034
O O12 0.000000 0.500000 0.000000
O O13 0.160166 0.718039 0.063245
O O14 0.611814 0.412142 0.772968
O O15 0.161707 0.696793 0.477036
O O16 0.071970 0.819484 0.760174
O O17 0.105766 0.929601 0.572770
#
# Coordination Sequence:
#
# PCOD9041679 Si02
#       8
#     2   2   2   2   2   2   2   2
#     4   9  22  41  65  96 128 172 236 280 342 404
#     4  11  25  44  65  99 140 174 233 289 332 407
#     4   9  22  47  69 104 137 178 233 277 341 411
#     4  10  24  46  71 100 138 179 227 284 342 408
#     4  11  24  44  66 101 135 177 231 283 345 408
#     4  11  24  46  71 102 142 178 225 286 340 413
#     4  10  23  44  66  93 134 182 234 280 336 407
#     4  11  24  47  69 104 137 182 234 275 344 408
#
# _framework density 24.06101
#
# number of rings (size 3 to 8) (size 9 to 14) (size 15 to 20)
#    0.000    1.750    1.250    0.750    7.000    5.000 
#   13.500    0.000    0.000    0.000    0.000    0.000 
#    0.000    0.000    0.000    0.000    0.000    0.000 
#
# Total GULP energy -89346.630073 kJ/mol
# GULP energy per Si atom -5584.164380 kJ/mol
# Density = 2.400625 g / cm^3
# Si number density = 24.061010 Si / 1000 Ang^3
#
#
#
# Elastic Constant Matrix: (Units=GPa)
#
#
# Indices 1 2 3 4 5 6 
#
# 1 81.1681 27.6266 38.9237 1.0838 0.4986 -28.5266
# 2 27.6266 90.7838 48.9066 -4.7262 7.7455 -8.1819
# 3 38.9237 48.9066 107.9489 -7.9922 8.9809 -17.8390
# 4 1.0838 -4.7262 -7.9922 39.7049 -12.8322 9.3383
# 5 0.4986 7.7455 8.9809 -12.8322 28.7438 -2.1595
# 6 -28.5266 -8.1819 -17.8390 9.3383 -2.1595 53.9817
#
#
#
# Elastic Compliance Matrix: (Units=1/GPa)
#
#
# Indices 1 2 3 4 5 6 
#
# 1 0.018333 -0.002759 -0.004285 -0.003400 0.000883 0.008478
# 2 -0.002759 0.015092 -0.005846 0.000290 -0.002156 -0.001239
# 3 -0.004285 -0.005846 0.013911 0.001296 -0.002032 0.001141
# 4 -0.003400 0.000290 0.001296 0.031256 0.013063 -0.006209
# 5 0.000883 -0.002156 -0.002032 0.013063 0.041738 -0.001122
# 6 0.008478 -0.001239 0.001141 -0.006209 -0.001122 0.024223
#
#
# Mechanical properties :
#
#
# Convention : Reuss Voigt Hill
#
# Bulk Modulus (GPa) = 46.39201 56.75717 51.57459
# Shear Modulus (GPa) = 28.16590 35.44901 31.80746
#
# Velocity S-wave (km/s) = 3.42512 3.84252 3.63981
# Velocity P-wave (km/s) = 5.91310 6.58230 6.25665
#
# Compressibility (1/GPa) = 0.02155543
#
# Stress axis : x y z
#
# Youngs Moduli (GPa) = 54.54543 66.26147 71.88565
#
# Poissons Ratio (x) = 0.18282 0.30801
# Poissons Ratio (y) = 0.15050 0.42027
# Poissons Ratio (z) = 0.23371 0.38739
#
# Static dielectric constant tensor:
#      x y z
#    x 1.936090 -0.008110 0.063930 
#    y -0.008110 1.957140 0.024520 
#    z 0.063930 0.024520 1.934450 
# 
# From -- ./inp_files/110816.got.cif
#   From: 2010.05.17/outbox.cif.g08.bks.cpg/sg2_56_cif.got.tgz:110816.got - 2010.06.03 11:33:40.
