data_PCOD9041773
_publ_section_title
;
Structure prediction by ZEFSAII (Michael W. Deem and Ramdas Pophale) SiO2 
 PCOD9041773
Probable space group: P -1
;
_chemical_formula_sum "Si O2"
_cell_formula_units_Z 14
_cell_length_a 13.475327
_cell_length_b 21.206118
_cell_length_c 7.135432
_cell_angle_alpha 77.469188
_cell_angle_beta 90.741898
_cell_angle_gamma 158.514433
_cell_volume 618.928922
_symmetry_space_group_name_H-M "P -1"
_symmetry_group_IT_number 2
_symmetry_cell_setting 'triclinic'
loop_
_space_group_symop_operation_xyz
x,y,z
-x,-y,-z
loop_
_atom_site_type_symbol
_atom_site_label
_atom_site_fract_x
_atom_site_fract_y
_atom_site_fract_z
Si Si1 0.319469 0.071203 0.030225
Si Si2 0.665925 0.076843 0.267047
Si Si3 0.692014 0.354053 0.528760
Si Si4 0.611749 0.473022 0.002553
Si Si5 0.299145 0.148671 0.315263
Si Si6 0.758026 0.239510 0.840974
Si Si7 0.322142 0.387314 0.764239
O O1 0.198370 0.039535 0.216179
O O2 0.426520 0.184216 0.791010
O O3 0.646667 0.233329 0.960703
O O4 0.055612 0.853221 0.123465
O O5 0.500000 0.000000 0.500000
O O6 0.452962 0.892757 0.270188
O O7 0.708377 0.153737 0.047781
O O8 0.026108 0.284372 0.198481
O O9 0.495383 0.224988 0.415659
O O10 0.000000 0.500000 0.500000
O O11 0.882624 0.538131 0.372151
O O12 0.529797 0.347606 0.110988
O O13 0.567579 0.484614 0.187893
O O14 0.398389 0.371272 0.900106
O O15 0.000000 0.000000 0.500000
O O16 0.500000 0.500000 0.500000
#
# Coordination Sequence:
#
# PCOD9041773 Si02
#       7
#     2   2   2   2   2   2   2
#     4  11  25  44  70 100 141 179 226 281 349 401
#     4  11  24  41  71 100 136 174 228 281 340 409
#     4  10  24  44  69  99 141 177 227 285 344 408
#     4  11  25  45  68 102 133 176 235 277 344 412
#     4  12  26  46  71 103 140 183 234 282 341 417
#     4  10  23  44  67 103 133 178 225 284 340 407
#     4  11  25  45  71  98 136 180 226 289 343 405
#
# _framework density 22.619721999999999
#
# number of rings (size 3 to 8) (size 9 to 14) (size 15 to 20)
#    0.000    1.143    2.857    1.714    4.000    9.143 
#    0.000    0.000    0.000    0.000    0.000    0.000 
#    0.000    0.000    0.000    0.000    0.000    0.000 
#
# Total GULP energy -78060.416951 kJ/mol
# GULP energy per Si atom -5575.744068 kJ/mol
# Density = 2.256824 g / cm^3
# Si number density = 22.619722 Si / 1000 Ang^3
#
#
#
# Elastic Constant Matrix: (Units=GPa)
#
#
# Indices 1 2 3 4 5 6 
#
# 1 39.6776 -9.0935 5.8731 15.3991 4.6197 -1.2953
# 2 -9.0935 50.9739 23.8802 -3.0494 -0.5627 -3.0975
# 3 5.8731 23.8802 117.6463 -2.8648 -12.2683 -9.3331
# 4 15.3991 -3.0494 -2.8648 35.8201 0.5921 0.8359
# 5 4.6197 -0.5627 -12.2683 0.5921 32.3188 1.4522
# 6 -1.2953 -3.0975 -9.3331 0.8359 1.4522 27.2032
#
#
#
# Elastic Compliance Matrix: (Units=1/GPa)
#
#
# Indices 1 2 3 4 5 6 
#
# 1 0.033637 0.007043 -0.003935 -0.014119 -0.006002 0.001808
# 2 0.007043 0.023318 -0.005288 -0.001454 -0.002643 0.001362
# 3 -0.003935 -0.005288 0.010464 0.001949 0.004294 0.002512
# 4 -0.014119 -0.001454 0.001949 0.034014 0.002169 -0.001330
# 5 -0.006002 -0.002643 0.004294 0.002169 0.033387 -0.000962
# 6 0.001808 0.001362 0.002512 -0.001330 -0.000962 0.037955
#
#
# Mechanical properties :
#
#
# Convention : Reuss Voigt Hill
#
# Bulk Modulus (GPa) = 15.85780 27.73526 21.79653
# Shear Modulus (GPa) = 25.23262 31.57760 28.40511
#
# Velocity S-wave (km/s) = 3.34356 3.74039 3.54753
# Velocity P-wave (km/s) = 4.68312 5.56257 5.14168
#
# Compressibility (1/GPa) = 0.06306046
#
# Stress axis : x y z
#
# Youngs Moduli (GPa) = 29.72899 42.88495 95.56272
#
# Poissons Ratio (x) = -0.30205 0.37605
# Poissons Ratio (y) = -0.20939 0.50531
# Poissons Ratio (z) = 0.11699 0.22676
#
# Static dielectric constant tensor:
#      x y z
#    x 1.928240 -0.025890 0.046590 
#    y -0.025890 1.991970 -0.031440 
#    z 0.046590 -0.031440 1.849090 
# 
# From -- ./inp_files/71588.got.cif
#   From: 2010.05.17/outbox.cif.g08.bks.cpg/sg2_36_cif.got.tgz:71588.got - 2010.06.03 11:33:40.
