data_PCOD9041804
_publ_section_title
;
Structure prediction by ZEFSAII (Michael W. Deem and Ramdas Pophale) SiO2 
 PCOD9041804
Probable space group: P -1
;
_chemical_formula_sum "Si O2"
_cell_formula_units_Z 16
_cell_length_a 15.149034
_cell_length_b 9.218522
_cell_length_c 9.319081
_cell_angle_alpha 32.644791
_cell_angle_beta 101.006932
_cell_angle_gamma 88.070124
_cell_volume 640.967969
_symmetry_space_group_name_H-M "P -1"
_symmetry_group_IT_number 2
_symmetry_cell_setting 'triclinic'
loop_
_space_group_symop_operation_xyz
x,y,z
-x,-y,-z
loop_
_atom_site_type_symbol
_atom_site_label
_atom_site_fract_x
_atom_site_fract_y
_atom_site_fract_z
Si Si1 0.369998 0.469834 0.397985
Si Si2 0.336673 0.120492 0.944883
Si Si3 0.150590 0.576221 0.860768
Si Si4 0.454905 0.888662 0.447444
Si Si5 0.999108 0.520475 0.654866
Si Si6 0.156117 0.597496 0.158901
Si Si7 0.262286 0.878789 0.477942
Si Si8 0.159022 0.009575 0.066709
O O1 0.362996 0.789551 0.173484
O O2 0.459755 0.333168 0.434862
O O3 0.271822 0.475379 0.285385
O O4 0.370843 0.286683 0.694490
O O5 0.390725 0.111139 0.120105
O O6 0.221800 0.201072 0.875697
O O7 0.065598 0.653000 0.652345
O O8 0.223109 0.731556 0.710592
O O9 0.111008 0.674754 0.924650
O O10 0.209996 0.228645 0.178196
O O11 0.376409 0.781943 0.585694
O O12 0.500000 0.000000 0.500000
O O13 0.000000 0.500000 0.500000
O O14 0.893409 0.607978 0.614317
O O15 0.062671 0.179809 0.982870
O O16 0.137042 0.854141 0.053078
O O17 0.229361 0.796829 0.381541
#
# Coordination Sequence:
#
# PCOD9041804 Si02
#       8
#     2   2   2   2   2   2   2   2
#     4  11  24  44  66  95 132 176 217 265 325 392
#     4  10  23  44  67  93 132 176 218 264 324 392
#     4  11  25  45  67  97 134 171 215 273 328 382
#     4  11  24  42  69 101 132 171 220 273 326 383
#     4  11  22  40  67  99 132 175 219 265 324 393
#     4  11  23  41  66  99 132 171 219 273 324 382
#     4  10  24  46  67  93 132 174 216 266 327 391
#     4   9  21  40  66  93 128 174 220 265 320 389
#
# _framework density 24.962247999999999
#
# number of rings (size 3 to 8) (size 9 to 14) (size 15 to 20)
#    0.000    1.500    0.000    3.750    0.000   15.000 
#    0.000    8.750    0.000    0.000    0.000    0.000 
#    0.000    0.000    0.000    0.000    0.000    0.000 
#
# Total GULP energy -89509.665202 kJ/mol
# GULP energy per Si atom -5594.354075 kJ/mol
# Density = 2.490543 g / cm^3
# Si number density = 24.962248 Si / 1000 Ang^3
#
#
#
# Elastic Constant Matrix: (Units=GPa)
#
#
# Indices 1 2 3 4 5 6 
#
# 1 135.0988 34.2660 35.4524 7.8301 -0.7879 15.5294
# 2 34.2660 117.9430 37.7610 28.6439 -1.6110 10.2980
# 3 35.4524 37.7610 81.9332 4.5820 -26.9628 11.3526
# 4 7.8301 28.6439 4.5820 49.9274 2.8008 7.6926
# 5 -0.7879 -1.6110 -26.9628 2.8008 40.6991 6.3542
# 6 15.5294 10.2980 11.3526 7.6926 6.3542 35.0281
#
#
#
# Elastic Compliance Matrix: (Units=1/GPa)
#
#
# Indices 1 2 3 4 5 6 
#
# 1 0.008900 -0.001301 -0.003618 0.000110 -0.001962 -0.002059
# 2 -0.001301 0.012094 -0.005796 -0.006154 -0.003089 0.000812
# 3 -0.003618 -0.005796 0.022451 0.002076 0.015563 -0.007248
# 4 0.000110 -0.006154 0.002076 0.023992 0.000139 -0.004207
# 5 -0.001962 -0.003089 0.015563 0.000139 0.036253 -0.009873
# 6 -0.002059 0.000812 -0.007248 -0.004207 -0.009873 0.034286
#
#
# Mechanical properties :
#
#
# Convention : Reuss Voigt Hill
#
# Bulk Modulus (GPa) = 45.42227 61.10375 53.26301
# Shear Modulus (GPa) = 29.98589 40.29730 35.14159
#
# Velocity S-wave (km/s) = 3.46966 4.02223 3.75612
# Velocity P-wave (km/s) = 5.85554 6.78990 6.33995
#
# Compressibility (1/GPa) = 0.02201563
#
# Stress axis : x y z
#
# Youngs Moduli (GPa) = 112.35556 82.68697 44.54072
#
# Poissons Ratio (x) = 0.10759 0.16115
# Poissons Ratio (y) = 0.14620 0.25814
# Poissons Ratio (z) = 0.40651 0.47922
#
# Static dielectric constant tensor:
#      x y z
#    x 2.015280 0.008580 0.044140 
#    y 0.008580 1.980770 -0.040810 
#    z 0.044140 -0.040810 2.074140 
# 
# From -- ./inp_files/297295.got.cif
#   From: 2010.05.17/outbox.cif.g08.bks.cpg/sg2_149_cif.got.tgz:297295.got - 2010.06.03 11:33:40.
