data_PCOD9041977
_publ_section_title
;
Structure prediction by ZEFSAII (Michael W. Deem and Ramdas Pophale) SiO2 
 PCOD9041977
Probable space group: P -1
;
_chemical_formula_sum "Si O2"
_cell_formula_units_Z 16
_cell_length_a 19.322134
_cell_length_b 17.432325
_cell_length_c 6.590145
_cell_angle_alpha 108.114434
_cell_angle_beta 72.141442
_cell_angle_gamma 159.439812
_cell_volume 740.116812
_symmetry_space_group_name_H-M "P -1"
_symmetry_group_IT_number 2
_symmetry_cell_setting 'triclinic'
loop_
_space_group_symop_operation_xyz
x,y,z
-x,-y,-z
loop_
_atom_site_type_symbol
_atom_site_label
_atom_site_fract_x
_atom_site_fract_y
_atom_site_fract_z
Si Si1 0.059999 0.889260 0.626815
Si Si2 0.252256 0.651092 0.932347
Si Si3 0.137077 0.792220 0.308631
Si Si4 0.345726 0.214883 0.978803
Si Si5 0.495818 0.753687 0.834965
Si Si6 0.601432 0.067955 0.661680
Si Si7 0.375948 0.503056 0.409386
Si Si8 0.781641 0.811602 0.556288
O O1 0.840319 0.696626 0.643341
O O2 0.067429 0.806337 0.468278
O O3 0.150430 0.983357 0.846891
O O4 0.199804 0.093807 0.535675
O O5 0.310656 0.621077 0.926651
O O6 0.042898 0.435358 0.832324
O O7 0.419583 0.849154 0.782584
O O8 0.279763 0.740707 0.166022
O O9 0.243879 0.846297 0.424599
O O10 0.310613 0.991881 0.157991
O O11 0.497072 0.393932 0.812041
O O12 0.454980 0.258399 0.043944
O O13 0.273980 0.209020 0.192942
O O14 0.459117 0.666768 0.587274
O O15 0.500000 0.000000 0.500000
O O16 0.353020 0.407594 0.517375
O O17 0.000000 0.000000 0.500000
#
# Coordination Sequence:
#
# PCOD9041977 Si02
#       8
#     2   2   2   2   2   2   2   2
#     4  11  24  43  65  98 134 177 230 280 336 397
#     4  10  23  44  68  96 137 172 215 269 332 399
#     4  11  21  45  68  93 140 177 216 270 332 395
#     4  12  24  41  66 100 130 178 230 281 336 395
#     4  11  24  41  66  97 135 176 225 277 332 394
#     4  10  24  43  69 105 132 168 218 269 327 399
#     4  11  24  42  66  94 134 180 230 284 332 394
#     4  10  24  44  67  93 137 179 226 284 339 394
#
# _framework density 21.618209
#
# number of rings (size 3 to 8) (size 9 to 14) (size 15 to 20)
#    0.000    1.250    3.750    0.750    1.750    8.500 
#    2.250    0.000    0.000    0.000    0.000    0.000 
#    0.000    0.000    0.000    0.000    0.000    0.000 
#
# Total GULP energy -89381.140301 kJ/mol
# GULP energy per Si atom -5586.321269 kJ/mol
# Density = 2.156901 g / cm^3
# Si number density = 21.618209 Si / 1000 Ang^3
#
#
#
# Elastic Constant Matrix: (Units=GPa)
#
#
# Indices 1 2 3 4 5 6 
#
# 1 150.1861 36.0773 46.5639 3.3988 4.3664 12.7390
# 2 36.0773 106.1821 38.7146 17.4975 3.5170 12.5984
# 3 46.5639 38.7146 74.3231 7.9268 9.0570 1.4983
# 4 3.3988 17.4975 7.9268 28.5431 11.2599 -2.1154
# 5 4.3664 3.5170 9.0570 11.2599 27.4600 6.3380
# 6 12.7390 12.5984 1.4983 -2.1154 6.3380 33.2573
#
#
#
# Elastic Compliance Matrix: (Units=1/GPa)
#
#
# Indices 1 2 3 4 5 6 
#
# 1 0.008644 -0.000814 -0.005080 0.000280 0.000969 -0.002941
# 2 -0.000814 0.014212 -0.006452 -0.009630 0.005890 -0.006516
# 3 -0.005080 -0.006452 0.020550 0.002028 -0.007118 0.004950
# 4 0.000280 -0.009630 0.002028 0.050034 -0.022517 0.010923
# 5 0.000969 0.005890 -0.007118 -0.022517 0.050152 -0.013272
# 6 -0.002941 -0.006516 0.004950 0.010923 -0.013272 0.036664
#
#
# Mechanical properties :
#
#
# Convention : Reuss Voigt Hill
#
# Bulk Modulus (GPa) = 53.43989 63.71143 58.57566
# Shear Modulus (GPa) = 23.67581 31.80779 27.74180
#
# Velocity S-wave (km/s) = 3.31294 3.83997 3.58615
# Velocity P-wave (km/s) = 6.27755 7.01396 6.65595
#
# Compressibility (1/GPa) = 0.01871261
#
# Stress axis : x y z
#
# Youngs Moduli (GPa) = 115.68834 70.36410 48.66254
#
# Poissons Ratio (x) = 0.05728 0.24721
# Poissons Ratio (y) = 0.09418 0.31398
# Poissons Ratio (z) = 0.58771 0.45400
#
# Static dielectric constant tensor:
#      x y z
#    x 1.846540 -0.001340 0.002810 
#    y -0.001340 1.804230 -0.005200 
#    z 0.002810 -0.005200 1.741500 
# 
# From -- ./inp_files/120107.got.cif
#   From: 2010.05.17/outbox.cif.g08.bks.cpg/sg2_61_cif.got.tgz:120107.got - 2010.06.03 11:33:40.
