data_PCOD9041586
_publ_section_title
;
Structure prediction by ZEFSAII (Michael W. Deem and Ramdas Pophale) SiO2 
 PCOD9041586
Probable space group: P -1
;
_chemical_formula_sum "Si O2"
_cell_formula_units_Z 16
_cell_length_a 13.653413
_cell_length_b 13.626797
_cell_length_c 22.846460
_cell_angle_alpha 34.167748
_cell_angle_beta 150.126297
_cell_angle_gamma 159.479767
_cell_volume 739.306906
_symmetry_space_group_name_H-M "P -1"
_symmetry_group_IT_number 2
_symmetry_cell_setting 'triclinic'
loop_
_space_group_symop_operation_xyz
x,y,z
-x,-y,-z
loop_
_atom_site_type_symbol
_atom_site_label
_atom_site_fract_x
_atom_site_fract_y
_atom_site_fract_z
Si Si1 0.698961 0.410317 0.900575
Si Si2 0.001269 0.732575 0.346603
Si Si3 0.146338 0.978770 0.907485
Si Si4 0.342908 0.845328 0.575488
Si Si5 0.422831 0.298392 0.512508
Si Si6 0.412395 0.918805 0.831197
Si Si7 0.742605 0.503690 0.746305
Si Si8 0.873814 0.261136 0.352596
O O1 0.396549 0.111347 0.919939
O O2 0.626692 0.426416 0.790719
O O3 0.827934 0.650198 0.892137
O O4 0.000000 0.500000 0.000000
O O5 0.119677 0.815149 0.434843
O O6 0.915518 0.859196 0.212424
O O7 0.727292 0.399172 0.363582
O O8 0.298221 0.863712 0.399048
O O9 0.322458 0.026963 0.032304
O O10 0.272285 0.796911 0.631475
O O11 0.500000 0.500000 0.500000
O O12 0.307592 0.335982 0.381165
O O13 0.756748 0.435806 0.606542
O O14 0.166032 0.976615 0.554678
O O15 0.296098 0.790169 0.769117
O O16 0.107278 0.708629 0.819796
O O17 0.550412 0.212511 0.759052
#
# Coordination Sequence:
#
# PCOD9041586 Si02
#       8
#     2   2   2   2   2   2   2   2
#     4  12  23  39  58  91 127 164 203 237 291 358
#     4  10  23  44  65  87 116 150 197 259 311 350
#     4  12  24  40  63  90 121 163 203 244 300 359
#     4  10  23  44  65  87 116 150 197 259 311 350
#     4  12  23  39  58  91 127 164 203 237 291 358
#     4  12  22  40  58  87 126 165 198 240 296 348
#     4  12  24  36  58  85 130 165 200 246 286 344
#     4  12  24  40  63  90 121 163 203 244 300 359
#
# _framework density 21.641891999999999
#
# number of rings (size 3 to 8) (size 9 to 14) (size 15 to 20)
#    0.000    0.500    5.000    3.750    3.500    0.000 
#    0.000    1.250    0.000    0.000    0.000    0.000 
#    0.000    0.000    0.000    0.000    0.000    0.000 
#
# Total GULP energy -89430.030534 kJ/mol
# GULP energy per Si atom -5589.376908 kJ/mol
# Density = 2.159263 g / cm^3
# Si number density = 21.641892 Si / 1000 Ang^3
#
#
#
# Elastic Constant Matrix: (Units=GPa)
#
#
# Indices 1 2 3 4 5 6 
#
# 1 71.4660 0.5492 22.9542 17.3907 -22.4901 2.8390
# 2 0.5492 85.9607 -4.4014 -4.3589 7.0807 6.1537
# 3 22.9542 -4.4014 124.5167 7.6624 -14.7837 -19.5936
# 4 17.3907 -4.3589 7.6624 28.2009 -5.0886 -2.7121
# 5 -22.4901 7.0807 -14.7837 -5.0886 31.1695 -3.4710
# 6 2.8390 6.1537 -19.5936 -2.7121 -3.4710 25.8111
#
#
#
# Elastic Compliance Matrix: (Units=1/GPa)
#
#
# Indices 1 2 3 4 5 6 
#
# 1 0.021524 -0.001622 -0.002359 -0.010912 0.012640 -0.003218
# 2 -0.001622 0.012316 -0.000431 0.001923 -0.004244 -0.003454
# 3 -0.002359 -0.000431 0.010337 0.000205 0.004313 0.008811
# 4 -0.010912 0.001923 0.000205 0.042828 -0.000629 0.005313
# 5 0.012640 -0.004244 0.004313 -0.000629 0.045100 0.008894
# 6 -0.003218 -0.003454 0.008811 0.005313 0.008894 0.048363
#
#
# Mechanical properties :
#
#
# Convention : Reuss Voigt Hill
#
# Bulk Modulus (GPa) = 28.28841 35.57192 31.93017
# Shear Modulus (GPa) = 24.86612 34.55905 29.71258
#
# Velocity S-wave (km/s) = 3.39334 4.00041 3.70931
# Velocity P-wave (km/s) = 5.33409 6.14898 5.75597
#
# Compressibility (1/GPa) = 0.03535016
#
# Stress axis : x y z
#
# Youngs Moduli (GPa) = 46.45995 81.19630 96.74384
#
# Poissons Ratio (x) = 0.13173 0.22826
# Poissons Ratio (y) = 0.07538 0.04172
# Poissons Ratio (z) = 0.10962 0.03501
#
# Static dielectric constant tensor:
#      x y z
#    x 1.829990 -0.030700 -0.058640 
#    y -0.030700 1.761370 0.049630 
#    z -0.058640 0.049630 1.926720 
# 
# From -- ./inp_files/543440.got.cif
#   From: 2010.05.17/outbox.cif.g08.bks.cpg/sg2_272_cif.got.tgz:543440.got - 2010.06.03 11:33:40.
