data_PCOD9041002
_publ_section_title
;
Structure prediction by ZEFSAII (Michael W. Deem and Ramdas Pophale) SiO2 
 PCOD9041002
Probable space group: P -1
;
_chemical_formula_sum "Si O2"
_cell_formula_units_Z 14
_cell_length_a 11.983474
_cell_length_b 9.185955
_cell_length_c 8.525580
_cell_angle_alpha 54.003321
_cell_angle_beta 77.574517
_cell_angle_gamma 56.865483
_cell_volume 627.976198
_symmetry_space_group_name_H-M "P -1"
_symmetry_group_IT_number 2
_symmetry_cell_setting 'triclinic'
loop_
_space_group_symop_operation_xyz
x,y,z
-x,-y,-z
loop_
_atom_site_type_symbol
_atom_site_label
_atom_site_fract_x
_atom_site_fract_y
_atom_site_fract_z
Si Si1 0.692006 0.456550 0.036102
Si Si2 0.341159 0.170664 0.966569
Si Si3 0.991960 0.144559 0.052437
Si Si4 0.913029 0.575547 0.315069
Si Si5 0.882986 0.182376 0.519947
Si Si6 0.634476 0.203866 0.648630
Si Si7 0.537293 0.557121 0.715373
O O1 0.846049 0.263692 0.103156
O O2 0.648400 0.535183 0.818408
O O3 0.679527 0.634081 0.046293
O O4 0.588000 0.392400 0.167874
O O5 0.247007 0.248608 0.788666
O O6 0.500000 0.000000 0.000000
O O7 0.300205 0.039452 0.173990
O O8 0.018524 0.326568 0.873972
O O9 0.000000 0.000000 0.000000
O O10 0.101539 0.952623 0.245513
O O11 0.915092 0.364517 0.402972
O O12 0.000000 0.500000 0.500000
O O13 0.727567 0.266987 0.484421
O O14 0.000000 0.000000 0.500000
O O15 0.588583 0.340990 0.736357
O O16 0.511074 0.275657 0.518636
#
# Coordination Sequence:
#
# PCOD9041002 Si02
#       7
#     2   2   2   2   2   2   2
#     4  11  25  45  72 105 148 185 252 303 368 447
#     4  12  26  46  71 107 148 193 245 309 369 444
#     4  12  25  47  74 107 143 195 243 310 372 437
#     4  12  28  47  74 109 143 197 254 302 370 454
#     4  12  26  45  71 106 148 192 241 306 369 441
#     4  11  23  44  72 101 146 195 240 298 378 429
#     4  10  23  43  70 103 139 198 241 297 364 450
#
# _framework density 22.293838000000001
#
# number of rings (size 3 to 8) (size 9 to 14) (size 15 to 20)
#    0.000    0.571    4.286    3.429    4.000    1.714 
#    2.571    0.000    0.000    0.000    0.000    0.000 
#    0.000    0.000    0.000    0.000    0.000    0.000 
#
# Total GULP energy -77977.738467 kJ/mol
# GULP energy per Si atom -5569.838462 kJ/mol
# Density = 2.224310 g / cm^3
# Si number density = 22.293838 Si / 1000 Ang^3
#
#
#
# Elastic Constant Matrix: (Units=GPa)
#
#
# Indices 1 2 3 4 5 6 
#
# 1 97.1865 31.5344 32.2212 -5.2182 12.4199 -3.9641
# 2 31.5344 79.0953 11.7000 -12.5070 3.2297 -14.0509
# 3 32.2212 11.7000 124.9617 -19.7164 21.1198 19.3479
# 4 -5.2182 -12.5070 -19.7164 36.3986 10.1181 -1.1917
# 5 12.4199 3.2297 21.1198 10.1181 65.9559 3.8902
# 6 -3.9641 -14.0509 19.3479 -1.1917 3.8902 32.8293
#
#
#
# Elastic Compliance Matrix: (Units=1/GPa)
#
#
# Indices 1 2 3 4 5 6 
#
# 1 0.012954 -0.004540 -0.003124 -0.001024 -0.001152 0.001561
# 2 -0.004540 0.016693 -0.000485 0.005351 -0.001053 0.007201
# 3 -0.003124 -0.000485 0.011527 0.006430 -0.003670 -0.006710
# 4 -0.001024 0.005351 0.006430 0.034747 -0.007490 0.000526
# 5 -0.001152 -0.001053 -0.003670 -0.007490 0.017802 -0.000808
# 6 0.001561 0.007201 -0.006710 0.000526 -0.000808 0.037801
#
#
# Mechanical properties :
#
#
# Convention : Reuss Voigt Hill
#
# Bulk Modulus (GPa) = 40.19868 50.23939 45.21904
# Shear Modulus (GPa) = 32.02782 42.08930 37.05856
#
# Velocity S-wave (km/s) = 3.79439 4.34975 4.08153
# Velocity P-wave (km/s) = 6.10467 6.91456 6.52220
#
# Compressibility (1/GPa) = 0.02487644
#
# Stress axis : x y z
#
# Youngs Moduli (GPa) = 77.19514 59.90472 86.75336
#
# Poissons Ratio (x) = 0.27197 0.27099
# Poissons Ratio (y) = 0.35047 0.04209
# Poissons Ratio (z) = 0.24114 0.02906
#
# Static dielectric constant tensor:
#      x y z
#    x 1.898770 -0.029650 0.009530 
#    y -0.029650 1.765340 0.036570 
#    z 0.009530 0.036570 1.861700 
# 
# From -- ./inp_files/241965.got.cif
#   From: 2010.05.17/outbox.cif.g08.bks.cpg/sg2_121_cif.got.tgz:241965.got - 2010.06.03 11:33:40.
