data_PCOD9041368
_publ_section_title
;
Structure prediction by ZEFSAII (Michael W. Deem and Ramdas Pophale) SiO2 
 PCOD9041368
Probable space group: P -1
;
_chemical_formula_sum "Si O2"
_cell_formula_units_Z 16
_cell_length_a 5.296737
_cell_length_b 16.373072
_cell_length_c 15.786921
_cell_angle_alpha 146.091665
_cell_angle_beta 108.703826
_cell_angle_gamma 80.096733
_cell_volume 711.862510
_symmetry_space_group_name_H-M "P -1"
_symmetry_group_IT_number 2
_symmetry_cell_setting 'triclinic'
loop_
_space_group_symop_operation_xyz
x,y,z
-x,-y,-z
loop_
_atom_site_type_symbol
_atom_site_label
_atom_site_fract_x
_atom_site_fract_y
_atom_site_fract_z
Si Si1 0.307769 0.008844 0.567668
Si Si2 0.234961 0.579948 0.655062
Si Si3 0.528499 0.228840 0.924445
Si Si4 0.341568 0.185283 0.485214
Si Si5 0.712230 0.128741 0.177377
Si Si6 0.032118 0.073587 0.846289
Si Si7 0.845846 0.532675 0.257628
Si Si8 0.593748 0.355452 0.509417
O O1 0.405414 0.154458 0.760282
O O2 0.500000 0.000000 0.500000
O O3 0.385958 0.875060 0.517305
O O4 0.000000 0.000000 0.500000
O O5 0.221728 0.751738 0.787893
O O6 0.196915 0.533314 0.708117
O O7 0.498470 0.506449 0.598440
O O8 0.000000 0.500000 0.500000
O O9 0.288457 0.186770 0.932490
O O10 0.780698 0.150365 0.909629
O O11 0.675727 0.397735 0.071406
O O12 0.281766 0.322185 0.650450
O O13 0.362073 0.253171 0.451173
O O14 0.094625 0.046665 0.342239
O O15 0.652368 0.244748 0.345515
O O16 0.895749 0.026551 0.155544
O O17 0.500000 0.000000 0.000000
O O18 0.167634 0.590771 0.350227
#
# Coordination Sequence:
#
# PCOD9041368 Si02
#       8
#     2   2   2   2   2   2   2   2
#     4  11  24  45  73 105 137 167 208 274 344 401
#     4  11  23  40  58  92 130 180 229 287 346 379
#     4  11  26  44  72  99 135 176 228 269 332 411
#     4  10  23  43  73  94 129 175 223 262 334 417
#     4  12  23  36  61  92 130 171 236 289 334 370
#     4  11  23  45  63  98 133 182 229 277 327 397
#     4  11  24  42  68  92 132 181 230 270 328 407
#     4  11  23  42  65  89 132 184 225 276 341 400
#
# _framework density 22.476247999999998
#
# number of rings (size 3 to 8) (size 9 to 14) (size 15 to 20)
#    0.000    1.000    2.500    4.875    7.000    0.000 
#    0.000    5.000    0.000    0.000    0.000    0.000 
#    0.000    0.000    0.000    0.000    0.000    0.000 
#
# Total GULP energy -89205.404705 kJ/mol
# GULP energy per Si atom -5575.337794 kJ/mol
# Density = 2.242509 g / cm^3
# Si number density = 22.476248 Si / 1000 Ang^3
#
#
#
# Elastic Constant Matrix: (Units=GPa)
#
#
# Indices 1 2 3 4 5 6 
#
# 1 82.5141 5.5472 25.4767 -8.5481 25.0350 -22.7295
# 2 5.5472 37.5835 27.7703 -2.5584 9.5999 -22.8950
# 3 25.4767 27.7703 147.0814 8.9606 38.3181 -31.2487
# 4 -8.5481 -2.5584 8.9606 34.9701 2.3677 2.0580
# 5 25.0350 9.5999 38.3181 2.3677 25.9355 -2.0226
# 6 -22.7295 -22.8950 -31.2487 2.0580 -2.0226 50.4964
#
#
#
# Elastic Compliance Matrix: (Units=1/GPa)
#
#
# Indices 1 2 3 4 5 6 
#
# 1 0.029706 0.016147 0.008255 0.008033 -0.045737 0.023641
# 2 0.016147 0.050309 0.003564 0.007479 -0.037781 0.030466
# 3 0.008255 0.003564 0.015957 -0.000483 -0.031730 0.013955
# 4 0.008033 0.007479 -0.000483 0.031776 -0.012326 0.004919
# 5 -0.045737 -0.037781 -0.031730 -0.012326 0.140702 -0.051215
# 6 0.023641 0.030466 0.013955 0.004919 -0.051215 0.050642
#
#
# Mechanical properties :
#
#
# Convention : Reuss Voigt Hill
#
# Bulk Modulus (GPa) = 6.58308 42.75193 24.66750
# Shear Modulus (GPa) = 15.93401 36.17270 26.05335
#
# Velocity S-wave (km/s) = 2.66546 4.01605 3.40832
# Velocity P-wave (km/s) = 3.52252 6.36923 5.14661
#
# Compressibility (1/GPa) = 0.15190469
#
# Stress axis : x y z
#
# Youngs Moduli (GPa) = 33.66303 19.87704 62.66851
#
# Poissons Ratio (x) = -0.32096 -0.51731
# Poissons Ratio (y) = -0.54357 -0.22336
# Poissons Ratio (z) = -0.27788 -0.07084
#
# Static dielectric constant tensor:
#      x y z
#    x 1.924980 -0.016630 -0.030170 
#    y -0.016630 1.897350 -0.062650 
#    z -0.030170 -0.062650 1.833240 
# 
# From -- ./inp_files/140733.got.cif
#   From: 2010.05.17/outbox.cif.g08.bks.cpg/sg2_71_cif.got.tgz:140733.got - 2010.06.03 11:33:40.
