data_PCOD9041766
_publ_section_title
;
Structure prediction by ZEFSAII (Michael W. Deem and Ramdas Pophale) SiO2 
 PCOD9041766
Probable space group: P -1
;
_chemical_formula_sum "Si O2"
_cell_formula_units_Z 16
_cell_length_a 14.207311
_cell_length_b 6.243396
_cell_length_c 14.766833
_cell_angle_alpha 99.869834
_cell_angle_beta 40.133429
_cell_angle_gamma 118.726770
_cell_volume 694.410171
_symmetry_space_group_name_H-M "P -1"
_symmetry_group_IT_number 2
_symmetry_cell_setting 'triclinic'
loop_
_space_group_symop_operation_xyz
x,y,z
-x,-y,-z
loop_
_atom_site_type_symbol
_atom_site_label
_atom_site_fract_x
_atom_site_fract_y
_atom_site_fract_z
Si Si1 0.350419 0.402665 0.858237
Si Si2 0.364934 0.543941 0.659002
Si Si3 0.548945 0.117895 0.073610
Si Si4 0.032465 0.013786 0.832814
Si Si5 0.251114 0.780706 0.621165
Si Si6 0.021194 0.280542 0.524049
Si Si7 0.613022 0.237262 0.667313
Si Si8 0.088767 0.790094 0.207429
O O1 0.405989 0.570203 0.737009
O O2 0.415039 0.598781 0.910822
O O3 0.444741 0.248598 0.776027
O O4 0.141949 0.193353 0.001044
O O5 0.500000 0.500000 0.500000
O O6 0.359912 0.755212 0.617842
O O7 0.157286 0.309481 0.795004
O O8 0.413645 0.922801 0.234057
O O9 0.735297 0.156839 0.961011
O O10 0.500000 0.000000 0.000000
O O11 0.175464 0.944820 0.719543
O O12 0.961961 0.021207 0.785346
O O13 0.343395 0.862393 0.461813
O O14 0.075023 0.497458 0.712779
O O15 0.223315 0.467517 0.418228
O O16 0.000000 0.500000 0.500000
O O17 0.893457 0.197473 0.697561
O O18 0.000000 0.000000 0.500000
#
# Coordination Sequence:
#
# PCOD9041766 Si02
#       8
#     2   2   2   2   2   2   2   2
#     4  12  26  47  72 105 152 194 244 315 381 462
#     4  11  25  45  72 113 143 186 251 305 380 463
#     4  12  27  45  71 104 145 191 255 309 381 448
#     4  11  24  45  74 102 149 194 238 306 382 466
#     4  10  23  45  72 104 143 191 240 299 382 455
#     4  11  27  46  73 107 148 201 266 325 387 457
#     4  11  26  44  73 105 145 196 248 313 384 448
#     4  10  23  44  67 101 144 190 246 305 373 454
#
# _framework density 23.041138
#
# number of rings (size 3 to 8) (size 9 to 14) (size 15 to 20)
#    0.000    1.000    3.750    1.125    8.750    3.500 
#    0.000    0.000    0.000    0.000    0.000    0.000 
#    0.000    0.000    0.000    0.000    0.000    0.000 
#
# Total GULP energy -89247.654407 kJ/mol
# GULP energy per Si atom -5577.978400 kJ/mol
# Density = 2.298869 g / cm^3
# Si number density = 23.041138 Si / 1000 Ang^3
#
#
#
# Elastic Constant Matrix: (Units=GPa)
#
#
# Indices 1 2 3 4 5 6 
#
# 1 90.5333 9.3893 31.7308 -3.3235 14.2136 -13.5143
# 2 9.3893 38.7518 21.9137 -24.3271 -5.2562 -2.4835
# 3 31.7308 21.9137 130.9871 -26.7659 3.1571 4.1071
# 4 -3.3235 -24.3271 -26.7659 34.7416 -7.9881 -7.6297
# 5 14.2136 -5.2562 3.1571 -7.9881 44.5863 -3.1308
# 6 -13.5143 -2.4835 4.1071 -7.6297 -3.1308 47.7268
#
#
#
# Elastic Compliance Matrix: (Units=1/GPa)
#
#
# Indices 1 2 3 4 5 6 
#
# 1 0.014024 -0.006069 -0.003652 -0.006525 -0.005918 0.002538
# 2 -0.006069 0.061034 0.000525 0.049150 0.018635 0.010492
# 3 -0.003652 0.000525 0.010056 0.008112 0.001936 -0.000448
# 4 -0.006525 0.049150 0.008112 0.076916 0.022046 0.013754
# 5 -0.005918 0.018635 0.001936 0.022046 0.030652 0.004662
# 6 0.002538 0.010492 -0.000448 0.013754 0.004662 0.024760
#
#
# Mechanical properties :
#
#
# Convention : Reuss Voigt Hill
#
# Bulk Modulus (GPa) = 14.98775 42.92665 28.95720
# Shear Modulus (GPa) = 19.37418 38.56017 28.96718
#
# Velocity S-wave (km/s) = 2.90289 4.09533 3.54954
# Velocity P-wave (km/s) = 4.21362 6.40571 5.42161
#
# Compressibility (1/GPa) = 0.06672114
#
# Stress axis : x y z
#
# Youngs Moduli (GPa) = 71.30856 16.38428 99.43979
#
# Poissons Ratio (x) = 0.09944 0.36316
# Poissons Ratio (y) = 0.43277 -0.05217
# Poissons Ratio (z) = 0.26043 -0.00860
#
# Static dielectric constant tensor:
#      x y z
#    x 1.890050 -0.016170 0.018360 
#    y -0.016170 2.013000 -0.041440 
#    z 0.018360 -0.041440 1.842480 
# 
# From -- ./inp_files/99668.got.cif
#   From: 2010.05.17/outbox.cif.g08.bks.cpg/sg2_50_cif.got.tgz:99668.got - 2010.06.03 11:33:40.
