data_PCOD9041639
_publ_section_title
;
Structure prediction by ZEFSAII (Michael W. Deem and Ramdas Pophale) SiO2 
 PCOD9041639
Probable space group: P -1
;
_chemical_formula_sum "Si O2"
_cell_formula_units_Z 16
_cell_length_a 14.256084
_cell_length_b 8.788237
_cell_length_c 11.186242
_cell_angle_alpha 61.755999
_cell_angle_beta 127.192555
_cell_angle_gamma 75.151274
_cell_volume 624.168623
_symmetry_space_group_name_H-M "P -1"
_symmetry_group_IT_number 2
_symmetry_cell_setting 'triclinic'
loop_
_space_group_symop_operation_xyz
x,y,z
-x,-y,-z
loop_
_atom_site_type_symbol
_atom_site_label
_atom_site_fract_x
_atom_site_fract_y
_atom_site_fract_z
Si Si1 0.170894 0.194950 0.790333
Si Si2 0.948321 0.190321 0.216273
Si Si3 0.596340 0.968641 0.755843
Si Si4 0.561116 0.623591 0.870972
Si Si5 0.499588 0.316636 0.917208
Si Si6 0.988710 0.522961 0.123020
Si Si7 0.775342 0.425981 0.728046
Si Si8 0.868894 0.282592 0.607474
O O1 0.000000 0.500000 0.500000
O O2 0.061321 0.171389 0.789913
O O3 0.306068 0.151535 0.994998
O O4 0.303743 0.965040 0.878682
O O5 0.025065 0.287714 0.281338
O O6 0.779969 0.345004 0.117796
O O7 0.862214 0.297647 0.973584
O O8 0.102074 0.875043 0.426894
O O9 0.523450 0.860150 0.704326
O O10 0.439817 0.290934 0.521107
O O11 0.775666 0.811101 0.875424
O O12 0.474260 0.549002 0.776287
O O13 0.507800 0.688320 0.944407
O O14 0.328716 0.406414 0.692725
O O15 0.137685 0.493811 0.286168
O O16 0.000000 0.500000 0.000000
O O17 0.826546 0.249584 0.718890
#
# Coordination Sequence:
#
# PCOD9041639 Si02
#       8
#     2   2   2   2   2   2   2   2
#     4  12  26  45  69  99 131 171 229 280 333 401
#     4  10  23  44  66 101 136 180 223 272 328 399
#     4  11  23  43  68  99 131 175 221 276 330 395
#     4  10  24  45  67  97 136 170 227 272 336 397
#     4  11  25  47  67 100 129 180 218 280 342 393
#     4   9  21  40  63  96 131 174 218 267 323 389
#     4  11  23  42  69  99 137 176 223 273 331 397
#     4  12  24  44  69  98 138 174 224 272 339 397
#
# _framework density 25.634098999999999
#
# number of rings (size 3 to 8) (size 9 to 14) (size 15 to 20)
#    0.000    1.250    3.750    1.125    3.500    6.000 
#    9.000    1.250    0.000    0.000    0.000    0.000 
#    0.000    0.000    0.000    0.000    0.000    0.000 
#
# Total GULP energy -89405.232134 kJ/mol
# GULP energy per Si atom -5587.827008 kJ/mol
# Density = 2.557575 g / cm^3
# Si number density = 25.634099 Si / 1000 Ang^3
#
#
#
# Elastic Constant Matrix: (Units=GPa)
#
#
# Indices 1 2 3 4 5 6 
#
# 1 76.8190 43.1456 13.5117 -9.6534 25.0984 -24.8639
# 2 43.1456 107.7917 34.5485 -17.5210 20.4367 -40.5951
# 3 13.5117 34.5485 81.4010 -6.6833 2.4024 -16.8302
# 4 -9.6534 -17.5210 -6.6833 39.3338 -7.6246 18.7975
# 5 25.0984 20.4367 2.4024 -7.6246 25.8157 -3.3281
# 6 -24.8639 -40.5951 -16.8302 18.7975 -3.3281 61.0956
#
#
#
# Elastic Compliance Matrix: (Units=1/GPa)
#
#
# Indices 1 2 3 4 5 6 
#
# 1 0.023422 -0.003132 -0.000749 -0.003082 -0.020218 0.007092
# 2 -0.003132 0.016714 -0.004641 0.000418 -0.008605 0.007955
# 3 -0.000749 -0.004641 0.014451 0.000557 0.003299 0.000601
# 4 -0.003082 0.000418 0.000557 0.031818 0.010718 -0.010029
# 5 -0.020218 -0.008605 0.003299 0.010718 0.066424 -0.012717
# 6 0.007092 0.007955 0.000601 -0.010029 -0.012717 0.027098
#
#
# Mechanical properties :
#
#
# Convention : Reuss Voigt Hill
#
# Bulk Modulus (GPa) = 26.63522 49.82482 38.23002
# Shear Modulus (GPa) = 23.86796 36.90272 30.38534
#
# Velocity S-wave (km/s) = 3.05471 3.79832 3.44662
# Velocity P-wave (km/s) = 4.78066 6.22217 5.54843
#
# Compressibility (1/GPa) = 0.03754427
#
# Stress axis : x y z
#
# Youngs Moduli (GPa) = 42.69433 59.83157 69.19744
#
# Poissons Ratio (x) = 0.18741 0.05180
# Poissons Ratio (y) = 0.13373 0.32113
# Poissons Ratio (z) = 0.03196 0.27766
#
# Static dielectric constant tensor:
#      x y z
#    x 2.111470 0.130210 -0.047980 
#    y 0.130210 2.230930 0.002700 
#    z -0.047980 0.002700 1.972150 
# 
# From -- ./inp_files/98631.got.cif
#   From: 2010.05.17/outbox.cif.g08.bks.cpg/sg2_50_cif.got.tgz:98631.got - 2010.06.03 11:33:40.
