data_PCOD9041803
_publ_section_title
;
Structure prediction by ZEFSAII (Michael W. Deem and Ramdas Pophale) SiO2 
 PCOD9041803
Probable space group: P -1
;
_chemical_formula_sum "Si O2"
_cell_formula_units_Z 16
_cell_length_a 11.599493
_cell_length_b 13.717543
_cell_length_c 12.235186
_cell_angle_alpha 114.454170
_cell_angle_beta 90.062548
_cell_angle_gamma 32.784961
_cell_volume 681.665836
_symmetry_space_group_name_H-M "P -1"
_symmetry_group_IT_number 2
_symmetry_cell_setting 'triclinic'
loop_
_space_group_symop_operation_xyz
x,y,z
-x,-y,-z
loop_
_atom_site_type_symbol
_atom_site_label
_atom_site_fract_x
_atom_site_fract_y
_atom_site_fract_z
Si Si1 0.039500 0.420675 0.647243
Si Si2 0.193704 0.881334 0.789321
Si Si3 0.606840 0.965155 0.871959
Si Si4 0.598865 0.217260 0.660379
Si Si5 0.401432 0.176400 0.742912
Si Si6 0.744317 0.310120 0.819668
Si Si7 0.992231 0.179378 0.146164
Si Si8 0.776941 0.425540 0.685439
O O1 0.149819 0.364356 0.740826
O O2 0.885960 0.650181 0.692672
O O3 0.803287 0.528280 0.715641
O O4 0.314836 0.133208 0.448556
O O5 0.064864 0.872037 0.798363
O O6 0.550345 0.574060 0.663562
O O7 0.065407 0.041089 0.752996
O O8 0.064942 0.063400 0.974214
O O9 0.748803 0.960024 0.887740
O O10 0.374749 0.167968 0.865500
O O11 0.500000 0.000000 0.000000
O O12 0.471947 0.242619 0.761899
O O13 0.722503 0.223888 0.705550
O O14 0.317447 0.488371 0.710325
O O15 0.886977 0.909217 0.470855
O O16 0.658027 0.485869 0.829092
O O17 0.500000 0.500000 0.000000
#
# Coordination Sequence:
#
# PCOD9041803 Si02
#       8
#     2   2   2   2   2   2   2   2
#     4  10  23  44  67  93 132 174 220 275 327 388
#     4  11  23  42  66  96 133 171 218 267 332 397
#     4  12  25  42  68 101 131 171 226 273 327 406
#     4  11  22  45  68  94 133 172 221 276 330 394
#     4  10  23  45  68  93 129 176 219 273 337 386
#     4  12  23  41  68  95 129 179 215 267 339 392
#     4  11  22  43  67  94 135 175 213 274 337 390
#     4  11  25  42  64  99 134 166 222 278 319 394
#
# _framework density 23.471912
#
# number of rings (size 3 to 8) (size 9 to 14) (size 15 to 20)
#    0.000    1.000    3.750    3.000    0.000    4.000 
#    4.500    0.000    0.000    0.000    0.000    0.000 
#    0.000    0.000    0.000    0.000    0.000    0.000 
#
# Total GULP energy -89515.972607 kJ/mol
# GULP energy per Si atom -5594.748288 kJ/mol
# Density = 2.341849 g / cm^3
# Si number density = 23.471912 Si / 1000 Ang^3
#
#
#
# Elastic Constant Matrix: (Units=GPa)
#
#
# Indices 1 2 3 4 5 6 
#
# 1 117.1535 20.7767 11.1300 -15.3198 12.9699 4.3091
# 2 20.7767 136.0549 8.2641 -10.1943 -0.5151 -0.1877
# 3 11.1300 8.2641 45.7886 12.0806 -0.8337 2.6640
# 4 -15.3198 -10.1943 12.0806 38.6823 10.4108 3.8525
# 5 12.9699 -0.5151 -0.8337 10.4108 24.5522 7.0023
# 6 4.3091 -0.1877 2.6640 3.8525 7.0023 28.8194
#
#
#
# Elastic Compliance Matrix: (Units=1/GPa)
#
#
# Indices 1 2 3 4 5 6 
#
# 1 0.011352 -0.000830 -0.005025 0.008478 -0.009781 0.000005
# 2 -0.000830 0.007770 -0.001860 0.002429 -0.000535 0.000152
# 3 -0.005025 -0.001860 0.027258 -0.013423 0.009916 -0.002395
# 4 0.008478 0.002429 -0.013423 0.039912 -0.021793 -0.000051
# 5 -0.009781 -0.000535 0.009916 -0.021793 0.058533 -0.010766
# 6 0.000005 0.000152 -0.002395 -0.000051 -0.010766 0.037543
#
#
# Mechanical properties :
#
#
# Convention : Reuss Voigt Hill
#
# Bulk Modulus (GPa) = 32.30998 42.14874 37.22936
# Shear Modulus (GPa) = 24.02532 35.66585 29.84559
#
# Velocity S-wave (km/s) = 3.20281 3.90232 3.56974
# Velocity P-wave (km/s) = 5.24143 6.18872 5.73467
#
# Compressibility (1/GPa) = 0.03095019
#
# Stress axis : x y z
#
# Youngs Moduli (GPa) = 88.09239 128.70249 36.68657
#
# Poissons Ratio (x) = 0.10683 0.18434
# Poissons Ratio (y) = 0.07312 0.06823
# Poissons Ratio (z) = 0.44264 0.23937
#
# Static dielectric constant tensor:
#      x y z
#    x 1.845240 -0.015510 -0.019030 
#    y -0.015510 1.863590 0.030940 
#    z -0.019030 0.030940 1.961110 
# 
# From -- ./inp_files/313928.got.cif
#   From: 2010.05.17/outbox.cif.g08.bks.cpg/sg2_157_cif.got.tgz:313928.got - 2010.06.03 11:33:40.
