data_PCOD9041761
_publ_section_title
;
Structure prediction by ZEFSAII (Michael W. Deem and Ramdas Pophale) SiO2 
 PCOD9041761
Probable space group: P -1
;
_chemical_formula_sum "Si O2"
_cell_formula_units_Z 14
_cell_length_a 13.847944
_cell_length_b 12.308406
_cell_length_c 13.847419
_cell_angle_alpha 147.302880
_cell_angle_beta 31.070811
_cell_angle_gamma 128.763983
_cell_volume 618.906909
_symmetry_space_group_name_H-M "P -1"
_symmetry_group_IT_number 2
_symmetry_cell_setting 'triclinic'
loop_
_space_group_symop_operation_xyz
x,y,z
-x,-y,-z
loop_
_atom_site_type_symbol
_atom_site_label
_atom_site_fract_x
_atom_site_fract_y
_atom_site_fract_z
Si Si1 0.891815 0.937747 0.835271
Si Si2 0.152338 0.778475 0.664841
Si Si3 0.470639 0.839156 0.547602
Si Si4 0.255177 0.966419 0.446937
Si Si5 0.756508 0.635399 0.587349
Si Si6 0.933335 0.688770 0.275018
Si Si7 0.672926 0.348040 0.009148
O O1 0.051791 0.764752 0.638658
O O2 0.801689 0.818307 0.746141
O O3 0.037279 0.042997 0.738251
O O4 0.709718 0.096060 0.171002
O O5 0.361563 0.820949 0.527163
O O6 0.174213 0.577243 0.564163
O O7 0.000000 0.000000 0.000000
O O8 0.584692 0.003903 0.594120
O O9 0.625705 0.601577 0.249744
O O10 0.240845 0.119347 0.481615
O O11 0.304358 0.734132 0.182709
O O12 0.521797 0.691015 0.813481
O O13 0.866586 0.611542 0.373885
O O14 0.122119 0.760122 0.192052
O O15 0.000000 0.500000 0.000000
#
# Coordination Sequence:
#
# PCOD9041761 Si02
#       7
#     2   2   2   2   2   2   2
#     4  11  23  44  73  98 137 181 222 284 332 400
#     4   9  22  42  69 100 133 180 224 275 343 394
#     4  10  23  44  67 101 136 178 227 273 338 398
#     4  12  25  44  68 101 140 177 228 275 337 402
#     4  11  24  44  70  99 139 177 229 277 335 408
#     4  12  27  43  68 103 138 180 224 280 339 403
#     4  11  24  44  67  99 137 178 227 274 336 401
#
# _framework density 22.620526000000002
#
# number of rings (size 3 to 8) (size 9 to 14) (size 15 to 20)
#    0.000    1.143    4.286    0.857    6.000    2.857 
#    0.000    7.143    0.000    0.000    0.000    0.000 
#    0.000    0.000    0.000    0.000    0.000    0.000 
#
# Total GULP energy -78186.519803 kJ/mol
# GULP energy per Si atom -5584.751415 kJ/mol
# Density = 2.256904 g / cm^3
# Si number density = 22.620526 Si / 1000 Ang^3
#
#
#
# Elastic Constant Matrix: (Units=GPa)
#
#
# Indices 1 2 3 4 5 6 
#
# 1 92.2213 39.7830 24.0015 -12.4744 3.6453 -0.0241
# 2 39.7830 62.7725 25.5889 -11.1591 8.9891 9.7022
# 3 24.0015 25.5889 101.7252 -0.4350 14.3779 1.0917
# 4 -12.4744 -11.1591 -0.4350 29.2740 4.7346 -4.8198
# 5 3.6453 8.9891 14.3779 4.7346 41.1282 -0.7336
# 6 -0.0241 9.7022 1.0917 -4.8198 -0.7336 41.1402
#
#
#
# Elastic Compliance Matrix: (Units=1/GPa)
#
#
# Indices 1 2 3 4 5 6 
#
# 1 0.015642 -0.009214 -0.001500 0.003435 0.000803 0.002639
# 2 -0.009214 0.025681 -0.003599 0.005615 -0.004280 -0.005385
# 3 -0.001500 -0.003599 0.011496 -0.001309 -0.002943 0.000337
# 4 0.003435 0.005615 -0.001309 0.039166 -0.005526 0.003202
# 5 0.000803 -0.004280 -0.002943 -0.005526 0.026860 0.000920
# 6 0.002639 -0.005385 0.000337 0.003202 0.000920 0.025961
#
#
# Mechanical properties :
#
#
# Convention : Reuss Voigt Hill
#
# Bulk Modulus (GPa) = 41.33482 48.38505 44.85994
# Shear Modulus (GPa) = 27.54848 33.46484 30.50666
#
# Velocity S-wave (km/s) = 3.49356 3.85047 3.67635
# Velocity P-wave (km/s) = 5.88100 6.41907 6.15592
#
# Compressibility (1/GPa) = 0.02419268
#
# Stress axis : x y z
#
# Youngs Moduli (GPa) = 63.92858 38.93941 86.98362
#
# Poissons Ratio (x) = 0.35880 0.13048
# Poissons Ratio (y) = 0.58906 0.31307
# Poissons Ratio (z) = 0.09590 0.14015
#
# Static dielectric constant tensor:
#      x y z
#    x 1.883160 -0.008360 0.001210 
#    y -0.008360 1.847450 -0.001050 
#    z 0.001210 -0.001050 1.831270 
# 
# From -- ./inp_files/534488.got.cif
#   From: 2010.05.17/outbox.cif.g08.bks.cpg/sg2_268_cif.got.tgz:534488.got - 2010.06.03 11:33:40.
