data_PCOD9041770
_publ_section_title
;
Structure prediction by ZEFSAII (Michael W. Deem and Ramdas Pophale) SiO2 
 PCOD9041770
Probable space group: P -1
;
_chemical_formula_sum "Si O2"
_cell_formula_units_Z 12
_cell_length_a 14.180492
_cell_length_b 6.838122
_cell_length_c 10.503288
_cell_angle_alpha 137.190341
_cell_angle_beta 50.046430
_cell_angle_gamma 105.635980
_cell_volume 489.226628
_symmetry_space_group_name_H-M "P -1"
_symmetry_group_IT_number 2
_symmetry_cell_setting 'triclinic'
loop_
_space_group_symop_operation_xyz
x,y,z
-x,-y,-z
loop_
_atom_site_type_symbol
_atom_site_label
_atom_site_fract_x
_atom_site_fract_y
_atom_site_fract_z
Si Si1 0.790643 0.181146 0.289676
Si Si2 0.211256 0.942161 0.176597
Si Si3 0.330072 0.927174 0.312532
Si Si4 0.974010 0.188847 0.906580
Si Si5 0.348759 0.214785 0.701982
Si Si6 0.625718 0.672765 0.853002
O O1 0.666524 0.470611 0.591206
O O2 0.743265 0.895917 0.179530
O O3 0.856103 0.253712 0.143358
O O4 0.900237 0.067437 0.253527
O O5 0.210415 0.050597 0.374762
O O6 0.075485 0.948506 0.237251
O O7 0.280586 0.134730 0.130167
O O8 0.310706 0.579366 0.917450
O O9 0.344204 0.586952 0.187180
O O10 0.320120 0.128451 0.542819
O O11 0.530763 0.122505 0.901341
O O12 0.000000 0.500000 0.000000
O O13 0.500000 0.000000 0.500000
#
# Coordination Sequence:
#
# PCOD9041770 Si02
#       6
#     2   2   2   2   2   2
#     4  10  24  46  70  98 145 176 235 291 339 408
#     4  12  25  40  74 101 134 187 236 275 349 407
#     4  10  24  45  65 104 151 170 232 282 345 420
#     4  11  25  46  71 101 135 188 241 285 338 410
#     4  11  24  45  73 103 142 187 219 291 350 409
#     4  10  23  44  67 102 140 182 220 291 343 413
#
# _framework density 24.528510000000001
#
# number of rings (size 3 to 8) (size 9 to 14) (size 15 to 20)
#    0.000    1.333    1.667    3.500    7.000    1.333 
#    0.000    5.833    0.000    0.000    0.000    0.000 
#    0.000    0.000    0.000    0.000    0.000    0.000 
#
# Total GULP energy -67243.346000 kJ/mol
# GULP energy per Si atom -5603.612167 kJ/mol
# Density = 2.447268 g / cm^3
# Si number density = 24.528510 Si / 1000 Ang^3
#
#
#
# Elastic Constant Matrix: (Units=GPa)
#
#
# Indices 1 2 3 4 5 6 
#
# 1 141.6803 42.3375 -3.9228 -3.8333 18.0754 -8.7251
# 2 42.3375 153.9442 31.8818 0.4364 7.6671 23.7328
# 3 -3.9228 31.8818 63.7647 -4.3464 9.2780 2.3074
# 4 -3.8333 0.4364 -4.3464 48.2877 4.3261 3.6213
# 5 18.0754 7.6671 9.2780 4.3261 40.8586 1.3671
# 6 -8.7251 23.7328 2.3074 3.6213 1.3671 53.6006
#
#
#
# Elastic Compliance Matrix: (Units=1/GPa)
#
#
# Indices 1 2 3 4 5 6 
#
# 1 0.008824 -0.003217 0.002730 0.001138 -0.004133 0.002772
# 2 -0.003217 0.008967 -0.004709 -0.000530 0.001009 -0.004281
# 3 0.002730 -0.004709 0.019019 0.002288 -0.004941 0.001682
# 4 0.001138 -0.000530 0.002288 0.021371 -0.003151 -0.001042
# 5 -0.004133 0.001009 -0.004941 -0.003151 0.027616 -0.001398
# 6 0.002772 -0.004281 0.001682 -0.001042 -0.001398 0.021037
#
#
# Mechanical properties :
#
#
# Convention : Reuss Voigt Hill
#
# Bulk Modulus (GPa) = 37.85376 55.55358 46.70367
# Shear Modulus (GPa) = 39.67244 47.82223 43.74734
#
# Velocity S-wave (km/s) = 4.02606 4.42028 4.22777
# Velocity P-wave (km/s) = 6.08919 6.98209 6.55087
#
# Compressibility (1/GPa) = 0.02641746
#
# Stress axis : x y z
#
# Youngs Moduli (GPa) = 113.33133 111.51926 52.57834
#
# Poissons Ratio (x) = 0.35872 -0.14353
# Poissons Ratio (y) = 0.36455 0.24761
# Poissons Ratio (z) = -0.30937 0.52518
#
# Static dielectric constant tensor:
#      x y z
#    x 1.952480 -0.026080 0.002340 
#    y -0.026080 1.964020 -0.015010 
#    z 0.002340 -0.015010 1.963910 
# 
# From -- ./inp_files/288742.got.cif
#   From: 2010.05.17/outbox.cif.g08.bks.cpg/sg2_145_cif.got.tgz:288742.got - 2010.06.03 11:33:40.
