data_PCOD9041069
_publ_section_title
;
Structure prediction by ZEFSAII (Michael W. Deem and Ramdas Pophale) SiO2 
 PCOD9041069
Probable space group: P -1
;
_chemical_formula_sum "Si O2"
_cell_formula_units_Z 14
_cell_length_a 8.226619
_cell_length_b 8.366511
_cell_length_c 14.161474
_cell_angle_alpha 87.526489
_cell_angle_beta 122.804670
_cell_angle_gamma 58.807238
_cell_volume 625.755798
_symmetry_space_group_name_H-M "P -1"
_symmetry_group_IT_number 2
_symmetry_cell_setting 'triclinic'
loop_
_space_group_symop_operation_xyz
x,y,z
-x,-y,-z
loop_
_atom_site_type_symbol
_atom_site_label
_atom_site_fract_x
_atom_site_fract_y
_atom_site_fract_z
Si Si1 0.264708 0.941129 0.824313
Si Si2 0.325724 0.463500 0.496711
Si Si3 0.937631 0.870782 0.435128
Si Si4 0.246645 0.466825 0.106285
Si Si5 0.886276 0.311041 0.120438
Si Si6 0.970074 0.611351 0.204771
Si Si7 0.544265 0.024770 0.623081
O O1 0.517008 0.765767 0.847386
O O2 0.061052 0.082715 0.675026
O O3 0.221412 0.133009 0.861313
O O4 0.209236 0.803695 0.862214
O O5 0.500000 0.500000 0.500000
O O6 0.500327 0.235951 0.600766
O O7 0.160218 0.626258 0.524246
O O8 0.122777 0.507211 0.353873
O O9 0.677296 0.938671 0.387987
O O10 0.000000 0.000000 0.500000
O O11 0.190664 0.526705 0.197400
O O12 0.218034 0.630426 0.021161
O O13 0.000000 0.500000 0.000000
O O14 0.821562 0.523684 0.137367
O O15 0.187367 0.153494 0.240115
O O16 0.500000 0.000000 0.500000
#
# Coordination Sequence:
#
# PCOD9041069 Si02
#       7
#     2   2   2   2   2   2   2
#     4  11  24  44  67  98 134 172 226 275 332 402
#     4  11  23  40  65  98 130 172 222 267 335 407
#     4  11  24  39  63  96 128 172 217 271 336 392
#     4  10  23  43  70  97 133 175 223 273 333 398
#     4  11  23  43  68  98 130 176 223 272 334 396
#     4  10  23  44  67  95 135 174 218 275 336 389
#     4  12  22  41  66  89 135 168 212 277 329 390
#
# _framework density 22.372945999999999
#
# number of rings (size 3 to 8) (size 9 to 14) (size 15 to 20)
#    0.000    1.143    1.429    6.000    2.000    2.857 
#    0.000    2.857    0.000    0.000    0.000    0.000 
#    0.000    0.000    0.000    0.000    0.000    0.000 
#
# Total GULP energy -78065.923896 kJ/mol
# GULP energy per Si atom -5576.137421 kJ/mol
# Density = 2.232202 g / cm^3
# Si number density = 22.372946 Si / 1000 Ang^3
#
#
#
# Elastic Constant Matrix: (Units=GPa)
#
#
# Indices 1 2 3 4 5 6 
#
# 1 111.9870 49.7001 -1.5611 -22.9062 -7.9067 13.9440
# 2 49.7001 161.1267 29.0350 -28.8523 -6.1961 -1.1118
# 3 -1.5611 29.0350 40.9753 -18.2186 -6.5849 0.8342
# 4 -22.9062 -28.8523 -18.2186 28.8083 -1.5300 3.7132
# 5 -7.9067 -6.1961 -6.5849 -1.5300 39.5454 -11.9102
# 6 13.9440 -1.1118 0.8342 3.7132 -11.9102 40.5345
#
#
#
# Elastic Compliance Matrix: (Units=1/GPa)
#
#
# Indices 1 2 3 4 5 6 
#
# 1 0.014947 -0.003617 0.010901 0.016096 0.003038 -0.006047
# 2 -0.003617 0.008711 -0.005243 0.002360 0.000301 0.001463
# 3 0.010901 -0.005243 0.044550 0.032726 0.008438 -0.005329
# 4 0.016096 0.002360 0.032726 0.072351 0.008765 -0.010198
# 5 0.003038 0.000301 0.008438 0.008765 0.029709 0.006716
# 6 -0.006047 0.001463 -0.005329 -0.010198 0.006716 0.029808
#
#
# Mechanical properties :
#
#
# Convention : Reuss Voigt Hill
#
# Bulk Modulus (GPa) = 13.83311 52.04857 32.94084
# Shear Modulus (GPa) = 22.71794 37.57198 30.14496
#
# Velocity S-wave (km/s) = 3.19002 4.10243 3.67466
# Velocity P-wave (km/s) = 4.44575 6.76421 5.72360
#
# Compressibility (1/GPa) = 0.07229032
#
# Stress axis : x y z
#
# Youngs Moduli (GPa) = 66.90390 114.79688 22.44645
#
# Poissons Ratio (x) = 0.41526 -0.24469
# Poissons Ratio (y) = 0.24201 0.11768
# Poissons Ratio (z) = -0.72931 0.60183
#
# Static dielectric constant tensor:
#      x y z
#    x 1.874020 -0.045840 -0.072300 
#    y -0.045840 2.086890 0.016880 
#    z -0.072300 0.016880 1.897380 
# 
# From -- ./inp_files/493018.got.cif
#   From: 2010.05.17/outbox.cif.g08.bks.cpg/sg2_247_cif.got.tgz:493018.got - 2010.06.03 11:33:40.
