data_PCOD9041310
_publ_section_title
;
Structure prediction by ZEFSAII (Michael W. Deem and Ramdas Pophale) SiO2 
 PCOD9041310
Probable space group: P -1
;
_chemical_formula_sum "Si O2"
_cell_formula_units_Z 14
_cell_length_a 13.576459
_cell_length_b 10.443752
_cell_length_c 13.609582
_cell_angle_alpha 43.484280
_cell_angle_beta 148.330786
_cell_angle_gamma 118.677444
_cell_volume 644.602910
_symmetry_space_group_name_H-M "P -1"
_symmetry_group_IT_number 2
_symmetry_cell_setting 'triclinic'
loop_
_space_group_symop_operation_xyz
x,y,z
-x,-y,-z
loop_
_atom_site_type_symbol
_atom_site_label
_atom_site_fract_x
_atom_site_fract_y
_atom_site_fract_z
Si Si1 0.470796 0.688602 0.103695
Si Si2 0.153606 0.100378 0.607204
Si Si3 0.051318 0.032618 0.777119
Si Si4 0.478442 0.720663 0.328379
Si Si5 0.853188 0.521600 0.085988
Si Si6 0.076091 0.586483 0.423892
Si Si7 0.837765 0.722711 0.761632
O O1 0.483103 0.706837 0.221737
O O2 0.695666 0.560191 0.328694
O O3 0.320602 0.574680 0.008463
O O4 0.368348 0.926888 0.855631
O O5 0.063257 0.322725 0.360939
O O6 0.114351 0.117373 0.682699
O O7 0.000000 0.000000 0.500000
O O8 0.929313 0.891249 0.728599
O O9 0.262122 0.884188 0.083180
O O10 0.931066 0.201775 0.658578
O O11 0.500000 0.500000 0.500000
O O12 0.645414 0.767540 0.504792
O O13 0.913129 0.608794 0.186944
O O14 0.797722 0.687979 0.861226
O O15 0.000000 0.500000 0.500000
O O16 0.000000 0.500000 0.000000
#
# Coordination Sequence:
#
# PCOD9041310 Si02
#       7
#     2   2   2   2   2   2   2
#     4  10  23  43  73 100 138 178 231 288 339 405
#     4   9  19  43  68 100 131 171 232 286 333 396
#     4  11  25  45  66 102 141 178 227 283 337 411
#     4  11  21  44  71 103 137 172 230 282 347 409
#     4  11  23  43  70 102 139 177 230 284 341 406
#     4  12  27  48  65  98 144 190 229 276 343 412
#     4  12  22  40  74 104 135 175 219 291 350 396
#
# _framework density 21.718798
#
# number of rings (size 3 to 8) (size 9 to 14) (size 15 to 20)
#    0.000    1.143    4.286    2.571    0.000    2.857 
#    7.714    1.429    0.000    0.000    0.000    0.000 
#    0.000    0.000    0.000    0.000    0.000    0.000 
#
# Total GULP energy -78195.046232 kJ/mol
# GULP energy per Si atom -5585.360445 kJ/mol
# Density = 2.166936 g / cm^3
# Si number density = 21.718798 Si / 1000 Ang^3
#
#
#
# Elastic Constant Matrix: (Units=GPa)
#
#
# Indices 1 2 3 4 5 6 
#
# 1 83.9925 36.8805 46.4843 0.6305 5.3140 -8.9523
# 2 36.8805 145.3076 57.3710 20.7231 14.6493 -8.2222
# 3 46.4843 57.3710 128.6583 14.8633 8.9621 -2.9410
# 4 0.6305 20.7231 14.8633 48.2296 -0.2927 0.7993
# 5 5.3140 14.6493 8.9621 -0.2927 42.2664 -1.7775
# 6 -8.9523 -8.2222 -2.9410 0.7993 -1.7775 36.1576
#
#
#
# Elastic Compliance Matrix: (Units=1/GPa)
#
#
# Indices 1 2 3 4 5 6 
#
# 1 0.015927 -0.002235 -0.004944 0.002226 -0.000039 0.002982
# 2 -0.002235 0.009305 -0.002787 -0.003146 -0.002321 0.001291
# 3 -0.004944 -0.002787 0.011085 -0.002143 -0.000817 -0.000949
# 4 0.002226 -0.003146 -0.002143 0.022738 0.001390 -0.000773
# 5 -0.000039 -0.002321 -0.000817 0.001390 0.024676 0.000579
# 6 0.002982 0.001291 -0.000949 -0.000773 0.000579 0.028657
#
#
# Mechanical properties :
#
#
# Convention : Reuss Voigt Hill
#
# Bulk Modulus (GPa) = 61.03594 71.04779 66.04186
# Shear Modulus (GPa) = 36.28903 39.81222 38.05062
#
# Velocity S-wave (km/s) = 4.09205 4.28609 4.19019
# Velocity P-wave (km/s) = 7.10565 7.56820 7.34057
#
# Compressibility (1/GPa) = 0.01638379
#
# Stress axis : x y z
#
# Youngs Moduli (GPa) = 62.78612 107.46435 90.21589
#
# Poissons Ratio (x) = 0.24022 0.44603
# Poissons Ratio (y) = 0.14035 0.25146
# Poissons Ratio (z) = 0.31042 0.29953
#
# Static dielectric constant tensor:
#      x y z
#    x 1.849990 -0.011090 -0.011920 
#    y -0.011090 1.759480 -0.006040 
#    z -0.011920 -0.006040 1.799290 
# 
# From -- ./inp_files/532357.got.cif
#   From: 2010.05.17/outbox.cif.g08.bks.cpg/sg2_267_cif.got.tgz:532357.got - 2010.06.03 11:33:40.
