data_PCOD9041402
_publ_section_title
;
Structure prediction by ZEFSAII (Michael W. Deem and Ramdas Pophale) SiO2 
 PCOD9041402
Probable space group: P -1
;
_chemical_formula_sum "Si O2"
_cell_formula_units_Z 14
_cell_length_a 7.583007
_cell_length_b 8.833614
_cell_length_c 17.405889
_cell_angle_alpha 37.399018
_cell_angle_beta 94.347839
_cell_angle_gamma 113.881755
_cell_volume 580.636800
_symmetry_space_group_name_H-M "P -1"
_symmetry_group_IT_number 2
_symmetry_cell_setting 'triclinic'
loop_
_space_group_symop_operation_xyz
x,y,z
-x,-y,-z
loop_
_atom_site_type_symbol
_atom_site_label
_atom_site_fract_x
_atom_site_fract_y
_atom_site_fract_z
Si Si1 0.930514 0.050968 0.881227
Si Si2 0.831580 0.165721 0.661182
Si Si3 0.827083 0.214563 0.060464
Si Si4 0.474154 0.716912 0.075786
Si Si5 0.681977 0.854211 0.627220
Si Si6 0.404777 0.150914 0.656718
Si Si7 0.215651 0.741883 0.670868
O O1 0.897809 0.101390 0.770237
O O2 0.050795 0.383882 0.791207
O O3 0.933077 0.096141 0.054762
O O4 0.696930 0.807680 0.008491
O O5 0.604503 0.122101 0.679409
O O6 0.000000 0.500000 0.500000
O O7 0.801445 0.962883 0.669103
O O8 0.695956 0.938021 0.226898
O O9 0.691761 0.336815 0.973468
O O10 0.000000 0.500000 0.000000
O O11 0.389395 0.485964 0.237186
O O12 0.500000 0.000000 0.000000
O O13 0.456066 0.820756 0.639056
O O14 0.808251 0.073982 0.472329
O O15 0.500000 0.500000 0.500000
O O16 0.235909 0.906008 0.686372
#
# Coordination Sequence:
#
# PCOD9041402 Si02
#       7
#     2   2   2   2   2   2   2
#     4  12  26  49  79 105 153 195 249 311 372 441
#     4  11  21  43  74 110 143 194 245 309 374 430
#     4  12  29  49  75 113 151 201 248 302 381 447
#     4  12  29  48  74 110 150 194 251 307 371 449
#     4  10  23  43  74 106 146 189 251 302 368 443
#     4  11  26  46  75 109 153 192 253 309 366 452
#     4  10  24  45  76 108 141 197 246 307 376 428
#
# _framework density 24.111460999999998
#
# number of rings (size 3 to 8) (size 9 to 14) (size 15 to 20)
#    0.000    0.857    2.857    2.571   12.000    2.286 
#    0.000    1.429    0.000    0.000    0.000    0.000 
#    0.000    0.000    0.000    0.000    0.000    0.000 
#
# Total GULP energy -78283.427098 kJ/mol
# GULP energy per Si atom -5591.673364 kJ/mol
# Density = 2.405658 g / cm^3
# Si number density = 24.111461 Si / 1000 Ang^3
#
#
#
# Elastic Constant Matrix: (Units=GPa)
#
#
# Indices 1 2 3 4 5 6 
#
# 1 105.7902 25.9813 39.9172 5.8853 -8.6474 -3.8051
# 2 25.9813 116.0494 36.7731 8.3211 10.7539 17.7555
# 3 39.9172 36.7731 163.7741 12.0290 20.7945 2.3994
# 4 5.8853 8.3211 12.0290 45.4781 0.9279 10.8868
# 5 -8.6474 10.7539 20.7945 0.9279 22.5445 -7.8751
# 6 -3.8051 17.7555 2.3994 10.8868 -7.8751 32.7217
#
#
#
# Elastic Compliance Matrix: (Units=1/GPa)
#
#
# Indices 1 2 3 4 5 6 
#
# 1 0.013565 -0.004120 -0.004108 -0.002156 0.013903 0.008178
# 2 -0.004120 0.012046 -0.000289 0.000981 -0.010544 -0.009858
# 3 -0.004108 -0.000289 0.008601 -0.000701 -0.010473 -0.003239
# 4 -0.002156 0.000981 -0.000701 0.024837 -0.005254 -0.010259
# 5 0.013903 -0.010544 -0.010473 -0.005254 0.074282 0.027731
# 6 0.008178 -0.009858 -0.003239 -0.010259 0.027731 0.047186
#
#
# Mechanical properties :
#
#
# Convention : Reuss Voigt Hill
#
# Bulk Modulus (GPa) = 58.21651 65.66189 61.93920
# Shear Modulus (GPa) = 24.59684 39.01168 31.80426
#
# Velocity S-wave (km/s) = 3.19741 4.02677 3.63582
# Velocity P-wave (km/s) = 6.15048 6.99368 6.58559
#
# Compressibility (1/GPa) = 0.01717726
#
# Stress axis : x y z
#
# Youngs Moduli (GPa) = 73.71874 83.01370 116.26643
#
# Poissons Ratio (x) = 0.34203 0.47760
# Poissons Ratio (y) = 0.30374 0.03365
# Poissons Ratio (z) = 0.30282 0.02403
#
# Static dielectric constant tensor:
#      x y z
#    x 1.926400 0.096560 -0.141900 
#    y 0.096560 1.834340 -0.079930 
#    z -0.141900 -0.079930 1.992150 
# 
# From -- ./inp_files/297732.got.cif
#   From: 2010.05.17/outbox.cif.g08.bks.cpg/sg2_149_cif.got.tgz:297732.got - 2010.06.03 11:33:40.
