data_PCOD9041512
_publ_section_title
;
Structure prediction by ZEFSAII (Michael W. Deem and Ramdas Pophale) SiO2 
 PCOD9041512
Probable space group: P -1
;
_chemical_formula_sum "Si O2"
_cell_formula_units_Z 14
_cell_length_a 21.166964
_cell_length_b 9.049639
_cell_length_c 20.751345
_cell_angle_alpha 150.172324
_cell_angle_beta 20.452603
_cell_angle_gamma 151.204883
_cell_volume 643.098463
_symmetry_space_group_name_H-M "P -1"
_symmetry_group_IT_number 2
_symmetry_cell_setting 'triclinic'
loop_
_space_group_symop_operation_xyz
x,y,z
-x,-y,-z
loop_
_atom_site_type_symbol
_atom_site_label
_atom_site_fract_x
_atom_site_fract_y
_atom_site_fract_z
Si Si1 0.846495 0.678437 0.890946
Si Si2 0.456921 0.409162 0.080534
Si Si3 0.188306 0.369203 0.697304
Si Si4 0.507940 0.339980 0.595528
Si Si5 0.889352 0.365060 0.488512
Si Si6 0.139374 0.399949 0.899989
Si Si7 0.411099 0.770036 0.937565
O O1 0.972429 0.552569 0.674675
O O2 0.644839 0.601944 0.016659
O O3 0.786034 0.492492 0.945811
O O4 0.968616 0.050323 0.925030
O O5 0.281149 0.504878 0.308155
O O6 0.500000 0.500000 0.000000
O O7 0.401098 0.029023 0.994309
O O8 0.339610 0.550592 0.566851
O O9 0.226296 0.508047 0.786282
O O10 0.187654 0.015353 0.572359
O O11 0.975891 0.372933 0.883709
O O12 0.304552 0.351774 0.767535
O O13 0.546655 0.590503 0.712217
O O14 0.500000 0.000000 0.500000
O O15 0.000000 0.500000 0.500000
O O16 0.500000 0.000000 0.000000
#
# Coordination Sequence:
#
# PCOD9041512 Si02
#       7
#     2   2   2   2   2   2   2
#     4  10  23  44  63  97 138 172 226 284 339 401
#     4  11  22  41  67  93 137 176 224 280 336 400
#     4  10  24  42  69  99 138 172 230 281 342 402
#     4  12  26  45  72 101 137 184 232 277 347 413
#     4  11  23  38  67 102 125 176 229 273 332 403
#     4  10  24  45  69 101 134 179 227 287 341 405
#     4  10  25  43  65  98 138 182 220 282 348 395
#
# _framework density 21.769607000000001
#
# number of rings (size 3 to 8) (size 9 to 14) (size 15 to 20)
#    0.000    1.429    1.429    2.143    4.000   14.286 
#    0.000    0.000    0.000    0.000    0.000    0.000 
#    0.000    0.000    0.000    0.000    0.000    0.000 
#
# Total GULP energy -78258.626585 kJ/mol
# GULP energy per Si atom -5589.901899 kJ/mol
# Density = 2.172006 g / cm^3
# Si number density = 21.769607 Si / 1000 Ang^3
#
#
#
# Elastic Constant Matrix: (Units=GPa)
#
#
# Indices 1 2 3 4 5 6 
#
# 1 77.8583 31.7476 28.7363 -6.4243 5.2386 -23.8506
# 2 31.7476 85.8227 39.1271 6.0004 19.2016 -34.5528
# 3 28.7363 39.1271 147.3007 8.5747 3.2709 -18.7909
# 4 -6.4243 6.0004 8.5747 40.4759 -8.0577 2.2268
# 5 5.2386 19.2016 3.2709 -8.0577 39.8193 -12.7527
# 6 -23.8506 -34.5528 -18.7909 2.2268 -12.7527 50.1888
#
#
#
# Elastic Compliance Matrix: (Units=1/GPa)
#
#
# Indices 1 2 3 4 5 6 
#
# 1 0.016902 -0.004268 -0.001826 0.003899 0.002319 0.004826
# 2 -0.004268 0.020175 -0.002907 -0.004949 -0.006977 0.009220
# 3 -0.001826 -0.002907 0.008034 -0.001419 0.000827 0.000412
# 4 0.003899 -0.004949 -0.001419 0.027865 0.007146 -0.001506
# 5 0.002319 -0.006977 0.000827 0.007146 0.030876 0.004137
# 6 0.004826 0.009220 0.000412 -0.001506 0.004137 0.029838
#
#
# Mechanical properties :
#
#
# Convention : Reuss Voigt Hill
#
# Bulk Modulus (GPa) = 36.88959 56.68929 46.78944
# Shear Modulus (GPa) = 31.10812 40.18816 35.64814
#
# Velocity S-wave (km/s) = 3.78427 4.30125 4.05102
# Velocity P-wave (km/s) = 6.00638 7.12494 6.58944
#
# Compressibility (1/GPa) = 0.02710792
#
# Stress axis : x y z
#
# Youngs Moduli (GPa) = 59.16294 49.56582 124.46877
#
# Poissons Ratio (x) = 0.21156 0.22733
# Poissons Ratio (y) = 0.25252 0.36187
# Poissons Ratio (z) = 0.10806 0.14410
#
# Static dielectric constant tensor:
#      x y z
#    x 1.006680 2.479470 1.132580 
#    y 2.479470 -5.316370 -3.262130 
#    z 1.132580 -3.262130 0.261830 
# 
# From -- ./inp_files/591817.got.cif
#   From: 2010.05.17/outbox.cif.g08.bks.cpg/sg2_296_cif.got.tgz:591817.got - 2010.06.03 11:33:40.
