data_PCOD9041475
_publ_section_title
;
Structure prediction by ZEFSAII (Michael W. Deem and Ramdas Pophale) SiO2 
 PCOD9041475
Probable space group: P -1
;
_chemical_formula_sum "Si O2"
_cell_formula_units_Z 16
_cell_length_a 18.863308
_cell_length_b 5.611987
_cell_length_c 18.588410
_cell_angle_alpha 86.960239
_cell_angle_beta 157.384544
_cell_angle_gamma 102.814161
_cell_volume 674.766714
_symmetry_space_group_name_H-M "P -1"
_symmetry_group_IT_number 2
_symmetry_cell_setting 'triclinic'
loop_
_space_group_symop_operation_xyz
x,y,z
-x,-y,-z
loop_
_atom_site_type_symbol
_atom_site_label
_atom_site_fract_x
_atom_site_fract_y
_atom_site_fract_z
Si Si1 0.337176 0.613186 0.828632
Si Si2 0.718211 0.753951 0.702298
Si Si3 0.456212 0.038684 0.223776
Si Si4 0.307937 0.304306 0.567691
Si Si5 0.972943 0.301184 0.912391
Si Si6 0.072230 0.162103 0.490728
Si Si7 0.995456 0.273347 0.158039
Si Si8 0.672857 0.100082 0.056807
O O1 0.169388 0.451757 0.614461
O O2 0.258868 0.637527 0.834088
O O3 0.500000 0.500000 0.000000
O O4 0.465483 0.893354 0.904522
O O5 0.500000 0.500000 0.500000
O O6 0.853230 0.741072 0.761246
O O7 0.839917 0.764784 0.889835
O O8 0.748479 0.053193 0.715362
O O9 0.589828 0.875605 0.369113
O O10 0.564948 0.365975 0.319069
O O11 0.372003 0.916630 0.067900
O O12 0.243540 0.933074 0.070505
O O13 0.246558 0.198852 0.594257
O O14 0.101699 0.253358 0.331224
O O15 0.996637 0.438612 0.855752
O O16 0.000000 0.500000 0.000000
O O17 0.862994 0.038002 0.251455
O O18 0.000000 0.000000 0.500000
#
# Coordination Sequence:
#
# PCOD9041475 Si02
#       8
#     2   2   2   2   2   2   2   2
#     4  11  22  40  65  96 129 179 240 304 383 441
#     4  10  23  43  79 116 155 194 251 308 378 449
#     4  12  29  50  73 104 156 199 257 312 379 458
#     4  12  30  49  74 109 150 205 257 312 388 456
#     4   9  22  44  72 113 152 193 245 307 370 445
#     4  12  24  44  69 106 137 192 253 321 383 453
#     4  11  27  47  75 111 151 205 251 306 375 454
#     4  11  24  42  66  96 136 186 242 316 372 448
#
# _framework density 23.711898000000001
#
# number of rings (size 3 to 8) (size 9 to 14) (size 15 to 20)
#    0.000    1.000    3.750    1.125    7.000    5.000 
#    0.000    0.000    0.000    0.000    0.000    0.000 
#    0.000    0.000    0.000    0.000    0.000    0.000 
#
# Total GULP energy -89112.072281 kJ/mol
# GULP energy per Si atom -5569.504518 kJ/mol
# Density = 2.365793 g / cm^3
# Si number density = 23.711898 Si / 1000 Ang^3
#
#
#
# Elastic Constant Matrix: (Units=GPa)
#
#
# Indices 1 2 3 4 5 6 
#
# 1 97.0935 32.5875 19.5618 3.8405 18.0998 2.6696
# 2 32.5875 97.2091 55.9169 9.6247 14.1732 14.2069
# 3 19.5618 55.9169 114.4693 20.4552 13.3797 8.6088
# 4 3.8405 9.6247 20.4552 41.2033 14.5868 -9.4617
# 5 18.0998 14.1732 13.3797 14.5868 38.5622 -2.4641
# 6 2.6696 14.2069 8.6088 -9.4617 -2.4641 30.9120
#
#
#
# Elastic Compliance Matrix: (Units=1/GPa)
#
#
# Indices 1 2 3 4 5 6 
#
# 1 0.012393 -0.003632 -0.000116 0.001708 -0.005040 0.000752
# 2 -0.003632 0.016576 -0.006635 -0.000830 -0.002148 -0.005882
# 3 -0.000116 -0.006635 0.013159 -0.005440 -0.000161 -0.002283
# 4 0.001708 -0.000830 -0.005440 0.033264 -0.010483 0.011095
# 5 -0.005040 -0.002148 -0.000161 -0.010483 0.033166 0.000902
# 6 0.000752 -0.005882 -0.002283 0.011095 0.000902 0.039092
#
#
# Mechanical properties :
#
#
# Convention : Reuss Voigt Hill
#
# Bulk Modulus (GPa) = 46.81153 58.32268 52.56711
# Shear Modulus (GPa) = 28.48398 35.51588 31.99993
#
# Velocity S-wave (km/s) = 3.46967 3.87435 3.67758
# Velocity P-wave (km/s) = 5.98633 6.68311 6.34429
#
# Compressibility (1/GPa) = 0.02136226
#
# Stress axis : x y z
#
# Youngs Moduli (GPa) = 80.69090 60.32789 75.99082
#
# Poissons Ratio (x) = 0.21910 0.00885
# Poissons Ratio (y) = 0.29305 0.50419
# Poissons Ratio (z) = 0.00940 0.40027
#
# Static dielectric constant tensor:
#      x y z
#    x 2.070530 -0.153230 -0.028090 
#    y -0.153230 2.302340 0.069510 
#    z -0.028090 0.069510 2.058060 
# 
# From -- ./inp_files/600776.got.cif
#   From: 2010.05.17/outbox.cif.g08.bks.cpg/sg2_301_cif.got.tgz:600776.got - 2010.06.03 11:33:40.
