data_PCOD9041614
_publ_section_title
;
Structure prediction by ZEFSAII (Michael W. Deem and Ramdas Pophale) SiO2 
 PCOD9041614
Probable space group: P -1
;
_chemical_formula_sum "Si O2"
_cell_formula_units_Z 14
_cell_length_a 5.617348
_cell_length_b 9.528819
_cell_length_c 18.580115
_cell_angle_alpha 55.315000
_cell_angle_beta 65.919096
_cell_angle_gamma 46.033829
_cell_volume 588.467927
_symmetry_space_group_name_H-M "P -1"
_symmetry_group_IT_number 2
_symmetry_cell_setting 'triclinic'
loop_
_space_group_symop_operation_xyz
x,y,z
-x,-y,-z
loop_
_atom_site_type_symbol
_atom_site_label
_atom_site_fract_x
_atom_site_fract_y
_atom_site_fract_z
Si Si1 0.812849 0.895580 0.048169
Si Si2 0.350915 0.996348 0.202479
Si Si3 0.384977 0.650684 0.223790
Si Si4 0.069562 0.500576 0.906535
Si Si5 0.824965 0.668663 0.352689
Si Si6 0.814610 0.329580 0.390022
Si Si7 0.493270 0.891848 0.460834
O O1 0.657334 0.933053 0.134519
O O2 0.027042 0.641347 0.076604
O O3 0.500000 0.000000 0.000000
O O4 0.000000 0.000000 0.000000
O O5 0.211180 0.894831 0.202078
O O6 0.491892 0.860955 0.297057
O O7 0.125526 0.251306 0.163992
O O8 0.559444 0.610616 0.137418
O O9 0.679841 0.484867 0.291845
O O10 0.125706 0.607064 0.283268
O O11 0.000000 0.500000 0.000000
O O12 0.835919 0.460819 0.412164
O O13 0.799798 0.767280 0.404561
O O14 0.571869 0.276051 0.458635
O O15 0.165695 0.098622 0.402178
O O16 0.500000 0.000000 0.500000
#
# Coordination Sequence:
#
# PCOD9041614 Si02
#       7
#     2   2   2   2   2   2   2
#     4  11  25  46  71 104 145 184 241 304 366 432
#     4  10  24  42  67  98 135 183 232 288 353 427
#     4  10  24  42  67 100 138 176 234 286 353 416
#     4  11  23  45  71 101 138 186 237 294 358 427
#     4  11  24  43  68  96 136 183 226 289 349 422
#     4  10  23  44  65  96 138 177 225 280 345 423
#     4  11  24  41  69 102 134 176 230 282 349 422
#
# _framework density 23.790592
#
# number of rings (size 3 to 8) (size 9 to 14) (size 15 to 20)
#    0.000    1.429    1.429    2.143    4.000    9.714 
#    2.571    0.000    0.000    0.000    0.000    0.000 
#    0.000    0.000    0.000    0.000    0.000    0.000 
#
# Total GULP energy -78213.511478 kJ/mol
# GULP energy per Si atom -5586.679391 kJ/mol
# Density = 2.373644 g / cm^3
# Si number density = 23.790592 Si / 1000 Ang^3
#
#
#
# Elastic Constant Matrix: (Units=GPa)
#
#
# Indices 1 2 3 4 5 6 
#
# 1 89.2804 41.5166 33.5686 3.4473 -19.7110 28.5298
# 2 41.5166 164.1048 66.0389 0.0204 -12.4793 27.3717
# 3 33.5686 66.0389 81.2353 2.1841 -5.6882 8.1973
# 4 3.4473 0.0204 2.1841 59.5170 1.7035 -4.2867
# 5 -19.7110 -12.4793 -5.6882 1.7035 40.1283 -16.1051
# 6 28.5298 27.3717 8.1973 -4.2867 -16.1051 32.4028
#
#
#
# Elastic Compliance Matrix: (Units=1/GPa)
#
#
# Indices 1 2 3 4 5 6 
#
# 1 0.018539 0.000389 -0.006324 -0.001924 0.002835 -0.013897
# 2 0.000389 0.010355 -0.007866 -0.000256 -0.000694 -0.007479
# 3 -0.006324 -0.007866 0.020611 0.000119 0.000224 0.007126
# 4 -0.001924 -0.000256 0.000119 0.017208 -0.000087 0.004113
# 5 0.002835 -0.000694 0.000224 -0.000087 0.031652 0.013754
# 6 -0.013897 -0.007479 0.007126 0.004113 0.013754 0.054992
#
#
# Mechanical properties :
#
#
# Convention : Reuss Voigt Hill
#
# Bulk Modulus (GPa) = 45.65716 68.54098 57.09907
# Shear Modulus (GPa) = 26.55886 39.30938 32.93412
#
# Velocity S-wave (km/s) = 3.34482 4.06927 3.72470
# Velocity P-wave (km/s) = 5.84380 7.13802 6.52309
#
# Compressibility (1/GPa) = 0.02190237
#
# Stress axis : x y z
#
# Youngs Moduli (GPa) = 53.94146 96.56813 48.51767
#
# Poissons Ratio (x) = -0.03752 0.30683
# Poissons Ratio (y) = -0.02096 0.38163
# Poissons Ratio (z) = 0.34113 0.75959
#
# Static dielectric constant tensor:
#      x y z
#    x 1.984450 -0.024190 0.063990 
#    y -0.024190 1.906390 -0.023340 
#    z 0.063990 -0.023340 1.941600 
# 
# From -- ./inp_files/547388.got.cif
#   From: 2010.05.17/outbox.cif.g08.bks.cpg/sg2_274_cif.got.tgz:547388.got - 2010.06.03 11:33:40.
