data_PCOD9041333
_publ_section_title
;
Structure prediction by ZEFSAII (Michael W. Deem and Ramdas Pophale) SiO2 
 PCOD9041333
Probable space group: P -1
;
_chemical_formula_sum "Si O2"
_cell_formula_units_Z 16
_cell_length_a 8.754041
_cell_length_b 18.762245
_cell_length_c 8.392872
_cell_angle_alpha 147.349539
_cell_angle_beta 66.813358
_cell_angle_gamma 101.419080
_cell_volume 658.396424
_symmetry_space_group_name_H-M "P -1"
_symmetry_group_IT_number 2
_symmetry_cell_setting 'triclinic'
loop_
_space_group_symop_operation_xyz
x,y,z
-x,-y,-z
loop_
_atom_site_type_symbol
_atom_site_label
_atom_site_fract_x
_atom_site_fract_y
_atom_site_fract_z
Si Si1 0.130564 0.761221 0.207862
Si Si2 0.817127 0.986706 0.474924
Si Si3 0.050835 0.320394 0.162566
Si Si4 0.638527 0.616907 0.040043
Si Si5 0.115356 0.100726 0.182221
Si Si6 0.347152 0.507895 0.846742
Si Si7 0.086395 0.394744 0.623263
Si Si8 0.502966 0.062271 0.289102
O O1 0.095533 0.687091 0.920300
O O2 0.941054 0.847768 0.515603
O O3 0.232778 0.873899 0.343421
O O4 0.231310 0.650895 0.087403
O O5 0.880121 0.834941 0.092128
O O6 0.650271 0.976412 0.624141
O O7 0.000000 0.000000 0.500000
O O8 0.205346 0.354349 0.067002
O O9 0.984254 0.585152 0.488896
O O10 0.678475 0.540541 0.051658
O O11 0.520640 0.774089 0.407912
O O12 0.537408 0.527735 0.812715
O O13 0.068947 0.248307 0.401310
O O14 0.304683 0.019602 0.896296
O O15 0.000000 0.000000 0.000000
O O16 0.286136 0.398835 0.557534
O O17 0.000000 0.500000 0.000000
O O18 0.500000 0.000000 0.000000
#
# Coordination Sequence:
#
# PCOD9041333 Si02
#       8
#     2   2   2   2   2   2   2   2
#     4  11  22  45  74 110 152 198 254 311 379 465
#     4   9  20  42  70 113 151 192 253 319 380 456
#     4  10  23  43  73 104 146 197 249 320 381 451
#     4  10  24  46  71 103 151 197 252 311 381 456
#     4  12  25  44  75 112 152 201 258 314 384 456
#     4  11  24  46  69 102 150 198 247 303 378 462
#     4  12  26  46  71 106 154 198 254 315 387 466
#     4  11  22  41  74 110 146 196 256 318 379 445
#
# _framework density 24.301468
#
# number of rings (size 3 to 8) (size 9 to 14) (size 15 to 20)
#    0.000    1.250    1.250    5.250    0.000    3.000 
#    0.000    4.375    0.000    0.000    0.000    0.000 
#    0.000    0.000    0.000    0.000    0.000    0.000 
#
# Total GULP energy -89252.632585 kJ/mol
# GULP energy per Si atom -5578.289537 kJ/mol
# Density = 2.424616 g / cm^3
# Si number density = 24.301468 Si / 1000 Ang^3
#
#
#
# Elastic Constant Matrix: (Units=GPa)
#
#
# Indices 1 2 3 4 5 6 
#
# 1 122.2883 52.7376 34.8234 -6.1660 17.5631 -5.9894
# 2 52.7376 135.9344 73.9547 28.7903 7.4272 5.3620
# 3 34.8234 73.9547 114.6657 2.0718 9.5390 -14.6820
# 4 -6.1660 28.7903 2.0718 46.6271 -0.9433 3.2188
# 5 17.5631 7.4272 9.5390 -0.9433 42.6566 5.1007
# 6 -5.9894 5.3620 -14.6820 3.2188 5.1007 40.5016
#
#
#
# Elastic Compliance Matrix: (Units=1/GPa)
#
#
# Indices 1 2 3 4 5 6 
#
# 1 0.011408 -0.005838 0.000934 0.004785 -0.004135 0.002939
# 2 -0.005838 0.017736 -0.010477 -0.010770 0.002189 -0.006429
# 3 0.000934 -0.010477 0.016291 0.005299 -0.002969 0.007384
# 4 0.004785 -0.010770 0.005299 0.028344 -0.000882 0.001913
# 5 -0.004135 0.002189 -0.002969 -0.000882 0.026029 -0.005186
# 6 0.002939 -0.006429 0.007384 0.001913 -0.005186 0.029154
#
#
# Mechanical properties :
#
#
# Convention : Reuss Voigt Hill
#
# Bulk Modulus (GPa) = 68.14389 77.32445 72.73417
# Shear Modulus (GPa) = 30.37400 40.04857 35.21128
#
# Velocity S-wave (km/s) = 3.53920 4.06395 3.81062
# Velocity P-wave (km/s) = 6.69352 7.34226 7.02538
#
# Compressibility (1/GPa) = 0.01467483
#
# Stress axis : x y z
#
# Youngs Moduli (GPa) = 87.65796 56.38170 61.38304
#
# Poissons Ratio (x) = 0.32914 -0.05736
# Poissons Ratio (y) = 0.51172 0.64311
# Poissons Ratio (z) = -0.08191 0.59071
#
# Static dielectric constant tensor:
#      x y z
#    x 2.304390 -0.047610 -0.156710 
#    y -0.047610 1.965650 0.040970 
#    z -0.156710 0.040970 1.959780 
# 
# From -- ./inp_files/404329.got.cif
#   From: 2010.05.17/outbox.cif.g08.bks.cpg/sg2_203_cif.got.tgz:404329.got - 2010.06.03 11:33:40.
