data_PCOD9041767
_publ_section_title
;
Structure prediction by ZEFSAII (Michael W. Deem and Ramdas Pophale) SiO2 
 PCOD9041767
Probable space group: P -1
;
_chemical_formula_sum "Si O2"
_cell_formula_units_Z 15
_cell_length_a 14.466832
_cell_length_b 9.151271
_cell_length_c 5.188561
_cell_angle_alpha 69.458523
_cell_angle_beta 103.715074
_cell_angle_gamma 74.800816
_cell_volume 578.113114
_symmetry_space_group_name_H-M "P -1"
_symmetry_group_IT_number 2
_symmetry_cell_setting 'triclinic'
loop_
_space_group_symop_operation_xyz
x,y,z
-x,-y,-z
loop_
_atom_site_type_symbol
_atom_site_label
_atom_site_fract_x
_atom_site_fract_y
_atom_site_fract_z
Si Si1 0.969295 0.182895 0.007605
Si Si2 0.430271 0.517755 0.199258
Si Si3 0.000000 0.500000 0.000000
Si Si4 0.699691 0.019291 0.590118
Si Si5 0.524203 0.814327 0.738654
Si Si6 0.850785 0.476359 0.355632
Si Si7 0.223517 0.766174 0.792494
Si Si8 0.692454 0.816784 0.213045
O O1 0.928186 0.332021 0.674218
O O2 0.875108 0.185962 0.124164
O O3 0.029845 0.280485 0.150996
O O4 0.000000 0.000000 0.000000
O O5 0.500000 0.500000 0.500000
O O6 0.404781 0.348948 0.270170
O O7 0.331000 0.689949 0.061018
O O8 0.500000 0.500000 0.000000
O O9 0.910474 0.518857 0.135711
O O10 0.591584 0.176305 0.382030
O O11 0.711337 0.936872 0.928734
O O12 0.783650 0.089111 0.503619
O O13 0.692194 0.892876 0.443367
O O14 0.584596 0.805315 0.052942
O O15 0.500000 0.000000 0.500000
O O16 0.771211 0.397163 0.260210
O O17 0.787907 0.640908 0.372057
#
# Coordination Sequence:
#
# PCOD9041767 Si02
#       8
#     2   2   1   2   2   2   2   2
#     4  11  28  50  81 112 152 200 258 329 397 481
#     4  12  27  44  72 106 155 204 247 309 376 447
#     4  10  26  50  74 112 146 192 250 320 404 464
#     4  11  26  42  70 106 149 200 252 307 369 454
#     4  10  23  44  67 101 146 197 252 303 366 444
#     4  11  26  48  77 106 150 193 254 316 399 463
#     4  11  27  46  72 111 151 198 260 312 388 463
#     4  11  26  44  72 104 148 197 248 312 376 449
#
# _framework density 25.946480000000001
#
# number of rings (size 3 to 8) (size 9 to 14) (size 15 to 20)
#    0.000    1.067    2.667    0.800   13.067    5.333 
#    0.000    0.000    0.000    0.000    0.000    0.000 
#    0.000    0.000    0.000    0.000    0.000    0.000 
#
# Total GULP energy -83562.070395 kJ/mol
# GULP energy per Si atom -5570.804693 kJ/mol
# Density = 2.588742 g / cm^3
# Si number density = 25.946480 Si / 1000 Ang^3
#
#
#
# Elastic Constant Matrix: (Units=GPa)
#
#
# Indices 1 2 3 4 5 6 
#
# 1 59.6950 17.6406 27.3117 -9.3051 -27.5116 14.3287
# 2 17.6406 163.8932 19.2910 -26.4790 -3.5248 -22.4232
# 3 27.3117 19.2910 60.5569 -9.1127 -9.9908 4.8091
# 4 -9.3051 -26.4790 -9.1127 39.2158 3.9614 0.1602
# 5 -27.5116 -3.5248 -9.9908 3.9614 39.0284 -4.2185
# 6 14.3287 -22.4232 4.8091 0.1602 -4.2185 37.0452
#
#
#
# Elastic Compliance Matrix: (Units=1/GPa)
#
#
# Indices 1 2 3 4 5 6 
#
# 1 0.034834 -0.003520 -0.010068 0.001557 0.020204 -0.012003
# 2 -0.003520 0.008163 -0.001119 0.004575 -0.001823 0.006221
# 3 -0.010068 -0.001119 0.021382 0.002016 -0.001906 0.000215
# 4 0.001557 0.004575 0.002016 0.029499 -0.000785 0.001689
# 5 0.020204 -0.001823 -0.001906 -0.000785 0.038833 -0.004245
# 6 -0.012003 0.006221 0.000215 0.001689 -0.004245 0.034883
#
#
# Mechanical properties :
#
#
# Convention : Reuss Voigt Hill
#
# Bulk Modulus (GPa) = 28.60046 45.84795 37.22421
# Shear Modulus (GPa) = 23.96189 37.71801 30.83995
#
# Velocity S-wave (km/s) = 3.04223 3.81686 3.45135
# Velocity P-wave (km/s) = 4.83601 6.09369 5.50092
#
# Compressibility (1/GPa) = 0.03496447
#
# Stress axis : x y z
#
# Youngs Moduli (GPa) = 28.70786 122.50023 46.76738
#
# Poissons Ratio (x) = 0.43126 0.47085
# Poissons Ratio (y) = 0.10106 0.05233
# Poissons Ratio (z) = 0.28903 0.13707
#
# Static dielectric constant tensor:
#      x y z
#    x 2.039150 -0.004000 -0.153050 
#    y -0.004000 2.029900 -0.080360 
#    z -0.153050 -0.080360 1.844740 
# 
# From -- ./inp_files/89925.got.cif
#   From: 2010.05.17/outbox.cif.g08.bks.cpg/sg2_45_cif.got.tgz:89925.got - 2010.06.03 11:33:40.
