data_PCOD9041531
_publ_section_title
;
Structure prediction by ZEFSAII (Michael W. Deem and Ramdas Pophale) SiO2 
 PCOD9041531
Probable space group: P -1
;
_chemical_formula_sum "Si O2"
_cell_formula_units_Z 16
_cell_length_a 15.385193
_cell_length_b 7.278880
_cell_length_c 14.212281
_cell_angle_alpha 95.292224
_cell_angle_beta 151.743767
_cell_angle_gamma 99.686738
_cell_volume 636.561288
_symmetry_space_group_name_H-M "P -1"
_symmetry_group_IT_number 2
_symmetry_cell_setting 'triclinic'
loop_
_space_group_symop_operation_xyz
x,y,z
-x,-y,-z
loop_
_atom_site_type_symbol
_atom_site_label
_atom_site_fract_x
_atom_site_fract_y
_atom_site_fract_z
Si Si1 0.730972 0.060048 0.687247
Si Si2 0.501646 0.008889 0.806790
Si Si3 0.077559 0.306411 0.900950
Si Si4 0.493889 0.416882 0.596530
Si Si5 0.911044 0.185784 0.333008
Si Si6 0.244848 0.495525 0.518326
Si Si7 0.131721 0.892588 0.975718
Si Si8 0.939099 0.139397 0.569804
O O1 0.681319 0.835116 0.586714
O O2 0.500000 0.000000 0.500000
O O3 0.850739 0.237660 0.730034
O O4 0.877271 0.125169 0.921910
O O5 0.360537 0.747753 0.667382
O O6 0.301141 0.043767 0.628183
O O7 0.638541 0.057867 0.844103
O O8 0.688545 0.133457 0.069186
O O9 0.058064 0.321471 0.772014
O O10 0.111630 0.101228 0.939872
O O11 0.262918 0.511010 0.142548
O O12 0.500000 0.500000 0.500000
O O13 0.432539 0.503217 0.633539
O O14 0.128934 0.370202 0.498507
O O15 0.915973 0.220527 0.450416
O O16 0.920547 0.969688 0.316330
O O17 0.044240 0.333656 0.250188
#
# Coordination Sequence:
#
# PCOD9041531 Si02
#       8
#     2   2   2   2   2   2   2   2
#     4  12  25  39  60  95 126 162 214 258 309 378
#     4  11  22  41  66  95 126 163 212 260 316 373
#     4  12  22  41  65  88 126 165 214 256 311 374
#     4  12  22  38  66  90 122 174 208 251 323 372
#     4  10  23  44  64  91 130 168 207 259 323 371
#     4  11  21  39  66  91 123 166 210 257 316 375
#     4  11  21  40  64  89 125 166 203 258 316 369
#     4  11  22  42  67  91 127 168 209 264 313 375
#
# _framework density 25.13505
#
# number of rings (size 3 to 8) (size 9 to 14) (size 15 to 20)
#    0.000    0.750    6.250    2.250    0.000    2.000 
#    0.000   10.625    0.000    0.000    0.000    0.000 
#    0.000    0.000    0.000    0.000    0.000    0.000 
#
# Total GULP energy -89458.669207 kJ/mol
# GULP energy per Si atom -5591.166825 kJ/mol
# Density = 2.507784 g / cm^3
# Si number density = 25.135050 Si / 1000 Ang^3
#
#
#
# Elastic Constant Matrix: (Units=GPa)
#
#
# Indices 1 2 3 4 5 6 
#
# 1 152.7005 13.5398 35.8407 3.9935 -12.3053 12.0467
# 2 13.5398 51.6937 5.9568 16.1659 -1.6525 3.1642
# 3 35.8407 5.9568 108.9814 9.2314 5.0367 17.2150
# 4 3.9935 16.1659 9.2314 39.0872 1.6180 11.4197
# 5 -12.3053 -1.6525 5.0367 1.6180 52.5418 -7.2330
# 6 12.0467 3.1642 17.2150 11.4197 -7.2330 34.5239
#
#
#
# Elastic Compliance Matrix: (Units=1/GPa)
#
#
# Indices 1 2 3 4 5 6 
#
# 1 0.007465 -0.001814 -0.002316 0.000811 0.001724 -0.001191
# 2 -0.001814 0.022825 -0.000187 -0.009857 0.000901 0.002083
# 3 -0.002316 -0.000187 0.010875 -0.000755 -0.002230 -0.004815
# 4 0.000811 -0.009857 -0.000755 0.032900 -0.002494 -0.010408
# 5 0.001724 0.000901 -0.002230 -0.002494 0.020520 0.005552
# 6 -0.001191 0.002083 -0.004815 -0.010408 0.005552 0.036197
#
#
# Mechanical properties :
#
#
# Convention : Reuss Voigt Hill
#
# Bulk Modulus (GPa) = 30.73942 47.11668 38.92805
# Shear Modulus (GPa) = 33.27577 42.43314 37.85445
#
# Velocity S-wave (km/s) = 3.64246 4.11324 3.88499
# Velocity P-wave (km/s) = 5.47232 6.42996 5.97037
#
# Compressibility (1/GPa) = 0.03253152
#
# Stress axis : x y z
#
# Youngs Moduli (GPa) = 133.95996 43.81143 91.94994
#
# Poissons Ratio (x) = 0.07947 0.21297
# Poissons Ratio (y) = 0.24300 0.01718
# Poissons Ratio (z) = 0.31027 0.00819
#
# Static dielectric constant tensor:
#      x y z
#    x 2.013090 -0.073400 0.096570 
#    y -0.073400 2.126450 -0.125110 
#    z 0.096570 -0.125110 1.998420 
# 
# From -- ./inp_files/507245.got.cif
#   From: 2010.05.17/outbox.cif.g08.bks.cpg/sg2_254_cif.got.tgz:507245.got - 2010.06.03 11:33:40.
