data_PCOD9041918
_publ_section_title
;
Structure prediction by ZEFSAII (Michael W. Deem and Ramdas Pophale) SiO2 
 PCOD9041918
Probable space group: P -1
;
_chemical_formula_sum "Si O2"
_cell_formula_units_Z 16
_cell_length_a 23.201151
_cell_length_b 9.120531
_cell_length_c 13.912831
_cell_angle_alpha 50.593014
_cell_angle_beta 30.381850
_cell_angle_gamma 29.279004
_cell_volume 640.571951
_symmetry_space_group_name_H-M "P -1"
_symmetry_group_IT_number 2
_symmetry_cell_setting 'triclinic'
loop_
_space_group_symop_operation_xyz
x,y,z
-x,-y,-z
loop_
_atom_site_type_symbol
_atom_site_label
_atom_site_fract_x
_atom_site_fract_y
_atom_site_fract_z
Si Si1 0.982095 0.741531 0.097059
Si Si2 0.111529 0.544694 0.307749
Si Si3 0.590916 0.744392 0.659335
Si Si4 0.191957 0.706469 0.646513
Si Si5 0.659860 0.659183 0.104902
Si Si6 0.196256 0.092106 0.004223
Si Si7 0.790880 0.310834 0.729381
Si Si8 0.388824 0.702625 0.702435
O O1 0.079696 0.729886 0.874939
O O2 0.124841 0.616666 0.031195
O O3 0.013867 0.472135 0.148974
O O4 0.736860 0.113121 0.294273
O O5 0.195635 0.520723 0.294510
O O6 0.000000 0.500000 0.500000
O O7 0.293804 0.272006 0.081722
O O8 0.948679 0.926575 0.342559
O O9 0.753949 0.492121 0.444497
O O10 0.632380 0.551050 0.770838
O O11 0.523003 0.031886 0.688766
O O12 0.385623 0.960917 0.814891
O O13 0.397145 0.500908 0.489196
O O14 0.610586 0.523216 0.188535
O O15 0.227183 0.847625 0.111954
O O16 0.227057 0.021350 0.876722
O O17 0.000000 0.000000 0.500000
#
# Coordination Sequence:
#
# PCOD9041918 Si02
#       8
#     2   2   2   2   2   2   2   2
#     4  11  24  47  74 102 149 190 233 298 355 429
#     4  12  28  47  71 104 147 187 239 304 355 421
#     4  10  25  43  74 103 141 184 242 290 353 431
#     4  11  25  49  71 107 146 184 247 289 352 433
#     4  11  25  47  69 105 145 188 236 299 365 414
#     4  10  23  44  68 104 138 185 235 290 354 422
#     4  12  24  45  73 101 139 189 239 291 355 425
#     4  11  23  43  72 103 143 191 230 296 358 418
#
# _framework density 24.977677
#
# number of rings (size 3 to 8) (size 9 to 14) (size 15 to 20)
#    0.000    1.000    3.750    1.125    5.250    7.500 
#    4.500    0.000    0.000    0.000    0.000    0.000 
#    0.000    0.000    0.000    0.000    0.000    0.000 
#
# Total GULP energy -89469.223003 kJ/mol
# GULP energy per Si atom -5591.826438 kJ/mol
# Density = 2.492083 g / cm^3
# Si number density = 24.977677 Si / 1000 Ang^3
#
#
#
# Elastic Constant Matrix: (Units=GPa)
#
#
# Indices 1 2 3 4 5 6 
#
# 1 137.0562 28.9104 39.1306 -1.4523 11.5890 17.9999
# 2 28.9104 65.6014 7.7633 -3.5223 -1.0148 16.7469
# 3 39.1306 7.7633 69.5271 -7.7384 3.6587 22.6770
# 4 -1.4523 -3.5223 -7.7384 42.7891 5.3863 -6.3690
# 5 11.5890 -1.0148 3.6587 5.3863 43.9115 1.1411
# 6 17.9999 16.7469 22.6770 -6.3690 1.1411 44.7133
#
#
#
# Elastic Compliance Matrix: (Units=1/GPa)
#
#
# Indices 1 2 3 4 5 6 
#
# 1 0.009686 -0.003745 -0.004988 -0.000611 -0.002152 0.000001
# 2 -0.003745 0.018325 0.002147 0.000653 0.001319 -0.006386
# 3 -0.004988 0.002147 0.020046 0.002398 -0.000375 -0.008612
# 4 -0.000611 0.000653 0.002398 0.024579 -0.003100 0.002365
# 5 -0.002152 0.001319 -0.000375 -0.003100 0.023796 -0.000486
# 6 0.000001 -0.006386 -0.008612 0.002365 -0.000486 0.029473
#
#
# Mechanical properties :
#
#
# Convention : Reuss Voigt Hill
#
# Bulk Modulus (GPa) = 28.66450 47.08815 37.87632
# Shear Modulus (GPa) = 33.17758 39.37482 36.27620
#
# Velocity S-wave (km/s) = 3.64852 3.97470 3.81510
# Velocity P-wave (km/s) = 5.40832 6.32118 5.88248
#
# Compressibility (1/GPa) = 0.03488636
#
# Stress axis : x y z
#
# Youngs Moduli (GPa) = 103.24535 54.56928 49.88546
#
# Poissons Ratio (x) = 0.20434 0.24884
# Poissons Ratio (y) = 0.38661 -0.10712
# Poissons Ratio (z) = 0.51500 -0.11718
#
# Static dielectric constant tensor:
#      x y z
#    x 2.075050 -0.126330 0.043490 
#    y -0.126330 2.238590 0.068320 
#    z 0.043490 0.068320 1.959550 
# 
# From -- ./inp_files/315048.got.cif
#   From: 2010.05.17/outbox.cif.g08.bks.cpg/sg2_158_cif.got.tgz:315048.got - 2010.06.03 11:33:40.
