data_PCOD9041604
_publ_section_title
;
Structure prediction by ZEFSAII (Michael W. Deem and Ramdas Pophale) SiO2 
 PCOD9041604
Probable space group: P -1
;
_chemical_formula_sum "Si O2"
_cell_formula_units_Z 12
_cell_length_a 5.216342
_cell_length_b 9.078057
_cell_length_c 12.218094
_cell_angle_alpha 108.595596
_cell_angle_beta 79.788592
_cell_angle_gamma 113.405314
_cell_volume 502.398893
_symmetry_space_group_name_H-M "P -1"
_symmetry_group_IT_number 2
_symmetry_cell_setting 'triclinic'
loop_
_space_group_symop_operation_xyz
x,y,z
-x,-y,-z
loop_
_atom_site_type_symbol
_atom_site_label
_atom_site_fract_x
_atom_site_fract_y
_atom_site_fract_z
Si Si1 0.569062 0.155729 0.609723
Si Si2 0.924992 0.812408 0.800271
Si Si3 0.095969 0.259571 0.742583
Si Si4 0.570916 0.489849 0.618144
Si Si5 0.467042 0.982443 0.129431
Si Si6 0.690918 0.692070 0.031576
O O1 0.276499 0.145557 0.679538
O O2 0.675152 0.334522 0.583380
O O3 0.800492 0.174136 0.687374
O O4 0.500000 0.000000 0.500000
O O5 0.790446 0.658009 0.692001
O O6 0.833905 0.749054 0.917028
O O7 0.259899 0.889325 0.798767
O O8 0.785396 0.949589 0.816141
O O9 0.290896 0.428240 0.702633
O O10 0.500000 0.500000 0.500000
O O11 0.508588 0.805320 0.098677
O O12 0.899647 0.708427 0.121347
O O13 0.500000 0.000000 0.000000
O O14 0.500000 0.500000 0.000000
#
# Coordination Sequence:
#
# PCOD9041604 Si02
#       6
#     2   2   2   2   2   2
#     4  10  23  44  65  95 134 162 222 268 321 383
#     4  11  24  46  64  99 133 173 216 266 327 389
#     4  10  24  41  66 100 125 169 219 262 332 373
#     4  10  25  44  68  93 129 176 219 266 321 388
#     4  10  24  42  66  96 135 171 215 261 328 388
#     4  11  21  43  71  97 135 168 215 272 324 391
#
# _framework density 23.885404000000001
#
# number of rings (size 3 to 8) (size 9 to 14) (size 15 to 20)
#    1.000    0.667    1.667    2.500    2.333    7.333 
#    0.000    9.167    0.000    0.000    0.000    0.000 
#    0.000    0.000    0.000    0.000    0.000    0.000 
#
# Total GULP energy -67083.338180 kJ/mol
# GULP energy per Si atom -5590.278182 kJ/mol
# Density = 2.383104 g / cm^3
# Si number density = 23.885404 Si / 1000 Ang^3
#
#
#
# Elastic Constant Matrix: (Units=GPa)
#
#
# Indices 1 2 3 4 5 6 
#
# 1 160.9231 35.0436 52.5864 3.9149 40.3202 10.2800
# 2 35.0436 126.9742 59.9629 17.3701 22.4631 -7.4360
# 3 52.5864 59.9629 150.6414 14.5291 51.9476 -6.4960
# 4 3.9149 17.3701 14.5291 53.4409 3.3066 14.6777
# 5 40.3202 22.4631 51.9476 3.3066 41.8605 -6.9008
# 6 10.2800 -7.4360 -6.4960 14.6777 -6.9008 39.4903
#
#
#
# Elastic Compliance Matrix: (Units=1/GPa)
#
#
# Indices 1 2 3 4 5 6 
#
# 1 0.009003 -0.001485 0.000203 0.001640 -0.009044 -0.004780
# 2 -0.001485 0.010397 -0.003511 -0.003240 0.000982 0.003142
# 3 0.000203 -0.003511 0.013085 -0.001369 -0.014539 -0.000593
# 4 0.001640 -0.003240 -0.001369 0.022876 -0.001606 -0.010045
# 5 -0.009044 0.000982 -0.014539 -0.001606 0.051859 0.009807
# 6 -0.004780 0.003142 -0.000593 -0.010045 0.009807 0.032508
#
#
# Mechanical properties :
#
#
# Convention : Reuss Voigt Hill
#
# Bulk Modulus (GPa) = 43.66981 81.52495 62.59738
# Shear Modulus (GPa) = 31.85803 46.35475 39.10639
#
# Velocity S-wave (km/s) = 3.65607 4.41013 4.05068
# Velocity P-wave (km/s) = 6.01209 7.75488 6.93842
#
# Compressibility (1/GPa) = 0.02289912
#
# Stress axis : x y z
#
# Youngs Moduli (GPa) = 111.07887 96.18261 76.42254
#
# Poissons Ratio (x) = 0.14280 -0.01549
# Poissons Ratio (y) = 0.16492 0.26829
# Poissons Ratio (z) = -0.02251 0.33767
#
# Static dielectric constant tensor:
#      x y z
#    x 1.951760 0.089700 -0.025450 
#    y 0.089700 2.070870 -0.098360 
#    z -0.025450 -0.098360 1.906090 
# 
# From -- ./inp_files/479290.got.cif
#   From: 2010.05.17/outbox.cif.g08.bks.cpg/sg2_240_cif.got.tgz:479290.got - 2010.06.03 11:33:40.
