data_PCOD9041036
_publ_section_title
;
Structure prediction by ZEFSAII (Michael W. Deem and Ramdas Pophale) SiO2 
 PCOD9041036
Probable space group: P -1
;
_chemical_formula_sum "Si O2"
_cell_formula_units_Z 13
_cell_length_a 8.626914
_cell_length_b 8.857631
_cell_length_c 12.065307
_cell_angle_alpha 65.391709
_cell_angle_beta 95.329095
_cell_angle_gamma 50.157671
_cell_volume 551.599043
_symmetry_space_group_name_H-M "P -1"
_symmetry_group_IT_number 2
_symmetry_cell_setting 'triclinic'
loop_
_space_group_symop_operation_xyz
x,y,z
-x,-y,-z
loop_
_atom_site_type_symbol
_atom_site_label
_atom_site_fract_x
_atom_site_fract_y
_atom_site_fract_z
Si Si1 0.387558 0.193387 0.076276
Si Si2 0.063419 0.228618 0.749767
Si Si3 0.255800 0.309526 0.268875
Si Si4 0.516991 0.244182 0.850120
Si Si5 0.000000 0.000000 0.000000
Si Si6 0.825201 0.335154 0.479062
Si Si7 0.698251 0.075148 0.507623
O O1 0.240391 0.361512 0.122207
O O2 0.346204 0.038181 0.080396
O O3 0.375572 0.324193 0.930268
O O4 0.662422 0.972309 0.199798
O O5 0.972791 0.449285 0.753959
O O6 0.897616 0.357258 0.592677
O O7 0.040703 0.080860 0.865695
O O8 0.299051 0.079521 0.359223
O O9 0.473275 0.229357 0.366606
O O10 0.351853 0.420618 0.683400
O O11 0.714529 0.222914 0.888548
O O12 0.069201 0.124021 0.491900
O O13 0.714937 0.240303 0.515285
#
# Coordination Sequence:
#
# PCOD9041036 Si02
#       7
#     2   2   2   2   1   2   2
#     4  10  23  46  66 101 136 176 219 282 322 411
#     4  11  24  44  72  98 139 175 222 270 344 386
#     4  11  23  42  68 102 131 181 219 273 328 406
#     4  10  23  43  70  94 137 179 223 270 347 380
#     4  10  24  44  62 104 130 174 226 272 324 410
#     4  11  23  44  69 101 135 179 217 284 329 394
#     4  10  24  40  63 107 137 166 231 271 332 391
#
# _framework density 23.567841999999999
#
# number of rings (size 3 to 8) (size 9 to 14) (size 15 to 20)
#    0.000    1.538    1.538    1.846    6.462    2.462 
#    5.538   10.000    0.000    0.000    0.000    0.000 
#    0.000    0.000    0.000    0.000    0.000    0.000 
#
# Total GULP energy -72573.167489 kJ/mol
# GULP energy per Si atom -5582.551345 kJ/mol
# Density = 2.351420 g / cm^3
# Si number density = 23.567842 Si / 1000 Ang^3
#
#
#
# Elastic Constant Matrix: (Units=GPa)
#
#
# Indices 1 2 3 4 5 6 
#
# 1 81.9023 21.4125 34.4382 2.0303 9.2103 -2.4656
# 2 21.4125 78.5721 29.8078 24.0776 -1.7194 0.0883
# 3 34.4382 29.8078 154.4517 10.7534 24.0777 3.0629
# 4 2.0303 24.0776 10.7534 33.7993 -1.5293 1.3797
# 5 9.2103 -1.7194 24.0777 -1.5293 28.9652 -2.8538
# 6 -2.4656 0.0883 3.0629 1.3797 -2.8538 12.1164
#
#
#
# Elastic Compliance Matrix: (Units=1/GPa)
#
#
# Indices 1 2 3 4 5 6 
#
# 1 0.014499 -0.003866 -0.002313 0.002395 -0.002525 0.002696
# 2 -0.003866 0.018524 -0.002538 -0.012058 0.004002 0.002036
# 3 -0.002313 -0.002538 0.008749 -0.000987 -0.007157 -0.004237
# 4 0.002395 -0.012058 -0.000987 0.038529 0.001051 -0.003315
# 5 -0.002525 0.004002 -0.007157 0.001051 0.042673 0.011197
# 6 0.002696 0.002036 -0.004237 -0.003315 0.011197 0.087152
#
#
# Mechanical properties :
#
#
# Convention : Reuss Voigt Hill
#
# Bulk Modulus (GPa) = 41.08874 54.02700 47.55787
# Shear Modulus (GPa) = 21.21595 30.26069 25.73832
#
# Velocity S-wave (km/s) = 3.00360 3.58716 3.30827
# Velocity P-wave (km/s) = 5.43147 6.33488 5.90049
#
# Compressibility (1/GPa) = 0.02433757
#
# Stress axis : x y z
#
# Youngs Moduli (GPa) = 68.97156 53.98474 114.30406
#
# Poissons Ratio (x) = 0.20869 0.26443
# Poissons Ratio (y) = 0.26662 0.29008
# Poissons Ratio (z) = 0.15956 0.13700
#
# Static dielectric constant tensor:
#      x y z
#    x 1.895170 0.013070 0.005170 
#    y 0.013070 1.876820 -0.010420 
#    z 0.005170 -0.010420 1.865030 
# 
# From -- ./inp_files/165261.got.cif
#   From: 2010.05.17/outbox.cif.g08.bks.cpg/sg2_83_cif.got.tgz:165261.got - 2010.06.03 11:33:40.
