data_PCOD9041930
_publ_section_title
;
Structure prediction by ZEFSAII (Michael W. Deem and Ramdas Pophale) SiO2 
 PCOD9041930
Probable space group: P -1
;
_chemical_formula_sum "Si O2"
_cell_formula_units_Z 16
_cell_length_a 11.710962
_cell_length_b 8.325931
_cell_length_c 11.206828
_cell_angle_alpha 75.674282
_cell_angle_beta 49.363085
_cell_angle_gamma 53.543682
_cell_volume 649.275689
_symmetry_space_group_name_H-M "P -1"
_symmetry_group_IT_number 2
_symmetry_cell_setting 'triclinic'
loop_
_space_group_symop_operation_xyz
x,y,z
-x,-y,-z
loop_
_atom_site_type_symbol
_atom_site_label
_atom_site_fract_x
_atom_site_fract_y
_atom_site_fract_z
Si Si1 0.829963 0.702961 0.142917
Si Si2 0.488698 0.705504 0.474713
Si Si3 0.798916 0.990482 0.924755
Si Si4 0.361769 0.348733 0.380037
Si Si5 0.094329 0.721449 0.135967
Si Si6 0.026072 0.803442 0.580876
Si Si7 0.823107 0.866398 0.495151
Si Si8 0.440230 0.349845 0.051230
O O1 0.675839 0.678296 0.306133
O O2 0.931124 0.760651 0.156932
O O3 0.000000 0.500000 0.000000
O O4 0.744864 0.876476 0.068112
O O5 0.500000 0.500000 0.500000
O O6 0.472064 0.755119 0.618464
O O7 0.317988 0.892860 0.481679
O O8 0.840148 0.130509 0.948406
O O9 0.974046 0.839551 0.748401
O O10 0.625969 0.135537 0.926489
O O11 0.259261 0.242467 0.488794
O O12 0.402605 0.322362 0.217627
O O13 0.223489 0.589484 0.462317
O O14 0.263759 0.479744 0.061860
O O15 0.018139 0.770787 0.313945
O O16 0.872940 0.799657 0.610457
O O17 0.000000 0.000000 0.500000
O O18 0.500000 0.500000 0.000000
#
# Coordination Sequence:
#
# PCOD9041930 Si02
#       8
#     2   2   2   2   2   2   2   2
#     4  12  28  48  71 108 150 192 246 305 377 441
#     4  12  29  47  72 106 145 193 251 313 367 440
#     4  11  25  45  75 109 151 190 237 309 375 438
#     4  12  24  45  73 100 140 193 248 299 363 446
#     4  11  24  46  75 104 143 194 241 299 367 447
#     4  12  23  44  72 109 144 190 246 297 364 443
#     4  12  25  44  75 103 141 189 254 298 363 436
#     4  10  23  44  68 107 139 184 235 298 370 434
#
# _framework density 24.642845999999999
#
# number of rings (size 3 to 8) (size 9 to 14) (size 15 to 20)
#    0.000    0.500    3.750    4.125    3.500    3.000 
#    0.000    1.875    0.000    0.000    0.000    0.000 
#    0.000    0.000    0.000    0.000    0.000    0.000 
#
# Total GULP energy -89514.825814 kJ/mol
# GULP energy per Si atom -5594.676613 kJ/mol
# Density = 2.458676 g / cm^3
# Si number density = 24.642846 Si / 1000 Ang^3
#
#
#
# Elastic Constant Matrix: (Units=GPa)
#
#
# Indices 1 2 3 4 5 6 
#
# 1 81.5203 7.1819 -4.2172 -6.7655 -6.2459 -2.0000
# 2 7.1819 103.0203 19.7935 -2.8153 -16.6199 -3.9893
# 3 -4.2172 19.7935 72.4151 -9.5049 -12.4414 12.9048
# 4 -6.7655 -2.8153 -9.5049 45.7892 2.9019 -8.0373
# 5 -6.2459 -16.6199 -12.4414 2.9019 30.9620 0.3646
# 6 -2.0000 -3.9893 12.9048 -8.0373 0.3646 40.7944
#
#
#
# Elastic Compliance Matrix: (Units=1/GPa)
#
#
# Indices 1 2 3 4 5 6 
#
# 1 0.012797 -0.000696 0.001584 0.002088 0.002644 0.000446
# 2 -0.000696 0.011089 -0.002574 0.000066 0.004750 0.001835
# 3 0.001584 -0.002574 0.016760 0.002316 0.005515 -0.005069
# 4 0.002088 0.000066 0.002316 0.023387 -0.000852 0.003992
# 5 0.002644 0.004750 0.005515 -0.000852 0.037696 -0.001655
# 6 0.000446 0.001835 -0.005069 0.003992 -0.001655 0.027119
#
#
# Mechanical properties :
#
#
# Convention : Reuss Voigt Hill
#
# Bulk Modulus (GPa) = 26.82760 33.60802 30.21781
# Shear Modulus (GPa) = 34.56770 39.12228 36.84499
#
# Velocity S-wave (km/s) = 3.74939 3.98876 3.87092
# Velocity P-wave (km/s) = 5.44556 5.90603 5.68046
#
# Compressibility (1/GPa) = 0.03727505
#
# Stress axis : x y z
#
# Youngs Moduli (GPa) = 78.14414 90.17955 59.66655
#
# Poissons Ratio (x) = 0.06273 -0.09452
# Poissons Ratio (y) = 0.05436 0.15357
# Poissons Ratio (z) = -0.12379 0.23210
#
# Static dielectric constant tensor:
#      x y z
#    x 1.774300 -0.559090 1.079960 
#    y -0.559090 0.598140 2.692700 
#    z 1.079960 2.692700 -3.221280 
# 
# From -- ./inp_files/419283.got.cif
#   From: 2010.05.17/outbox.cif.g08.bks.cpg/sg2_210_cif.got.tgz:419283.got - 2010.06.03 11:33:40.
