data_PCOD9041268
_publ_section_title
;
Structure prediction by ZEFSAII (Michael W. Deem and Ramdas Pophale) SiO2 
 PCOD9041268
Probable space group: P -1
;
_chemical_formula_sum "Si O2"
_cell_formula_units_Z 13
_cell_length_a 10.298909
_cell_length_b 15.329079
_cell_length_c 5.486335
_cell_angle_alpha 59.657105
_cell_angle_beta 112.934015
_cell_angle_gamma 137.156373
_cell_volume 508.023439
_symmetry_space_group_name_H-M "P -1"
_symmetry_group_IT_number 2
_symmetry_cell_setting 'triclinic'
loop_
_space_group_symop_operation_xyz
x,y,z
-x,-y,-z
loop_
_atom_site_type_symbol
_atom_site_label
_atom_site_fract_x
_atom_site_fract_y
_atom_site_fract_z
Si Si1 0.854228 0.204669 0.278858
Si Si2 0.202295 0.425442 0.942341
Si Si3 0.085879 0.996013 0.313414
Si Si4 0.478548 0.406118 0.419560
Si Si5 0.500000 0.000000 0.000000
Si Si6 0.572989 0.831763 0.380291
Si Si7 0.827646 0.375692 0.379454
O O1 0.929438 0.133068 0.527354
O O2 0.633705 0.092484 0.203709
O O3 0.882341 0.309571 0.340658
O O4 0.983787 0.292595 0.012408
O O5 0.309220 0.502738 0.662137
O O6 0.231183 0.549856 0.916524
O O7 0.322201 0.384319 0.164228
O O8 0.308912 0.127047 0.343786
O O9 0.000000 0.000000 0.500000
O O10 0.000000 0.000000 0.000000
O O11 0.500000 0.500000 0.500000
O O12 0.412079 0.261819 0.631751
O O13 0.634906 0.963514 0.109064
O O14 0.354980 0.749164 0.419232
O O15 0.000000 0.500000 0.500000
#
# Coordination Sequence:
#
# PCOD9041268 Si02
#       7
#     2   2   2   2   1   2   2
#     4  11  25  44  75 109 152 203 257 319 388 466
#     4  10  23  44  66 108 142 187 248 306 386 449
#     4  11  27  53  78 112 154 209 265 324 383 464
#     4  10  23  43  72 105 147 192 242 315 391 451
#     4  10  24  44  70 100 154 198 256 306 382 446
#     4  10  24  45  71 112 147 200 261 317 384 465
#     4  11  25  43  71 106 149 196 250 317 394 466
#
# _framework density 25.589372999999998
#
# number of rings (size 3 to 8) (size 9 to 14) (size 15 to 20)
#    0.000    1.538    0.000    2.308    6.462    9.846 
#   13.846    0.000    0.000    0.000    0.000    0.000 
#    0.000    0.000    0.000    0.000    0.000    0.000 
#
# Total GULP energy -72378.101892 kJ/mol
# GULP energy per Si atom -5567.546299 kJ/mol
# Density = 2.553113 g / cm^3
# Si number density = 25.589373 Si / 1000 Ang^3
#
#
#
# Elastic Constant Matrix: (Units=GPa)
#
#
# Indices 1 2 3 4 5 6 
#
# 1 141.8936 69.1492 52.1033 8.2047 18.9596 -30.4646
# 2 69.1492 121.9247 36.2832 18.9176 7.7001 -36.7686
# 3 52.1033 36.2832 100.7854 10.2882 28.9902 -17.5657
# 4 8.2047 18.9176 10.2882 37.1553 -3.5166 19.9889
# 5 18.9596 7.7001 28.9902 -3.5166 41.3743 -14.4587
# 6 -30.4646 -36.7686 -17.5657 19.9889 -14.4587 72.8400
#
#
#
# Elastic Compliance Matrix: (Units=1/GPa)
#
#
# Indices 1 2 3 4 5 6 
#
# 1 0.011085 -0.004967 -0.003420 0.000403 -0.001405 0.000915
# 2 -0.004967 0.015692 -0.000983 -0.011339 0.002286 0.009172
# 3 -0.003420 -0.000983 0.015274 -0.004471 -0.008908 0.001216
# 4 0.000403 -0.011339 -0.004471 0.043849 0.002430 -0.018184
# 5 -0.001405 0.002286 -0.008908 0.002430 0.032290 0.004161
# 6 0.000915 0.009172 0.001216 -0.018184 0.004161 0.024850
#
#
# Mechanical properties :
#
#
# Convention : Reuss Voigt Hill
#
# Bulk Modulus (GPa) = 42.89713 75.51944 59.20828
# Shear Modulus (GPa) = 29.48969 44.07844 36.78407
#
# Velocity S-wave (km/s) = 3.39841 4.15484 3.79552
# Velocity P-wave (km/s) = 5.67442 7.25210 6.51122
#
# Compressibility (1/GPa) = 0.02331158
#
# Stress axis : x y z
#
# Youngs Moduli (GPa) = 90.21488 63.72575 65.46879
#
# Poissons Ratio (x) = 0.31652 0.22390
# Poissons Ratio (y) = 0.44809 0.06436
# Poissons Ratio (z) = 0.30853 0.06264
#
# Static dielectric constant tensor:
#      x y z
#    x 2.168780 -0.049490 0.058930 
#    y -0.049490 2.324820 -0.122830 
#    z 0.058930 -0.122830 2.285540 
# 
# From -- ./inp_files/72804.got.cif
#   From: 2010.05.17/outbox.cif.g08.bks.cpg/sg2_37_cif.got.tgz:72804.got - 2010.06.03 11:33:40.
