data_PCOD9041389
_publ_section_title
;
Structure prediction by ZEFSAII (Michael W. Deem and Ramdas Pophale) SiO2 
 PCOD9041389
Probable space group: P -1
;
_chemical_formula_sum "Si O2"
_cell_formula_units_Z 14
_cell_length_a 8.056443
_cell_length_b 10.922668
_cell_length_c 7.779263
_cell_angle_alpha 99.765690
_cell_angle_beta 64.253944
_cell_angle_gamma 123.954988
_cell_volume 509.008848
_symmetry_space_group_name_H-M "P -1"
_symmetry_group_IT_number 2
_symmetry_cell_setting 'triclinic'
loop_
_space_group_symop_operation_xyz
x,y,z
-x,-y,-z
loop_
_atom_site_type_symbol
_atom_site_label
_atom_site_fract_x
_atom_site_fract_y
_atom_site_fract_z
Si Si1 0.937774 0.085693 0.373896
Si Si2 0.134082 0.720013 0.824288
Si Si3 0.827199 0.548902 0.198751
Si Si4 0.221777 0.503165 0.431768
Si Si5 0.614950 0.810024 0.247492
Si Si6 0.434870 0.000702 0.225922
Si Si7 0.624762 0.669697 0.848296
O O1 0.900799 0.192651 0.290062
O O2 0.802869 0.059763 0.601998
O O3 0.199270 0.181900 0.298485
O O4 0.832149 0.930935 0.281305
O O5 0.079173 0.552506 0.810653
O O6 0.393328 0.828861 0.762922
O O7 0.990616 0.697182 0.054206
O O8 0.785954 0.585689 0.416594
O O9 0.612002 0.436975 0.157808
O O10 0.430067 0.668881 0.402464
O O11 0.280769 0.436415 0.229169
O O12 0.000000 0.500000 0.500000
O O13 0.507138 0.900827 0.264498
O O14 0.637186 0.738225 0.045667
O O15 0.500000 0.000000 0.000000
#
# Coordination Sequence:
#
# PCOD9041389 Si02
#       7
#     2   2   2   2   2   2   2
#     4  11  25  49  75 105 151 200 247 303 373 443
#     4  10  23  43  74 102 150 193 244 298 366 442
#     4  11  25  44  71 114 149 189 246 312 365 435
#     4  12  27  47  77 106 150 201 246 306 377 450
#     4  11  25  46  72 107 148 197 251 301 370 444
#     4  11  23  44  75 107 142 197 255 300 367 444
#     4  12  27  46  73 112 149 194 250 308 375 437
#
# _framework density 27.504435000000001
#
# number of rings (size 3 to 8) (size 9 to 14) (size 15 to 20)
#    0.000    0.857    0.000    7.286   12.000    0.000 
#    0.000    5.000    0.000    0.000    0.000    0.000 
#    0.000    0.000    0.000    0.000    0.000    0.000 
#
# Total GULP energy -78333.069103 kJ/mol
# GULP energy per Si atom -5595.219222 kJ/mol
# Density = 2.744183 g / cm^3
# Si number density = 27.504435 Si / 1000 Ang^3
#
#
#
# Elastic Constant Matrix: (Units=GPa)
#
#
# Indices 1 2 3 4 5 6 
#
# 1 111.7583 35.2670 45.9898 -11.5646 -1.4265 1.7699
# 2 35.2670 155.2840 69.0114 -11.2057 -8.2239 12.8373
# 3 45.9898 69.0114 205.4316 -18.7716 9.2157 16.3974
# 4 -11.5646 -11.2057 -18.7716 72.6394 -2.3099 -5.0332
# 5 -1.4265 -8.2239 9.2157 -2.3099 38.9701 -9.8399
# 6 1.7699 12.8373 16.3974 -5.0332 -9.8399 59.7258
#
#
#
# Elastic Compliance Matrix: (Units=1/GPa)
#
#
# Indices 1 2 3 4 5 6 
#
# 1 0.010256 -0.001478 -0.001796 0.001013 0.000728 0.000712
# 2 -0.001478 0.008020 -0.002365 0.000410 0.002056 -0.000657
# 3 -0.001796 -0.002365 0.006368 0.000813 -0.002405 -0.001514
# 4 0.001013 0.000410 0.000813 0.014306 0.001041 0.001036
# 5 0.000728 0.002056 -0.002405 0.001041 0.027988 0.004895
# 6 0.000712 -0.000657 -0.001514 0.001036 0.004895 0.018173
#
#
# Mechanical properties :
#
#
# Convention : Reuss Voigt Hill
#
# Bulk Modulus (GPa) = 74.83044 85.89004 80.36024
# Shear Modulus (GPa) = 49.58089 55.74744 52.66416
#
# Velocity S-wave (km/s) = 4.25037 4.50694 4.38053
# Velocity P-wave (km/s) = 7.16612 7.64061 7.40716
#
# Compressibility (1/GPa) = 0.01336355
#
# Stress axis : x y z
#
# Youngs Moduli (GPa) = 97.49939 124.69452 157.04351
#
# Poissons Ratio (x) = 0.18432 0.28213
# Poissons Ratio (y) = 0.14412 0.37147
# Poissons Ratio (z) = 0.17516 0.29495
#
# Static dielectric constant tensor:
#      x y z
#    x 2.229950 0.019340 0.006560 
#    y 0.019340 2.149310 0.114270 
#    z 0.006560 0.114270 2.566790 
# 
# From -- ./inp_files/188339.got.cif
#   From: 2010.05.17/outbox.cif.g08.bks.cpg/sg2_95_cif.got.tgz:188339.got - 2010.06.03 11:33:40.
