data_PCOD9041086
_publ_section_title
;
Structure prediction by ZEFSAII (Michael W. Deem and Ramdas Pophale) SiO2 
 PCOD9041086
Probable space group: P -1
;
_chemical_formula_sum "Si O2"
_cell_formula_units_Z 16
_cell_length_a 22.433413
_cell_length_b 6.613797
_cell_length_c 16.015286
_cell_angle_alpha 100.643947
_cell_angle_beta 158.558920
_cell_angle_gamma 67.721009
_cell_volume 697.379635
_symmetry_space_group_name_H-M "P -1"
_symmetry_group_IT_number 2
_symmetry_cell_setting 'triclinic'
loop_
_space_group_symop_operation_xyz
x,y,z
-x,-y,-z
loop_
_atom_site_type_symbol
_atom_site_label
_atom_site_fract_x
_atom_site_fract_y
_atom_site_fract_z
Si Si1 0.661813 0.233756 0.443153
Si Si2 0.332045 0.534904 0.162456
Si Si3 0.145682 0.411281 0.580590
Si Si4 0.454313 0.522902 0.039696
Si Si5 0.906972 0.666898 0.671308
Si Si6 0.979221 0.329407 0.895643
Si Si7 0.603406 0.139369 0.628924
Si Si8 0.153762 0.077107 0.703799
O O1 0.444880 0.385136 0.214658
O O2 0.793221 0.313506 0.665436
O O3 0.775645 0.934747 0.566928
O O4 0.632639 0.327262 0.316901
O O5 0.459373 0.349546 0.390538
O O6 0.359455 0.758008 0.230742
O O7 0.105578 0.630097 0.889053
O O8 0.293541 0.453895 0.826964
O O9 0.203737 0.340741 0.555073
O O10 0.148673 0.193338 0.616327
O O11 0.932419 0.684563 0.329234
O O12 0.360894 0.808950 0.968935
O O13 0.500000 0.500000 0.000000
O O14 0.964397 0.447840 0.794517
O O15 0.000000 0.500000 0.000000
O O16 0.178780 0.050483 0.140026
O O17 0.500000 0.000000 0.500000
O O18 0.000000 0.000000 0.500000
#
# Coordination Sequence:
#
# PCOD9041086 Si02
#       8
#     2   2   2   2   2   2   2   2
#     4  12  28  45  69 107 140 179 233 286 341 410
#     4  11  26  43  72 101 138 179 230 285 345 405
#     4  10  23  43  70  98 136 182 226 277 343 403
#     4  11  24  45  68  99 141 180 225 283 344 406
#     4  12  26  46  70 103 142 182 230 286 342 406
#     4  12  26  46  72 101 141 182 229 285 346 413
#     4  11  22  46  70  98 135 181 226 282 347 408
#     4   9  21  41  67  96 131 178 226 278 332 399
#
# _framework density 22.943028000000002
#
# number of rings (size 3 to 8) (size 9 to 14) (size 15 to 20)
#    0.000    1.000    2.500    3.000    7.000    6.000 
#    2.250    0.000    0.000    0.000    0.000    0.000 
#    0.000    0.000    0.000    0.000    0.000    0.000 
#
# Total GULP energy -89493.031468 kJ/mol
# GULP energy per Si atom -5593.314467 kJ/mol
# Density = 2.289081 g / cm^3
# Si number density = 22.943028 Si / 1000 Ang^3
#
#
#
# Elastic Constant Matrix: (Units=GPa)
#
#
# Indices 1 2 3 4 5 6 
#
# 1 51.0063 0.7390 -9.0250 16.7470 5.5895 -5.0020
# 2 0.7390 86.6174 23.3643 6.7025 0.3232 -3.5403
# 3 -9.0250 23.3643 65.2082 4.2763 9.2780 -5.4185
# 4 16.7470 6.7025 4.2763 30.3614 -3.3349 2.3939
# 5 5.5895 0.3232 9.2780 -3.3349 35.9177 -2.2442
# 6 -5.0020 -3.5403 -5.4185 2.3939 -2.2442 40.8294
#
#
#
# Elastic Compliance Matrix: (Units=1/GPa)
#
#
# Indices 1 2 3 4 5 6 
#
# 1 0.027737 -0.000446 0.006578 -0.017313 -0.007316 0.004845
# 2 -0.000446 0.012980 -0.004683 -0.001896 0.001025 0.000617
# 3 0.006578 -0.004683 0.019498 -0.006282 -0.006414 0.003003
# 4 -0.017313 -0.001896 -0.006282 0.045108 0.008190 -0.005314
# 5 -0.007316 0.001025 -0.006414 0.008190 0.031362 -0.000415
# 6 0.004845 0.000617 0.003003 -0.005314 -0.000415 0.025827
#
#
# Mechanical properties :
#
#
# Convention : Reuss Voigt Hill
#
# Bulk Modulus (GPa) = 15.84460 25.88761 20.86610
# Shear Modulus (GPa) = 27.67767 33.93862 30.80814
#
# Velocity S-wave (km/s) = 3.47704 3.85028 3.66841
# Velocity P-wave (km/s) = 4.80009 5.57442 5.20168
#
# Compressibility (1/GPa) = 0.06311297
#
# Stress axis : x y z
#
# Youngs Moduli (GPa) = 36.05284 77.04129 51.28804
#
# Poissons Ratio (x) = 0.03435 -0.33735
# Poissons Ratio (y) = 0.01607 0.24017
# Poissons Ratio (z) = -0.23714 0.36076
#
# Static dielectric constant tensor:
#      x y z
#    x 1.846580 0.002760 0.032080 
#    y 0.002760 1.813310 0.025170 
#    z 0.032080 0.025170 1.892810 
# 
# From -- ./inp_files/578751.got.cif
#   From: 2010.05.17/outbox.cif.g08.bks.cpg/sg2_290_cif.got.tgz:578751.got - 2010.06.03 11:33:40.
