data_PCOD9041477
_publ_section_title
;
Structure prediction by ZEFSAII (Michael W. Deem and Ramdas Pophale) SiO2 
 PCOD9041477
Probable space group: P -1
;
_chemical_formula_sum "Si O2"
_cell_formula_units_Z 14
_cell_length_a 14.555741
_cell_length_b 5.086345
_cell_length_c 22.735562
_cell_angle_alpha 99.145277
_cell_angle_beta 160.728749
_cell_angle_gamma 84.679941
_cell_volume 539.924939
_symmetry_space_group_name_H-M "P -1"
_symmetry_group_IT_number 2
_symmetry_cell_setting 'triclinic'
loop_
_space_group_symop_operation_xyz
x,y,z
-x,-y,-z
loop_
_atom_site_type_symbol
_atom_site_label
_atom_site_fract_x
_atom_site_fract_y
_atom_site_fract_z
Si Si1 0.743213 0.425352 0.703693
Si Si2 0.145518 0.280850 0.339863
Si Si3 0.067796 0.232276 0.500202
Si Si4 0.434239 0.013248 0.197844
Si Si5 0.736688 0.785156 0.015640
Si Si6 0.163094 0.262364 0.117562
Si Si7 0.709874 0.237764 0.170471
O O1 0.458478 0.215507 0.539343
O O2 0.780440 0.506209 0.660693
O O3 0.715230 0.660244 0.740143
O O4 0.056197 0.363939 0.901783
O O5 0.944722 0.378116 0.271401
O O6 0.950618 0.016340 0.186364
O O7 0.395736 0.214825 0.690634
O O8 0.000000 0.500000 0.500000
O O9 0.902190 0.156005 0.336766
O O10 0.000000 0.000000 0.500000
O O11 0.480008 0.275381 0.276075
O O12 0.118306 0.957176 0.032252
O O13 0.428783 0.073956 0.128458
O O14 0.516106 0.623601 0.923324
O O15 0.000000 0.500000 0.000000
O O16 0.500000 0.000000 0.000000
#
# Coordination Sequence:
#
# PCOD9041477 Si02
#       7
#     2   2   2   2   2   2   2
#     4  11  22  39  72 100 142 194 243 316 369 439
#     4  10  23  44  61 105 144 189 251 304 374 450
#     4  12  27  49  78 109 153 202 255 317 384 463
#     4   9  21  42  67 100 143 178 247 303 379 442
#     4  11  21  42  71 100 142 189 247 306 378 448
#     4   8  20  39  65  96 136 180 234 303 363 442
#     4  10  25  48  70 107 148 200 246 315 383 465
#
# _framework density 25.929531000000001
#
# number of rings (size 3 to 8) (size 9 to 14) (size 15 to 20)
#    0.857    0.857    2.857    0.429    2.000    4.571 
#   15.429    0.000    0.000    0.000    0.000    0.000 
#    0.000    0.000    0.000    0.000    0.000    0.000 
#
# Total GULP energy -77946.062143 kJ/mol
# GULP energy per Si atom -5567.575867 kJ/mol
# Density = 2.587051 g / cm^3
# Si number density = 25.929531 Si / 1000 Ang^3
#
#
#
# Elastic Constant Matrix: (Units=GPa)
#
#
# Indices 1 2 3 4 5 6 
#
# 1 200.0832 50.2049 123.7885 -14.9639 36.2707 -1.4171
# 2 50.2049 92.6130 43.1687 -25.6624 6.4238 -0.9988
# 3 123.7885 43.1687 330.3829 -90.1221 33.6745 0.1574
# 4 -14.9639 -25.6624 -90.1221 71.4287 -12.3371 0.5091
# 5 36.2707 6.4238 33.6745 -12.3371 59.6921 -3.7286
# 6 -1.4171 -0.9988 0.1574 0.5091 -3.7286 35.4309
#
#
#
# Elastic Compliance Matrix: (Units=1/GPa)
#
#
# Indices 1 2 3 4 5 6 
#
# 1 0.008576 -0.004051 -0.003638 -0.004894 -0.003739 -0.000078
# 2 -0.004051 0.013988 0.001134 0.005873 0.001549 0.000306
# 3 -0.003638 0.001134 0.006314 0.007628 0.000088 -0.000242
# 4 -0.004894 0.005873 0.007628 0.025273 0.003256 -0.000085
# 5 -0.003739 0.001549 0.000088 0.003256 0.019601 0.001910
# 6 -0.000078 0.000306 -0.000242 -0.000085 0.001910 0.028433
#
#
# Mechanical properties :
#
#
# Convention : Reuss Voigt Hill
#
# Bulk Modulus (GPa) = 63.41653 117.48926 90.45290
# Shear Modulus (GPa) = 41.47646 60.37148 50.92397
#
# Velocity S-wave (km/s) = 4.00382 4.83047 4.43644
# Velocity P-wave (km/s) = 6.77381 8.74761 7.82320
#
# Compressibility (1/GPa) = 0.01576876
#
# Stress axis : x y z
#
# Youngs Moduli (GPa) = 116.59792 71.48809 158.38716
#
# Poissons Ratio (x) = 0.28961 0.57621
# Poissons Ratio (y) = 0.47235 -0.17965
# Poissons Ratio (z) = 0.42418 -0.08108
#
# Static dielectric constant tensor:
#      x y z
#    x 1.995130 -0.000160 -0.008430 
#    y -0.000160 2.164350 0.017120 
#    z -0.008430 0.017120 2.221370 
# 
# From -- ./inp_files/611183.got.cif
#   From: 2010.05.17/outbox.cif.g08.bks.cpg/sg2_306_cif.got.tgz:611183.got - 2010.06.03 11:33:40.
