data_PCOD9041868
_publ_section_title
;
Structure prediction by ZEFSAII (Michael W. Deem and Ramdas Pophale) SiO2 
 PCOD9041868
Probable space group: P -1
;
_chemical_formula_sum "Si O2"
_cell_formula_units_Z 16
_cell_length_a 22.850931
_cell_length_b 8.753700
_cell_length_c 9.728842
_cell_angle_alpha 94.600530
_cell_angle_beta 129.796351
_cell_angle_gamma 128.157367
_cell_volume 724.884682
_symmetry_space_group_name_H-M "P -1"
_symmetry_group_IT_number 2
_symmetry_cell_setting 'triclinic'
loop_
_space_group_symop_operation_xyz
x,y,z
-x,-y,-z
loop_
_atom_site_type_symbol
_atom_site_label
_atom_site_fract_x
_atom_site_fract_y
_atom_site_fract_z
Si Si1 0.154268 0.849903 0.695433
Si Si2 0.641601 0.941587 0.780681
Si Si3 0.139245 0.667729 0.390087
Si Si4 0.143111 0.309634 0.335066
Si Si5 0.320908 0.660157 0.154306
Si Si6 0.142011 0.182464 0.634148
Si Si7 0.690392 0.554738 0.627348
Si Si8 0.783555 0.059304 0.755497
O O1 0.209425 0.839808 0.652873
O O2 0.000000 0.500000 0.500000
O O3 0.135874 0.989132 0.625474
O O4 0.278102 0.056234 0.018835
O O5 0.737916 0.270737 0.954627
O O6 0.649593 0.905228 0.632349
O O7 0.479407 0.692782 0.592121
O O8 0.140900 0.488982 0.357502
O O9 0.223754 0.900167 0.408606
O O10 0.958170 0.408635 0.096772
O O11 0.136643 0.226567 0.471572
O O12 0.295337 0.520821 0.493751
O O13 0.000000 0.000000 0.000000
O O14 0.242322 0.428663 0.144433
O O15 0.500000 0.000000 0.500000
O O16 0.294853 0.518488 0.967000
O O17 0.000000 0.000000 0.500000
O O18 0.774843 0.862400 0.746030
#
# Coordination Sequence:
#
# PCOD9041868 Si02
#       8
#     2   2   2   2   2   2   2   2
#     4  12  24  43  66 100 140 178 230 291 344 412
#     4  11  23  42  68  97 137 180 226 282 349 412
#     4  11  24  40  66  98 135 178 226 286 344 401
#     4  12  24  43  68 100 141 180 235 290 344 413
#     4  10  23  44  67  99 139 183 231 279 346 418
#     4  12  26  42  71 104 137 180 238 292 348 413
#     4  11  23  43  68 101 136 184 231 281 344 418
#     4  11  22  39  64  97 134 173 230 277 342 404
#
# _framework density 22.072474
#
# number of rings (size 3 to 8) (size 9 to 14) (size 15 to 20)
#    0.000    0.750    2.500    5.625    1.750    1.000 
#    0.000   10.625    0.000    0.000    0.000    0.000 
#    0.000    0.000    0.000    0.000    0.000    0.000 
#
# Total GULP energy -89430.393658 kJ/mol
# GULP energy per Si atom -5589.399604 kJ/mol
# Density = 2.202224 g / cm^3
# Si number density = 22.072474 Si / 1000 Ang^3
#
#
#
# Elastic Constant Matrix: (Units=GPa)
#
#
# Indices 1 2 3 4 5 6 
#
# 1 144.6688 61.0561 23.5002 3.4505 -9.6379 17.7563
# 2 61.0561 186.1883 33.2551 -21.6338 -18.2752 5.5617
# 3 23.5002 33.2551 62.5512 -5.2309 -11.5997 15.9478
# 4 3.4505 -21.6338 -5.2309 26.2215 4.5699 -14.8294
# 5 -9.6379 -18.2752 -11.5997 4.5699 40.8416 4.7932
# 6 17.7563 5.5617 15.9478 -14.8294 4.7932 47.9316
#
#
#
# Elastic Compliance Matrix: (Units=1/GPa)
#
#
# Indices 1 2 3 4 5 6 
#
# 1 0.009502 -0.003559 -0.000543 -0.007776 0.002015 -0.005533
# 2 -0.003559 0.008034 -0.003177 0.008712 0.000397 0.004099
# 3 -0.000543 -0.003177 0.020678 -0.004018 0.005726 -0.008126
# 4 -0.007776 0.008712 -0.004018 0.059756 -0.008409 0.022535
# 5 0.002015 0.000397 0.005726 -0.008409 0.028663 -0.008166
# 6 -0.005533 0.004099 -0.008126 0.022535 -0.008166 0.032929
#
#
# Mechanical properties :
#
#
# Convention : Reuss Voigt Hill
#
# Bulk Modulus (GPa) = 42.27589 69.89234 56.08411
# Shear Modulus (GPa) = 27.47144 41.37205 34.42174
#
# Velocity S-wave (km/s) = 3.53172 4.33410 3.95332
# Velocity P-wave (km/s) = 5.98544 7.53522 6.80460
#
# Compressibility (1/GPa) = 0.02365415
#
# Stress axis : x y z
#
# Youngs Moduli (GPa) = 105.24618 124.46555 48.36119
#
# Poissons Ratio (x) = 0.44300 0.02628
# Poissons Ratio (y) = 0.37459 0.15365
# Poissons Ratio (z) = 0.05719 0.39545
#
# Static dielectric constant tensor:
#      x y z
#    x 1.809320 -0.001090 0.051080 
#    y -0.001090 1.809850 0.036560 
#    z 0.051080 0.036560 1.889260 
# 
# From -- ./inp_files/343672.got.cif
#   From: 2010.05.17/outbox.cif.g08.bks.cpg/sg2_172_cif.got.tgz:343672.got - 2010.06.03 11:33:40.
