data_PCOD9041269
_publ_section_title
;
Structure prediction by ZEFSAII (Michael W. Deem and Ramdas Pophale) SiO2 
 PCOD9041269
Probable space group: P -1
;
_chemical_formula_sum "Si O2"
_cell_formula_units_Z 14
_cell_length_a 11.393748
_cell_length_b 9.066786
_cell_length_c 16.630044
_cell_angle_alpha 114.871316
_cell_angle_beta 30.865735
_cell_angle_gamma 135.311021
_cell_volume 527.269882
_symmetry_space_group_name_H-M "P -1"
_symmetry_group_IT_number 2
_symmetry_cell_setting 'triclinic'
loop_
_space_group_symop_operation_xyz
x,y,z
-x,-y,-z
loop_
_atom_site_type_symbol
_atom_site_label
_atom_site_fract_x
_atom_site_fract_y
_atom_site_fract_z
Si Si1 0.277850 0.924858 0.842265
Si Si2 0.772288 0.988335 0.930481
Si Si3 0.579992 0.857270 0.442598
Si Si4 0.380786 0.592715 0.861895
Si Si5 0.336299 0.601751 0.365511
Si Si6 0.141011 0.848006 0.248024
Si Si7 0.478088 0.260919 0.365595
O O1 0.600294 0.971341 0.665734
O O2 0.359560 0.118982 0.783453
O O3 0.963127 0.637012 0.939031
O O4 0.168542 0.931069 0.994523
O O5 0.936243 0.190888 0.810979
O O6 0.003731 0.952570 0.768603
O O7 0.355616 0.797848 0.127510
O O8 0.373509 0.644383 0.448450
O O9 0.462346 0.735222 0.572289
O O10 0.500000 0.000000 0.500000
O O11 0.611927 0.555224 0.726457
O O12 0.571168 0.854059 0.841025
O O13 0.318051 0.582398 0.800566
O O14 0.000000 0.500000 0.500000
O O15 0.823197 0.764103 0.460252
#
# Coordination Sequence:
#
# PCOD9041269 Si02
#       7
#     2   2   2   2   2   2   2
#     4  12  24  47  69 105 150 194 240 299 369 438
#     4  10  23  43  72 105 152 188 238 297 371 423
#     4  11  24  48  74 104 151 195 242 299 369 438
#     4  12  25  43  75 112 144 194 248 299 370 432
#     4  12  28  47  72 106 145 198 248 300 370 436
#     4  10  23  45  72 112 149 185 242 306 358 435
#     4  11  24  44  81 105 146 193 246 300 362 432
#
# _framework density 26.551869
#
# number of rings (size 3 to 8) (size 9 to 14) (size 15 to 20)
#    0.000    0.857    4.286    2.143    4.000    0.571 
#    2.571    0.714    0.000    0.000    0.000    0.000 
#    0.000    0.000    0.000    0.000    0.000    0.000 
#
# Total GULP energy -78177.157366 kJ/mol
# GULP energy per Si atom -5584.082669 kJ/mol
# Density = 2.649144 g / cm^3
# Si number density = 26.551869 Si / 1000 Ang^3
#
#
#
# Elastic Constant Matrix: (Units=GPa)
#
#
# Indices 1 2 3 4 5 6 
#
# 1 128.2812 58.1043 62.6042 6.8826 -5.2627 -16.9937
# 2 58.1043 89.5472 39.9945 19.4205 5.4175 -19.4696
# 3 62.6042 39.9945 175.5254 36.4584 7.4272 -19.2135
# 4 6.8826 19.4205 36.4584 57.1889 -15.9208 -5.2303
# 5 -5.2627 5.4175 7.4272 -15.9208 55.5151 19.9558
# 6 -16.9937 -19.4696 -19.2135 -5.2303 19.9558 47.1104
#
#
#
# Elastic Compliance Matrix: (Units=1/GPa)
#
#
# Indices 1 2 3 4 5 6 
#
# 1 0.013532 -0.008721 -0.004377 0.005322 0.004973 -0.002024
# 2 -0.008721 0.020345 0.001517 -0.008411 -0.008500 0.008548
# 3 -0.004377 0.001517 0.009002 -0.006798 -0.005218 0.004175
# 4 0.005322 -0.008411 -0.006798 0.026859 0.012293 -0.006554
# 5 0.004973 -0.008500 -0.005218 0.012293 0.028818 -0.014689
# 6 -0.002024 0.008548 0.004175 -0.006554 -0.014689 0.031227
#
#
# Mechanical properties :
#
#
# Convention : Reuss Voigt Hill
#
# Bulk Modulus (GPa) = 50.71373 79.41774 65.06573
# Shear Modulus (GPa) = 31.34477 47.47294 39.40886
#
# Velocity S-wave (km/s) = 3.43958 4.23298 3.85674
# Velocity P-wave (km/s) = 5.90895 7.33936 6.66265
#
# Compressibility (1/GPa) = 0.01971853
#
# Stress axis : x y z
#
# Youngs Moduli (GPa) = 73.90065 49.15172 111.08078
#
# Poissons Ratio (x) = 0.42863 0.48617
# Poissons Ratio (y) = 0.64446 -0.16851
# Poissons Ratio (z) = 0.32344 -0.07456
#
# Static dielectric constant tensor:
#      x y z
#    x 2.134340 0.054610 -0.129770 
#    y 0.054610 2.114230 -0.072080 
#    z -0.129770 -0.072080 2.254340 
# 
# From -- ./inp_files/461927.got.cif
#   From: 2010.05.17/outbox.cif.g08.bks.cpg/sg2_231_cif.got.tgz:461927.got - 2010.06.03 11:33:40.
