data_PCOD9041729
_publ_section_title
;
Structure prediction by ZEFSAII (Michael W. Deem and Ramdas Pophale) SiO2 
 PCOD9041729
Probable space group: P -1
;
_chemical_formula_sum "Si O2"
_cell_formula_units_Z 16
_cell_length_a 14.300484
_cell_length_b 14.560739
_cell_length_c 5.403408
_cell_angle_alpha 113.693537
_cell_angle_beta 108.286180
_cell_angle_gamma 39.912842
_cell_volume 661.025986
_symmetry_space_group_name_H-M "P -1"
_symmetry_group_IT_number 2
_symmetry_cell_setting 'triclinic'
loop_
_space_group_symop_operation_xyz
x,y,z
-x,-y,-z
loop_
_atom_site_type_symbol
_atom_site_label
_atom_site_fract_x
_atom_site_fract_y
_atom_site_fract_z
Si Si1 0.042754 0.560594 0.767352
Si Si2 0.657192 0.764140 0.302329
Si Si3 0.378192 0.879092 0.991251
Si Si4 0.267514 0.176352 0.055395
Si Si5 0.720001 0.329098 0.648356
Si Si6 0.472353 0.382422 0.544928
Si Si7 0.810316 0.375887 0.180408
Si Si8 0.844939 0.126372 0.133865
O O1 0.203700 0.412096 0.837764
O O2 0.062730 0.641647 0.690976
O O3 0.000000 0.500000 0.500000
O O4 0.907536 0.679568 0.963447
O O5 0.502499 0.824223 0.222618
O O6 0.684452 0.795559 0.627663
O O7 0.657576 0.841857 0.154674
O O8 0.301067 0.035735 0.990852
O O9 0.461252 0.757961 0.707795
O O10 0.262602 0.886218 0.016825
O O11 0.602131 0.352475 0.731879
O O12 0.611164 0.483497 0.575259
O O13 0.821952 0.164163 0.447109
O O14 0.823661 0.332192 0.861898
O O15 0.343917 0.457282 0.709173
O O16 0.804544 0.271449 0.185331
O O17 0.000000 0.000000 0.000000
#
# Coordination Sequence:
#
# PCOD9041729 Si02
#       8
#     2   2   2   2   2   2   2   2
#     4  10  24  44  72 102 139 190 246 294 367 432
#     4  11  25  47  75 105 146 188 252 302 364 428
#     4  11  23  43  71 107 141 189 242 293 369 431
#     4  11  25  50  69 109 146 193 240 310 364 433
#     4   9  19  38  59  97 127 175 228 279 342 423
#     4   9  20  36  62  92 136 170 223 286 349 417
#     4  11  21  40  67  94 136 178 233 288 353 422
#     4  10  23  44  66  98 146 183 229 289 361 433
#
# _framework density 24.204796999999999
#
# number of rings (size 3 to 8) (size 9 to 14) (size 15 to 20)
#    0.000    1.750    0.000    3.750    3.500    1.500 
#   20.250    0.000    0.000    0.000    0.000    0.000 
#    0.000    0.000    0.000    0.000    0.000    0.000 
#
# Total GULP energy -89195.991862 kJ/mol
# GULP energy per Si atom -5574.749491 kJ/mol
# Density = 2.414971 g / cm^3
# Si number density = 24.204797 Si / 1000 Ang^3
#
#
#
# Elastic Constant Matrix: (Units=GPa)
#
#
# Indices 1 2 3 4 5 6 
#
# 1 176.5316 25.4163 36.6185 5.9946 16.6769 -14.2022
# 2 25.4163 78.2484 12.8764 22.4987 6.7579 0.4273
# 3 36.6185 12.8764 67.8870 17.4218 10.4279 -10.3896
# 4 5.9946 22.4987 17.4218 34.6478 2.0089 -10.4826
# 5 16.6769 6.7579 10.4279 2.0089 30.9073 4.6783
# 6 -14.2022 0.4273 -10.3896 -10.4826 4.6783 38.2651
#
#
#
# Elastic Compliance Matrix: (Units=1/GPa)
#
#
# Indices 1 2 3 4 5 6 
#
# 1 0.007091 -0.002410 -0.003257 0.003035 -0.002844 0.002953
# 2 -0.002410 0.017082 0.000771 -0.012219 -0.001285 -0.004066
# 3 -0.003257 0.000771 0.019712 -0.008874 -0.004832 0.002294
# 4 0.003035 -0.012219 -0.008874 0.044088 -0.000501 0.010992
# 5 -0.002844 -0.001285 -0.004832 -0.000501 0.036893 -0.007001
# 6 0.002953 -0.004066 0.002294 0.010992 -0.007001 0.031765
#
#
# Mechanical properties :
#
#
# Convention : Reuss Voigt Hill
#
# Bulk Modulus (GPa) = 29.33316 52.49885 40.91601
# Shear Modulus (GPa) = 28.12328 37.28108 32.70218
#
# Velocity S-wave (km/s) = 3.41235 3.92884 3.67967
# Velocity P-wave (km/s) = 5.26028 6.50520 5.91558
#
# Compressibility (1/GPa) = 0.03409111
#
# Stress axis : x y z
#
# Youngs Moduli (GPa) = 141.03076 58.54030 50.73050
#
# Poissons Ratio (x) = 0.14109 0.16525
# Poissons Ratio (y) = 0.33990 -0.03910
# Poissons Ratio (z) = 0.45941 -0.04512
#
# Static dielectric constant tensor:
#      x y z
#    x 2.021820 0.057780 -0.160660 
#    y 0.057780 1.991000 -0.147480 
#    z -0.160660 -0.147480 2.601560 
# 
# From -- ./inp_files/98606.got.cif
#   From: 2010.05.17/outbox.cif.g08.bks.cpg/sg2_50_cif.got.tgz:98606.got - 2010.06.03 11:33:40.
