data_PCOD9041749
_publ_section_title
;
Structure prediction by ZEFSAII (Michael W. Deem and Ramdas Pophale) SiO2 
 PCOD9041749
Probable space group: P -1
;
_chemical_formula_sum "Si O2"
_cell_formula_units_Z 14
_cell_length_a 16.000451
_cell_length_b 7.586528
_cell_length_c 6.660646
_cell_angle_alpha 102.284460
_cell_angle_beta 107.512730
_cell_angle_gamma 123.676785
_cell_volume 563.474372
_symmetry_space_group_name_H-M "P -1"
_symmetry_group_IT_number 2
_symmetry_cell_setting 'triclinic'
loop_
_space_group_symop_operation_xyz
x,y,z
-x,-y,-z
loop_
_atom_site_type_symbol
_atom_site_label
_atom_site_fract_x
_atom_site_fract_y
_atom_site_fract_z
Si Si1 0.274180 0.420893 0.512736
Si Si2 0.136634 0.577163 0.285251
Si Si3 0.327643 0.932754 0.211188
Si Si4 0.578526 0.246565 0.978589
Si Si5 0.782839 0.038510 0.239447
Si Si6 0.419997 0.329296 0.693289
Si Si7 0.912835 0.047837 0.974744
O O1 0.221552 0.521577 0.383892
O O2 0.296005 0.539296 0.775932
O O3 0.404398 0.505273 0.618569
O O4 0.188822 0.145406 0.302798
O O5 0.202327 0.747977 0.183681
O O6 0.141622 0.719879 0.513051
O O7 0.994023 0.664532 0.913718
O O8 0.399423 0.164736 0.456505
O O9 0.391474 0.829946 0.212251
O O10 0.299282 0.969375 0.980087
O O11 0.517791 0.353140 0.897876
O O12 0.500000 0.000000 0.000000
O O13 0.855931 0.001593 0.142768
O O14 0.693369 0.829968 0.281243
O O15 0.000000 0.000000 0.000000
#
# Coordination Sequence:
#
# PCOD9041749 Si02
#       7
#     2   2   2   2   2   2   2
#     4  11  23  43  65 100 137 169 224 276 331 396
#     4  10  23  44  69  98 133 182 226 268 329 400
#     4  11  22  44  71  97 134 176 228 275 320 405
#     4  12  23  45  70  99 132 180 227 270 337 401
#     4  11  21  45  70  98 136 178 226 272 322 406
#     4  11  24  42  68 101 137 174 222 279 335 388
#     4  10  23  44  67 100 138 175 221 277 338 389
#
# _framework density 24.845848
#
# number of rings (size 3 to 8) (size 9 to 14) (size 15 to 20)
#    0.000    1.143    4.286    2.143    0.000    2.857 
#    2.571    5.714    0.000    0.000    0.000    0.000 
#    0.000    0.000    0.000    0.000    0.000    0.000 
#
# Total GULP energy -78056.174478 kJ/mol
# GULP energy per Si atom -5575.441034 kJ/mol
# Density = 2.478930 g / cm^3
# Si number density = 24.845848 Si / 1000 Ang^3
#
#
#
# Elastic Constant Matrix: (Units=GPa)
#
#
# Indices 1 2 3 4 5 6 
#
# 1 162.9085 32.7508 36.7457 -16.7129 -6.1848 -18.0496
# 2 32.7508 72.4698 52.1741 8.6921 -5.6504 -11.8610
# 3 36.7457 52.1741 132.1848 13.3351 7.2175 7.0153
# 4 -16.7129 8.6921 13.3351 32.7946 -5.7443 3.0113
# 5 -6.1848 -5.6504 7.2175 -5.7443 42.0477 -8.0925
# 6 -18.0496 -11.8610 7.0153 3.0113 -8.0925 42.8937
#
#
#
# Elastic Compliance Matrix: (Units=1/GPa)
#
#
# Indices 1 2 3 4 5 6 
#
# 1 0.008149 -0.001809 -0.002477 0.005820 0.002842 0.003462
# 2 -0.001809 0.023456 -0.009195 -0.003190 0.005669 0.008522
# 3 -0.002477 -0.009195 0.012992 -0.004511 -0.005691 -0.006467
# 4 0.005820 -0.003190 -0.004511 0.037186 0.006458 0.000913
# 5 0.002842 0.005669 -0.005691 0.006458 0.028479 0.008614
# 6 0.003462 0.008522 -0.006467 0.000913 0.008614 0.029745
#
#
# Mechanical properties :
#
#
# Convention : Reuss Voigt Hill
#
# Bulk Modulus (GPa) = 56.70881 67.87826 62.29353
# Shear Modulus (GPa) = 28.92683 39.94004 34.43344
#
# Velocity S-wave (km/s) = 3.41582 4.01373 3.72678
# Velocity P-wave (km/s) = 6.19926 6.98993 6.60644
#
# Compressibility (1/GPa) = 0.01763395
#
# Stress axis : x y z
#
# Youngs Moduli (GPa) = 122.70731 42.63331 76.96847
#
# Poissons Ratio (x) = 0.07713 0.19068
# Poissons Ratio (y) = 0.22201 0.70774
# Poissons Ratio (z) = 0.30399 0.39202
#
# Static dielectric constant tensor:
#      x y z
#    x 1.995850 -0.069880 0.018980 
#    y -0.069880 2.077530 -0.001940 
#    z 0.018980 -0.001940 1.973370 
# 
# From -- ./inp_files/105489.got.cif
#   From: 2010.05.17/outbox.cif.g08.bks.cpg/sg2_53_cif.got.tgz:105489.got - 2010.06.03 11:33:40.
