data_PCOD9041546
_publ_section_title
;
Structure prediction by ZEFSAII (Michael W. Deem and Ramdas Pophale) SiO2 
 PCOD9041546
Probable space group: P -1
;
_chemical_formula_sum "Si O2"
_cell_formula_units_Z 12
_cell_length_a 7.060722
_cell_length_b 5.090951
_cell_length_c 15.645454
_cell_angle_alpha 112.940076
_cell_angle_beta 87.109871
_cell_angle_gamma 71.251535
_cell_volume 480.372473
_symmetry_space_group_name_H-M "P -1"
_symmetry_group_IT_number 2
_symmetry_cell_setting 'triclinic'
loop_
_space_group_symop_operation_xyz
x,y,z
-x,-y,-z
loop_
_atom_site_type_symbol
_atom_site_label
_atom_site_fract_x
_atom_site_fract_y
_atom_site_fract_z
Si Si1 0.394416 0.765049 0.289116
Si Si2 0.890306 0.361410 0.051458
Si Si3 0.934981 0.068018 0.381303
Si Si4 0.467175 0.743463 0.909444
Si Si5 0.317829 0.297587 0.576512
Si Si6 0.268990 0.067520 0.783724
O O1 0.373846 0.532260 0.186091
O O2 0.557678 0.600495 0.339015
O O3 0.514693 0.962816 0.267544
O O4 0.178201 0.956645 0.361396
O O5 0.655665 0.411563 0.049114
O O6 0.865973 0.565517 0.162143
O O7 0.000000 0.500000 0.000000
O O8 0.000000 0.000000 0.000000
O O9 0.796501 0.422868 0.450031
O O10 0.850299 0.833369 0.400648
O O11 0.873072 0.057836 0.282825
O O12 0.319429 0.932210 0.859754
O O13 0.500000 0.000000 0.000000
O O14 0.500000 0.000000 0.500000
#
# Coordination Sequence:
#
# PCOD9041546 Si02
#       6
#     2   2   2   2   2   2
#     4  10  25  44  68 103 143 181 234 290 344 423
#     4  11  23  40  62  91 127 178 235 287 342 403
#     4  11  25  43  75 101 139 189 221 282 361 414
#     4  11  24  43  66  98 140 188 237 299 341 406
#     4  11  25  47  73 107 141 175 229 290 348 428
#     4  10  23  44  64  94 141 179 234 289 344 406
#
# _framework density 24.980613999999999
#
# number of rings (size 3 to 8) (size 9 to 14) (size 15 to 20)
#    0.000    1.333    3.333    0.500    4.667    5.333 
#    0.000    0.000    0.000    0.000    0.000    0.000 
#    0.000    0.000    0.000    0.000    0.000    0.000 
#
# Total GULP energy -66945.099653 kJ/mol
# GULP energy per Si atom -5578.758304 kJ/mol
# Density = 2.492376 g / cm^3
# Si number density = 24.980614 Si / 1000 Ang^3
#
#
#
# Elastic Constant Matrix: (Units=GPa)
#
#
# Indices 1 2 3 4 5 6 
#
# 1 107.6210 30.0881 25.4388 -1.6531 -22.8551 -0.1368
# 2 30.0881 95.8478 -4.9113 13.5788 -3.2186 -0.2439
# 3 25.4388 -4.9113 69.3156 19.9844 -1.5647 -1.5978
# 4 -1.6531 13.5788 19.9844 39.2579 -4.1164 -3.9347
# 5 -22.8551 -3.2186 -1.5647 -4.1164 42.6338 5.0798
# 6 -0.1368 -0.2439 -1.5978 -3.9347 5.0798 34.7754
#
#
#
# Elastic Compliance Matrix: (Units=1/GPa)
#
#
# Indices 1 2 3 4 5 6 
#
# 1 0.014454 -0.005689 -0.007626 0.007212 0.007814 -0.000659
# 2 -0.005689 0.013518 0.005255 -0.007880 -0.002573 -0.000202
# 3 -0.007626 0.005255 0.021385 -0.013459 -0.004216 0.000082
# 4 0.007212 -0.007880 -0.013459 0.036238 0.005968 0.002583
# 5 0.007814 -0.002573 -0.004216 0.005968 0.028306 -0.003640
# 6 -0.000659 -0.000202 0.000082 0.002583 -0.003640 0.029580
#
#
# Mechanical properties :
#
#
# Convention : Reuss Voigt Hill
#
# Bulk Modulus (GPa) = 30.08708 41.55728 35.82218
# Shear Modulus (GPa) = 29.29468 38.14467 33.71967
#
# Velocity S-wave (km/s) = 3.42818 3.91189 3.67799
# Velocity P-wave (km/s) = 5.26690 6.08899 5.69280
#
# Compressibility (1/GPa) = 0.03323686
#
# Stress axis : x y z
#
# Youngs Moduli (GPa) = 69.18315 73.97604 46.76221
#
# Poissons Ratio (x) = 0.42086 0.35660
# Poissons Ratio (y) = 0.39360 -0.24573
# Poissons Ratio (z) = 0.52758 -0.38874
#
# Static dielectric constant tensor:
#      x y z
#    x 1.970820 0.016970 0.037620 
#    y 0.016970 2.110310 0.096600 
#    z 0.037620 0.096600 2.143800 
# 
# From -- ./inp_files/9150.got.cif
#   From: 2010.05.17/outbox.cif.g08.bks.cpg/sg2_5_cif.got.tgz:9150.got - 2010.06.03 11:33:40.
