data_PCOD9041740
_publ_section_title
;
Structure prediction by ZEFSAII (Michael W. Deem and Ramdas Pophale) SiO2 
 PCOD9041740
Probable space group: P -1
;
_chemical_formula_sum "Si O2"
_cell_formula_units_Z 12
_cell_length_a 24.697005
_cell_length_b 10.645402
_cell_length_c 5.075332
_cell_angle_alpha 87.920401
_cell_angle_beta 101.212859
_cell_angle_gamma 156.146947
_cell_volume 494.451337
_symmetry_space_group_name_H-M "P -1"
_symmetry_group_IT_number 2
_symmetry_cell_setting 'triclinic'
loop_
_space_group_symop_operation_xyz
x,y,z
-x,-y,-z
loop_
_atom_site_type_symbol
_atom_site_label
_atom_site_fract_x
_atom_site_fract_y
_atom_site_fract_z
Si Si1 0.526483 0.143865 0.763729
Si Si2 0.256092 0.718249 0.414392
Si Si3 0.836540 0.096350 0.366883
Si Si4 0.328729 0.142294 0.275933
Si Si5 0.831652 0.722342 0.933377
Si Si6 0.030050 0.893094 0.476938
O O1 0.695309 0.528329 0.854113
O O2 0.500000 0.000000 0.500000
O O3 0.412648 0.016571 0.669986
O O4 0.500000 0.000000 0.000000
O O5 0.220388 0.519610 0.219780
O O6 0.130885 0.470900 0.534195
O O7 0.272789 0.879971 0.253141
O O8 0.873078 0.026700 0.390603
O O9 0.000000 0.500000 0.500000
O O10 0.756590 0.962347 0.571111
O O11 0.729230 0.921199 0.048366
O O12 0.500000 0.500000 0.500000
O O13 0.944156 0.017809 0.808988
O O14 0.897355 0.851627 0.276423
#
# Coordination Sequence:
#
# PCOD9041740 Si02
#       6
#     2   2   2   2   2   2
#     4  10  23  44  66  99 142 188 233 291 363 433
#     4  11  26  46  75 106 151 189 251 305 378 441
#     4  12  27  52  77 108 152 200 256 308 381 432
#     4  12  29  51  78 111 148 201 256 316 366 451
#     4  11  25  46  71 111 142 195 237 306 374 441
#     4  12  26  44  76 106 150 188 247 305 366 452
#
# _framework density 24.269324999999998
#
# number of rings (size 3 to 8) (size 9 to 14) (size 15 to 20)
#    0.000    0.667    1.667    5.000    7.000    6.667 
#    0.000    0.000    0.000    0.000    0.000    0.000 
#    0.000    0.000    0.000    0.000    0.000    0.000 
#
# Total GULP energy -67184.701516 kJ/mol
# GULP energy per Si atom -5598.725126 kJ/mol
# Density = 2.421409 g / cm^3
# Si number density = 24.269325 Si / 1000 Ang^3
#
#
#
# Elastic Constant Matrix: (Units=GPa)
#
#
# Indices 1 2 3 4 5 6 
#
# 1 110.9035 34.4878 31.4349 -3.0464 14.0183 16.7141
# 2 34.4878 100.2336 2.3895 20.8553 -0.7664 22.8616
# 3 31.4349 2.3895 138.9804 7.3416 -1.9997 0.5623
# 4 -3.0464 20.8553 7.3416 41.5105 5.0096 10.9112
# 5 14.0183 -0.7664 -1.9997 5.0096 49.7234 0.9578
# 6 16.7141 22.8616 0.5623 10.9112 0.9578 50.7507
#
#
#
# Elastic Compliance Matrix: (Units=1/GPa)
#
#
# Indices 1 2 3 4 5 6 
#
# 1 0.012425 -0.004603 -0.003046 0.005050 -0.004148 -0.002993
# 2 -0.004603 0.013719 0.001215 -0.006871 0.002313 -0.003244
# 3 -0.003046 0.001215 0.008021 -0.002668 0.001451 0.000913
# 4 0.005050 -0.006871 -0.002668 0.030241 -0.004588 -0.004953
# 5 -0.004148 0.002313 0.001451 -0.004588 0.021820 0.000883
# 6 -0.002993 -0.003244 0.000913 -0.004953 0.000883 0.023189
#
#
# Mechanical properties :
#
#
# Convention : Reuss Voigt Hill
#
# Bulk Modulus (GPa) = 46.95264 54.08243 50.51754
# Shear Modulus (GPa) = 38.64542 47.18395 42.91468
#
# Velocity S-wave (km/s) = 3.99476 4.41407 4.20964
# Velocity P-wave (km/s) = 6.37699 6.95064 6.66998
#
# Compressibility (1/GPa) = 0.02129806
#
# Stress axis : x y z
#
# Youngs Moduli (GPa) = 80.48070 72.89367 124.66750
#
# Poissons Ratio (x) = 0.33550 0.37969
# Poissons Ratio (y) = 0.37042 -0.15141
# Poissons Ratio (z) = 0.24511 -0.08853
#
# Static dielectric constant tensor:
#      x y z
#    x 1.910130 0.000820 0.056090 
#    y 0.000820 1.954430 0.050260 
#    z 0.056090 0.050260 1.895320 
# 
# From -- ./inp_files/126838.got.cif
#   From: 2010.05.17/outbox.cif.g08.bks.cpg/sg2_64_cif.got.tgz:126838.got - 2010.06.03 11:33:40.
