data_PCOD9041718
_publ_section_title
;
Structure prediction by ZEFSAII (Michael W. Deem and Ramdas Pophale) SiO2 
 PCOD9041718
Probable space group: P -1
;
_chemical_formula_sum "Si O2"
_cell_formula_units_Z 12
_cell_length_a 19.551639
_cell_length_b 11.481806
_cell_length_c 11.372383
_cell_angle_alpha 39.060185
_cell_angle_beta 21.169676
_cell_angle_gamma 37.388062
_cell_volume 552.409366
_symmetry_space_group_name_H-M "P -1"
_symmetry_group_IT_number 2
_symmetry_cell_setting 'triclinic'
loop_
_space_group_symop_operation_xyz
x,y,z
-x,-y,-z
loop_
_atom_site_type_symbol
_atom_site_label
_atom_site_fract_x
_atom_site_fract_y
_atom_site_fract_z
Si Si1 0.112970 0.199555 0.724152
Si Si2 0.788827 0.981953 0.814077
Si Si3 0.324741 0.363070 0.641672
Si Si4 0.798319 0.222121 0.397402
Si Si5 0.432686 0.309213 0.248862
Si Si6 0.704831 0.241956 0.282187
O O1 0.253870 0.325773 0.431133
O O2 0.239250 0.991991 0.633978
O O3 0.011644 0.155130 0.042843
O O4 0.914518 0.287779 0.895549
O O5 0.756246 0.059563 0.672207
O O6 0.614787 0.126794 0.057811
O O7 0.000000 0.000000 0.500000
O O8 0.781015 0.765495 0.014045
O O9 0.213334 0.591783 0.649877
O O10 0.355812 0.285656 0.520546
O O11 0.538782 0.331523 0.383621
O O12 0.651526 0.287977 0.468840
O O13 0.500000 0.500000 0.000000
#
# Coordination Sequence:
#
# PCOD9041718 Si02
#       6
#     2   2   2   2   2   2
#     4   9  21  43  68  92 136 176 213 273 326 387
#     4  12  27  40  66 102 130 174 220 272 332 391
#     4  12  24  43  71  96 136 173 221 273 329 397
#     4  10  23  44  66  98 137 165 225 270 328 386
#     4  12  25  44  66  97 134 176 218 273 335 385
#     4   9  21  42  71  94 131 183 213 268 335 385
#
# _framework density 21.723020999999999
#
# number of rings (size 3 to 8) (size 9 to 14) (size 15 to 20)
#    1.000    0.333    3.333    2.000    4.667    2.000 
#    0.000    0.833    0.000    0.000    0.000    0.000 
#    0.000    0.000    0.000    0.000    0.000    0.000 
#
# Total GULP energy -66981.121384 kJ/mol
# GULP energy per Si atom -5581.760115 kJ/mol
# Density = 2.167358 g / cm^3
# Si number density = 21.723021 Si / 1000 Ang^3
#
#
#
# Elastic Constant Matrix: (Units=GPa)
#
#
# Indices 1 2 3 4 5 6 
#
# 1 58.2607 9.8999 13.2476 1.1155 -30.0943 8.8600
# 2 9.8999 22.7351 22.0107 -6.9541 -4.9846 1.4163
# 3 13.2476 22.0107 69.1224 -19.4961 -20.6835 5.8496
# 4 1.1155 -6.9541 -19.4961 34.0078 9.6078 6.7592
# 5 -30.0943 -4.9846 -20.6835 9.6078 47.8228 -3.7752
# 6 8.8600 1.4163 5.8496 6.7592 -3.7752 25.7341
#
#
#
# Elastic Compliance Matrix: (Units=1/GPa)
#
#
# Indices 1 2 3 4 5 6 
#
# 1 0.029772 -0.013202 0.003031 -0.006312 0.019489 -0.005696
# 2 -0.013202 0.069809 -0.021970 0.004739 -0.011265 0.002800
# 3 0.003031 -0.021970 0.026856 0.009785 0.008696 -0.007234
# 4 -0.006312 0.004739 0.009785 0.041033 -0.008463 -0.012331
# 5 0.019489 -0.011265 0.008696 -0.008463 0.037434 -0.000352
# 6 -0.005696 0.002800 -0.007234 -0.012331 -0.000352 0.045497
#
#
# Mechanical properties :
#
#
# Convention : Reuss Voigt Hill
#
# Bulk Modulus (GPa) = 16.08867 26.71496 21.40181
# Shear Modulus (GPa) = 14.90746 28.51027 21.70886
#
# Velocity S-wave (km/s) = 2.62248 3.62670 3.16468
# Velocity P-wave (km/s) = 4.07336 5.46461 4.81945
#
# Compressibility (1/GPa) = 0.06215556
#
# Stress axis : x y z
#
# Youngs Moduli (GPa) = 33.58835 14.32476 37.23506
#
# Poissons Ratio (x) = 0.18912 -0.11287
# Poissons Ratio (y) = 0.44343 0.81807
# Poissons Ratio (z) = -0.10181 0.31472
#
# Static dielectric constant tensor:
#      x y z
#    x 1.817400 -0.007140 -0.016620 
#    y -0.007140 1.769480 0.019140 
#    z -0.016620 0.019140 1.807740 
# 
# From -- ./inp_files/204482.got.cif
#   From: 2010.05.17/outbox.cif.g08.bks.cpg/sg2_103_cif.got.tgz:204482.got - 2010.06.03 11:33:40.
