data_PCOD9041345
_publ_section_title
;
Structure prediction by ZEFSAII (Michael W. Deem and Ramdas Pophale) SiO2 
 PCOD9041345
Probable space group: P -1
;
_chemical_formula_sum "Si O2"
_cell_formula_units_Z 14
_cell_length_a 14.948383
_cell_length_b 7.993107
_cell_length_c 9.291006
_cell_angle_alpha 62.864328
_cell_angle_beta 125.753170
_cell_angle_gamma 74.642025
_cell_volume 543.016688
_symmetry_space_group_name_H-M "P -1"
_symmetry_group_IT_number 2
_symmetry_cell_setting 'triclinic'
loop_
_space_group_symop_operation_xyz
x,y,z
-x,-y,-z
loop_
_atom_site_type_symbol
_atom_site_label
_atom_site_fract_x
_atom_site_fract_y
_atom_site_fract_z
Si Si1 0.745532 0.421523 0.115345
Si Si2 0.401868 0.969316 0.620915
Si Si3 0.134344 0.323850 0.817269
Si Si4 0.397580 0.418395 0.783062
Si Si5 0.242623 0.556206 0.290117
Si Si6 0.918718 0.783399 0.885343
Si Si7 0.667519 0.234762 0.910596
O O1 0.843609 0.491023 0.181478
O O2 0.564681 0.723517 0.781882
O O3 0.906109 0.754401 0.053945
O O4 0.795351 0.187510 0.152633
O O5 0.285327 0.610185 0.738932
O O6 0.325872 0.268571 0.412253
O O7 0.262220 0.996174 0.436288
O O8 0.000000 0.500000 0.500000
O O9 0.467370 0.871271 0.885873
O O10 0.286981 0.029703 0.998840
O O11 0.278866 0.492393 0.518885
O O12 0.514850 0.405496 0.806099
O O13 0.328247 0.631253 0.274065
O O14 0.049267 0.785975 0.988771
O O15 0.000000 0.500000 0.000000
#
# Coordination Sequence:
#
# PCOD9041345 Si02
#       7
#     2   2   2   2   2   2   2
#     4  10  24  47  72 102 145 192 236 293 360 424
#     4   9  22  41  76 101 144 195 238 286 363 429
#     4  12  28  47  73 108 145 189 243 301 365 433
#     4  10  23  43  73 106 142 195 240 291 358 433
#     4  11  22  43  71 107 146 186 242 304 356 419
#     4  10  23  44  71 102 143 193 237 292 360 429
#     4  12  27  45  71 113 141 187 246 303 355 434
#
# _framework density 25.7819
#
# number of rings (size 3 to 8) (size 9 to 14) (size 15 to 20)
#    0.857    0.571    0.000    4.714    6.000    5.714 
#    2.571    0.000    0.000    0.000    0.000    0.000 
#    0.000    0.000    0.000    0.000    0.000    0.000 
#
# Total GULP energy -78185.591636 kJ/mol
# GULP energy per Si atom -5584.685117 kJ/mol
# Density = 2.572322 g / cm^3
# Si number density = 25.781900 Si / 1000 Ang^3
#
#
#
# Elastic Constant Matrix: (Units=GPa)
#
#
# Indices 1 2 3 4 5 6 
#
# 1 123.6487 16.1656 25.0462 9.7569 -11.1025 -7.5466
# 2 16.1656 75.6124 6.7663 7.8487 -8.4035 -8.5226
# 3 25.0462 6.7663 100.6441 17.2914 3.4335 7.4223
# 4 9.7569 7.8487 17.2914 39.1416 4.3807 0.8749
# 5 -11.1025 -8.4035 3.4335 4.3807 31.8538 15.4633
# 6 -7.5466 -8.5226 7.4223 0.8749 15.4633 46.2149
#
#
#
# Elastic Compliance Matrix: (Units=1/GPa)
#
#
# Indices 1 2 3 4 5 6 
#
# 1 0.009085 -0.001205 -0.002078 -0.001451 0.002966 0.000630
# 2 -0.001205 0.014317 -0.000405 -0.002765 0.003030 0.001547
# 3 -0.002078 -0.000405 0.011389 -0.004332 -0.000494 -0.001996
# 4 -0.001451 -0.002765 -0.004332 0.028948 -0.005323 0.001182
# 5 0.002966 0.003030 -0.000494 -0.005323 0.039899 -0.012127
# 6 0.000630 0.001547 -0.001996 0.001182 -0.012127 0.026382
#
#
# Mechanical properties :
#
#
# Convention : Reuss Voigt Hill
#
# Bulk Modulus (GPa) = 36.47687 43.98458 40.23072
# Shear Modulus (GPa) = 34.12156 40.23718 37.17937
#
# Velocity S-wave (km/s) = 3.64190 3.95482 3.80158
# Velocity P-wave (km/s) = 5.64478 6.16048 5.90826
#
# Compressibility (1/GPa) = 0.02741463
#
# Stress axis : x y z
#
# Youngs Moduli (GPa) = 110.06828 69.84498 87.80595
#
# Poissons Ratio (x) = 0.08417 0.18249
# Poissons Ratio (y) = 0.13264 0.03556
# Poissons Ratio (z) = 0.22876 0.02829
#
# Static dielectric constant tensor:
#      x y z
#    x 3.541730 -1.518730 -4.767410 
#    y -1.518730 3.582190 4.687710 
#    z -4.767410 4.687710 16.846170 
# 
# From -- ./inp_files/444068.got.cif
#   From: 2010.05.17/outbox.cif.g08.bks.cpg/sg2_223_cif.got.tgz:444068.got - 2010.06.03 11:33:40.
