data_PCOD9041321
_publ_section_title
;
Structure prediction by ZEFSAII (Michael W. Deem and Ramdas Pophale) SiO2 
 PCOD9041321
Probable space group: P -1
;
_chemical_formula_sum "Si O2"
_cell_formula_units_Z 16
_cell_length_a 20.597292
_cell_length_b 5.465769
_cell_length_c 7.294246
_cell_angle_alpha 117.169175
_cell_angle_beta 62.567123
_cell_angle_gamma 113.526326
_cell_volume 629.617552
_symmetry_space_group_name_H-M "P -1"
_symmetry_group_IT_number 2
_symmetry_cell_setting 'triclinic'
loop_
_space_group_symop_operation_xyz
x,y,z
-x,-y,-z
loop_
_atom_site_type_symbol
_atom_site_label
_atom_site_fract_x
_atom_site_fract_y
_atom_site_fract_z
Si Si1 0.965808 0.072975 0.781800
Si Si2 0.225105 0.727523 0.496943
Si Si3 0.557387 0.800334 0.365293
Si Si4 0.456425 0.236844 0.193838
Si Si5 0.811826 0.853724 0.720486
Si Si6 0.712387 0.749064 0.152735
Si Si7 0.057378 0.675673 0.715253
Si Si8 0.317730 0.856667 0.090576
O O1 0.018856 0.357539 0.723824
O O2 0.897881 0.976990 0.695404
O O3 0.933333 0.157714 0.045762
O O4 0.006174 0.824964 0.705052
O O5 0.208404 0.404715 0.487338
O O6 0.139631 0.708763 0.530239
O O7 0.300592 0.751706 0.287617
O O8 0.245876 0.018548 0.680062
O O9 0.515553 0.535569 0.206518
O O10 0.564365 0.756492 0.560662
O O11 0.644144 0.883797 0.217192
O O12 0.500000 0.000000 0.500000
O O13 0.382111 0.141484 0.135459
O O14 0.500000 0.000000 0.000000
O O15 0.761552 0.074773 0.829061
O O16 0.776363 0.724881 0.916519
O O17 0.672066 0.417464 0.129634
#
# Coordination Sequence:
#
# PCOD9041321 Si02
#       8
#     2   2   2   2   2   2   2   2
#     4  10  23  44  70 106 141 190 243 292 363 430
#     4  11  25  45  67 101 138 183 232 287 351 423
#     4  11  26  42  70  99 134 181 229 283 349 423
#     4  11  24  45  65 100 136 177 229 283 348 417
#     4  11  27  42  70 102 134 183 233 286 354 423
#     4  11  24  46  65  98 140 178 228 288 350 420
#     4  10  23  43  73 101 144 191 238 299 359 430
#     4  11  26  44  68  99 140 178 231 291 349 423
#
# _framework density 25.412253
#
# number of rings (size 3 to 8) (size 9 to 14) (size 15 to 20)
#    0.000    1.250    3.750    0.000    8.750    3.500 
#    0.000    0.000    0.000    0.000    0.000    0.000 
#    0.000    0.000    0.000    0.000    0.000    0.000 
#
# Total GULP energy -89256.187293 kJ/mol
# GULP energy per Si atom -5578.511706 kJ/mol
# Density = 2.535441 g / cm^3
# Si number density = 25.412253 Si / 1000 Ang^3
#
#
#
# Elastic Constant Matrix: (Units=GPa)
#
#
# Indices 1 2 3 4 5 6 
#
# 1 137.3310 58.1832 19.6792 17.0269 -14.9422 16.4225
# 2 58.1832 99.4054 26.2174 26.8422 0.3519 17.2992
# 3 19.6792 26.2174 114.5410 24.6972 -3.8089 8.9007
# 4 17.0269 26.8422 24.6972 52.5340 -0.2693 -3.2071
# 5 -14.9422 0.3519 -3.8089 -0.2693 48.8973 4.1892
# 6 16.4225 17.2992 8.9007 -3.2071 4.1892 42.1523
#
#
#
# Elastic Compliance Matrix: (Units=1/GPa)
#
#
# Indices 1 2 3 4 5 6 
#
# 1 0.010318 -0.005491 -0.000110 -0.000599 0.003362 -0.002123
# 2 -0.005491 0.016022 -0.001091 -0.006178 -0.001525 -0.004525
# 3 -0.000110 -0.001091 0.010113 -0.004282 0.000915 -0.002062
# 4 -0.000599 -0.006178 -0.004282 0.024739 -0.000819 0.005637
# 5 0.003362 -0.001525 0.000915 -0.000819 0.021823 -0.003109
# 6 -0.002123 -0.004525 -0.002062 0.005637 -0.003109 0.027581
#
#
# Mechanical properties :
#
#
# Convention : Reuss Voigt Hill
#
# Bulk Modulus (GPa) = 43.34643 62.15969 52.75306
# Shear Modulus (GPa) = 37.97398 45.19655 41.58527
#
# Velocity S-wave (km/s) = 3.86983 4.22184 4.04966
# Velocity P-wave (km/s) = 6.08784 6.94830 6.53225
#
# Compressibility (1/GPa) = 0.02306995
#
# Stress axis : x y z
#
# Youngs Moduli (GPa) = 96.92074 62.41263 98.88152
#
# Poissons Ratio (x) = 0.34269 0.01087
# Poissons Ratio (y) = 0.53216 0.10788
# Poissons Ratio (z) = 0.01065 0.06809
#
# Static dielectric constant tensor:
#      x y z
#    x 2.008250 -0.076190 0.026610 
#    y -0.076190 2.267050 -0.099530 
#    z 0.026610 -0.099530 2.073410 
# 
# From -- ./inp_files/340748.got.cif
#   From: 2010.05.17/outbox.cif.g08.bks.cpg/sg2_171_cif.got.tgz:340748.got - 2010.06.03 11:33:40.
