data_PCOD9041265
_publ_section_title
;
Structure prediction by ZEFSAII (Michael W. Deem and Ramdas Pophale) SiO2 
 PCOD9041265
Probable space group: P -1
;
_chemical_formula_sum "Si O2"
_cell_formula_units_Z 11
_cell_length_a 7.682314
_cell_length_b 5.153028
_cell_length_c 14.359036
_cell_angle_alpha 124.233322
_cell_angle_beta 87.887900
_cell_angle_gamma 67.681381
_cell_volume 410.769892
_symmetry_space_group_name_H-M "P -1"
_symmetry_group_IT_number 2
_symmetry_cell_setting 'triclinic'
loop_
_space_group_symop_operation_xyz
x,y,z
-x,-y,-z
loop_
_atom_site_type_symbol
_atom_site_label
_atom_site_fract_x
_atom_site_fract_y
_atom_site_fract_z
Si Si1 0.500000 0.500000 0.500000
Si Si2 0.518638 0.792964 0.254915
Si Si3 0.076679 0.820087 0.662619
Si Si4 0.905288 0.091650 0.121335
Si Si5 0.527662 0.079586 0.120881
Si Si6 0.769431 0.965357 0.546831
O O1 0.301426 0.746069 0.627777
O O2 0.357774 0.729066 0.460486
O O3 0.751865 0.522900 0.210247
O O4 0.442668 0.504164 0.215846
O O5 0.462062 0.935973 0.180972
O O6 0.398927 0.087454 0.396824
O O7 0.986310 0.992713 0.799170
O O8 0.107090 0.417643 0.581285
O O9 0.927965 0.001149 0.616381
O O10 0.764229 0.911990 0.093754
O O11 0.000000 0.000000 0.000000
O O12 0.500000 0.000000 0.000000
#
# Coordination Sequence:
#
# PCOD9041265 Si02
#       6
#     1   2   2   2   2   2
#     4  12  22  46  72 106 144 190 254 310 378 444
#     4  10  24  44  73 107 144 201 245 315 377 444
#     4  11  26  45  72 111 146 199 250 316 379 457
#     4  10  25  44  70 108 150 197 252 311 375 454
#     4  10  23  43  72 105 143 203 249 302 378 442
#     4  11  26  44  76 107 152 194 256 310 390 448
#
# _framework density 26.778981999999999
#
# number of rings (size 3 to 8) (size 9 to 14) (size 15 to 20)
#    1.091    0.364    1.818    1.636    7.636    0.727 
#    0.000    0.000    0.000    0.000    0.000    0.000 
#    0.000    0.000    0.000    0.000    0.000    0.000 
#
# Total GULP energy -61352.871951 kJ/mol
# GULP energy per Si atom -5577.533814 kJ/mol
# Density = 2.671803 g / cm^3
# Si number density = 26.778982 Si / 1000 Ang^3
#
#
#
# Elastic Constant Matrix: (Units=GPa)
#
#
# Indices 1 2 3 4 5 6 
#
# 1 92.9706 31.6086 38.0406 -22.7489 -6.4956 -36.5699
# 2 31.6086 152.3955 41.4989 -53.3088 3.9883 -14.7730
# 3 38.0406 41.4989 206.2352 -45.6097 12.5334 -15.9789
# 4 -22.7489 -53.3088 -45.6097 63.5669 -10.6187 -2.2731
# 5 -6.4956 3.9883 12.5334 -10.6187 46.2951 -16.9108
# 6 -36.5699 -14.7730 -15.9789 -2.2731 -16.9108 41.2766
#
#
#
# Elastic Compliance Matrix: (Units=1/GPa)
#
#
# Indices 1 2 3 4 5 6 
#
# 1 0.031763 0.003538 -0.000669 0.019156 0.023237 0.039723
# 2 0.003538 0.010704 0.000216 0.011746 0.005905 0.010115
# 3 -0.000669 0.000216 0.006053 0.004360 0.000005 0.002070
# 4 0.019156 0.011746 0.004360 0.040513 0.022290 0.034227
# 5 0.023237 0.005905 0.000005 0.022290 0.044928 0.042337
# 6 0.039723 0.010115 0.002070 0.034227 0.042337 0.083072
#
#
# Mechanical properties :
#
#
# Convention : Reuss Voigt Hill
#
# Bulk Modulus (GPa) = 18.28491 74.87749 46.58120
# Shear Modulus (GPa) = 21.82524 52.92460 37.37492
#
# Velocity S-wave (km/s) = 2.85794 4.45044 3.73993
# Velocity P-wave (km/s) = 4.21110 7.37770 6.00682
#
# Compressibility (1/GPa) = 0.05468990
#
# Stress axis : x y z
#
# Youngs Moduli (GPa) = 31.48345 93.42312 165.20781
#
# Poissons Ratio (x) = -0.33049 0.11045
# Poissons Ratio (y) = -0.11138 -0.03570
# Poissons Ratio (z) = 0.02105 -0.02019
#
# Static dielectric constant tensor:
#      x y z
#    x 2.341710 -0.009260 -0.125860 
#    y -0.009260 1.913620 0.035550 
#    z -0.125860 0.035550 2.244560 
# 
# From -- ./inp_files/372185.got.cif
#   From: 2010.05.17/outbox.cif.g08.bks.cpg/sg2_187_cif.got.tgz:372185.got - 2010.06.03 11:33:40.
