data_PCOD9041139
_publ_section_title
;
Structure prediction by ZEFSAII (Michael W. Deem and Ramdas Pophale) SiO2 
 PCOD9041139
Probable space group: P -1
;
_chemical_formula_sum "Si O2"
_cell_formula_units_Z 16
_cell_length_a 8.873643
_cell_length_b 8.545898
_cell_length_c 15.170372
_cell_angle_alpha 85.732501
_cell_angle_beta 100.505540
_cell_angle_gamma 143.887179
_cell_volume 661.370976
_symmetry_space_group_name_H-M "P -1"
_symmetry_group_IT_number 2
_symmetry_cell_setting 'triclinic'
loop_
_space_group_symop_operation_xyz
x,y,z
-x,-y,-z
loop_
_atom_site_type_symbol
_atom_site_label
_atom_site_fract_x
_atom_site_fract_y
_atom_site_fract_z
Si Si1 0.662378 0.842094 0.689977
Si Si2 0.106862 0.480481 0.238161
Si Si3 0.380902 0.923848 0.671249
Si Si4 0.328636 0.363161 0.574329
Si Si5 0.173117 0.919064 0.499092
Si Si6 0.046174 0.411945 0.931885
Si Si7 0.648656 0.809149 0.970972
Si Si8 0.937127 0.881535 0.853049
O O1 0.491293 0.542990 0.669433
O O2 0.736263 0.957419 0.594085
O O3 0.900314 0.983999 0.770060
O O4 0.496566 0.848702 0.708948
O O5 0.010940 0.546756 0.166582
O O6 0.392426 0.764732 0.291796
O O7 0.100277 0.319403 0.185118
O O8 0.892529 0.279820 0.299764
O O9 0.314817 0.895002 0.562557
O O10 0.500000 0.500000 0.500000
O O11 0.195648 0.082619 0.565814
O O12 0.134094 0.346930 0.538174
O O13 0.345899 0.601545 0.955318
O O14 0.828183 0.100196 0.940757
O O15 0.000000 0.500000 0.000000
O O16 0.716034 0.731949 0.909650
O O17 0.789380 0.885701 0.075268
#
# Coordination Sequence:
#
# PCOD9041139 Si02
#       8
#     2   2   2   2   2   2   2   2
#     4  11  24  46  69 102 146 189 239 301 352 427
#     4  12  28  46  73 107 145 191 238 298 356 434
#     4  12  29  46  72 106 148 190 244 291 359 427
#     4   9  21  40  68 100 135 183 232 295 354 414
#     4  10  23  43  71 102 140 194 237 295 353 426
#     4  12  24  49  75 106 145 188 236 293 368 424
#     4  11  27  49  77 107 146 189 242 298 362 440
#     4  11  26  47  73 109 144 191 243 301 362 426
#
# _framework density 24.192173
#
# number of rings (size 3 to 8) (size 9 to 14) (size 15 to 20)
#    0.000    1.000    1.250    3.750   12.250    3.500 
#    4.500    0.000    0.000    0.000    0.000    0.000 
#    0.000    0.000    0.000    0.000    0.000    0.000 
#
# Total GULP energy -89513.794554 kJ/mol
# GULP energy per Si atom -5594.612160 kJ/mol
# Density = 2.413711 g / cm^3
# Si number density = 24.192173 Si / 1000 Ang^3
#
#
#
# Elastic Constant Matrix: (Units=GPa)
#
#
# Indices 1 2 3 4 5 6 
#
# 1 94.2775 37.7383 28.3727 -2.0726 10.2674 -3.3728
# 2 37.7383 115.7080 32.2432 -12.5545 -1.3504 10.4461
# 3 28.3727 32.2432 123.7923 -10.7470 31.8526 2.2989
# 4 -2.0726 -12.5545 -10.7470 18.1803 -8.8511 5.2123
# 5 10.2674 -1.3504 31.8526 -8.8511 57.9703 4.9190
# 6 -3.3728 10.4461 2.2989 5.2123 4.9190 36.7646
#
#
#
# Elastic Compliance Matrix: (Units=1/GPa)
#
#
# Indices 1 2 3 4 5 6 
#
# 1 0.013348 -0.004837 -0.001626 -0.005180 -0.002696 0.003796
# 2 -0.004837 0.012629 -0.002312 0.010757 0.004575 -0.006025
# 3 -0.001626 -0.002312 0.010573 0.001786 -0.005329 0.000306
# 4 -0.005180 0.010757 0.001786 0.073643 0.012771 -0.015793
# 5 -0.002696 0.004575 -0.005329 0.012771 0.023233 -0.006133
# 6 0.003796 -0.006025 0.000306 -0.015793 -0.006133 0.032300
#
#
# Mechanical properties :
#
#
# Convention : Reuss Voigt Hill
#
# Bulk Modulus (GPa) = 52.62976 58.94292 55.78634
# Shear Modulus (GPa) = 26.37000 38.27794 32.32397
#
# Velocity S-wave (km/s) = 3.30513 3.98206 3.65928
# Velocity P-wave (km/s) = 6.03053 6.74980 6.40027
#
# Compressibility (1/GPa) = 0.01900066
#
# Stress axis : x y z
#
# Youngs Moduli (GPa) = 74.91813 79.18510 94.57628
#
# Poissons Ratio (x) = 0.38298 0.15378
# Poissons Ratio (y) = 0.36235 0.21868
# Poissons Ratio (z) = 0.12181 0.18309
#
# Static dielectric constant tensor:
#      x y z
#    x 1.957440 -0.032830 0.020030 
#    y -0.032830 1.966840 -0.011790 
#    z 0.020030 -0.011790 1.961250 
# 
# From -- ./inp_files/495071.got.cif
#   From: 2010.05.17/outbox.cif.g08.bks.cpg/sg2_248_cif.got.tgz:495071.got - 2010.06.03 11:33:40.
