data_PCOD9041536
_publ_section_title
;
Structure prediction by ZEFSAII (Michael W. Deem and Ramdas Pophale) SiO2 
 PCOD9041536
Probable space group: P -1
;
_chemical_formula_sum "Si O2"
_cell_formula_units_Z 15
_cell_length_a 15.563813
_cell_length_b 8.181256
_cell_length_c 7.306882
_cell_angle_alpha 57.555497
_cell_angle_beta 88.220047
_cell_angle_gamma 49.906648
_cell_volume 524.585992
_symmetry_space_group_name_H-M "P -1"
_symmetry_group_IT_number 2
_symmetry_cell_setting 'triclinic'
loop_
_space_group_symop_operation_xyz
x,y,z
-x,-y,-z
loop_
_atom_site_type_symbol
_atom_site_label
_atom_site_fract_x
_atom_site_fract_y
_atom_site_fract_z
Si Si1 0.671452 0.470425 0.654383
Si Si2 0.842755 0.294510 0.245496
Si Si3 0.500000 0.500000 0.000000
Si Si4 0.679558 0.055492 0.050221
Si Si5 0.425539 0.046916 0.154116
Si Si6 0.929933 0.466693 0.887717
Si Si7 0.270871 0.876135 0.507236
Si Si8 0.876416 0.435226 0.547800
O O1 0.664159 0.315875 0.905735
O O2 0.532678 0.799377 0.438463
O O3 0.712860 0.271562 0.594022
O O4 0.777588 0.460731 0.651907
O O5 0.829809 0.087533 0.390795
O O6 0.889506 0.303199 0.432327
O O7 0.924800 0.269326 0.105887
O O8 0.696460 0.609649 0.017998
O O9 0.572763 0.175778 0.131607
O O10 0.406485 0.642645 0.736995
O O11 0.641018 0.037809 0.869022
O O12 0.808350 0.744238 0.294205
O O13 0.500000 0.000000 0.000000
O O14 0.975572 0.338233 0.755986
O O15 0.793082 0.805632 0.678383
O O16 0.000000 0.500000 0.000000
#
# Coordination Sequence:
#
# PCOD9041536 Si02
#       8
#     2   2   1   2   2   2   2   2
#     4  11  22  37  64  93 132 178 208 254 331 409
#     4  10  24  43  67  95 133 175 214 269 333 385
#     4  12  22  32  60 100 134 166 206 258 324 398
#     4  11  21  34  55  91 134 172 203 253 316 388
#     4  11  17  36  61  94 138 173 201 257 324 401
#     4  12  28  47  68  95 125 173 234 280 325 381
#     4  11  23  43  63  97 135 168 217 264 323 399
#     4  10  23  44  64  92 132 163 218 269 327 392
#
# _framework density 28.593978
#
# number of rings (size 3 to 8) (size 9 to 14) (size 15 to 20)
#    0.000    1.067    6.667    2.000    3.733    1.067 
#    0.000    4.667    0.000    0.000    0.000    0.000 
#    0.000    0.000    0.000    0.000    0.000    0.000 
#
# Total GULP energy -83752.331823 kJ/mol
# GULP energy per Si atom -5583.488788 kJ/mol
# Density = 2.852890 g / cm^3
# Si number density = 28.593978 Si / 1000 Ang^3
#
#
#
# Elastic Constant Matrix: (Units=GPa)
#
#
# Indices 1 2 3 4 5 6 
#
# 1 115.5226 10.4436 48.5993 -0.9986 -10.0618 16.9967
# 2 10.4436 94.3349 28.8870 14.6186 0.2953 30.3318
# 3 48.5993 28.8870 144.8189 -11.4381 -5.9414 13.5996
# 4 -0.9986 14.6186 -11.4381 54.0365 23.9384 10.5568
# 5 -10.0618 0.2953 -5.9414 23.9384 37.6371 -4.9516
# 6 16.9967 30.3318 13.5996 10.5568 -4.9516 32.4800
#
#
#
# Elastic Compliance Matrix: (Units=1/GPa)
#
#
# Indices 1 2 3 4 5 6 
#
# 1 0.010926 0.001657 -0.003502 -0.001023 0.002333 -0.005111
# 2 0.001657 0.016107 -0.002580 -0.001627 -0.000956 -0.014445
# 3 -0.003502 -0.002580 0.008881 0.003519 -0.001872 -0.000905
# 4 -0.001023 -0.001627 0.003519 0.031822 -0.021663 -0.013064
# 5 0.002333 -0.000956 -0.001872 -0.021663 0.042523 0.013979
# 6 -0.005111 -0.014445 -0.000905 -0.013064 0.013979 0.053709
#
#
# Mechanical properties :
#
#
# Convention : Reuss Voigt Hill
#
# Bulk Modulus (GPa) = 36.94940 58.94846 47.94893
# Shear Modulus (GPa) = 27.49662 42.61379 35.05521
#
# Velocity S-wave (km/s) = 3.10437 3.86464 3.50518
# Velocity P-wave (km/s) = 5.07933 6.36980 5.76081
#
# Compressibility (1/GPa) = 0.02706404
#
# Stress axis : x y z
#
# Youngs Moduli (GPa) = 91.52264 62.08464 112.59426
#
# Poissons Ratio (x) = -0.10290 0.39436
# Poissons Ratio (y) = -0.15169 0.29053
# Poissons Ratio (z) = 0.32055 0.16020
#
# Static dielectric constant tensor:
#      x y z
#    x 1.761930 0.305740 0.078270 
#    y 0.305740 1.981840 -0.017400 
#    z 0.078270 -0.017400 2.161590 
# 
# From -- ./inp_files/297473.got.cif
#   From: 2010.05.17/outbox.cif.g08.bks.cpg/sg2_149_cif.got.tgz:297473.got - 2010.06.03 11:33:40.
