data_PCOD9041543
_publ_section_title
;
Structure prediction by ZEFSAII (Michael W. Deem and Ramdas Pophale) SiO2 
 PCOD9041543
Probable space group: P -1
;
_chemical_formula_sum "Si O2"
_cell_formula_units_Z 16
_cell_length_a 12.373037
_cell_length_b 13.193856
_cell_length_c 21.157366
_cell_angle_alpha 24.335694
_cell_angle_beta 147.088110
_cell_angle_gamma 150.328138
_cell_volume 684.929306
_symmetry_space_group_name_H-M "P -1"
_symmetry_group_IT_number 2
_symmetry_cell_setting 'triclinic'
loop_
_space_group_symop_operation_xyz
x,y,z
-x,-y,-z
loop_
_atom_site_type_symbol
_atom_site_label
_atom_site_fract_x
_atom_site_fract_y
_atom_site_fract_z
Si Si1 0.266031 0.810280 0.659241
Si Si2 0.026941 0.999443 0.769891
Si Si3 0.198774 0.001558 0.638932
Si Si4 0.382436 0.263099 0.702124
Si Si5 0.603398 0.898974 0.000592
Si Si6 0.647343 0.711750 0.836180
Si Si7 0.996114 0.230365 0.913745
Si Si8 0.847634 0.732440 0.712013
O O1 0.461323 0.777887 0.738418
O O2 0.065191 0.509469 0.749424
O O3 0.347524 0.955278 0.685814
O O4 0.184451 0.994290 0.473560
O O5 0.179141 0.242133 0.657469
O O6 0.813073 0.954689 0.731861
O O7 0.916152 0.742159 0.812563
O O8 0.216443 0.032821 0.894004
O O9 0.326995 0.256731 0.604333
O O10 0.000000 0.000000 0.500000
O O11 0.047411 0.750237 0.755045
O O12 0.421539 0.991708 0.881347
O O13 0.613865 0.495623 0.709098
O O14 0.756465 0.099381 0.905459
O O15 0.484078 0.583269 0.096820
O O16 0.809124 0.699091 0.977908
O O17 0.000000 0.000000 0.000000
#
# Coordination Sequence:
#
# PCOD9041543 Si02
#       8
#     2   2   2   2   2   2   2   2
#     4  11  22  42  66  91 133 170 202 262 323 382
#     4  10  24  44  63  97 129 166 222 265 312 374
#     4   9  21  39  59  94 128 163 209 256 311 376
#     4  11  22  40  67  93 126 173 215 262 318 374
#     4  11  23  40  69  96 125 170 211 268 322 371
#     4  11  24  42  64  95 129 167 211 267 318 373
#     4  11  23  40  62  96 129 158 213 260 314 383
#     4  10  23  44  64  94 131 168 214 263 315 380
#
# _framework density 23.360074000000001
#
# number of rings (size 3 to 8) (size 9 to 14) (size 15 to 20)
#    0.000    1.500    1.250    3.000    1.750    6.500 
#    6.750    1.250    0.000    0.000    0.000    0.000 
#    0.000    0.000    0.000    0.000    0.000    0.000 
#
# Total GULP energy -89304.752377 kJ/mol
# GULP energy per Si atom -5581.547024 kJ/mol
# Density = 2.330691 g / cm^3
# Si number density = 23.360074 Si / 1000 Ang^3
#
#
#
# Elastic Constant Matrix: (Units=GPa)
#
#
# Indices 1 2 3 4 5 6 
#
# 1 148.6162 46.1915 25.3110 -3.9668 -7.7182 2.2651
# 2 46.1915 195.5250 31.3988 11.0391 -12.1521 -19.3996
# 3 25.3110 31.3988 51.3930 -5.8230 9.1473 -9.8259
# 4 -3.9668 11.0391 -5.8230 26.8793 -0.3285 -7.1616
# 5 -7.7182 -12.1521 9.1473 -0.3285 20.1600 1.0224
# 6 2.2651 -19.3996 -9.8259 -7.1616 1.0224 42.3686
#
#
#
# Elastic Compliance Matrix: (Units=1/GPa)
#
#
# Indices 1 2 3 4 5 6 
#
# 1 0.008120 -0.001127 -0.004500 0.000190 0.004579 -0.002072
# 2 -0.001127 0.006844 -0.004800 -0.003591 0.005746 0.001335
# 3 -0.004500 -0.004800 0.030369 0.009564 -0.018603 0.007151
# 4 0.000190 -0.003591 0.009564 0.042821 -0.006137 0.007950
# 5 0.004579 0.005746 -0.018603 -0.006137 0.063388 -0.004495
# 6 -0.002072 0.001335 0.007151 0.007950 -0.004495 0.027435
#
#
# Mechanical properties :
#
#
# Convention : Reuss Voigt Hill
#
# Bulk Modulus (GPa) = 40.85415 66.81522 53.83468
# Shear Modulus (GPa) = 24.03933 37.39045 30.71489
#
# Velocity S-wave (km/s) = 3.21140 4.00511 3.63001
# Velocity P-wave (km/s) = 5.59264 7.07476 6.37691
#
# Compressibility (1/GPa) = 0.02447732
#
# Stress axis : x y z
#
# Youngs Moduli (GPa) = 123.15230 146.11377 32.92840
#
# Poissons Ratio (x) = 0.16473 0.14818
# Poissons Ratio (y) = 0.13884 0.15807
# Poissons Ratio (z) = 0.55418 0.70141
#
# Static dielectric constant tensor:
#      x y z
#    x 1.938250 -0.014700 -0.038870 
#    y -0.014700 1.911290 -0.008790 
#    z -0.038870 -0.008790 1.915760 
# 
# From -- ./inp_files/410442.got.cif
#   From: 2010.05.17/outbox.cif.g08.bks.cpg/sg2_206_cif.got.tgz:410442.got - 2010.06.03 11:33:40.
