data_PCOD9041003
_publ_section_title
;
Structure prediction by ZEFSAII (Michael W. Deem and Ramdas Pophale) SiO2 
 PCOD9041003
Probable space group: P -1
;
_chemical_formula_sum "Si O2"
_cell_formula_units_Z 9
_cell_length_a 9.214855
_cell_length_b 5.059558
_cell_length_c 9.200254
_cell_angle_alpha 128.516558
_cell_angle_beta 99.823568
_cell_angle_gamma 73.372650
_cell_volume 321.568185
_symmetry_space_group_name_H-M "P -1"
_symmetry_group_IT_number 2
_symmetry_cell_setting 'triclinic'
loop_
_space_group_symop_operation_xyz
x,y,z
-x,-y,-z
loop_
_atom_site_type_symbol
_atom_site_label
_atom_site_fract_x
_atom_site_fract_y
_atom_site_fract_z
Si Si1 0.438459 0.374821 0.293011
Si Si2 0.500000 0.500000 0.000000
Si Si3 0.025814 0.086010 0.871576
Si Si4 0.842001 0.062192 0.576477
Si Si5 0.700553 0.809664 0.209739
O O1 0.500000 0.500000 0.500000
O O2 0.260534 0.546835 0.317833
O O3 0.519609 0.961369 0.180080
O O4 0.492042 0.485016 0.185493
O O5 0.308947 0.560759 0.974543
O O6 0.194374 0.990970 0.794137
O O7 0.905628 0.950385 0.706306
O O8 0.000000 0.500000 0.000000
O O9 0.000000 0.000000 0.000000
O O10 0.741979 0.848347 0.396252
O O11 0.000000 0.000000 0.500000
#
# Coordination Sequence:
#
# PCOD9041003 Si02
#       5
#     2   1   2   2   2
#     4  10  23  43  70 103 143 194 249 312 373 452
#     4  12  24  42  72 106 152 186 256 298 390 444
#     4  11  25  47  75 109 150 199 255 315 385 458
#     4   9  21  47  70 104 144 193 250 312 380 448
#     4  10  24  45  70 107 145 198 250 312 378 458
#
# _framework density 27.987845
#
# number of rings (size 3 to 8) (size 9 to 14) (size 15 to 20)
#    0.000    1.778    0.000    2.000    6.222    3.556 
#   12.000    3.333    0.000    0.000    0.000    0.000 
#    0.000    0.000    0.000    0.000    0.000    0.000 
#
# Total GULP energy -50111.669589 kJ/mol
# GULP energy per Si atom -5567.963288 kJ/mol
# Density = 2.792414 g / cm^3
# Si number density = 27.987845 Si / 1000 Ang^3
#
#
#
# Elastic Constant Matrix: (Units=GPa)
#
#
# Indices 1 2 3 4 5 6 
#
# 1 168.0013 95.4059 104.3915 -25.9769 23.0234 -14.3266
# 2 95.4059 148.9669 65.6661 -37.3149 -12.5607 3.3203
# 3 104.3915 65.6661 252.9829 -69.9596 23.2849 12.4929
# 4 -25.9769 -37.3149 -69.9596 64.9585 -9.6938 -9.8549
# 5 23.0234 -12.5607 23.2849 -9.6938 70.5644 -6.1183
# 6 -14.3266 3.3203 12.4929 -9.8549 -6.1183 59.5316
#
#
#
# Elastic Compliance Matrix: (Units=1/GPa)
#
#
# Indices 1 2 3 4 5 6 
#
# 1 0.013785 -0.008441 -0.004407 -0.004271 -0.004828 0.003510
# 2 -0.008441 0.013671 0.001286 0.006471 0.005529 -0.001424
# 3 -0.004407 0.001286 0.007356 0.006663 0.000018 -0.001571
# 4 -0.004271 0.006471 0.006663 0.025456 0.004003 0.001838
# 5 -0.004828 0.005529 0.000018 0.004003 0.017359 0.000973
# 6 0.003510 -0.001424 -0.001571 0.001838 0.000973 0.018456
#
#
# Mechanical properties :
#
#
# Convention : Reuss Voigt Hill
#
# Bulk Modulus (GPa) = 85.56540 122.31980 103.94260
# Shear Modulus (GPa) = 40.61566 59.31008 49.96287
#
# Velocity S-wave (km/s) = 3.81358 4.60840 4.22970
# Velocity P-wave (km/s) = 7.07318 8.49211 7.81492
#
# Compressibility (1/GPa) = 0.01168697
#
# Stress axis : x y z
#
# Youngs Moduli (GPa) = 72.54192 73.14611 135.93891
#
# Poissons Ratio (x) = 0.61743 0.59912
# Poissons Ratio (y) = 0.61233 -0.17476
# Poissons Ratio (z) = 0.31971 -0.09403
#
# Static dielectric constant tensor:
#      x y z
#    x 2.373970 -0.059120 -0.066570 
#    y -0.059120 2.328410 0.042440 
#    z -0.066570 0.042440 2.393990 
# 
# From -- ./inp_files/15678.got.cif
#   From: 2010.05.17/outbox.cif.g08.bks.cpg/sg2_8_cif.got.tgz:15678.got - 2010.06.03 11:33:40.
