data_PCOD9041844
_publ_section_title
;
Structure prediction by ZEFSAII (Michael W. Deem and Ramdas Pophale) SiO2 
 PCOD9041844
Probable space group: P -1
;
_chemical_formula_sum "Si O2"
_cell_formula_units_Z 16
_cell_length_a 11.762739
_cell_length_b 13.461790
_cell_length_c 5.233964
_cell_angle_alpha 87.507207
_cell_angle_beta 91.876909
_cell_angle_gamma 133.881909
_cell_volume 596.794358
_symmetry_space_group_name_H-M "P -1"
_symmetry_group_IT_number 2
_symmetry_cell_setting 'triclinic'
loop_
_space_group_symop_operation_xyz
x,y,z
-x,-y,-z
loop_
_atom_site_type_symbol
_atom_site_label
_atom_site_fract_x
_atom_site_fract_y
_atom_site_fract_z
Si Si1 0.031169 0.614641 0.682457
Si Si2 0.149206 0.302333 0.554274
Si Si3 0.797758 0.514672 0.096743
Si Si4 0.714925 0.945661 0.774526
Si Si5 0.606390 0.081461 0.755745
Si Si6 0.352082 0.733534 0.601280
Si Si7 0.549292 0.452763 0.783522
Si Si8 0.770631 0.856668 0.300602
O O1 0.971419 0.687401 0.568578
O O2 0.000000 0.500000 0.500000
O O3 0.219844 0.724811 0.724814
O O4 0.939198 0.553718 0.949353
O O5 0.166184 0.351110 0.840240
O O6 0.319285 0.418552 0.407908
O O7 0.115259 0.165146 0.603110
O O8 0.730953 0.422500 0.355161
O O9 0.648778 0.425639 0.918204
O O10 0.523113 0.827823 0.732483
O O11 0.773341 0.939875 0.511005
O O12 0.742431 0.080944 0.785951
O O13 0.774874 0.914791 0.018897
O O14 0.648354 0.220722 0.687350
O O15 0.500000 0.000000 0.500000
O O16 0.500000 0.000000 0.000000
O O17 0.397682 0.302788 0.687335
O O18 0.500000 0.500000 0.000000
#
# Coordination Sequence:
#
# PCOD9041844 Si02
#       8
#     2   2   2   2   2   2   2   2
#     4  11  25  39  60  92 133 179 219 259 314 400
#     4  11  24  37  58  88 134 174 216 261 317 395
#     4  11  22  38  57  93 132 169 218 259 313 405
#     4  11  24  40  66  98 124 163 219 276 336 384
#     4  10  23  44  67  98 128 161 221 285 338 392
#     4  11  22  41  65  91 129 172 210 271 334 381
#     4  11  21  35  57  90 131 171 218 257 320 394
#     4  12  23  38  63  92 131 171 208 269 335 382
#
# _framework density 26.809906999999999
#
# number of rings (size 3 to 8) (size 9 to 14) (size 15 to 20)
#    0.000    1.000    3.750    3.750    3.500    2.000 
#    0.000    0.000    0.000    1.500    0.000    0.000 
#    0.000    0.000    0.000    0.000    0.000    0.000 
#
# Total GULP energy -89331.793447 kJ/mol
# GULP energy per Si atom -5583.237090 kJ/mol
# Density = 2.674889 g / cm^3
# Si number density = 26.809907 Si / 1000 Ang^3
#
#
#
# Elastic Constant Matrix: (Units=GPa)
#
#
# Indices 1 2 3 4 5 6 
#
# 1 89.2622 23.8062 23.4791 8.7825 -5.3516 -1.3267
# 2 23.8062 55.8338 33.7639 -5.9926 -13.7815 -5.7053
# 3 23.4791 33.7639 164.3101 -11.0074 -7.3575 -15.7577
# 4 8.7825 -5.9926 -11.0074 38.2872 -17.9021 -4.2114
# 5 -5.3516 -13.7815 -7.3575 -17.9021 54.6724 -7.5716
# 6 -1.3267 -5.7053 -15.7577 -4.2114 -7.5716 61.7588
#
#
#
# Elastic Compliance Matrix: (Units=1/GPa)
#
#
# Indices 1 2 3 4 5 6 
#
# 1 0.013659 -0.006459 -0.001260 -0.005851 -0.002562 -0.001338
# 2 -0.006459 0.026081 -0.003108 0.009226 0.008989 0.003209
# 3 -0.001260 -0.003108 0.007320 0.002684 0.001218 0.001886
# 4 -0.005851 0.009226 0.002684 0.037410 0.015170 0.005822
# 5 -0.002562 0.008989 0.001218 0.015170 0.026175 0.005330
# 6 -0.001338 0.003209 0.001886 0.005822 0.005330 0.017991
#
#
# Mechanical properties :
#
#
# Convention : Reuss Voigt Hill
#
# Bulk Modulus (GPa) = 39.36038 52.38937 45.87488
# Shear Modulus (GPa) = 31.49417 46.16746 38.83081
#
# Velocity S-wave (km/s) = 3.43114 4.15424 3.80988
# Velocity P-wave (km/s) = 5.51454 6.52639 6.04168
#
# Compressibility (1/GPa) = 0.02540626
#
# Stress axis : x y z
#
# Youngs Moduli (GPa) = 73.21061 38.34221 136.61377
#
# Poissons Ratio (x) = 0.24767 0.17207
# Poissons Ratio (y) = 0.47290 0.42459
# Poissons Ratio (z) = 0.09221 0.11917
#
# Static dielectric constant tensor:
#      x y z
#    x 2.182750 -0.016630 0.055850 
#    y -0.016630 2.249890 -0.046330 
#    z 0.055850 -0.046330 2.164790 
# 
# From -- ./inp_files/77585.got.cif
#   From: 2010.05.17/outbox.cif.g08.bks.cpg/sg2_39_cif.got.tgz:77585.got - 2010.06.03 11:33:40.
