data_PCOD9041602
_publ_section_title
;
Structure prediction by ZEFSAII (Michael W. Deem and Ramdas Pophale) SiO2 
 PCOD9041602
Probable space group: P -1
;
_chemical_formula_sum "Si O2"
_cell_formula_units_Z 16
_cell_length_a 9.489671
_cell_length_b 8.982790
_cell_length_c 11.747333
_cell_angle_alpha 82.668286
_cell_angle_beta 59.077436
_cell_angle_gamma 121.470085
_cell_volume 616.184655
_symmetry_space_group_name_H-M "P -1"
_symmetry_group_IT_number 2
_symmetry_cell_setting 'triclinic'
loop_
_space_group_symop_operation_xyz
x,y,z
-x,-y,-z
loop_
_atom_site_type_symbol
_atom_site_label
_atom_site_fract_x
_atom_site_fract_y
_atom_site_fract_z
Si Si1 0.593121 0.988372 0.181046
Si Si2 0.943044 0.717645 0.393490
Si Si3 0.875931 0.837758 0.736910
Si Si4 0.819344 0.335343 0.866663
Si Si5 0.347385 0.541643 0.242789
Si Si6 0.934126 0.815606 0.971282
Si Si7 0.280436 0.513633 0.717046
Si Si8 0.639637 0.988045 0.532487
O O1 0.527380 0.779248 0.188318
O O2 0.825703 0.119310 0.144915
O O3 0.404926 0.951226 0.338432
O O4 0.662581 0.139476 0.033009
O O5 0.821339 0.572012 0.567165
O O6 0.765503 0.606851 0.369716
O O7 0.133964 0.729617 0.261193
O O8 0.049957 0.947414 0.346140
O O9 0.839744 0.805153 0.890338
O O10 0.664601 0.640091 0.773526
O O11 0.097808 0.875863 0.613483
O O12 0.726912 0.431283 0.849748
O O13 0.069477 0.498911 0.802580
O O14 0.767426 0.617082 0.140795
O O15 0.000000 0.000000 0.000000
O O16 0.513558 0.748031 0.603668
O O17 0.500000 0.000000 0.500000
#
# Coordination Sequence:
#
# PCOD9041602 Si02
#       8
#     2   2   2   2   2   2   2   2
#     4  11  25  42  66 100 136 166 232 268 327 395
#     4  10  23  44  65  95 132 174 224 273 328 392
#     4  12  26  42  68  99 140 172 223 269 338 386
#     4   9  22  43  68  90 129 177 222 271 327 389
#     4  12  25  43  68  96 135 186 216 272 329 395
#     4  11  22  46  70  96 131 173 215 280 331 395
#     4   9  22  39  68  95 128 168 221 273 333 375
#     4  12  24  38  64 106 132 168 219 279 320 403
#
# _framework density 25.966242999999999
#
# number of rings (size 3 to 8) (size 9 to 14) (size 15 to 20)
#    0.750    0.500    2.500    2.625    5.250    2.500 
#    0.000    2.500    0.000    0.000    0.000    0.000 
#    0.000    0.000    0.000    0.000    0.000    0.000 
#
# Total GULP energy -89568.408694 kJ/mol
# GULP energy per Si atom -5598.025543 kJ/mol
# Density = 2.590714 g / cm^3
# Si number density = 25.966243 Si / 1000 Ang^3
#
#
#
# Elastic Constant Matrix: (Units=GPa)
#
#
# Indices 1 2 3 4 5 6 
#
# 1 77.2675 30.4141 29.0624 -11.9809 11.0132 10.2134
# 2 30.4141 175.0692 50.9458 -17.3650 -5.7071 6.9569
# 3 29.0624 50.9458 124.1862 -4.2272 25.7386 5.3378
# 4 -11.9809 -17.3650 -4.2272 53.2519 -9.0234 0.7130
# 5 11.0132 -5.7071 25.7386 -9.0234 34.4780 -3.0825
# 6 10.2134 6.9569 5.3378 0.7130 -3.0825 34.1376
#
#
#
# Elastic Compliance Matrix: (Units=1/GPa)
#
#
# Indices 1 2 3 4 5 6 
#
# 1 0.015884 -0.001949 -0.001857 0.002201 -0.003832 -0.004457
# 2 -0.001949 0.007543 -0.003645 0.002627 0.005283 0.000038
# 3 -0.001857 -0.003645 0.011968 -0.002276 -0.009665 -0.001398
# 4 0.002201 0.002627 -0.002276 0.021128 0.006901 -0.000656
# 5 -0.003832 0.005283 -0.009665 0.006901 0.040580 0.005101
# 6 -0.004457 0.000038 -0.001398 -0.000656 0.005101 0.031312
#
#
# Mechanical properties :
#
#
# Convention : Reuss Voigt Hill
#
# Bulk Modulus (GPa) = 48.79724 66.37418 57.58571
# Shear Modulus (GPa) = 33.30034 42.11355 37.70694
#
# Velocity S-wave (km/s) = 3.58501 4.03160 3.81485
# Velocity P-wave (km/s) = 5.99748 6.87669 6.45208
#
# Compressibility (1/GPa) = 0.02049296
#
# Stress axis : x y z
#
# Youngs Moduli (GPa) = 62.95557 132.57984 83.55326
#
# Poissons Ratio (x) = 0.25834 0.15517
# Poissons Ratio (y) = 0.12267 0.30459
# Poissons Ratio (z) = 0.11692 0.48332
#
# Static dielectric constant tensor:
#      x y z
#    x 2.182460 -0.043310 -0.059210 
#    y -0.043310 2.033990 0.035760 
#    z -0.059210 0.035760 1.969720 
# 
# From -- ./inp_files/419449.got.cif
#   From: 2010.05.17/outbox.cif.g08.bks.cpg/sg2_210_cif.got.tgz:419449.got - 2010.06.03 11:33:40.
