data_PCOD9041714
_publ_section_title
;
Structure prediction by ZEFSAII (Michael W. Deem and Ramdas Pophale) SiO2 
 PCOD9041714
Probable space group: P -1
;
_chemical_formula_sum "Si O2"
_cell_formula_units_Z 12
_cell_length_a 9.398690
_cell_length_b 9.330023
_cell_length_c 14.403764
_cell_angle_alpha 66.891607
_cell_angle_beta 54.017126
_cell_angle_gamma 30.370075
_cell_volume 496.107163
_symmetry_space_group_name_H-M "P -1"
_symmetry_group_IT_number 2
_symmetry_cell_setting 'triclinic'
loop_
_space_group_symop_operation_xyz
x,y,z
-x,-y,-z
loop_
_atom_site_type_symbol
_atom_site_label
_atom_site_fract_x
_atom_site_fract_y
_atom_site_fract_z
Si Si1 0.172786 0.634685 0.485370
Si Si2 0.312498 0.688698 0.119916
Si Si3 0.803347 0.580021 0.966632
Si Si4 0.519650 0.253389 0.278559
Si Si5 0.516923 0.010714 0.187698
Si Si6 0.499688 0.715284 0.376884
O O1 0.324547 0.402921 0.412119
O O2 0.401041 0.619083 0.403083
O O3 0.201555 0.537976 0.601612
O O4 0.807015 0.980998 0.523380
O O5 0.412439 0.488843 0.207917
O O6 0.500000 0.500000 0.000000
O O7 0.466390 0.739602 0.075519
O O8 0.916167 0.974254 0.200877
O O9 0.689901 0.784103 0.876317
O O10 0.089178 0.244383 0.909064
O O11 0.000000 0.500000 0.000000
O O12 0.414274 0.187845 0.271625
O O13 0.538773 0.812203 0.256609
#
# Coordination Sequence:
#
# PCOD9041714 Si02
#       6
#     2   2   2   2   2   2
#     4  10  23  44  66  98 133 177 224 271 347 406
#     4  12  23  45  68  96 141 181 221 278 333 406
#     4  12  27  45  65 102 138 181 227 278 336 398
#     4  12  24  41  73 101 131 183 227 272 339 405
#     4  12  24  44  69 101 136 176 228 281 336 397
#     4  10  23  44  67  95 139 173 218 286 336 403
#
# _framework density 24.188323
#
# number of rings (size 3 to 8) (size 9 to 14) (size 15 to 20)
#    0.000    0.667    3.333    4.000    2.333    1.333 
#    0.000    0.000    0.000    0.000    0.000    0.000 
#    0.000    0.000    0.000    0.000    0.000    0.000 
#
# Total GULP energy -67102.297779 kJ/mol
# GULP energy per Si atom -5591.858148 kJ/mol
# Density = 2.413327 g / cm^3
# Si number density = 24.188323 Si / 1000 Ang^3
#
#
#
# Elastic Constant Matrix: (Units=GPa)
#
#
# Indices 1 2 3 4 5 6 
#
# 1 125.4759 43.7164 30.8901 -10.6900 -7.0157 -2.9883
# 2 43.7164 150.9072 17.0900 -20.3771 5.7086 -30.2170
# 3 30.8901 17.0900 52.4271 -11.8058 5.2738 -0.5537
# 4 -10.6900 -20.3771 -11.8058 57.3827 4.2766 -0.2956
# 5 -7.0157 5.7086 5.2738 4.2766 31.0659 7.0459
# 6 -2.9883 -30.2170 -0.5537 -0.2956 7.0459 38.2240
#
#
#
# Elastic Compliance Matrix: (Units=1/GPa)
#
#
# Indices 1 2 3 4 5 6 
#
# 1 0.010694 -0.003247 -0.005914 -0.000744 0.004729 -0.002694
# 2 -0.003247 0.009907 0.000021 0.003330 -0.004947 0.008516
# 3 -0.005914 0.000021 0.024177 0.004354 -0.006292 0.001098
# 4 -0.000744 0.003330 0.004354 0.019765 -0.005085 0.003728
# 5 0.004729 -0.004947 -0.006292 -0.005085 0.038372 -0.010745
# 6 -0.002694 0.008516 0.001098 0.003728 -0.010745 0.034708
#
#
# Mechanical properties :
#
#
# Convention : Reuss Voigt Hill
#
# Bulk Modulus (GPa) = 37.73894 56.91149 47.32521
# Shear Modulus (GPa) = 30.35198 41.14210 35.74704
#
# Velocity S-wave (km/s) = 3.54619 4.12868 3.84847
# Velocity P-wave (km/s) = 5.69239 6.80497 6.27339
#
# Compressibility (1/GPa) = 0.02649783
#
# Stress axis : x y z
#
# Youngs Moduli (GPa) = 93.51328 100.94193 41.36189
#
# Poissons Ratio (x) = 0.32774 0.24461
# Poissons Ratio (y) = 0.30362 -0.00087
# Poissons Ratio (z) = 0.55303 -0.00213
#
# Static dielectric constant tensor:
#      x y z
#    x 1.848940 -0.076440 -0.187660 
#    y -0.076440 1.751370 -0.138770 
#    z -0.187660 -0.138770 1.618120 
# 
# From -- ./inp_files/205782.got.cif
#   From: 2010.05.17/outbox.cif.g08.bks.cpg/sg2_103_cif.got.tgz:205782.got - 2010.06.03 11:33:40.
