data_PCOD9041407
_publ_section_title
;
Structure prediction by ZEFSAII (Michael W. Deem and Ramdas Pophale) SiO2 
 PCOD9041407
Probable space group: P -1
;
_chemical_formula_sum "Si O2"
_cell_formula_units_Z 14
_cell_length_a 17.025399
_cell_length_b 10.772414
_cell_length_c 5.218992
_cell_angle_alpha 78.286212
_cell_angle_beta 94.297771
_cell_angle_gamma 139.875420
_cell_volume 599.103835
_symmetry_space_group_name_H-M "P -1"
_symmetry_group_IT_number 2
_symmetry_cell_setting 'triclinic'
loop_
_space_group_symop_operation_xyz
x,y,z
-x,-y,-z
loop_
_atom_site_type_symbol
_atom_site_label
_atom_site_fract_x
_atom_site_fract_y
_atom_site_fract_z
Si Si1 0.975885 0.787481 0.636522
Si Si2 0.642680 0.147692 0.458538
Si Si3 0.841899 0.823235 0.218821
Si Si4 0.707401 0.064793 0.010686
Si Si5 0.953873 0.311627 0.684080
Si Si6 0.580020 0.635697 0.213877
Si Si7 0.815295 0.540929 0.081729
O O1 0.905832 0.808172 0.447303
O O2 0.074610 0.826929 0.485855
O O3 0.857147 0.560321 0.795968
O O4 0.056668 0.941233 0.830446
O O5 0.698147 0.349168 0.284556
O O6 0.500000 0.000000 0.500000
O O7 0.673368 0.119227 0.748321
O O8 0.690079 0.112434 0.258964
O O9 0.708539 0.719559 0.254074
O O10 0.824478 0.704660 0.029419
O O11 0.846109 0.197352 0.909398
O O12 0.621619 0.833705 0.102039
O O13 0.000000 0.500000 0.500000
O O14 0.077426 0.402659 0.778372
O O15 0.500000 0.500000 0.500000
O O16 0.500000 0.500000 0.000000
#
# Coordination Sequence:
#
# PCOD9041407 Si02
#       7
#     2   2   2   2   2   2   2
#     4  10  23  43  74 109 151 195 248 316 385 451
#     4  12  29  49  75 106 149 199 248 301 368 450
#     4  10  25  44  71 108 148 193 254 305 384 439
#     4  12  28  50  77 108 147 193 251 314 370 440
#     4  11  23  42  71 112 149 190 245 310 386 440
#     4  12  30  49  77 109 150 203 255 310 369 446
#     4  11  24  42  74 106 149 196 246 310 378 456
#
# _framework density 23.368237000000001
#
# number of rings (size 3 to 8) (size 9 to 14) (size 15 to 20)
#    0.000    0.857    1.429    3.429   14.000    2.286 
#    0.000    0.000    0.000    0.000    0.000    0.000 
#    0.000    0.000    0.000    0.000    0.000    0.000 
#
# Total GULP energy -78031.211321 kJ/mol
# GULP energy per Si atom -5573.657952 kJ/mol
# Density = 2.331505 g / cm^3
# Si number density = 23.368237 Si / 1000 Ang^3
#
#
#
# Elastic Constant Matrix: (Units=GPa)
#
#
# Indices 1 2 3 4 5 6 
#
# 1 105.1385 27.7464 27.0386 -12.5972 -9.1296 12.4475
# 2 27.7464 91.6482 38.1510 -12.5364 -17.4791 1.7893
# 3 27.0386 38.1510 132.6859 -19.6300 -9.8352 2.0348
# 4 -12.5972 -12.5364 -19.6300 30.6255 17.8003 -9.4177
# 5 -9.1296 -17.4791 -9.8352 17.8003 23.6030 -13.5751
# 6 12.4475 1.7893 2.0348 -9.4177 -13.5751 38.3942
#
#
#
# Elastic Compliance Matrix: (Units=1/GPa)
#
#
# Indices 1 2 3 4 5 6 
#
# 1 0.011140 -0.002945 -0.001104 0.003199 -0.002834 -0.003633
# 2 -0.002945 0.015345 -0.003422 -0.004200 0.014581 0.004546
# 3 -0.001104 -0.003422 0.009417 0.006434 -0.003730 0.000278
# 4 0.003199 -0.004200 0.006434 0.064058 -0.049137 -0.002843
# 5 -0.002834 0.014581 -0.003730 -0.049137 0.101539 0.024286
# 6 -0.003633 0.004546 0.000278 -0.002843 0.024286 0.034886
#
#
# Mechanical properties :
#
#
# Convention : Reuss Voigt Hill
#
# Bulk Modulus (GPa) = 47.71380 57.26053 52.48716
# Shear Modulus (GPa) = 19.35621 34.29365 26.82493
#
# Velocity S-wave (km/s) = 2.88116 3.83499 3.39178
# Velocity P-wave (km/s) = 5.61522 6.64578 6.15212
#
# Compressibility (1/GPa) = 0.02095830
#
# Stress axis : x y z
#
# Youngs Moduli (GPa) = 89.76867 65.16760 106.19294
#
# Poissons Ratio (x) = 0.19191 0.11729
# Poissons Ratio (y) = 0.26435 0.36343
# Poissons Ratio (z) = 0.09915 0.22303
#
# Static dielectric constant tensor:
#      x y z
#    x 1.901690 -0.104030 0.036390 
#    y -0.104030 2.046490 0.061400 
#    z 0.036390 0.061400 2.146580 
# 
# From -- ./inp_files/109047.got.cif
#   From: 2010.05.17/outbox.cif.g08.bks.cpg/sg2_55_cif.got.tgz:109047.got - 2010.06.03 11:33:40.
