data_PCOD9041656
_publ_section_title
;
Structure prediction by ZEFSAII (Michael W. Deem and Ramdas Pophale) SiO2 
 PCOD9041656
Probable space group: P -1
;
_chemical_formula_sum "Si O2"
_cell_formula_units_Z 13
_cell_length_a 11.288770
_cell_length_b 10.278234
_cell_length_c 5.555496
_cell_angle_alpha 58.156241
_cell_angle_beta 79.974942
_cell_angle_gamma 74.200663
_cell_volume 526.526217
_symmetry_space_group_name_H-M "P -1"
_symmetry_group_IT_number 2
_symmetry_cell_setting 'triclinic'
loop_
_space_group_symop_operation_xyz
x,y,z
-x,-y,-z
loop_
_atom_site_type_symbol
_atom_site_label
_atom_site_fract_x
_atom_site_fract_y
_atom_site_fract_z
Si Si1 0.379151 0.518441 0.184517
Si Si2 0.871983 0.987088 0.181378
Si Si3 0.697390 0.231309 0.683707
Si Si4 0.425342 0.001863 0.275527
Si Si5 0.853125 0.270095 0.208922
Si Si6 0.000000 0.500000 0.000000
Si Si7 0.759777 0.724345 0.691725
O O1 0.392215 0.618158 0.320137
O O2 0.331749 0.356078 0.358955
O O3 0.500000 0.500000 0.000000
O O4 0.262988 0.640455 0.989535
O O5 0.841145 0.820722 0.412292
O O6 0.874203 0.086874 0.325461
O O7 0.756528 0.086404 0.975268
O O8 0.000000 0.000000 0.000000
O O9 0.629873 0.153196 0.577578
O O10 0.814063 0.292344 0.478909
O O11 0.500000 0.000000 0.500000
O O12 0.318505 0.157062 0.203259
O O13 0.500000 0.000000 0.000000
O O14 0.972333 0.337053 0.053633
O O15 0.856233 0.585297 0.918922
#
# Coordination Sequence:
#
# PCOD9041656 Si02
#       7
#     2   2   2   2   2   1   2
#     4  10  24  45  69 102 148 196 250 316 391 467
#     4  11  24  42  74 106 147 198 259 323 388 464
#     4  11  24  45  70 102 148 192 254 321 384 459
#     4  12  27  48  80 114 155 205 267 329 390 471
#     4  10  23  44  66 103 143 191 251 312 386 462
#     4  10  24  44  72 102 152 198 246 316 394 470
#     4  11  24  47  75 113 153 199 264 319 398 471
#
# _framework density 24.690128000000001
#
# number of rings (size 3 to 8) (size 9 to 14) (size 15 to 20)
#    0.000    1.231    1.538    2.769    6.462    3.077 
#    8.308    4.615    0.000    0.000    0.000    0.000 
#    0.000    0.000    0.000    0.000    0.000    0.000 
#
# Total GULP energy -72412.333270 kJ/mol
# GULP energy per Si atom -5570.179482 kJ/mol
# Density = 2.463393 g / cm^3
# Si number density = 24.690128 Si / 1000 Ang^3
#
#
#
# Elastic Constant Matrix: (Units=GPa)
#
#
# Indices 1 2 3 4 5 6 
#
# 1 131.5340 66.1241 24.1228 -1.9422 -8.5398 12.1628
# 2 66.1241 176.4543 31.7374 5.7934 -18.8126 14.5665
# 3 24.1228 31.7374 62.4228 0.2264 -15.6291 -2.0565
# 4 -1.9422 5.7934 0.2264 36.6683 0.5012 -13.3688
# 5 -8.5398 -18.8126 -15.6291 0.5012 49.4913 -7.5262
# 6 12.1628 14.5665 -2.0565 -13.3688 -7.5262 53.0267
#
#
#
# Elastic Compliance Matrix: (Units=1/GPa)
#
#
# Indices 1 2 3 4 5 6 
#
# 1 0.009732 -0.003187 -0.002307 0.000537 -0.000476 -0.001379
# 2 -0.003187 0.007645 -0.002367 -0.002030 0.001359 -0.001780
# 3 -0.002307 -0.002367 0.019539 0.001145 0.005314 0.002980
# 4 0.000537 -0.002030 0.001145 0.030627 0.000633 0.008290
# 5 -0.000476 0.001359 0.005314 0.000633 0.022820 0.003340
# 6 -0.001379 -0.001780 0.002980 0.008290 0.003340 0.022343
#
#
# Mechanical properties :
#
#
# Convention : Reuss Voigt Hill
#
# Bulk Modulus (GPa) = 47.17930 68.26440 57.72185
# Shear Modulus (GPa) = 36.90200 44.39904 40.65052
#
# Velocity S-wave (km/s) = 3.87021 4.24518 4.06202
# Velocity P-wave (km/s) = 6.25471 7.19286 6.74013
#
# Compressibility (1/GPa) = 0.02119574
#
# Stress axis : x y z
#
# Youngs Moduli (GPa) = 102.75174 130.79659 51.17885
#
# Poissons Ratio (x) = 0.41679 0.11808
# Poissons Ratio (y) = 0.32743 0.12113
# Poissons Ratio (z) = 0.23707 0.30957
#
# Static dielectric constant tensor:
#      x y z
#    x 2.038710 0.059450 -0.021520 
#    y 0.059450 1.999260 0.037070 
#    z -0.021520 0.037070 2.132840 
# 
# From -- ./inp_files/60132.got.cif
#   From: 2010.05.17/outbox.cif.g08.bks.cpg/sg2_31_cif.got.tgz:60132.got - 2010.06.03 11:33:40.
