data_PCOD9041897
_publ_section_title
;
Structure prediction by ZEFSAII (Michael W. Deem and Ramdas Pophale) SiO2 
 PCOD9041897
Probable space group: P -1
;
_chemical_formula_sum "Si O2"
_cell_formula_units_Z 16
_cell_length_a 11.621557
_cell_length_b 13.940079
_cell_length_c 12.412593
_cell_angle_alpha 79.810069
_cell_angle_beta 121.940169
_cell_angle_gamma 147.813040
_cell_volume 727.811541
_symmetry_space_group_name_H-M "P -1"
_symmetry_group_IT_number 2
_symmetry_cell_setting 'triclinic'
loop_
_space_group_symop_operation_xyz
x,y,z
-x,-y,-z
loop_
_atom_site_type_symbol
_atom_site_label
_atom_site_fract_x
_atom_site_fract_y
_atom_site_fract_z
Si Si1 0.268055 0.326842 0.516931
Si Si2 0.848884 0.991190 0.725484
Si Si3 0.320152 0.501873 0.143872
Si Si4 0.173030 0.033545 0.789387
Si Si5 0.351509 0.965516 0.032475
Si Si6 0.681134 0.234812 0.368387
Si Si7 0.043886 0.296892 0.609000
Si Si8 0.616979 0.645730 0.933259
O O1 0.500000 0.500000 0.500000
O O2 0.450638 0.362683 0.667841
O O3 0.191121 0.364605 0.553483
O O4 0.929689 0.080108 0.351461
O O5 0.574247 0.866874 0.675690
O O6 0.868033 0.903079 0.688616
O O7 0.963864 0.146215 0.664203
O O8 0.085551 0.114202 0.914509
O O9 0.516203 0.699252 0.123111
O O10 0.296852 0.377587 0.108927
O O11 0.961495 0.295084 0.031624
O O12 0.233230 0.988807 0.914052
O O13 0.568166 0.134886 0.209852
O O14 0.500000 0.000000 0.000000
O O15 0.000000 0.500000 0.500000
O O16 0.751393 0.176618 0.471815
O O17 0.333807 0.528448 0.775523
O O18 0.500000 0.500000 0.000000
#
# Coordination Sequence:
#
# PCOD9041897 Si02
#       8
#     2   2   2   2   2   2   2   2
#     4  11  22  41  71 107 143 182 237 302 359 421
#     4  11  23  42  73 104 133 181 244 297 356 429
#     4  11  22  43  72 102 136 184 237 296 354 424
#     4  12  25  43  77 108 132 187 251 296 355 441
#     4  12  29  50  69 103 152 195 238 298 367 434
#     4  12  29  45  66 105 151 192 238 297 371 433
#     4  10  23  44  68 101 142 187 231 295 366 423
#     4   9  17  38  70  99 130 172 234 288 349 413
#
# _framework density 21.983713000000002
#
# number of rings (size 3 to 8) (size 9 to 14) (size 15 to 20)
#    0.000    1.000    6.250    1.500    3.500    1.000 
#    2.250    0.000    0.000    0.000    0.000    0.000 
#    0.000    0.000    0.000    0.000    0.000    0.000 
#
# Total GULP energy -89204.502302 kJ/mol
# GULP energy per Si atom -5575.281394 kJ/mol
# Density = 2.193368 g / cm^3
# Si number density = 21.983713 Si / 1000 Ang^3
#
#
#
# Elastic Constant Matrix: (Units=GPa)
#
#
# Indices 1 2 3 4 5 6 
#
# 1 99.9439 40.4638 36.6837 -5.7001 16.0137 20.8847
# 2 40.4638 91.4806 24.5109 -5.5754 -1.6174 11.5408
# 3 36.6837 24.5109 135.1473 -7.8291 -1.1565 0.5684
# 4 -5.7001 -5.5754 -7.8291 33.6230 -4.3787 5.3642
# 5 16.0137 -1.6174 -1.1565 -4.3787 30.2467 0.6440
# 6 20.8847 11.5408 0.5684 5.3642 0.6440 37.6328
#
#
#
# Elastic Compliance Matrix: (Units=1/GPa)
#
#
# Indices 1 2 3 4 5 6 
#
# 1 0.016569 -0.005548 -0.003471 0.001112 -0.008882 -0.007448
# 2 -0.005548 0.014005 -0.000881 0.001940 0.003966 -0.001547
# 3 -0.003471 -0.000881 0.008586 0.001265 0.002263 0.001848
# 4 0.001112 0.001940 0.001265 0.032047 0.004328 -0.005873
# 5 -0.008882 0.003966 0.002263 0.004328 0.038638 0.002401
# 6 -0.007448 -0.001547 0.001848 -0.005873 0.002401 0.031948
#
#
# Mechanical properties :
#
#
# Convention : Reuss Voigt Hill
#
# Bulk Modulus (GPa) = 51.65720 58.87652 55.26686
# Shear Modulus (GPa) = 29.75341 35.29472 32.52407
#
# Velocity S-wave (km/s) = 3.68289 4.01121 3.85055
# Velocity P-wave (km/s) = 6.45243 6.94932 6.70548
#
# Compressibility (1/GPa) = 0.01935839
#
# Stress axis : x y z
#
# Youngs Moduli (GPa) = 60.35374 71.40281 116.46534
#
# Poissons Ratio (x) = 0.39617 0.40429
# Poissons Ratio (y) = 0.33487 0.10263
# Poissons Ratio (z) = 0.20951 0.06292
#
# Static dielectric constant tensor:
#      x y z
#    x 1.882240 0.031440 -0.020060 
#    y 0.031440 1.870620 0.032250 
#    z -0.020060 0.032250 1.857590 
# 
# From -- ./inp_files/433955.got.cif
#   From: 2010.05.17/outbox.cif.g08.bks.cpg/sg2_217_cif.got.tgz:433955.got - 2010.06.03 11:33:40.
