data_PCOD9041081
_publ_section_title
;
Structure prediction by ZEFSAII (Michael W. Deem and Ramdas Pophale) SiO2 
 PCOD9041081
Probable space group: P -1
;
_chemical_formula_sum "Si O2"
_cell_formula_units_Z 16
_cell_length_a 12.989622
_cell_length_b 8.919980
_cell_length_c 21.196163
_cell_angle_alpha 121.926190
_cell_angle_beta 143.628526
_cell_angle_gamma 34.872405
_cell_volume 767.246734
_symmetry_space_group_name_H-M "P -1"
_symmetry_group_IT_number 2
_symmetry_cell_setting 'triclinic'
loop_
_space_group_symop_operation_xyz
x,y,z
-x,-y,-z
loop_
_atom_site_type_symbol
_atom_site_label
_atom_site_fract_x
_atom_site_fract_y
_atom_site_fract_z
Si Si1 0.691724 0.250620 0.227500
Si Si2 0.795829 0.574702 0.365432
Si Si3 0.707387 0.768173 0.764860
Si Si4 0.797045 0.705347 0.610628
Si Si5 0.750331 0.121823 0.078685
Si Si6 0.862300 0.397521 0.131328
Si Si7 0.789627 0.523766 0.874896
Si Si8 0.228847 0.595552 0.384987
O O1 0.719332 0.430957 0.304220
O O2 0.703787 0.227364 0.151415
O O3 0.415678 0.389971 0.154493
O O4 0.955698 0.929071 0.311675
O O5 0.000000 0.500000 0.500000
O O6 0.967136 0.448088 0.357717
O O7 0.526289 0.911423 0.302504
O O8 0.631388 0.753422 0.792239
O O9 0.737052 0.574275 0.691747
O O10 0.997284 0.647532 0.874232
O O11 0.785502 0.511294 0.582958
O O12 0.913537 0.718198 0.731619
O O13 0.500000 0.000000 0.500000
O O14 0.812477 0.231592 0.084779
O O15 0.451666 0.273443 0.945723
O O16 0.012724 0.782944 0.127503
O O17 0.000000 0.500000 0.000000
O O18 0.500000 0.500000 0.500000
#
# Coordination Sequence:
#
# PCOD9041081 Si02
#       8
#     2   2   2   2   2   2   2   2
#     4  12  25  47  72 105 145 189 235 295 361 422
#     4  12  25  44  68 103 139 181 241 293 350 425
#     4  11  24  43  67 100 141 176 235 287 351 417
#     4  11  23  42  69  98 137 185 232 290 352 420
#     4  11  24  46  71 101 142 182 240 292 352 424
#     4  10  23  43  70  98 130 189 231 286 354 418
#     4  12  28  42  71 104 143 186 236 294 358 423
#     4  11  24  43  70 102 139 185 235 286 359 423
#
# _framework density 20.853788000000002
#
# number of rings (size 3 to 8) (size 9 to 14) (size 15 to 20)
#    0.000    0.750    2.500    5.250    5.250    2.000 
#    0.000    5.625    0.000    0.000    0.000    0.000 
#    0.000    0.000    0.000    0.000    0.000    0.000 
#
# Total GULP energy -89385.980598 kJ/mol
# GULP energy per Si atom -5586.623787 kJ/mol
# Density = 2.080632 g / cm^3
# Si number density = 20.853788 Si / 1000 Ang^3
#
#
#
# Elastic Constant Matrix: (Units=GPa)
#
#
# Indices 1 2 3 4 5 6 
#
# 1 122.6237 32.1907 31.1011 7.9975 25.3494 10.6059
# 2 32.1907 133.1578 50.5873 -15.8838 8.9261 11.7260
# 3 31.1011 50.5873 101.6719 -9.7580 18.4844 7.1607
# 4 7.9975 -15.8838 -9.7580 35.0558 0.5118 2.4189
# 5 25.3494 8.9261 18.4844 0.5118 43.6789 -0.1669
# 6 10.6059 11.7260 7.1607 2.4189 -0.1669 35.2971
#
#
#
# Elastic Compliance Matrix: (Units=1/GPa)
#
#
# Indices 1 2 3 4 5 6 
#
# 1 0.010467 -0.001833 -0.001569 -0.003444 -0.005003 -0.002005
# 2 -0.001833 0.010128 -0.004051 0.004026 0.000653 -0.002265
# 3 -0.001569 -0.004051 0.013351 0.002370 -0.003943 -0.001072
# 4 -0.003444 0.004026 0.002370 0.032004 -0.000214 -0.002978
# 5 -0.005003 0.000653 -0.003943 -0.000214 0.027344 0.002230
# 6 -0.002005 -0.002265 -0.001072 -0.002978 0.002230 0.030118
#
#
# Mechanical properties :
#
#
# Convention : Reuss Voigt Hill
#
# Bulk Modulus (GPa) = 52.52479 65.02351 58.77415
# Shear Modulus (GPa) = 34.56244 39.04467 36.80355
#
# Velocity S-wave (km/s) = 4.07550 4.33171 4.20555
# Velocity P-wave (km/s) = 6.88390 7.50111 7.19912
#
# Compressibility (1/GPa) = 0.01903863
#
# Stress axis : x y z
#
# Youngs Moduli (GPa) = 95.54282 98.73571 74.89909
#
# Poissons Ratio (x) = 0.18097 0.11755
# Poissons Ratio (y) = 0.17512 0.30344
# Poissons Ratio (z) = 0.14995 0.40001
#
# Static dielectric constant tensor:
#      x y z
#    x 1.748970 -0.009050 0.055710 
#    y -0.009050 1.792430 0.022760 
#    z 0.055710 0.022760 1.573950 
# 
# From -- ./inp_files/611778.got.cif
#   From: 2010.05.17/outbox.cif.g08.bks.cpg/sg2_306_cif.got.tgz:611778.got - 2010.06.03 11:33:40.
