data_PCOD9041899
_publ_section_title
;
Structure prediction by ZEFSAII (Michael W. Deem and Ramdas Pophale) SiO2 
 PCOD9041899
Probable space group: P -1
;
_chemical_formula_sum "Si O2"
_cell_formula_units_Z 14
_cell_length_a 11.563281
_cell_length_b 13.696807
_cell_length_c 9.359689
_cell_angle_alpha 98.955313
_cell_angle_beta 52.627148
_cell_angle_gamma 54.170747
_cell_volume 581.805101
_symmetry_space_group_name_H-M "P -1"
_symmetry_group_IT_number 2
_symmetry_cell_setting 'triclinic'
loop_
_space_group_symop_operation_xyz
x,y,z
-x,-y,-z
loop_
_atom_site_type_symbol
_atom_site_label
_atom_site_fract_x
_atom_site_fract_y
_atom_site_fract_z
Si Si1 0.660886 0.625520 0.699710
Si Si2 0.239251 0.049512 0.097402
Si Si3 0.194199 0.859468 0.682136
Si Si4 0.242027 0.411648 0.697739
Si Si5 0.966701 0.312052 0.622806
Si Si6 0.084569 0.872717 0.279184
Si Si7 0.448103 0.086530 0.416288
O O1 0.830177 0.518252 0.397476
O O2 0.803536 0.497159 0.706692
O O3 0.362099 0.739889 0.946457
O O4 0.527841 0.813491 0.857061
O O5 0.970485 0.136693 0.270925
O O6 0.176792 0.147904 0.305287
O O7 0.313747 0.076746 0.917236
O O8 0.536770 0.639277 0.409177
O O9 0.175500 0.958765 0.600218
O O10 0.000000 0.000000 0.000000
O O11 0.471777 0.188148 0.448920
O O12 0.000000 0.500000 0.000000
O O13 0.835392 0.283068 0.760504
O O14 0.134675 0.250872 0.621096
O O15 0.000000 0.000000 0.500000
O O16 0.500000 0.000000 0.500000
#
# Coordination Sequence:
#
# PCOD9041899 Si02
#       7
#     2   2   2   2   2   2   2
#     4  10  23  44  68 101 143 180 239 284 348 424
#     4  10  23  45  70 101 136 191 231 285 355 416
#     4  11  19  44  76  90 138 195 229 286 351 414
#     4  11  25  45  68 105 143 184 235 296 356 409
#     4  12  24  42  71 104 142 181 228 297 356 418
#     4  11  21  42  71 102 135 185 234 285 349 422
#     4  11  25  44  67 103 139 182 239 286 351 425
#
# _framework density 24.063039
#
# number of rings (size 3 to 8) (size 9 to 14) (size 15 to 20)
#    0.000    1.143    7.143    1.714    2.000    3.429 
#    7.714    0.714    0.000    0.000    0.000    0.000 
#    0.000    0.000    0.000    0.000    0.000    0.000 
#
# Total GULP energy -78031.172443 kJ/mol
# GULP energy per Si atom -5573.655174 kJ/mol
# Density = 2.400827 g / cm^3
# Si number density = 24.063039 Si / 1000 Ang^3
#
#
#
# Elastic Constant Matrix: (Units=GPa)
#
#
# Indices 1 2 3 4 5 6 
#
# 1 94.1740 35.9420 12.6901 5.4975 -5.3470 -17.4842
# 2 35.9420 155.6496 22.7488 -24.1293 4.8173 -19.4705
# 3 12.6901 22.7488 86.3998 -23.7620 -3.9600 2.2081
# 4 5.4975 -24.1293 -23.7620 46.8515 1.7321 -0.7502
# 5 -5.3470 4.8173 -3.9600 1.7321 31.0091 -3.4849
# 6 -17.4842 -19.4705 2.2081 -0.7502 -3.4849 39.2608
#
#
#
# Elastic Compliance Matrix: (Units=1/GPa)
#
#
# Indices 1 2 3 4 5 6 
#
# 1 0.013383 -0.002906 -0.002360 -0.004306 0.003244 0.004857
# 2 -0.002906 0.008277 -0.000708 0.004356 -0.001809 0.002773
# 3 -0.002360 -0.000708 0.014128 0.007012 0.000893 -0.001984
# 4 -0.004306 0.004356 0.007012 0.027728 -0.002050 0.000196
# 5 0.003244 -0.001809 0.000893 -0.002050 0.033705 0.003450
# 6 0.004857 0.002773 -0.001984 0.000196 0.003450 0.029431
#
#
# Mechanical properties :
#
#
# Convention : Reuss Voigt Hill
#
# Bulk Modulus (GPa) = 41.94808 53.22057 47.58433
# Shear Modulus (GPa) = 34.11860 41.08043 37.59952
#
# Velocity S-wave (km/s) = 3.76957 4.13631 3.95719
# Velocity P-wave (km/s) = 6.03462 6.70651 6.37941
#
# Compressibility (1/GPa) = 0.02383899
#
# Stress axis : x y z
#
# Youngs Moduli (GPa) = 74.72129 120.81071 70.78389
#
# Poissons Ratio (x) = 0.35104 0.16707
# Poissons Ratio (y) = 0.21712 0.05015
# Poissons Ratio (z) = 0.17637 0.08559
#
# Static dielectric constant tensor:
#      x y z
#    x 2.281090 -0.390400 -0.138810 
#    y -0.390400 2.524530 0.109580 
#    z -0.138810 0.109580 2.018890 
# 
# From -- ./inp_files/270425.got.cif
#   From: 2010.05.17/outbox.cif.g08.bks.cpg/sg2_136_cif.got.tgz:270425.got - 2010.06.03 11:33:40.
