data_PCOD9041762
_publ_section_title
;
Structure prediction by ZEFSAII (Michael W. Deem and Ramdas Pophale) SiO2 
 PCOD9041762
Probable space group: P -1
;
_chemical_formula_sum "Si O2"
_cell_formula_units_Z 12
_cell_length_a 9.337707
_cell_length_b 5.168983
_cell_length_c 17.579778
_cell_angle_alpha 111.191665
_cell_angle_beta 133.189631
_cell_angle_gamma 95.862925
_cell_volume 494.707529
_symmetry_space_group_name_H-M "P -1"
_symmetry_group_IT_number 2
_symmetry_cell_setting 'triclinic'
loop_
_space_group_symop_operation_xyz
x,y,z
-x,-y,-z
loop_
_atom_site_type_symbol
_atom_site_label
_atom_site_fract_x
_atom_site_fract_y
_atom_site_fract_z
Si Si1 0.040221 0.214707 0.351777
Si Si2 0.534949 0.849197 0.071201
Si Si3 0.635069 0.274613 0.350358
Si Si4 0.827030 0.788533 0.761677
Si Si5 0.939549 0.474715 0.064449
Si Si6 0.192918 0.205569 0.652385
O O1 0.163602 0.490258 0.490773
O O2 0.199612 0.329387 0.347790
O O3 0.791574 0.106988 0.217341
O O4 0.953527 0.876653 0.331610
O O5 0.500000 0.500000 0.000000
O O6 0.326125 0.774079 0.043123
O O7 0.500000 0.000000 0.000000
O O8 0.402659 0.228283 0.295193
O O9 0.989570 0.831200 0.139449
O O10 0.651674 0.958393 0.309738
O O11 0.913914 0.621677 0.836386
O O12 0.330439 0.546752 0.698424
O O13 0.000000 0.500000 0.000000
O O14 0.000000 0.000000 0.500000
#
# Coordination Sequence:
#
# PCOD9041762 Si02
#       6
#     2   2   2   2   2   2
#     4  11  24  45  71  99 137 175 227 281 335 398
#     4  12  25  46  70  99 132 175 231 281 330 401
#     4  11  25  44  69 105 135 181 219 279 346 399
#     4  12  26  46  70 100 141 174 229 277 340 410
#     4  12  27  49  67 102 135 184 225 280 338 400
#     4  10  23  44  67 101 137 174 227 271 335 403
#
# _framework density 24.256753
#
# number of rings (size 3 to 8) (size 9 to 14) (size 15 to 20)
#    0.000    0.667    3.333    4.000    4.667    8.000 
#    0.000    5.833    0.000    0.000    0.000    0.000 
#    0.000    0.000    0.000    0.000    0.000    0.000 
#
# Total GULP energy -67055.607422 kJ/mol
# GULP energy per Si atom -5587.967285 kJ/mol
# Density = 2.420154 g / cm^3
# Si number density = 24.256753 Si / 1000 Ang^3
#
#
#
# Elastic Constant Matrix: (Units=GPa)
#
#
# Indices 1 2 3 4 5 6 
#
# 1 149.7518 62.8696 14.8549 -15.9594 12.6866 22.1389
# 2 62.8696 188.6540 37.0684 -28.5196 -6.3691 3.0366
# 3 14.8549 37.0684 93.9369 -11.6653 10.8215 6.9101
# 4 -15.9594 -28.5196 -11.6653 45.7927 6.4569 -6.4273
# 5 12.6866 -6.3691 10.8215 6.4569 41.3268 5.4492
# 6 22.1389 3.0366 6.9101 -6.4273 5.4492 48.3908
#
#
#
# Elastic Compliance Matrix: (Units=1/GPa)
#
#
# Indices 1 2 3 4 5 6 
#
# 1 0.008720 -0.002850 0.000508 0.001347 -0.003016 -0.003365
# 2 -0.002850 0.007182 -0.002365 0.002784 0.001990 0.001337
# 3 0.000508 -0.002365 0.012313 0.002243 -0.003950 -0.001099
# 4 0.001347 0.002784 0.002243 0.025714 -0.004967 0.002864
# 5 -0.003016 0.001990 -0.003950 -0.004967 0.027496 -0.001937
# 6 -0.003365 0.001337 -0.001099 0.002864 -0.001937 0.022876
#
#
# Mechanical properties :
#
#
# Convention : Reuss Voigt Hill
#
# Bulk Modulus (GPa) = 53.19043 73.54759 63.36901
# Shear Modulus (GPa) = 41.67278 48.27204 44.97241
#
# Velocity S-wave (km/s) = 4.14936 4.46583 4.31050
# Velocity P-wave (km/s) = 6.70313 7.54837 7.13827
#
# Compressibility (1/GPa) = 0.01880038
#
# Stress axis : x y z
#
# Youngs Moduli (GPa) = 114.67559 139.24260 81.21548
#
# Poissons Ratio (x) = 0.39683 -0.04124
# Poissons Ratio (y) = 0.32682 0.19208
# Poissons Ratio (z) = -0.05823 0.32932
#
# Static dielectric constant tensor:
#      x y z
#    x 2.048880 -0.010950 -0.054000 
#    y -0.010950 1.983140 -0.015230 
#    z -0.054000 -0.015230 1.961120 
# 
# From -- ./inp_files/551754.got.cif
#   From: 2010.05.17/outbox.cif.g08.bks.cpg/sg2_276_cif.got.tgz:551754.got - 2010.06.03 11:33:40.
