data_PCOD9041697
_publ_section_title
;
Structure prediction by ZEFSAII (Michael W. Deem and Ramdas Pophale) SiO2 
 PCOD9041697
Probable space group: P -1
;
_chemical_formula_sum "Si O2"
_cell_formula_units_Z 16
_cell_length_a 16.476498
_cell_length_b 8.754285
_cell_length_c 16.112104
_cell_angle_alpha 130.155934
_cell_angle_beta 24.744611
_cell_angle_gamma 132.501303
_cell_volume 713.489318
_symmetry_space_group_name_H-M "P -1"
_symmetry_group_IT_number 2
_symmetry_cell_setting 'triclinic'
loop_
_space_group_symop_operation_xyz
x,y,z
-x,-y,-z
loop_
_atom_site_type_symbol
_atom_site_label
_atom_site_fract_x
_atom_site_fract_y
_atom_site_fract_z
Si Si1 0.633993 0.727962 0.424916
Si Si2 0.335320 0.838705 0.194812
Si Si3 0.200594 0.009652 0.226549
Si Si4 0.039577 0.741510 0.565381
Si Si5 0.194595 0.362086 0.092280
Si Si6 0.313774 0.975776 0.832733
Si Si7 0.023384 0.725421 0.154791
Si Si8 0.941645 0.713676 0.995231
O O1 0.500000 0.500000 0.500000
O O2 0.498875 0.887000 0.606850
O O3 0.741992 0.725787 0.234741
O O4 0.823564 0.780293 0.329768
O O5 0.281434 0.601285 0.125611
O O6 0.262065 0.842003 0.358035
O O7 0.219345 0.970265 0.292499
O O8 0.570348 0.939057 0.000207
O O9 0.108619 0.180559 0.331270
O O10 0.072981 0.798727 0.228004
O O11 0.976078 0.753982 0.723329
O O12 0.000000 0.500000 0.500000
O O13 0.104394 0.341342 0.076848
O O14 0.352532 0.222544 0.896601
O O15 0.205598 0.853895 0.972425
O O16 0.135424 0.906483 0.904027
O O17 0.000302 0.482750 0.086784
#
# Coordination Sequence:
#
# PCOD9041697 Si02
#       8
#     2   2   2   2   2   2   2   2
#     4  11  21  39  67  97 127 171 223 268 320 377
#     4  10  24  44  72  94 129 169 224 275 318 392
#     4  11  22  45  69  98 126 171 222 272 327 376
#     4  10  23  44  66  96 132 168 217 271 328 388
#     4  11  23  43  66  96 138 177 208 268 336 383
#     4  11  22  42  64  96 133 173 213 270 327 389
#     4  11  21  40  70  93 130 173 218 272 320 384
#     4  11  22  41  66  96 138 168 217 271 318 389
#
# _framework density 22.425003
#
# number of rings (size 3 to 8) (size 9 to 14) (size 15 to 20)
#    0.000    1.250    5.000    1.500    0.000    3.500 
#    2.250    5.000    0.000    0.000    0.000    0.000 
#    0.000    0.000    0.000    0.000    0.000    0.000 
#
# Total GULP energy -89425.774090 kJ/mol
# GULP energy per Si atom -5589.110881 kJ/mol
# Density = 2.237396 g / cm^3
# Si number density = 22.425003 Si / 1000 Ang^3
#
#
#
# Elastic Constant Matrix: (Units=GPa)
#
#
# Indices 1 2 3 4 5 6 
#
# 1 112.4802 20.8125 53.3341 -5.9024 17.6227 -7.1635
# 2 20.8125 86.1784 23.6795 25.4312 -4.0140 -8.4324
# 3 53.3341 23.6795 133.8992 11.8241 6.3875 -10.7343
# 4 -5.9024 25.4312 11.8241 44.7119 -6.4053 -2.7937
# 5 17.6227 -4.0140 6.3875 -6.4053 31.1725 1.7523
# 6 -7.1635 -8.4324 -10.7343 -2.7937 1.7523 28.8353
#
#
#
# Elastic Compliance Matrix: (Units=1/GPa)
#
#
# Indices 1 2 3 4 5 6 
#
# 1 0.012847 -0.003168 -0.004509 0.003911 -0.006018 0.001331
# 2 -0.003168 0.015406 -0.000596 -0.008579 0.001991 0.002544
# 3 -0.004509 -0.000596 0.009790 -0.002745 -0.000216 0.002097
# 4 0.003911 -0.008579 -0.002745 0.028948 0.003192 0.000052
# 5 -0.006018 0.001991 -0.000216 0.003192 0.036602 -0.002908
# 6 0.001331 0.002544 0.002097 0.000052 -0.002908 0.036717
#
#
# Mechanical properties :
#
#
# Convention : Reuss Voigt Hill
#
# Bulk Modulus (GPa) = 46.51512 58.69002 52.60257
# Shear Modulus (GPa) = 30.48364 36.59270 33.53817
#
# Velocity S-wave (km/s) = 3.69095 4.04391 3.87146
# Velocity P-wave (km/s) = 6.24113 6.93057 6.59487
#
# Compressibility (1/GPa) = 0.02149839
#
# Stress axis : x y z
#
# Youngs Moduli (GPa) = 77.83644 64.90947 102.14062
#
# Poissons Ratio (x) = 0.20564 0.46051
# Poissons Ratio (y) = 0.24660 0.06088
# Poissons Ratio (z) = 0.35094 0.03869
#
# Static dielectric constant tensor:
#      x y z
#    x 1.842140 -0.007520 0.013480 
#    y -0.007520 1.870700 0.014560 
#    z 0.013480 0.014560 1.821880 
# 
# From -- ./inp_files/575570.got.cif
#   From: 2010.05.17/outbox.cif.g08.bks.cpg/sg2_288_cif.got.tgz:575570.got - 2010.06.03 11:33:40.
