data_PCOD9041692
_publ_section_title
;
Structure prediction by ZEFSAII (Michael W. Deem and Ramdas Pophale) SiO2 
 PCOD9041692
Probable space group: P -1
;
_chemical_formula_sum "Si O2"
_cell_formula_units_Z 16
_cell_length_a 5.336335
_cell_length_b 8.919485
_cell_length_c 15.192604
_cell_angle_alpha 68.979508
_cell_angle_beta 84.703198
_cell_angle_gamma 88.209331
_cell_volume 672.121545
_symmetry_space_group_name_H-M "P -1"
_symmetry_group_IT_number 2
_symmetry_cell_setting 'triclinic'
loop_
_space_group_symop_operation_xyz
x,y,z
-x,-y,-z
loop_
_atom_site_type_symbol
_atom_site_label
_atom_site_fract_x
_atom_site_fract_y
_atom_site_fract_z
Si Si1 0.168436 0.900178 0.449327
Si Si2 0.466523 0.042903 0.713222
Si Si3 0.242684 0.414607 0.106067
Si Si4 0.407481 0.627806 0.597571
Si Si5 0.999520 0.263028 0.977676
Si Si6 0.283534 0.702918 0.778792
Si Si7 0.212943 0.345433 0.566532
Si Si8 0.331980 0.038772 0.912093
O O1 0.298006 0.000984 0.346815
O O2 0.356509 0.808088 0.527759
O O3 0.023826 0.758074 0.433172
O O4 0.000000 0.000000 0.500000
O O5 0.377241 0.213171 0.642050
O O6 0.493370 0.054510 0.814842
O O7 0.277570 0.895913 0.733866
O O8 0.509355 0.349641 0.144215
O O9 0.210698 0.606770 0.067960
O O10 0.998052 0.356697 0.181537
O O11 0.181159 0.347503 0.024895
O O12 0.398411 0.631062 0.700897
O O13 0.203061 0.498493 0.597705
O O14 0.655970 0.590112 0.541101
O O15 0.165248 0.195389 0.906298
O O16 0.863808 0.109255 0.057760
O O17 0.500000 0.000000 0.000000
#
# Coordination Sequence:
#
# PCOD9041692 Si02
#       8
#     2   2   2   2   2   2   2   2
#     4  11  23  42  72 101 141 188 235 295 362 430
#     4  11  25  42  67 102 138 185 244 292 360 430
#     4  11  27  46  74 105 143 189 240 304 352 436
#     4  10  24  43  65 100 135 186 232 296 355 431
#     4  10  25  46  70 101 140 190 236 296 367 419
#     4  12  26  45  72 106 142 185 244 296 359 427
#     4  10  23  44  66  94 142 179 237 290 361 425
#     4  11  24  45  71 100 145 186 240 296 363 431
#
# _framework density 23.805219999999998
#
# number of rings (size 3 to 8) (size 9 to 14) (size 15 to 20)
#    0.000    1.250    1.250    2.625    8.750    5.000 
#    0.000    0.000    0.000    0.000    0.000    0.000 
#    0.000    0.000    0.000    0.000    0.000    0.000 
#
# Total GULP energy -89491.780708 kJ/mol
# GULP energy per Si atom -5593.236294 kJ/mol
# Density = 2.375104 g / cm^3
# Si number density = 23.805220 Si / 1000 Ang^3
#
#
#
# Elastic Constant Matrix: (Units=GPa)
#
#
# Indices 1 2 3 4 5 6 
#
# 1 65.3388 6.8342 28.6186 -1.0727 -0.2467 -4.5321
# 2 6.8342 108.3333 33.9606 1.0938 -3.7433 -16.8546
# 3 28.6186 33.9606 129.4705 16.3214 -22.8701 -4.6595
# 4 -1.0727 1.0938 16.3214 31.2257 -1.5531 -1.6790
# 5 -0.2467 -3.7433 -22.8701 -1.5531 27.5811 -4.8168
# 6 -4.5321 -16.8546 -4.6595 -1.6790 -4.8168 31.9517
#
#
#
# Elastic Compliance Matrix: (Units=1/GPa)
#
#
# Indices 1 2 3 4 5 6 
#
# 1 0.017578 0.000566 -0.004965 0.003102 -0.003409 0.001717
# 2 0.000566 0.010977 -0.002981 0.001494 0.000072 0.005525
# 3 -0.004965 -0.002981 0.011998 -0.005846 0.009269 0.000563
# 4 0.003102 0.001494 -0.005846 0.035120 -0.002312 0.001872
# 5 -0.003409 0.000072 0.009269 -0.002312 0.045116 0.007586
# 6 0.001717 0.005525 0.000563 0.001872 0.007586 0.035779
#
#
# Mechanical properties :
#
#
# Convention : Reuss Voigt Hill
#
# Bulk Modulus (GPa) = 38.77363 49.10772 43.94067
# Shear Modulus (GPa) = 27.78930 33.73365 30.76147
#
# Velocity S-wave (km/s) = 3.42037 3.76848 3.59864
# Velocity P-wave (km/s) = 5.64994 6.29357 5.98042
#
# Compressibility (1/GPa) = 0.02579073
#
# Stress axis : x y z
#
# Youngs Moduli (GPa) = 56.89072 91.10323 83.34976
#
# Poissons Ratio (x) = -0.05153 0.41384
# Poissons Ratio (y) = -0.03218 0.24846
# Poissons Ratio (z) = 0.28247 0.27158
#
# Static dielectric constant tensor:
#      x y z
#    x 1.962720 -0.018860 -0.006630 
#    y -0.018860 1.910750 -0.005580 
#    z -0.006630 -0.005580 1.902200 
# 
# From -- ./inp_files/143185.got.cif
#   From: 2010.05.17/outbox.cif.g08.bks.cpg/sg2_72_cif.got.tgz:143185.got - 2010.06.03 11:33:40.
