data_PCOD9041855
_publ_section_title
;
Structure prediction by ZEFSAII (Michael W. Deem and Ramdas Pophale) SiO2 
 PCOD9041855
Probable space group: P -1
;
_chemical_formula_sum "Si O2"
_cell_formula_units_Z 16
_cell_length_a 5.893519
_cell_length_b 15.400208
_cell_length_c 8.952638
_cell_angle_alpha 65.864648
_cell_angle_beta 64.207010
_cell_angle_gamma 79.861154
_cell_volume 667.644186
_symmetry_space_group_name_H-M "P -1"
_symmetry_group_IT_number 2
_symmetry_cell_setting 'triclinic'
loop_
_space_group_symop_operation_xyz
x,y,z
-x,-y,-z
loop_
_atom_site_type_symbol
_atom_site_label
_atom_site_fract_x
_atom_site_fract_y
_atom_site_fract_z
Si Si1 0.705283 0.515340 0.298682
Si Si2 0.391954 0.661969 0.130787
Si Si3 0.742710 0.947265 0.058030
Si Si4 0.402176 0.968073 0.391670
Si Si5 0.551964 0.361026 0.215459
Si Si6 0.008920 0.632605 0.516129
Si Si7 0.878245 0.218556 0.379486
Si Si8 0.678696 0.833985 0.888662
O O1 0.500000 0.500000 0.500000
O O2 0.631437 0.618688 0.185105
O O3 0.678543 0.447441 0.209503
O O4 0.942246 0.468924 0.346236
O O5 0.140710 0.637097 0.313803
O O6 0.415541 0.623914 0.981495
O O7 0.427926 0.775517 0.035142
O O8 0.615398 0.915430 0.270540
O O9 0.810950 0.863211 0.984650
O O10 0.500000 0.000000 0.000000
O O11 0.000000 0.000000 0.000000
O O12 0.175668 0.893008 0.508480
O O13 0.500000 0.000000 0.500000
O O14 0.354622 0.067920 0.256339
O O15 0.688161 0.262072 0.283726
O O16 0.284152 0.352624 0.382140
O O17 0.142936 0.717298 0.512723
O O18 0.152600 0.230775 0.220927
#
# Coordination Sequence:
#
# PCOD9041855 Si02
#       8
#     2   2   2   2   2   2   2   2
#     4   9  22  43  69  99 138 173 230 278 347 423
#     4  11  22  43  69 103 133 179 228 285 348 415
#     4  10  23  44  67  98 138 183 241 297 355 430
#     4  11  23  41  69  99 132 183 234 288 362 417
#     4  11  23  45  65 102 133 180 229 281 348 419
#     4  10  23  45  69  94 141 172 225 285 343 417
#     4  11  23  44  63  97 136 177 228 287 343 417
#     4  11  23  44  68  98 142 180 235 293 355 428
#
# _framework density 23.964862
#
# number of rings (size 3 to 8) (size 9 to 14) (size 15 to 20)
#    0.000    1.500    1.250    3.000    0.000    4.500 
#   15.750    0.000    0.000    0.000    0.000    0.000 
#    0.000    0.000    0.000    0.000    0.000    0.000 
#
# Total GULP energy -89252.297207 kJ/mol
# GULP energy per Si atom -5578.268575 kJ/mol
# Density = 2.391032 g / cm^3
# Si number density = 23.964862 Si / 1000 Ang^3
#
#
#
# Elastic Constant Matrix: (Units=GPa)
#
#
# Indices 1 2 3 4 5 6 
#
# 1 63.6097 23.8135 46.8720 6.9151 -3.3673 12.4391
# 2 23.8135 97.4733 48.6204 3.5452 11.1483 13.6986
# 3 46.8720 48.6204 155.1635 18.3544 6.8279 14.0906
# 4 6.9151 3.5452 18.3544 42.9337 4.9370 12.0796
# 5 -3.3673 11.1483 6.8279 4.9370 25.4311 6.2360
# 6 12.4391 13.6986 14.0906 12.0796 6.2360 49.8983
#
#
#
# Elastic Compliance Matrix: (Units=1/GPa)
#
#
# Indices 1 2 3 4 5 6 
#
# 1 0.022126 -0.002775 -0.005691 -0.000594 0.006732 -0.003844
# 2 -0.002775 0.013301 -0.003145 0.001819 -0.005252 -0.001856
# 3 -0.005691 -0.003145 0.009509 -0.002851 -0.001491 0.000473
# 4 -0.000594 0.001819 -0.002851 0.026441 -0.003905 -0.005459
# 5 0.006732 -0.005252 -0.001491 -0.003905 0.044769 -0.004465
# 6 -0.003844 -0.001856 0.000473 -0.005459 -0.004465 0.023255
#
#
# Mechanical properties :
#
#
# Convention : Reuss Voigt Hill
#
# Bulk Modulus (GPa) = 46.05299 61.65093 53.85196
# Shear Modulus (GPa) = 29.43561 36.78199 33.10880
#
# Velocity S-wave (km/s) = 3.50849 3.92194 3.72096
# Velocity P-wave (km/s) = 5.97254 6.80369 6.40162
#
# Compressibility (1/GPa) = 0.02171412
#
# Stress axis : x y z
#
# Youngs Moduli (GPa) = 45.19538 75.18019 105.15866
#
# Poissons Ratio (x) = 0.20861 0.59848
# Poissons Ratio (y) = 0.12541 0.33076
# Poissons Ratio (z) = 0.25722 0.23647
#
# Static dielectric constant tensor:
#      x y z
#    x 1.993260 -0.058230 0.010670 
#    y -0.058230 1.973290 -0.002040 
#    z 0.010670 -0.002040 1.909080 
# 
# From -- ./inp_files/138674.got.cif
#   From: 2010.05.17/outbox.cif.g08.bks.cpg/sg2_70_cif.got.tgz:138674.got - 2010.06.03 11:33:40.
