data_PCOD9041954
_publ_section_title
;
Structure prediction by ZEFSAII (Michael W. Deem and Ramdas Pophale) SiO2 
 PCOD9041954
Probable space group: P -1
;
_chemical_formula_sum "Si O2"
_cell_formula_units_Z 14
_cell_length_a 8.777222
_cell_length_b 11.154344
_cell_length_c 9.886052
_cell_angle_alpha 112.831651
_cell_angle_beta 132.657171
_cell_angle_gamma 53.688804
_cell_volume 573.437269
_symmetry_space_group_name_H-M "P -1"
_symmetry_group_IT_number 2
_symmetry_cell_setting 'triclinic'
loop_
_space_group_symop_operation_xyz
x,y,z
-x,-y,-z
loop_
_atom_site_type_symbol
_atom_site_label
_atom_site_fract_x
_atom_site_fract_y
_atom_site_fract_z
Si Si1 0.891502 0.836869 0.731117
Si Si2 0.949437 0.378200 0.486741
Si Si3 0.776111 0.380750 0.954266
Si Si4 0.387007 0.889938 0.501987
Si Si5 0.831489 0.319770 0.663026
Si Si6 0.378213 0.093980 0.836640
Si Si7 0.402391 0.329075 0.849546
O O1 0.084572 0.719017 0.690254
O O2 0.657524 0.817088 0.583308
O O3 0.015446 0.771695 0.921590
O O4 0.785489 0.001362 0.674161
O O5 0.216036 0.281485 0.659979
O O6 0.000000 0.500000 0.500000
O O7 0.786831 0.410601 0.534773
O O8 0.737239 0.525656 0.077927
O O9 0.797571 0.404443 0.820463
O O10 0.541771 0.367071 0.839309
O O11 0.313602 0.769192 0.450061
O O12 0.380178 0.988481 0.669579
O O13 0.107126 0.198109 0.769146
O O14 0.540480 0.176645 0.946148
O O15 0.500000 0.000000 0.000000
#
# Coordination Sequence:
#
# PCOD9041954 Si02
#       7
#     2   2   2   2   2   2   2
#     4  11  23  41  71  94 135 181 221 269 337 397
#     4  11  22  45  70  93 130 180 219 281 341 389
#     4  11  24  43  69 101 130 180 222 278 330 396
#     4  11  24  43  65 101 134 179 224 271 329 405
#     4  11  25  42  68  98 137 169 227 281 325 401
#     4  11  24  42  66  99 137 176 220 280 331 390
#     4  10  23  44  68  94 137 173 226 272 337 394
#
# _framework density 24.414176999999999
#
# number of rings (size 3 to 8) (size 9 to 14) (size 15 to 20)
#    0.000    1.143    4.286    2.143    4.000    2.857 
#    2.571    1.429    0.000    0.000    0.000    0.000 
#    0.000    0.000    0.000    0.000    0.000    0.000 
#
# Total GULP energy -78093.521597 kJ/mol
# GULP energy per Si atom -5578.108685 kJ/mol
# Density = 2.435861 g / cm^3
# Si number density = 24.414177 Si / 1000 Ang^3
#
#
#
# Elastic Constant Matrix: (Units=GPa)
#
#
# Indices 1 2 3 4 5 6 
#
# 1 112.5342 24.1449 35.1912 1.9088 -36.9891 13.2968
# 2 24.1449 56.6594 24.4938 -2.3705 -16.0547 12.8494
# 3 35.1912 24.4938 76.2605 10.8698 -24.7099 -0.7717
# 4 1.9088 -2.3705 10.8698 29.8404 0.7552 -6.0484
# 5 -36.9891 -16.0547 -24.7099 0.7552 45.4829 0.0685
# 6 13.2968 12.8494 -0.7717 -6.0484 0.0685 44.7828
#
#
#
# Elastic Compliance Matrix: (Units=1/GPa)
#
#
# Indices 1 2 3 4 5 6 
#
# 1 0.013450 -0.001113 -0.002830 -0.000929 0.009029 -0.003862
# 2 -0.001113 0.023432 -0.006197 0.002849 0.003962 -0.006121
# 3 -0.002830 -0.006197 0.019457 -0.007155 0.006197 0.001978
# 4 -0.000929 0.002849 -0.007155 0.037402 -0.004265 0.004393
# 5 0.009029 0.003962 0.006197 -0.004265 0.034172 -0.004339
# 6 -0.003862 -0.006121 0.001978 0.004393 -0.004339 0.025867
#
#
# Mechanical properties :
#
#
# Convention : Reuss Voigt Hill
#
# Bulk Modulus (GPa) = 27.73193 45.90156 36.81674
# Shear Modulus (GPa) = 26.87010 34.79615 30.83312
#
# Velocity S-wave (km/s) = 3.32112 3.77934 3.55761
# Velocity P-wave (km/s) = 5.10784 6.15520 5.65582
#
# Compressibility (1/GPa) = 0.03605952
#
# Stress axis : x y z
#
# Youngs Moduli (GPa) = 74.35013 42.67603 51.39441
#
# Poissons Ratio (x) = 0.04748 0.14546
# Poissons Ratio (y) = 0.08272 0.31850
# Poissons Ratio (z) = 0.21044 0.26447
#
# Static dielectric constant tensor:
#      x y z
#    x 2.847180 2.201290 -2.010690 
#    y 2.201290 7.547380 -5.134490 
#    z -2.010690 -5.134490 6.647930 
# 
# From -- ./inp_files/181924.got.cif
#   From: 2010.05.17/outbox.cif.g08.bks.cpg/sg2_91_cif.got.tgz:181924.got - 2010.06.03 11:33:40.
