data_PCOD9041558
_publ_section_title
;
Structure prediction by ZEFSAII (Michael W. Deem and Ramdas Pophale) SiO2 
 PCOD9041558
Probable space group: P -1
;
_chemical_formula_sum "Si O2"
_cell_formula_units_Z 16
_cell_length_a 9.567538
_cell_length_b 18.259591
_cell_length_c 17.957008
_cell_angle_alpha 30.869526
_cell_angle_beta 40.120435
_cell_angle_gamma 28.321642
_cell_volume 763.087722
_symmetry_space_group_name_H-M "P -1"
_symmetry_group_IT_number 2
_symmetry_cell_setting 'triclinic'
loop_
_space_group_symop_operation_xyz
x,y,z
-x,-y,-z
loop_
_atom_site_type_symbol
_atom_site_label
_atom_site_fract_x
_atom_site_fract_y
_atom_site_fract_z
Si Si1 0.291032 0.454818 0.132838
Si Si2 0.810889 0.471800 0.553607
Si Si3 0.126157 0.882446 0.129037
Si Si4 0.330233 0.238636 0.444227
Si Si5 0.720100 0.226636 0.414704
Si Si6 0.335156 0.176305 0.972638
Si Si7 0.527428 0.116147 0.237298
Si Si8 0.097895 0.291861 0.130785
O O1 0.381620 0.307324 0.290336
O O2 0.332701 0.335771 0.148741
O O3 0.500000 0.500000 0.000000
O O4 0.946796 0.642043 0.116862
O O5 0.829576 0.307736 0.727388
O O6 0.467819 0.668329 0.524925
O O7 0.000000 0.500000 0.500000
O O8 0.984777 0.383505 0.481855
O O9 0.418374 0.825634 0.092532
O O10 0.858724 0.022114 0.173816
O O11 0.000000 0.000000 0.000000
O O12 0.493464 0.256298 0.425170
O O13 0.463677 0.020626 0.590178
O O14 0.836155 0.320659 0.250473
O O15 0.000000 0.000000 0.500000
O O16 0.172363 0.205209 0.092269
O O17 0.500000 0.000000 0.000000
O O18 0.390480 0.129228 0.202933
O O19 0.000000 0.500000 0.000000
#
# Coordination Sequence:
#
# PCOD9041558 Si02
#       8
#     2   2   2   2   2   2   2   2
#     4  12  26  46  69 100 143 190 233 292 358 432
#     4   9  22  40  63  98 137 179 232 288 355 416
#     4  11  23  42  71 101 138 185 236 295 353 423
#     4  10  23  44  64  96 140 181 223 291 360 420
#     4  11  22  38  66  99 132 175 238 287 344 416
#     4  12  27  44  68 109 147 186 237 296 364 419
#     4  11  23  43  70 100 135 181 241 287 357 415
#     4  12  23  42  72 103 139 181 239 299 343 420
#
# _framework density 20.967445999999999
#
# number of rings (size 3 to 8) (size 9 to 14) (size 15 to 20)
#    0.000    1.000    3.750    2.625    0.000    4.000 
#    0.000    2.500    0.000    0.000    0.000    0.000 
#    0.000    0.000    0.000    0.000    0.000    0.000 
#
# Total GULP energy -89183.717249 kJ/mol
# GULP energy per Si atom -5573.982328 kJ/mol
# Density = 2.091972 g / cm^3
# Si number density = 20.967446 Si / 1000 Ang^3
#
#
#
# Elastic Constant Matrix: (Units=GPa)
#
#
# Indices 1 2 3 4 5 6 
#
# 1 70.5770 17.5250 40.9505 -1.6904 -5.0193 -3.4590
# 2 17.5250 122.6579 34.1382 -9.7936 -18.4242 -8.3450
# 3 40.9505 34.1382 136.4197 0.9369 -14.6538 -2.5119
# 4 -1.6904 -9.7936 0.9369 32.4183 -3.2116 -6.1562
# 5 -5.0193 -18.4242 -14.6538 -3.2116 37.1074 2.0987
# 6 -3.4590 -8.3450 -2.5119 -6.1562 2.0987 36.6708
#
#
#
# Elastic Compliance Matrix: (Units=1/GPa)
#
#
# Indices 1 2 3 4 5 6 
#
# 1 0.017366 -0.000944 -0.004968 0.000996 -0.000066 0.001254
# 2 -0.000944 0.009886 -0.001710 0.003878 0.004303 0.002448
# 3 -0.004968 -0.001710 0.009480 -0.000927 0.002170 -0.000488
# 4 0.000996 0.003878 -0.000927 0.033721 0.004254 0.006330
# 5 -0.000066 0.004303 0.002170 0.004254 0.030296 0.000102
# 6 0.001254 0.002448 -0.000488 0.006330 0.000102 0.028969
#
#
# Mechanical properties :
#
#
# Convention : Reuss Voigt Hill
#
# Bulk Modulus (GPa) = 46.53464 57.20908 51.87186
# Shear Modulus (GPa) = 32.86816 37.04203 34.95509
#
# Velocity S-wave (km/s) = 3.96356 4.20771 4.08746
# Velocity P-wave (km/s) = 6.57179 7.13795 6.86071
#
# Compressibility (1/GPa) = 0.02148937
#
# Stress axis : x y z
#
# Youngs Moduli (GPa) = 57.58295 101.15279 105.48617
#
# Poissons Ratio (x) = 0.09546 0.52402
# Poissons Ratio (y) = 0.05434 0.18038
# Poissons Ratio (z) = 0.28605 0.17297
#
# Static dielectric constant tensor:
#      x y z
#    x 1.761060 0.038280 0.028660 
#    y 0.038280 1.851130 -0.002550 
#    z 0.028660 -0.002550 1.763370 
# 
# From -- ./inp_files/209365.got.cif
#   From: 2010.05.17/outbox.cif.g08.bks.cpg/sg2_105_cif.got.tgz:209365.got - 2010.06.03 11:33:40.
