data_PCOD9041288
_publ_section_title
;
Structure prediction by ZEFSAII (Michael W. Deem and Ramdas Pophale) SiO2 
 PCOD9041288
Probable space group: P -1
;
_chemical_formula_sum "Si O2"
_cell_formula_units_Z 13
_cell_length_a 9.586511
_cell_length_b 8.063249
_cell_length_c 14.076526
_cell_angle_alpha 134.056145
_cell_angle_beta 66.698251
_cell_angle_gamma 80.382311
_cell_volume 533.238832
_symmetry_space_group_name_H-M "P -1"
_symmetry_group_IT_number 2
_symmetry_cell_setting 'triclinic'
loop_
_space_group_symop_operation_xyz
x,y,z
-x,-y,-z
loop_
_atom_site_type_symbol
_atom_site_label
_atom_site_fract_x
_atom_site_fract_y
_atom_site_fract_z
Si Si1 0.607724 0.735756 0.482405
Si Si2 0.587524 0.155048 0.066352
Si Si3 0.500000 0.500000 0.000000
Si Si4 0.010753 0.933570 0.858384
Si Si5 0.052742 0.784387 0.202362
Si Si6 0.651075 0.182701 0.584284
Si Si7 0.361397 0.117222 0.867968
O O1 0.533980 0.704801 0.390629
O O2 0.773242 0.404696 0.353326
O O3 0.702880 0.892626 0.506210
O O4 0.408239 0.977196 0.695579
O O5 0.450966 0.506967 0.202993
O O6 0.580758 0.141005 0.176838
O O7 0.500000 0.000000 0.000000
O O8 0.821056 0.956668 0.899328
O O9 0.753646 0.251216 0.840038
O O10 0.494330 0.215472 0.884799
O O11 0.978514 0.166691 0.883080
O O12 0.000000 0.000000 0.000000
O O13 0.132367 0.447193 0.074068
O O14 0.849706 0.057578 0.423183
#
# Coordination Sequence:
#
# PCOD9041288 Si02
#       7
#     2   2   1   2   2   2   2
#     4  11  25  43  70 103 145 179 240 287 347 421
#     4  12  26  45  71 105 142 185 236 288 352 420
#     4   8  22  44  66  98 136 176 232 272 356 412
#     4  12  25  44  70 105 145 183 232 295 349 419
#     4  10  23  44  73  96 144 180 234 290 350 416
#     4  11  25  44  70 106 138 188 232 291 350 418
#     4  10  23  43  72  96 141 181 227 289 345 414
#
# _framework density 24.379318999999999
#
# number of rings (size 3 to 8) (size 9 to 14) (size 15 to 20)
#    0.923    0.308    1.538    3.692    6.462    3.077 
#    0.000    5.385    0.000    0.000    0.000    0.000 
#    0.000    0.000    0.000    0.000    0.000    0.000 
#
# Total GULP energy -72463.872535 kJ/mol
# GULP energy per Si atom -5574.144041 kJ/mol
# Density = 2.432383 g / cm^3
# Si number density = 24.379319 Si / 1000 Ang^3
#
#
#
# Elastic Constant Matrix: (Units=GPa)
#
#
# Indices 1 2 3 4 5 6 
#
# 1 115.7454 6.2232 32.3384 10.1917 -10.3166 19.1337
# 2 6.2232 73.9946 -18.9275 21.8107 -2.1706 -0.3617
# 3 32.3384 -18.9275 91.0650 16.3299 -18.8199 -0.6298
# 4 10.1917 21.8107 16.3299 36.4263 4.9950 0.0122
# 5 -10.3166 -2.1706 -18.8199 4.9950 41.7475 -0.0459
# 6 19.1337 -0.3617 -0.6298 0.0122 -0.0459 31.7817
#
#
#
# Elastic Compliance Matrix: (Units=1/GPa)
#
#
# Indices 1 2 3 4 5 6 
#
# 1 0.011134 -0.001999 -0.004243 -0.000116 0.000741 -0.006809
# 2 -0.001999 0.021728 0.009950 -0.017908 0.007266 0.001665
# 3 -0.004243 0.009950 0.019279 -0.014777 0.009932 0.003069
# 4 -0.000116 -0.017908 -0.014777 0.046643 -0.013202 -0.000464
# 5 0.000741 0.007266 0.009932 -0.013202 0.030571 -0.000118
# 6 -0.006809 0.001665 0.003069 -0.000464 -0.000118 0.035644
#
#
# Mechanical properties :
#
#
# Convention : Reuss Voigt Hill
#
# Bulk Modulus (GPa) = 16.79010 35.56369 26.17689
# Shear Modulus (GPa) = 28.17936 39.40248 33.79092
#
# Velocity S-wave (km/s) = 3.40350 4.02459 3.72701
# Velocity P-wave (km/s) = 4.72727 6.01795 5.41123
#
# Compressibility (1/GPa) = 0.05955891
#
# Stress axis : x y z
#
# Youngs Moduli (GPa) = 89.81237 46.02406 51.86873
#
# Poissons Ratio (x) = 0.09201 0.22006
# Poissons Ratio (y) = 0.17954 -0.51611
# Poissons Ratio (z) = 0.38104 -0.45796
#
# Static dielectric constant tensor:
#      x y z
#    x 2.057350 -0.371130 0.197490 
#    y -0.371130 2.970200 -0.485340 
#    z 0.197490 -0.485340 2.070800 
# 
# From -- ./inp_files/495782.got.cif
#   From: 2010.05.17/outbox.cif.g08.bks.cpg/sg2_248_cif.got.tgz:495782.got - 2010.06.03 11:33:40.
