data_PCOD9041881
_publ_section_title
;
Structure prediction by ZEFSAII (Michael W. Deem and Ramdas Pophale) SiO2 
 PCOD9041881
Probable space group: P -1
;
_chemical_formula_sum "Si O2"
_cell_formula_units_Z 14
_cell_length_a 9.523217
_cell_length_b 8.537963
_cell_length_c 11.581662
_cell_angle_alpha 49.920324
_cell_angle_beta 122.521408
_cell_angle_gamma 101.575361
_cell_volume 591.899609
_symmetry_space_group_name_H-M "P -1"
_symmetry_group_IT_number 2
_symmetry_cell_setting 'triclinic'
loop_
_space_group_symop_operation_xyz
x,y,z
-x,-y,-z
loop_
_atom_site_type_symbol
_atom_site_label
_atom_site_fract_x
_atom_site_fract_y
_atom_site_fract_z
Si Si1 0.494507 0.538425 0.615929
Si Si2 0.321312 0.163910 0.748183
Si Si3 0.698018 0.468854 0.128973
Si Si4 0.240443 0.974064 0.295625
Si Si5 0.960587 0.140249 0.531007
Si Si6 0.324773 0.058430 0.054183
Si Si7 0.200887 0.455708 0.097763
O O1 0.500000 0.500000 0.500000
O O2 0.394064 0.371728 0.703581
O O3 0.396106 0.776841 0.483791
O O4 0.684928 0.494423 0.771382
O O5 0.132037 0.225230 0.584306
O O6 0.469303 0.025881 0.797437
O O7 0.308192 0.032979 0.921568
O O8 0.790193 0.307801 0.340090
O O9 0.500000 0.500000 0.000000
O O10 0.730657 0.693672 0.070044
O O11 0.776771 0.406654 0.068205
O O12 0.087919 0.955225 0.324094
O O13 0.224292 0.961498 0.154240
O O14 0.270819 0.206484 0.221109
O O15 0.000000 0.000000 0.500000
O O16 0.000000 0.500000 0.000000
#
# Coordination Sequence:
#
# PCOD9041881 Si02
#       7
#     2   2   2   2   2   2   2
#     4  12  26  46  76 108 148 192 244 302 367 431
#     4  11  25  46  71 102 150 188 244 297 371 424
#     4  11  23  43  69  96 139 187 243 283 367 430
#     4  11  25  47  73 108 145 193 245 295 365 435
#     4  12  27  45  72 106 145 193 248 303 358 439
#     4  10  23  44  68 100 138 195 233 299 360 436
#     4  11  26  46  73 105 145 190 242 302 356 433
#
# _framework density 23.652660999999998
#
# number of rings (size 3 to 8) (size 9 to 14) (size 15 to 20)
#    0.000    0.857    1.429    4.714    4.000    8.571 
#    2.571    0.000    0.000    0.000    0.000    0.000 
#    0.000    0.000    0.000    0.000    0.000    0.000 
#
# Total GULP energy -78218.495187 kJ/mol
# GULP energy per Si atom -5587.035370 kJ/mol
# Density = 2.359883 g / cm^3
# Si number density = 23.652661 Si / 1000 Ang^3
#
#
#
# Elastic Constant Matrix: (Units=GPa)
#
#
# Indices 1 2 3 4 5 6 
#
# 1 156.1341 31.7469 63.6188 35.2412 -19.7642 -11.2971
# 2 31.7469 73.8119 42.8287 8.3836 5.7137 -4.1726
# 3 63.6188 42.8287 121.4337 6.8748 -5.4232 5.3536
# 4 35.2412 8.3836 6.8748 36.1681 5.9480 6.8010
# 5 -19.7642 5.7137 -5.4232 5.9480 39.4379 7.8749
# 6 -11.2971 -4.1726 5.3536 6.8010 7.8749 38.0828
#
#
#
# Elastic Compliance Matrix: (Units=1/GPa)
#
#
# Indices 1 2 3 4 5 6 
#
# 1 0.013464 -0.001037 -0.005832 -0.014011 0.007062 0.005742
# 2 -0.001037 0.018393 -0.006199 -0.002063 -0.004500 0.003878
# 3 -0.005832 -0.006199 0.013397 0.005563 0.000035 -0.005293
# 4 -0.014011 -0.002063 0.005563 0.044504 -0.010485 -0.010944
# 5 0.007062 -0.004500 0.000035 -0.010485 0.031752 -0.003096
# 6 0.005742 0.003878 -0.005293 -0.010944 -0.003096 0.031726
#
#
# Mechanical properties :
#
#
# Convention : Reuss Voigt Hill
#
# Bulk Modulus (GPa) = 52.31040 69.75207 61.03124
# Shear Modulus (GPa) = 26.91870 36.95009 31.93440
#
# Velocity S-wave (km/s) = 3.37721 3.95675 3.67841
# Velocity P-wave (km/s) = 6.11322 7.10132 6.62571
#
# Compressibility (1/GPa) = 0.01911666
#
# Stress axis : x y z
#
# Youngs Moduli (GPa) = 74.27137 54.36920 74.64494
#
# Poissons Ratio (x) = 0.05641 0.43536
# Poissons Ratio (y) = 0.07705 0.46269
# Poissons Ratio (z) = 0.43318 0.33701
#
# Static dielectric constant tensor:
#      x y z
#    x 1.901430 -0.038210 -0.046840 
#    y -0.038210 1.913370 -0.007520 
#    z -0.046840 -0.007520 1.906570 
# 
# From -- ./inp_files/160195.got.cif
#   From: 2010.05.17/outbox.cif.g08.bks.cpg/sg2_81_cif.got.tgz:160195.got - 2010.06.03 11:33:40.
