data_PCOD9041031
_publ_section_title
;
Structure prediction by ZEFSAII (Michael W. Deem and Ramdas Pophale) SiO2 
 PCOD9041031
Probable space group: P -1
;
_chemical_formula_sum "Si O2"
_cell_formula_units_Z 16
_cell_length_a 10.037229
_cell_length_b 14.003822
_cell_length_c 9.291882
_cell_angle_alpha 136.960518
_cell_angle_beta 114.031163
_cell_angle_gamma 91.446062
_cell_volume 696.403299
_symmetry_space_group_name_H-M "P -1"
_symmetry_group_IT_number 2
_symmetry_cell_setting 'triclinic'
loop_
_space_group_symop_operation_xyz
x,y,z
-x,-y,-z
loop_
_atom_site_type_symbol
_atom_site_label
_atom_site_fract_x
_atom_site_fract_y
_atom_site_fract_z
Si Si1 0.578805 0.921656 0.051959
Si Si2 0.453948 0.606119 0.292279
Si Si3 0.877696 0.695296 0.318130
Si Si4 0.822861 0.692451 0.593575
Si Si5 0.305126 0.564944 0.489672
Si Si6 0.622095 0.125325 0.571292
Si Si7 0.075658 0.070933 0.856780
Si Si8 0.000238 0.682707 0.062726
O O1 0.419908 0.740371 0.801712
O O2 0.743113 0.919965 0.062430
O O3 0.500000 0.000000 0.000000
O O4 0.631807 0.017937 0.329697
O O5 0.650851 0.670899 0.426882
O O6 0.418081 0.568825 0.406843
O O7 0.429625 0.752820 0.388696
O O8 0.313031 0.440715 0.967941
O O9 0.911212 0.667092 0.466739
O O10 0.993600 0.682075 0.231453
O O11 0.929290 0.885331 0.554667
O O12 0.753054 0.558220 0.539341
O O13 0.933450 0.859472 0.914740
O O14 0.127749 0.496581 0.252168
O O15 0.814259 0.241880 0.838312
O O16 0.500000 0.000000 0.500000
O O17 0.068504 0.197259 0.881935
#
# Coordination Sequence:
#
# PCOD9041031 Si02
#       8
#     2   2   2   2   2   2   2   2
#     4  12  24  45  71  99 134 182 222 269 345 397
#     4  11  24  43  67  98 135 182 219 277 339 391
#     4  11  24  39  68 100 136 170 225 278 329 396
#     4  11  23  41  69 104 132 174 227 278 331 394
#     4  10  23  43  70  93 137 177 221 274 326 404
#     4  12  28  46  69  98 137 176 227 283 334 402
#     4  11  23  43  71  98 135 178 224 274 331 403
#     4  10  25  45  68  99 132 183 223 272 342 395
#
# _framework density 22.975192
#
# number of rings (size 3 to 8) (size 9 to 14) (size 15 to 20)
#    0.000    1.000    3.750    1.500    7.000    3.000 
#    4.500    0.625    0.000    0.000    0.000    0.000 
#    0.000    0.000    0.000    0.000    0.000    0.000 
#
# Total GULP energy -89380.594366 kJ/mol
# GULP energy per Si atom -5586.287148 kJ/mol
# Density = 2.292290 g / cm^3
# Si number density = 22.975192 Si / 1000 Ang^3
#
#
#
# Elastic Constant Matrix: (Units=GPa)
#
#
# Indices 1 2 3 4 5 6 
#
# 1 63.7805 29.8848 2.5537 -14.9918 3.6074 9.0418
# 2 29.8848 110.3664 5.1616 -7.2543 -12.2005 5.0936
# 3 2.5537 5.1616 132.4759 10.1818 1.5958 6.5922
# 4 -14.9918 -7.2543 10.1818 28.7324 8.5062 -4.1800
# 5 3.6074 -12.2005 1.5958 8.5062 19.3520 7.0900
# 6 9.0418 5.0936 6.5922 -4.1800 7.0900 24.5935
#
#
#
# Elastic Compliance Matrix: (Units=1/GPa)
#
#
# Indices 1 2 3 4 5 6 
#
# 1 0.023547 -0.007044 -0.001207 0.015635 -0.015718 0.000314
# 2 -0.007044 0.012272 0.000125 -0.005134 0.012982 -0.004600
# 3 -0.001207 0.000125 0.008076 -0.004861 0.003038 -0.003449
# 4 0.015635 -0.005134 -0.004861 0.056771 -0.036897 0.016904
# 5 -0.015718 0.012982 0.003038 -0.036897 0.089693 -0.029853
# 6 0.000314 -0.004600 -0.003449 0.016904 -0.029853 0.053902
#
#
# Mechanical properties :
#
#
# Convention : Reuss Voigt Hill
#
# Bulk Modulus (GPa) = 36.17730 42.42477 39.30104
# Shear Modulus (GPa) = 18.53722 32.47043 25.50382
#
# Velocity S-wave (km/s) = 2.84357 3.76344 3.33537
# Velocity P-wave (km/s) = 5.15379 6.11475 5.65472
#
# Compressibility (1/GPa) = 0.02764164
#
# Stress axis : x y z
#
# Youngs Moduli (GPa) = 42.46819 81.48493 123.82973
#
# Poissons Ratio (x) = 0.57397 0.14951
# Poissons Ratio (y) = 0.29914 -0.01545
# Poissons Ratio (z) = 0.05128 -0.01016
#
# Static dielectric constant tensor:
#      x y z
#    x 1.889970 0.015420 -0.000940 
#    y 0.015420 1.923470 0.064000 
#    z -0.000940 0.064000 1.935990 
# 
# From -- ./inp_files/263612.got.cif
#   From: 2010.05.17/outbox.cif.g08.bks.cpg/sg2_132_cif.got.tgz:263612.got - 2010.06.03 11:33:40.
