data_PCOD9041968
_publ_section_title
;
Structure prediction by ZEFSAII (Michael W. Deem and Ramdas Pophale) SiO2 
 PCOD9041968
Probable space group: P -1
;
_chemical_formula_sum "Si O2"
_cell_formula_units_Z 16
_cell_length_a 9.305911
_cell_length_b 14.634680
_cell_length_c 12.436363
_cell_angle_alpha 51.533939
_cell_angle_beta 70.208105
_cell_angle_gamma 111.786458
_cell_volume 765.540785
_symmetry_space_group_name_H-M "P -1"
_symmetry_group_IT_number 2
_symmetry_cell_setting 'triclinic'
loop_
_space_group_symop_operation_xyz
x,y,z
-x,-y,-z
loop_
_atom_site_type_symbol
_atom_site_label
_atom_site_fract_x
_atom_site_fract_y
_atom_site_fract_z
Si Si1 0.298602 0.618318 0.595976
Si Si2 0.829237 0.999881 0.089828
Si Si3 0.050235 0.384150 0.261780
Si Si4 0.159654 0.171811 0.075263
Si Si5 0.079546 0.136965 0.472326
Si Si6 0.339068 0.506890 0.890999
Si Si7 0.924352 0.296911 0.745610
Si Si8 0.313259 0.604883 0.248759
O O1 0.332953 0.565408 0.734241
O O2 0.104680 0.442159 0.692368
O O3 0.182194 0.671893 0.620246
O O4 0.556865 0.791510 0.342119
O O5 0.972334 0.116864 0.078713
O O6 0.823252 0.108259 0.934857
O O7 0.000000 0.000000 0.000000
O O8 0.980916 0.207526 0.426885
O O9 0.252006 0.543066 0.184778
O O10 0.171584 0.467306 0.052628
O O11 0.236497 0.315026 0.038037
O O12 0.415881 0.281396 0.877308
O O13 0.024757 0.981974 0.304770
O O14 0.377382 0.326031 0.264113
O O15 0.000000 0.000000 0.500000
O O16 0.098499 0.410179 0.513631
O O17 0.722642 0.279397 0.802913
#
# Coordination Sequence:
#
# PCOD9041968 Si02
#       8
#     2   2   2   2   2   2   2   2
#     4  11  25  46  66 100 134 174 224 273 332 398
#     4  12  27  43  68 100 131 177 223 273 335 394
#     4  11  24  43  69  96 136 179 216 275 333 392
#     4  12  24  41  67  97 133 176 217 274 327 391
#     4  12  24  41  65 100 134 171 222 268 326 391
#     4  12  23  46  67  99 137 174 227 266 329 402
#     4  10  24  46  67  95 134 172 220 281 338 389
#     4  10  23  44  68  96 131 176 221 274 336 393
#
# _framework density 20.900258999999998
#
# number of rings (size 3 to 8) (size 9 to 14) (size 15 to 20)
#    0.000    0.750    5.000    2.250    5.250    1.000 
#    0.000    3.750    0.000    0.000    0.000    0.000 
#    0.000    0.000    0.000    0.000    0.000    0.000 
#
# Total GULP energy -89542.624512 kJ/mol
# GULP energy per Si atom -5596.414032 kJ/mol
# Density = 2.085269 g / cm^3
# Si number density = 20.900259 Si / 1000 Ang^3
#
#
#
# Elastic Constant Matrix: (Units=GPa)
#
#
# Indices 1 2 3 4 5 6 
#
# 1 68.1267 2.5504 34.5334 -2.4318 8.0621 -13.2692
# 2 2.5504 65.6159 18.5687 1.1735 -6.8967 -2.4009
# 3 34.5334 18.5687 98.4718 13.3837 9.9464 -21.7460
# 4 -2.4318 1.1735 13.3837 34.0769 -2.4347 -0.2258
# 5 8.0621 -6.8967 9.9464 -2.4347 39.0894 1.0658
# 6 -13.2692 -2.4009 -21.7460 -0.2258 1.0658 34.5457
#
#
#
# Elastic Compliance Matrix: (Units=1/GPa)
#
#
# Indices 1 2 3 4 5 6 
#
# 1 0.018891 0.000912 -0.006345 0.003689 -0.001984 0.003411
# 2 0.000912 0.016796 -0.004398 0.001492 0.004024 -0.001365
# 3 -0.006345 -0.004398 0.016254 -0.006938 -0.004242 0.007574
# 4 0.003689 0.001492 -0.006938 0.032505 0.003367 -0.002738
# 5 -0.001984 0.004024 -0.004242 0.003367 0.028100 -0.003998
# 6 0.003411 -0.001365 0.007574 -0.002738 -0.003998 0.035036
#
#
# Mechanical properties :
#
#
# Convention : Reuss Voigt Hill
#
# Bulk Modulus (GPa) = 30.97997 38.16883 34.57440
# Shear Modulus (GPa) = 28.08957 33.31319 30.70138
#
# Velocity S-wave (km/s) = 3.67001 3.99671 3.83684
# Velocity P-wave (km/s) = 5.72832 6.29288 6.01722
#
# Compressibility (1/GPa) = 0.03227892
#
# Stress axis : x y z
#
# Youngs Moduli (GPa) = 52.93405 59.53930 61.52502
#
# Poissons Ratio (x) = -0.05427 0.39036
# Poissons Ratio (y) = -0.04825 0.27056
# Poissons Ratio (z) = 0.33585 0.26183
#
# Static dielectric constant tensor:
#      x y z
#    x 1.738570 0.022180 0.020480 
#    y 0.022180 1.776190 0.016200 
#    z 0.020480 0.016200 1.714320 
# 
# From -- ./inp_files/70823.got.cif
#   From: 2010.05.17/outbox.cif.g08.bks.cpg/sg2_36_cif.got.tgz:70823.got - 2010.06.03 11:33:40.
