data_PCOD9041466
_publ_section_title
;
Structure prediction by ZEFSAII (Michael W. Deem and Ramdas Pophale) SiO2 
 PCOD9041466
Probable space group: P -1
;
_chemical_formula_sum "Si O2"
_cell_formula_units_Z 14
_cell_length_a 27.139703
_cell_length_b 5.411914
_cell_length_c 6.939659
_cell_angle_alpha 108.847825
_cell_angle_beta 141.019519
_cell_angle_gamma 76.614775
_cell_volume 606.474235
_symmetry_space_group_name_H-M "P -1"
_symmetry_group_IT_number 2
_symmetry_cell_setting 'triclinic'
loop_
_space_group_symop_operation_xyz
x,y,z
-x,-y,-z
loop_
_atom_site_type_symbol
_atom_site_label
_atom_site_fract_x
_atom_site_fract_y
_atom_site_fract_z
Si Si1 0.680083 0.268268 0.666207
Si Si2 0.213094 0.408788 0.635121
Si Si3 0.057642 0.828000 0.757265
Si Si4 0.044338 0.380473 0.286424
Si Si5 0.431977 0.159196 0.733856
Si Si6 0.773440 0.164895 0.560479
Si Si7 0.517621 0.538399 0.343011
O O1 0.710932 0.277803 0.546134
O O2 0.599070 0.403327 0.503775
O O3 0.654371 0.965884 0.550322
O O4 0.743261 0.405320 0.030519
O O5 0.128502 0.319358 0.441766
O O6 0.207693 0.606074 0.483095
O O7 0.254064 0.128596 0.664269
O O8 0.061255 0.573149 0.568524
O O9 0.015726 0.815593 0.835546
O O10 0.147931 0.897420 0.093777
O O11 0.000000 0.000000 0.500000
O O12 0.000000 0.500000 0.000000
O O13 0.461011 0.179389 0.607441
O O14 0.445591 0.423753 0.965745
O O15 0.500000 0.000000 0.000000
O O16 0.500000 0.500000 0.500000
#
# Coordination Sequence:
#
# PCOD9041466 Si02
#       7
#     2   2   2   2   2   2   2
#     4  11  27  45  72 107 152 187 243 307 368 445
#     4  12  29  46  75 106 149 202 251 300 380 437
#     4  11  25  43  75 102 147 194 251 317 365 427
#     4  11  23  45  69 105 140 194 254 304 362 441
#     4   9  22  44  70 104 143 182 231 303 352 437
#     4  12  29  48  71 110 150 198 247 313 371 436
#     4  10  23  43  77 108 140 190 243 294 366 446
#
# _framework density 23.084244999999999
#
# number of rings (size 3 to 8) (size 9 to 14) (size 15 to 20)
#    0.000    1.143    2.857    0.857   10.000    5.714 
#    0.000    0.000    0.000    0.000    0.000    0.000 
#    0.000    0.000    0.000    0.000    0.000    0.000 
#
# Total GULP energy -78025.216621 kJ/mol
# GULP energy per Si atom -5573.229759 kJ/mol
# Density = 2.303170 g / cm^3
# Si number density = 23.084245 Si / 1000 Ang^3
#
#
#
# Elastic Constant Matrix: (Units=GPa)
#
#
# Indices 1 2 3 4 5 6 
#
# 1 182.8576 44.6779 45.8799 -12.7830 -19.7530 13.1412
# 2 44.6779 59.9820 8.2388 -9.0635 -6.5711 15.6529
# 3 45.8799 8.2388 77.3654 11.1027 -0.9426 7.1107
# 4 -12.7830 -9.0635 11.1027 38.2815 8.3643 -3.2760
# 5 -19.7530 -6.5711 -0.9426 8.3643 40.7832 -5.5552
# 6 13.1412 15.6529 7.1107 -3.2760 -5.5552 41.9939
#
#
#
# Elastic Compliance Matrix: (Units=1/GPa)
#
#
# Indices 1 2 3 4 5 6 
#
# 1 0.008311 -0.005038 -0.004766 0.002431 0.002691 0.000630
# 2 -0.005038 0.022481 0.000794 0.002901 -0.000314 -0.006753
# 3 -0.004766 0.000794 0.016765 -0.006280 -0.000810 -0.002240
# 4 0.002431 0.002901 -0.006280 0.030538 -0.004629 0.000992
# 5 0.002691 -0.000314 -0.000810 -0.004629 0.027061 0.002631
# 6 0.000630 -0.006753 -0.002240 0.000992 0.002631 0.026938
#
#
# Mechanical properties :
#
#
# Convention : Reuss Voigt Hill
#
# Bulk Modulus (GPa) = 33.85549 57.53311 45.69430
# Shear Modulus (GPa) = 31.25783 38.97228 35.11505
#
# Velocity S-wave (km/s) = 3.68377 4.11331 3.90445
# Velocity P-wave (km/s) = 5.72638 6.89465 6.33750
#
# Compressibility (1/GPa) = 0.02953731
#
# Stress axis : x y z
#
# Youngs Moduli (GPa) = 120.32547 44.48136 59.64878
#
# Poissons Ratio (x) = 0.22410 0.28428
# Poissons Ratio (y) = 0.60620 -0.04737
# Poissons Ratio (z) = 0.57346 -0.03532
#
# Static dielectric constant tensor:
#      x y z
#    x 1.859870 -0.000720 -0.045060 
#    y -0.000720 2.306740 0.095000 
#    z -0.045060 0.095000 2.023590 
# 
# From -- ./inp_files/7744.got.cif
#   From: 2010.05.17/outbox.cif.g08.bks.cpg/sg2_4_cif.got.tgz:7744.got - 2010.06.03 11:33:40.
