data_PCOD9041518
_publ_section_title
;
Structure prediction by ZEFSAII (Michael W. Deem and Ramdas Pophale) SiO2 
 PCOD9041518
Probable space group: P -1
;
_chemical_formula_sum "Si O2"
_cell_formula_units_Z 16
_cell_length_a 5.261718
_cell_length_b 15.282307
_cell_length_c 7.700715
_cell_angle_alpha 80.796972
_cell_angle_beta 90.362712
_cell_angle_gamma 107.107134
_cell_volume 583.664589
_symmetry_space_group_name_H-M "P -1"
_symmetry_group_IT_number 2
_symmetry_cell_setting 'triclinic'
loop_
_space_group_symop_operation_xyz
x,y,z
-x,-y,-z
loop_
_atom_site_type_symbol
_atom_site_label
_atom_site_fract_x
_atom_site_fract_y
_atom_site_fract_z
Si Si1 0.929121 0.753639 0.782427
Si Si2 0.714921 0.919604 0.614243
Si Si3 0.166915 0.697228 0.481873
Si Si4 0.484365 0.309226 0.813860
Si Si5 0.748366 0.539724 0.357061
Si Si6 0.265515 0.897016 0.328325
Si Si7 0.615909 0.144484 0.021644
Si Si8 0.403293 0.585636 0.909731
O O1 0.859421 0.841053 0.667820
O O2 0.130245 0.717170 0.675317
O O3 0.658405 0.670447 0.826773
O O4 0.092826 0.790744 0.943828
O O5 0.510086 0.900620 0.785397
O O6 0.524103 0.907424 0.449402
O O7 0.869874 0.028119 0.620852
O O8 0.990368 0.596003 0.457699
O O9 0.436563 0.702030 0.381357
O O10 0.101365 0.787988 0.370398
O O11 0.292753 0.372606 0.777970
O O12 0.441117 0.208648 0.928238
O O13 0.702677 0.374456 0.931511
O O14 0.500000 0.500000 0.500000
O O15 0.761658 0.460844 0.245206
O O16 0.344992 0.914861 0.122758
O O17 0.500000 0.500000 0.000000
#
# Coordination Sequence:
#
# PCOD9041518 Si02
#       8
#     2   2   2   2   2   2   2   2
#     4  12  25  44  73 102 145 183 235 293 351 426
#     4  11  24  49  71 103 144 188 229 297 359 418
#     4  11  25  43  68 103 135 180 243 281 350 423
#     4  10  25  43  68  99 140 185 227 297 351 409
#     4  11  24  44  69 101 139 185 239 286 355 417
#     4  10  25  46  72 104 142 184 238 290 357 428
#     4  11  24  44  71 106 139 186 237 285 361 424
#     4  10  23  44  64 100 139 183 231 288 348 415
#
# _framework density 27.413003
#
# number of rings (size 3 to 8) (size 9 to 14) (size 15 to 20)
#    0.000    1.250    3.750    0.375   10.500    3.000 
#    2.250    0.000    0.000    0.000    0.000    0.000 
#    0.000    0.000    0.000    0.000    0.000    0.000 
#
# Total GULP energy -89480.966299 kJ/mol
# GULP energy per Si atom -5592.560394 kJ/mol
# Density = 2.735061 g / cm^3
# Si number density = 27.413003 Si / 1000 Ang^3
#
#
#
# Elastic Constant Matrix: (Units=GPa)
#
#
# Indices 1 2 3 4 5 6 
#
# 1 66.7866 28.9483 31.9048 6.3960 12.6900 -15.9422
# 2 28.9483 189.1227 39.5612 18.5313 3.7814 -15.4032
# 3 31.9048 39.5612 154.0239 41.1363 16.8298 -0.2369
# 4 6.3960 18.5313 41.1363 72.0508 -6.7871 -16.2698
# 5 12.6900 3.7814 16.8298 -6.7871 43.6926 4.5762
# 6 -15.9422 -15.4032 -0.2369 -16.2698 4.5762 47.7341
#
#
#
# Elastic Compliance Matrix: (Units=1/GPa)
#
#
# Indices 1 2 3 4 5 6 
#
# 1 0.019913 -0.001796 -0.003669 0.001969 -0.004660 0.007171
# 2 -0.001796 0.005914 -0.001036 -0.000499 0.000215 0.001113
# 3 -0.003669 -0.001036 0.009385 -0.005771 -0.003022 -0.003190
# 4 0.001969 -0.000499 -0.005771 0.018981 0.003956 0.006559
# 5 -0.004660 0.000215 -0.003022 0.003956 0.026281 -0.002673
# 6 0.007171 0.001113 -0.003190 0.006559 -0.002673 0.026179
#
#
# Mechanical properties :
#
#
# Convention : Reuss Voigt Hill
#
# Bulk Modulus (GPa) = 45.02360 67.86242 56.44301
# Shear Modulus (GPa) = 39.35176 53.33009 46.34092
#
# Velocity S-wave (km/s) = 3.79293 4.41549 4.11600
# Velocity P-wave (km/s) = 5.97006 7.12774 6.57443
#
# Compressibility (1/GPa) = 0.02221057
#
# Stress axis : x y z
#
# Youngs Moduli (GPa) = 50.21861 169.07994 106.55004
#
# Poissons Ratio (x) = 0.30371 0.39096
# Poissons Ratio (y) = 0.09020 0.11033
# Poissons Ratio (z) = 0.18426 0.17508
#
# Static dielectric constant tensor:
#      x y z
#    x 2.243070 0.034670 -0.035020 
#    y 0.034670 2.118130 -0.059380 
#    z -0.035020 -0.059380 2.304640 
# 
# From -- ./inp_files/135300.got.cif
#   From: 2010.05.17/outbox.cif.g08.bks.cpg/sg2_68_cif.got.tgz:135300.got - 2010.06.03 11:33:40.
