data_PCOD9041530
_publ_section_title
;
Structure prediction by ZEFSAII (Michael W. Deem and Ramdas Pophale) SiO2 
 PCOD9041530
Probable space group: P -1
;
_chemical_formula_sum "Si O2"
_cell_formula_units_Z 16
_cell_length_a 16.728205
_cell_length_b 16.443435
_cell_length_c 6.604523
_cell_angle_alpha 51.848832
_cell_angle_beta 51.730650
_cell_angle_gamma 31.569135
_cell_volume 728.573206
_symmetry_space_group_name_H-M "P -1"
_symmetry_group_IT_number 2
_symmetry_cell_setting 'triclinic'
loop_
_space_group_symop_operation_xyz
x,y,z
-x,-y,-z
loop_
_atom_site_type_symbol
_atom_site_label
_atom_site_fract_x
_atom_site_fract_y
_atom_site_fract_z
Si Si1 0.144085 0.963454 0.560935
Si Si2 0.435831 0.988683 0.312212
Si Si3 0.025207 0.855950 0.055426
Si Si4 0.966114 0.754630 0.956001
Si Si5 0.714203 0.566693 0.964298
Si Si6 0.478246 0.750956 0.385838
Si Si7 0.361373 0.524183 0.143467
Si Si8 0.741132 0.760556 0.459729
O O1 0.326762 0.802261 0.480945
O O2 0.096027 0.104361 0.302108
O O3 0.052111 0.926316 0.741003
O O4 0.106154 0.012813 0.780823
O O5 0.407668 0.896947 0.408220
O O6 0.578543 0.872172 0.424557
O O7 0.296824 0.150506 0.406398
O O8 0.500000 0.000000 0.000000
O O9 0.190242 0.709032 0.137457
O O10 0.978586 0.791004 0.106643
O O11 0.853458 0.742933 0.169886
O O12 0.144859 0.587355 0.884800
O O13 0.647017 0.531153 0.972704
O O14 0.790748 0.604975 0.668965
O O15 0.572053 0.716605 0.095305
O O16 0.599218 0.592497 0.572723
O O17 0.500000 0.500000 0.000000
#
# Coordination Sequence:
#
# PCOD9041530 Si02
#       8
#     2   2   2   2   2   2   2   2
#     4  11  23  41  66  94 125 171 216 267 323 378
#     4  11  22  39  65  97 132 163 214 268 313 378
#     4  10  23  44  64  91 129 170 217 266 320 379
#     4  11  24  42  63  94 132 168 217 263 319 381
#     4  11  25  43  66  96 132 171 213 264 320 389
#     4  12  23  41  69  99 127 170 216 263 327 381
#     4  11  23  45  65  95 128 170 213 267 321 381
#     4  11  23  41  66  96 129 175 213 262 320 380
#
# _framework density 21.960730000000002
#
# number of rings (size 3 to 8) (size 9 to 14) (size 15 to 20)
#    0.000    1.000    3.750    3.000    1.750    1.500 
#    2.250    0.625    0.000    0.000    0.000    0.000 
#    0.000    0.000    0.000    0.000    0.000    0.000 
#
# Total GULP energy -89320.566378 kJ/mol
# GULP energy per Si atom -5582.535399 kJ/mol
# Density = 2.191075 g / cm^3
# Si number density = 21.960730 Si / 1000 Ang^3
#
#
#
# Elastic Constant Matrix: (Units=GPa)
#
#
# Indices 1 2 3 4 5 6 
#
# 1 77.0431 14.5377 17.0905 7.4892 -23.5564 3.8472
# 2 14.5377 71.5438 28.1157 -6.6935 -1.3493 -3.0557
# 3 17.0905 28.1157 92.3485 -12.4553 -13.2227 -14.2901
# 4 7.4892 -6.6935 -12.4553 39.6761 -3.5488 4.1039
# 5 -23.5564 -1.3493 -13.2227 -3.5488 28.5655 -0.5556
# 6 3.8472 -3.0557 -14.2901 4.1039 -0.5556 32.5117
#
#
#
# Elastic Compliance Matrix: (Units=1/GPa)
#
#
# Indices 1 2 3 4 5 6 
#
# 1 0.018656 -0.003457 -0.001122 -0.002929 0.014291 -0.002412
# 2 -0.003457 0.016648 -0.004871 0.001608 -0.004128 -0.000441
# 3 -0.001122 -0.004871 0.014869 0.004024 0.006340 0.005811
# 4 -0.002929 0.001608 0.004024 0.027676 0.002938 -0.001177
# 5 0.014291 -0.004128 0.006340 0.002938 0.049920 0.001190
# 6 -0.002412 -0.000441 0.005811 -0.001177 0.001190 0.033725
#
#
# Mechanical properties :
#
#
# Convention : Reuss Voigt Hill
#
# Bulk Modulus (GPa) = 31.97779 40.04705 36.01242
# Shear Modulus (GPa) = 26.20285 32.23010 29.21648
#
# Velocity S-wave (km/s) = 3.45797 3.83511 3.65142
# Velocity P-wave (km/s) = 5.52598 6.15517 5.84904
#
# Compressibility (1/GPa) = 0.03127170
#
# Stress axis : x y z
#
# Youngs Moduli (GPa) = 53.60275 60.06709 67.25468
#
# Poissons Ratio (x) = 0.20768 0.07546
# Poissons Ratio (y) = 0.18533 0.32760
# Poissons Ratio (z) = 0.06014 0.29259
#
# Static dielectric constant tensor:
#      x y z
#    x 1.812980 0.018890 -0.012570 
#    y 0.018890 1.824950 -0.028170 
#    z -0.012570 -0.028170 1.804250 
# 
# From -- ./inp_files/84259.got.cif
#   From: 2010.05.17/outbox.cif.g08.bks.cpg/sg2_43_cif.got.tgz:84259.got - 2010.06.03 11:33:40.
