data_PCOD9041890
_publ_section_title
;
Structure prediction by ZEFSAII (Michael W. Deem and Ramdas Pophale) SiO2 
 PCOD9041890
Probable space group: P -1
;
_chemical_formula_sum "Si O2"
_cell_formula_units_Z 16
_cell_length_a 6.797011
_cell_length_b 11.462043
_cell_length_c 11.979869
_cell_angle_alpha 68.367355
_cell_angle_beta 108.719824
_cell_angle_gamma 110.585648
_cell_volume 792.316736
_symmetry_space_group_name_H-M "P -1"
_symmetry_group_IT_number 2
_symmetry_cell_setting 'triclinic'
loop_
_space_group_symop_operation_xyz
x,y,z
-x,-y,-z
loop_
_atom_site_type_symbol
_atom_site_label
_atom_site_fract_x
_atom_site_fract_y
_atom_site_fract_z
Si Si1 0.033739 0.553091 0.697315
Si Si2 0.192203 0.323513 0.727470
Si Si3 0.392926 0.618603 0.924985
Si Si4 0.284556 0.046968 0.428703
Si Si5 0.889799 0.794056 0.485135
Si Si6 0.868293 0.144799 0.907916
Si Si7 0.232508 0.121710 0.136902
Si Si8 0.680519 0.369545 0.851879
O O1 0.973244 0.675795 0.590618
O O2 0.837133 0.476520 0.766569
O O3 0.086859 0.445532 0.662139
O O4 0.242189 0.600990 0.796527
O O5 0.202271 0.255631 0.635051
O O6 0.434911 0.373429 0.797503
O O7 0.046467 0.220480 0.823595
O O8 0.580585 0.751578 0.905302
O O9 0.500000 0.500000 0.000000
O O10 0.254469 0.616603 0.012031
O O11 0.268330 0.158596 0.475162
O O12 0.254444 0.094486 0.281129
O O13 0.500000 0.000000 0.500000
O O14 0.088862 0.920098 0.459982
O O15 0.703515 0.230633 0.864867
O O16 0.754415 0.003935 0.888207
O O17 0.001891 0.138815 0.047592
#
# Coordination Sequence:
#
# PCOD9041890 Si02
#       8
#     2   2   2   2   2   2   2   2
#     4  11  25  42  67  99 134 175 222 270 325 396
#     4  11  22  47  67  98 137 169 224 275 322 396
#     4  12  23  42  67 100 136 170 214 271 336 395
#     4  11  26  45  66  97 137 175 220 275 320 394
#     4  11  26  44  68  96 131 182 222 265 329 391
#     4  10  23  44  68 101 130 168 222 277 329 392
#     4  11  23  44  70  95 134 172 214 281 328 383
#     4  11  24  41  69  97 133 177 211 275 335 384
#
# _framework density 20.193943000000001
#
# number of rings (size 3 to 8) (size 9 to 14) (size 15 to 20)
#    0.000    1.000    3.750    2.250    5.250    2.000 
#    0.000    0.000    0.000    0.000    0.000    0.000 
#    0.000    0.000    0.000    0.000    0.000    0.000 
#
# Total GULP energy -89441.930747 kJ/mol
# GULP energy per Si atom -5590.120672 kJ/mol
# Density = 2.014798 g / cm^3
# Si number density = 20.193943 Si / 1000 Ang^3
#
#
#
# Elastic Constant Matrix: (Units=GPa)
#
#
# Indices 1 2 3 4 5 6 
#
# 1 75.1311 34.2508 41.2921 1.5543 0.0274 -11.5543
# 2 34.2508 110.6970 46.2112 -2.9074 -0.1519 -0.4385
# 3 41.2921 46.2112 119.2525 0.6185 -3.7893 -23.1476
# 4 1.5543 -2.9074 0.6185 40.8145 -4.0959 -2.7001
# 5 0.0274 -0.1519 -3.7893 -4.0959 21.2491 -0.7635
# 6 -11.5543 -0.4385 -23.1476 -2.7001 -0.7635 25.0556
#
#
#
# Elastic Compliance Matrix: (Units=1/GPa)
#
#
# Indices 1 2 3 4 5 6 
#
# 1 0.017924 -0.003961 -0.003798 -0.000673 -0.000693 0.004593
# 2 -0.003961 0.012111 -0.004454 0.000626 -0.000786 -0.005685
# 3 -0.003798 -0.004454 0.013637 0.000637 0.002920 0.010927
# 4 -0.000673 0.000626 0.000637 0.025284 0.005106 0.003169
# 5 -0.000693 -0.000786 0.002920 0.005106 0.048719 0.004399
# 6 0.004593 -0.005685 0.010927 0.003169 0.004399 0.052500
#
#
# Mechanical properties :
#
#
# Convention : Reuss Voigt Hill
#
# Bulk Modulus (GPa) = 51.95676 60.95430 56.45553
# Shear Modulus (GPa) = 24.87369 29.64561 27.25965
#
# Velocity S-wave (km/s) = 3.51342 3.83566 3.67807
# Velocity P-wave (km/s) = 6.49951 7.06161 6.78638
#
# Compressibility (1/GPa) = 0.01924678
#
# Stress axis : x y z
#
# Youngs Moduli (GPa) = 55.79164 82.56875 73.32994
#
# Poissons Ratio (x) = 0.32702 0.27854
# Poissons Ratio (y) = 0.22097 0.32658
# Poissons Ratio (z) = 0.21192 0.36773
#
# Static dielectric constant tensor:
#      x y z
#    x 1.692490 -0.019850 -0.012020 
#    y -0.019850 1.699020 0.011650 
#    z -0.012020 0.011650 1.711920 
# 
# From -- ./inp_files/71795.got.cif
#   From: 2010.05.17/outbox.cif.g08.bks.cpg/sg2_36_cif.got.tgz:71795.got - 2010.06.03 11:33:40.
