data_PCOD9041257
_publ_section_title
;
Structure prediction by ZEFSAII (Michael W. Deem and Ramdas Pophale) SiO2 
 PCOD9041257
Probable space group: P -1
;
_chemical_formula_sum "Si O2"
_cell_formula_units_Z 14
_cell_length_a 19.156811
_cell_length_b 7.508598
_cell_length_c 7.402338
_cell_angle_alpha 123.647949
_cell_angle_beta 135.451975
_cell_angle_gamma 54.600966
_cell_volume 589.982923
_symmetry_space_group_name_H-M "P -1"
_symmetry_group_IT_number 2
_symmetry_cell_setting 'triclinic'
loop_
_space_group_symop_operation_xyz
x,y,z
-x,-y,-z
loop_
_atom_site_type_symbol
_atom_site_label
_atom_site_fract_x
_atom_site_fract_y
_atom_site_fract_z
Si Si1 0.273690 0.603562 0.367313
Si Si2 0.594360 0.050845 0.597403
Si Si3 0.042231 0.725294 0.917647
Si Si4 0.301878 0.067882 0.616617
Si Si5 0.879876 0.493816 0.444620
Si Si6 0.416848 0.286757 0.162212
Si Si7 0.314269 0.630269 0.856550
O O1 0.335288 0.409379 0.235964
O O2 0.333113 0.585475 0.655741
O O3 0.271805 0.843719 0.418542
O O4 0.151910 0.626732 0.169498
O O5 0.530003 0.231531 0.428880
O O6 0.500000 0.000000 0.500000
O O7 0.670068 0.870796 0.500035
O O8 0.663138 0.144538 0.910958
O O9 0.068012 0.652461 0.714565
O O10 0.963684 0.587182 0.753835
O O11 0.000000 0.000000 0.000000
O O12 0.205519 0.266964 0.630686
O O13 0.394566 0.061850 0.923576
O O14 0.805108 0.366614 0.326215
O O15 0.389895 0.444759 0.025323
#
# Coordination Sequence:
#
# PCOD9041257 Si02
#       7
#     2   2   2   2   2   2   2
#     4  12  24  44  74 101 144 186 229 296 348 421
#     4  12  26  45  73 106 138 193 241 286 349 421
#     4  11  21  43  78 104 134 186 233 283 362 411
#     4  11  22  45  69 101 146 180 230 296 348 405
#     4  10  23  43  72 103 142 178 229 296 348 418
#     4  11  25  46  69 100 143 185 234 292 342 409
#     4  11  25  45  68 103 144 186 234 286 355 407
#
# _framework density 23.729500000000002
#
# number of rings (size 3 to 8) (size 9 to 14) (size 15 to 20)
#    0.000    0.857    5.714    1.714    4.000    1.143 
#    0.000    0.714    0.000    0.000    0.000    0.000 
#    0.000    0.000    0.000    0.000    0.000    0.000 
#
# Total GULP energy -78215.078920 kJ/mol
# GULP energy per Si atom -5586.791351 kJ/mol
# Density = 2.367549 g / cm^3
# Si number density = 23.729500 Si / 1000 Ang^3
#
#
#
# Elastic Constant Matrix: (Units=GPa)
#
#
# Indices 1 2 3 4 5 6 
#
# 1 87.3966 23.6917 53.4646 13.3131 1.3842 -0.2893
# 2 23.6917 50.8454 26.3377 5.4734 -5.2399 -20.7773
# 3 53.4646 26.3377 188.2435 13.2533 6.5800 -6.5567
# 4 13.3131 5.4734 13.2533 42.4799 3.1562 -0.5922
# 5 1.3842 -5.2399 6.5800 3.1562 55.0081 -3.8248
# 6 -0.2893 -20.7773 -6.5567 -0.5922 -3.8248 30.0501
#
#
#
# Elastic Compliance Matrix: (Units=1/GPa)
#
#
# Indices 1 2 3 4 5 6 
#
# 1 0.016216 -0.008205 -0.003437 -0.002964 -0.001058 -0.006460
# 2 -0.008205 0.035198 -0.001831 -0.001464 0.005569 0.024538
# 3 -0.003437 -0.001831 0.006623 -0.000691 -0.000839 0.000026
# 4 -0.002964 -0.001464 -0.000691 0.024971 -0.001477 -0.000887
# 5 -0.001058 0.005569 -0.000839 -0.001477 0.019345 0.006090
# 6 -0.006460 0.024538 0.000026 -0.000887 0.006090 0.050945
#
#
# Mechanical properties :
#
#
# Convention : Reuss Voigt Hill
#
# Bulk Modulus (GPa) = 32.16420 59.27484 45.71952
# Shear Modulus (GPa) = 26.23185 40.37374 33.30279
#
# Velocity S-wave (km/s) = 3.32844 4.12930 3.75031
# Velocity P-wave (km/s) = 5.32497 6.91147 6.16943
#
# Compressibility (1/GPa) = 0.03109047
#
# Stress axis : x y z
#
# Youngs Moduli (GPa) = 61.66812 28.41079 150.97871
#
# Poissons Ratio (x) = 0.23312 0.51890
# Poissons Ratio (y) = 0.50601 0.27645
# Poissons Ratio (z) = 0.21195 0.05202
#
# Static dielectric constant tensor:
#      x y z
#    x 1.963700 0.010730 0.046960 
#    y 0.010730 1.961430 0.027430 
#    z 0.046960 0.027430 1.966360 
# 
# From -- ./inp_files/328139.got.cif
#   From: 2010.05.17/outbox.cif.g08.bks.cpg/sg2_165_cif.got.tgz:328139.got - 2010.06.03 11:33:40.
