data_PCOD9041504
_publ_section_title
;
Structure prediction by ZEFSAII (Michael W. Deem and Ramdas Pophale) SiO2 
 PCOD9041504
Probable space group: P -1
;
_chemical_formula_sum "Si O2"
_cell_formula_units_Z 16
_cell_length_a 9.874673
_cell_length_b 5.535822
_cell_length_c 20.416565
_cell_angle_alpha 64.553438
_cell_angle_beta 141.786323
_cell_angle_gamma 112.243612
_cell_volume 621.735415
_symmetry_space_group_name_H-M "P -1"
_symmetry_group_IT_number 2
_symmetry_cell_setting 'triclinic'
loop_
_space_group_symop_operation_xyz
x,y,z
-x,-y,-z
loop_
_atom_site_type_symbol
_atom_site_label
_atom_site_fract_x
_atom_site_fract_y
_atom_site_fract_z
Si Si1 0.433264 0.287264 0.091473
Si Si2 0.548579 0.358608 0.809525
Si Si3 0.910439 0.682357 0.358073
Si Si4 0.813256 0.002811 0.749033
Si Si5 0.149344 0.818108 0.811847
Si Si6 0.153393 0.449431 0.377362
Si Si7 0.948143 0.248607 0.905902
Si Si8 0.611177 0.030843 0.466992
O O1 0.465389 0.468192 0.148607
O O2 0.634440 0.321375 0.112418
O O3 0.426934 0.964857 0.138771
O O4 0.193965 0.357401 0.966666
O O5 0.314476 0.378608 0.680909
O O6 0.787621 0.441367 0.858904
O O7 0.971799 0.431336 0.367525
O O8 0.827076 0.893120 0.248887
O O9 0.145830 0.808144 0.460191
O O10 0.806931 0.246165 0.665302
O O11 0.824228 0.130760 0.809177
O O12 0.574188 0.855875 0.662115
O O13 0.043798 0.876779 0.835111
O O14 0.943250 0.680312 0.710380
O O15 0.340824 0.275628 0.496149
O O16 0.000000 0.000000 0.000000
O O17 0.500000 0.000000 0.500000
#
# Coordination Sequence:
#
# PCOD9041504 Si02
#       8
#     2   2   2   2   2   2   2   2
#     4  10  20  39  67  89 119 162 209 261 316 364
#     4  10  20  40  65  88 119 166 215 255 303 364
#     4   9  18  31  59  88 120 160 197 245 316 372
#     4  11  22  37  58  92 126 161 207 248 311 373
#     4   9  18  33  58  93 124 151 196 255 320 376
#     4  10  17  33  57  88 125 156 189 249 314 381
#     4  10  24  45  63  84 119 168 216 261 297 357
#     4  11  19  32  56  93 128 157 190 245 321 382
#
# _framework density 25.734418000000002
#
# number of rings (size 3 to 8) (size 9 to 14) (size 15 to 20)
#    0.000    2.000    5.000    0.750    0.000    0.500 
#    9.000    1.250    0.000    0.750    0.000    0.000 
#    0.000    0.000    0.000    0.000    0.000    0.000 
#
# Total GULP energy -89159.042796 kJ/mol
# GULP energy per Si atom -5572.440175 kJ/mol
# Density = 2.567584 g / cm^3
# Si number density = 25.734418 Si / 1000 Ang^3
#
#
#
# Elastic Constant Matrix: (Units=GPa)
#
#
# Indices 1 2 3 4 5 6 
#
# 1 143.3565 39.2156 61.1564 -15.8258 53.8475 -19.2720
# 2 39.2156 92.4039 8.8973 -11.8871 8.9406 -16.4847
# 3 61.1564 8.8973 105.5922 -8.2101 42.6047 -6.0680
# 4 -15.8258 -11.8871 -8.2101 52.2953 -9.9757 10.2031
# 5 53.8475 8.9406 42.6047 -9.9757 49.4427 -15.1080
# 6 -19.2720 -16.4847 -6.0680 10.2031 -15.1080 39.2504
#
#
#
# Elastic Compliance Matrix: (Units=1/GPa)
#
#
# Indices 1 2 3 4 5 6 
#
# 1 0.013875 -0.004433 -0.002882 0.000525 -0.011769 -0.000162
# 2 -0.004433 0.013316 0.000251 0.001584 0.003914 0.004549
# 3 -0.002882 0.000251 0.015460 0.000111 -0.011202 -0.003260
# 4 0.000525 0.001584 0.000111 0.020774 0.002124 -0.003642
# 5 -0.011769 0.003914 -0.011202 0.002124 0.045848 0.011228
# 6 -0.000162 0.004549 -0.003260 -0.003642 0.011228 0.032074
#
#
# Mechanical properties :
#
#
# Convention : Reuss Voigt Hill
#
# Bulk Modulus (GPa) = 35.06135 62.21015 48.63575
# Shear Modulus (GPa) = 30.30628 43.66989 36.98808
#
# Velocity S-wave (km/s) = 3.43542 4.12387 3.79529
# Velocity P-wave (km/s) = 5.42126 6.84846 6.17622
#
# Compressibility (1/GPa) = 0.02852144
#
# Stress axis : x y z
#
# Youngs Moduli (GPa) = 72.07228 75.09751 64.68497
#
# Poissons Ratio (x) = 0.33294 0.18644
# Poissons Ratio (y) = 0.31953 -0.01625
# Poissons Ratio (z) = 0.20773 -0.01886
#
# Static dielectric constant tensor:
#      x y z
#    x 2.199120 -0.011210 0.110220 
#    y -0.011210 2.654030 -0.063180 
#    z 0.110220 -0.063180 2.050060 
# 
# From -- ./inp_files/609186.got.cif
#   From: 2010.05.17/outbox.cif.g08.bks.cpg/sg2_305_cif.got.tgz:609186.got - 2010.06.03 11:33:40.
