data_PCOD9041361
_publ_section_title
;
Structure prediction by ZEFSAII (Michael W. Deem and Ramdas Pophale) SiO2 
 PCOD9041361
Probable space group: P -1
;
_chemical_formula_sum "Si O2"
_cell_formula_units_Z 12
_cell_length_a 15.498358
_cell_length_b 8.536607
_cell_length_c 5.502657
_cell_angle_alpha 88.710709
_cell_angle_beta 40.419016
_cell_angle_gamma 73.355542
_cell_volume 429.254667
_symmetry_space_group_name_H-M "P -1"
_symmetry_group_IT_number 2
_symmetry_cell_setting 'triclinic'
loop_
_space_group_symop_operation_xyz
x,y,z
-x,-y,-z
loop_
_atom_site_type_symbol
_atom_site_label
_atom_site_fract_x
_atom_site_fract_y
_atom_site_fract_z
Si Si1 0.603919 0.117607 0.707119
Si Si2 0.190125 0.699161 0.746320
Si Si3 0.070129 0.134811 0.405210
Si Si4 0.319841 0.159040 0.088949
Si Si5 0.905396 0.455365 0.410762
Si Si6 0.543297 0.571979 0.652839
O O1 0.484293 0.146466 0.753375
O O2 0.521727 0.229556 0.124451
O O3 0.728736 0.180435 0.377883
O O4 0.680546 0.923132 0.642742
O O5 0.196415 0.638685 0.461604
O O6 0.279761 0.524988 0.710086
O O7 0.000000 0.500000 0.000000
O O8 0.018928 0.792967 0.157146
O O9 0.241930 0.068729 0.086207
O O10 0.013215 0.308062 0.359823
O O11 0.000000 0.000000 0.500000
O O12 0.213143 0.356420 0.275008
O O13 0.500000 0.500000 0.500000
O O14 0.500000 0.500000 0.000000
#
# Coordination Sequence:
#
# PCOD9041361 Si02
#       6
#     2   2   2   2   2   2
#     4  10  24  47  76 114 155 205 259 326 403 474
#     4  11  25  45  78 106 148 204 261 324 391 473
#     4  12  29  47  79 111 150 204 273 324 396 477
#     4  11  24  47  73 109 161 197 262 325 400 473
#     4  12  26  48  76 110 152 205 257 328 399 470
#     4  10  23  43  73 111 154 201 258 320 393 470
#
# _framework density 27.955432999999999
#
# number of rings (size 3 to 8) (size 9 to 14) (size 15 to 20)
#    0.000    1.000    3.333    1.500    9.333    1.333 
#    0.000    0.833    0.000    0.000    0.000    0.000 
#    0.000    0.000    0.000    0.000    0.000    0.000 
#
# Total GULP energy -66983.425980 kJ/mol
# GULP energy per Si atom -5581.952165 kJ/mol
# Density = 2.789181 g / cm^3
# Si number density = 27.955433 Si / 1000 Ang^3
#
#
#
# Elastic Constant Matrix: (Units=GPa)
#
#
# Indices 1 2 3 4 5 6 
#
# 1 261.1221 61.1694 52.5078 7.7168 -26.3283 15.4438
# 2 61.1694 161.4061 33.2534 -9.0324 -12.5010 3.0823
# 3 52.5078 33.2534 100.3026 1.1644 -12.2967 5.0181
# 4 7.7168 -9.0324 1.1644 32.5506 2.8354 -2.6181
# 5 -26.3283 -12.5010 -12.2967 2.8354 44.7660 5.2155
# 6 15.4438 3.0823 5.0181 -2.6181 5.2155 59.6881
#
#
#
# Elastic Compliance Matrix: (Units=1/GPa)
#
#
# Indices 1 2 3 4 5 6 
#
# 1 0.004859 -0.001386 -0.001720 -0.001778 0.002264 -0.001317
# 2 -0.001386 0.007232 -0.001636 0.002357 0.000585 0.000175
# 3 -0.001720 -0.001636 0.011681 -0.000678 0.001858 -0.000645
# 4 -0.001778 0.002357 -0.000678 0.032236 -0.002855 0.002059
# 5 0.002264 0.000585 0.001858 -0.002855 0.024883 -0.003072
# 6 -0.001317 0.000175 -0.000645 0.002059 -0.003072 0.017498
#
#
# Mechanical properties :
#
#
# Convention : Reuss Voigt Hill
#
# Bulk Modulus (GPa) = 69.99578 90.74358 80.36968
# Shear Modulus (GPa) = 44.39121 52.46094 48.42607
#
# Velocity S-wave (km/s) = 3.98920 4.33666 4.16656
# Velocity P-wave (km/s) = 6.80522 7.58987 7.20823
#
# Compressibility (1/GPa) = 0.01428657
#
# Stress axis : x y z
#
# Youngs Moduli (GPa) = 205.80743 138.27730 85.61176
#
# Poissons Ratio (x) = 0.19166 0.14725
# Poissons Ratio (y) = 0.28526 0.14009
# Poissons Ratio (z) = 0.35398 0.22627
#
# Static dielectric constant tensor:
#      x y z
#    x 2.251000 0.105080 0.065610 
#    y 0.105080 2.331010 0.091580 
#    z 0.065610 0.091580 2.333020 
# 
# From -- ./inp_files/86556.got.cif
#   From: 2010.05.17/outbox.cif.g08.bks.cpg/sg2_44_cif.got.tgz:86556.got - 2010.06.03 11:33:40.
