data_PCOD9041933
_publ_section_title
;
Structure prediction by ZEFSAII (Michael W. Deem and Ramdas Pophale) SiO2 
 PCOD9041933
Probable space group: P -1
;
_chemical_formula_sum "Si O2"
_cell_formula_units_Z 12
_cell_length_a 25.287467
_cell_length_b 22.724657
_cell_length_c 6.345520
_cell_angle_alpha 54.538082
_cell_angle_beta 123.428167
_cell_angle_gamma 169.234282
_cell_volume 550.413162
_symmetry_space_group_name_H-M "P -1"
_symmetry_group_IT_number 2
_symmetry_cell_setting 'triclinic'
loop_
_space_group_symop_operation_xyz
x,y,z
-x,-y,-z
loop_
_atom_site_type_symbol
_atom_site_label
_atom_site_fract_x
_atom_site_fract_y
_atom_site_fract_z
Si Si1 0.879810 0.878994 0.742814
Si Si2 0.292360 0.961952 0.533029
Si Si3 0.989256 0.816681 0.685906
Si Si4 0.831106 0.387141 0.393239
Si Si5 0.821649 0.491033 0.779441
Si Si6 0.476042 0.651089 0.027587
O O1 0.622116 0.535404 0.892576
O O2 0.000000 0.000000 0.500000
O O3 0.857927 0.941305 0.567372
O O4 0.000000 0.000000 0.000000
O O5 0.026194 0.639922 0.476678
O O6 0.120830 0.804905 0.676259
O O7 0.522008 0.154866 0.691855
O O8 0.466530 0.219570 0.270111
O O9 0.834928 0.590488 0.660970
O O10 0.762002 0.588946 0.832033
O O11 0.229215 0.035296 0.863159
O O12 0.000000 0.500000 0.500000
O O13 0.500000 0.000000 0.500000
O O14 0.816709 0.430089 0.087093
#
# Coordination Sequence:
#
# PCOD9041933 Si02
#       6
#     2   2   2   2   2   2
#     4  10  23  44  68 108 148 198 250 305 365 435
#     4  12  26  45  74 106 139 186 242 295 360 439
#     4  11  23  44  72 103 144 190 237 295 359 430
#     4  12  28  48  72 101 144 181 230 304 370 442
#     4  12  26  45  74 106 139 186 242 295 360 439
#     4  11  23  44  72 103 144 190 237 295 359 430
#
# _framework density 21.801803
#
# number of rings (size 3 to 8) (size 9 to 14) (size 15 to 20)
#    0.000    0.667    1.667    5.500    2.333    6.667 
#    0.000    7.500    0.000    0.000    0.000    0.000 
#    0.000    0.000    0.000    0.000    0.000    0.000 
#
# Total GULP energy -66805.107134 kJ/mol
# GULP energy per Si atom -5567.092261 kJ/mol
# Density = 2.175218 g / cm^3
# Si number density = 21.801803 Si / 1000 Ang^3
#
#
#
# Elastic Constant Matrix: (Units=GPa)
#
#
# Indices 1 2 3 4 5 6 
#
# 1 44.9454 48.7120 130.6991 -41.8627 30.6968 14.4978
# 2 48.7120 7.9996 -417.8122 136.6798 -53.4051 -80.0850
# 3 130.6991 -417.8122-1529.1882 468.8239 -180.7279 -308.1222
# 4 -41.8627 136.6798 468.8239 -73.8009 54.5535 95.3858
# 5 30.6968 -53.4051 -180.7279 54.5535 6.4578 -34.4440
# 6 14.4978 -80.0850 -308.1222 95.3858 -34.4440 -7.1646
#
#
#
# Elastic Compliance Matrix: (Units=1/GPa)
#
#
# Indices 1 2 3 4 5 6 
#
# 1 0.023550 -0.003208 0.003579 0.000753 -0.013763 0.005797
# 2 -0.003208 0.008755 -0.003080 -0.001100 0.003094 -0.001438
# 3 0.003579 -0.003080 0.003224 0.004810 -0.006330 -0.002521
# 4 0.000753 -0.001100 0.004810 0.014452 -0.000128 0.000007
# 5 -0.013763 0.003094 -0.006330 -0.000128 0.044277 -0.004785
# 6 0.005797 -0.001438 -0.002521 0.000007 -0.004785 0.019737
#
#
# Mechanical properties :
#
#
# Convention : Reuss Voigt Hill
#
# Bulk Modulus (GPa) = 33.20912 -217.00505 -91.89797
# Shear Modulus (GPa) = 38.62493 -97.42434 -29.39971
#
# Velocity S-wave (km/s) = 4.21365 -6.69204 -3.67618
# Velocity P-wave (km/s) = 6.24007 12.62785 7.76286
#
# Compressibility (1/GPa) = 0.03011221
#
# Stress axis : x y z
#
# Youngs Moduli (GPa) = 42.46214 114.21768 310.18244
#
# Poissons Ratio (x) = 0.36638 -1.11002
# Poissons Ratio (y) = 0.13621 0.95522
# Poissons Ratio (z) = -0.15196 0.35174
#
# Static dielectric constant tensor:
#      x y z
#    x 1.893900 -0.046100 -0.082600 
#    y -0.046100 1.852500 -0.012820 
#    z -0.082600 -0.012820 1.862450 
# 
# From -- ./inp_files/5890.got.cif
#   From: 2010.05.17/outbox.cif.g08.bks.cpg/sg2_3_cif.got.tgz:5890.got - 2010.06.03 11:33:40.
