data_PCOD9041356
_publ_section_title
;
Structure prediction by ZEFSAII (Michael W. Deem and Ramdas Pophale) SiO2 
 PCOD9041356
Probable space group: P -1
;
_chemical_formula_sum "Si O2"
_cell_formula_units_Z 12
_cell_length_a 7.091681
_cell_length_b 8.469796
_cell_length_c 12.468413
_cell_angle_alpha 71.996045
_cell_angle_beta 101.766791
_cell_angle_gamma 52.597830
_cell_volume 483.830396
_symmetry_space_group_name_H-M "P -1"
_symmetry_group_IT_number 2
_symmetry_cell_setting 'triclinic'
loop_
_space_group_symop_operation_xyz
x,y,z
-x,-y,-z
loop_
_atom_site_type_symbol
_atom_site_label
_atom_site_fract_x
_atom_site_fract_y
_atom_site_fract_z
Si Si1 0.062080 0.837787 0.139008
Si Si2 0.603095 0.545114 0.403868
Si Si3 0.236414 0.284898 0.926563
Si Si4 0.147462 0.672909 0.721020
Si Si5 0.526853 0.031844 0.620131
Si Si6 0.437321 0.796695 0.828557
O O1 0.351868 0.698375 0.257023
O O2 0.025308 0.673873 0.123798
O O3 0.830704 0.998748 0.171010
O O4 0.000000 0.000000 0.000000
O O5 0.500000 0.500000 0.500000
O O6 0.850965 0.312667 0.411157
O O7 0.651581 0.699451 0.420442
O O8 0.215502 0.439261 0.802890
O O9 0.303542 0.339121 0.032776
O O10 0.500000 0.000000 0.000000
O O11 0.368654 0.659215 0.802407
O O12 0.849374 0.887816 0.695018
O O13 0.467243 0.914335 0.714569
O O14 0.500000 0.000000 0.500000
#
# Coordination Sequence:
#
# PCOD9041356 Si02
#       6
#     2   2   2   2   2   2
#     4  11  23  46  78 107 152 196 245 309 372 444
#     4  12  27  47  77 111 150 198 249 310 376 439
#     4  10  23  43  73 108 146 189 244 300 369 440
#     4  12  27  48  77 108 149 196 247 306 375 440
#     4  12  29  50  75 108 148 196 253 304 367 452
#     4  11  24  48  74 106 150 192 246 308 368 440
#
# _framework density 24.802081999999999
#
# number of rings (size 3 to 8) (size 9 to 14) (size 15 to 20)
#    0.000    0.667    1.667    6.500    7.000    2.667 
#    0.000    0.000    0.000    0.000    0.000    0.000 
#    0.000    0.000    0.000    0.000    0.000    0.000 
#
# Total GULP energy -67260.875351 kJ/mol
# GULP energy per Si atom -5605.072946 kJ/mol
# Density = 2.474563 g / cm^3
# Si number density = 24.802082 Si / 1000 Ang^3
#
#
#
# Elastic Constant Matrix: (Units=GPa)
#
#
# Indices 1 2 3 4 5 6 
#
# 1 163.1829 33.6589 47.6326 16.8112 -11.1966 19.5186
# 2 33.6589 98.5253 4.3712 31.5047 -4.4730 6.7645
# 3 47.6326 4.3712 115.7720 27.8877 -23.9969 5.1263
# 4 16.8112 31.5047 27.8877 38.8533 -0.1700 2.9398
# 5 -11.1966 -4.4730 -23.9969 -0.1700 58.8120 5.6914
# 6 19.5186 6.7645 5.1263 2.9398 5.6914 57.5814
#
#
#
# Elastic Compliance Matrix: (Units=1/GPa)
#
#
# Indices 1 2 3 4 5 6 
#
# 1 0.007795 -0.002842 -0.003343 0.001491 0.000111 -0.002098
# 2 -0.002842 0.015881 0.004767 -0.014995 0.002648 -0.000823
# 3 -0.003343 0.004767 0.013969 -0.012378 0.005446 -0.000577
# 4 0.001491 -0.014995 -0.012378 0.046067 -0.005831 0.000583
# 5 0.000111 0.002648 0.005446 -0.005831 0.019671 -0.002480
# 6 -0.002098 -0.000823 -0.000577 0.000583 -0.002480 0.018441
#
#
# Mechanical properties :
#
#
# Convention : Reuss Voigt Hill
#
# Bulk Modulus (GPa) = 28.72800 60.97840 44.85320
# Shear Modulus (GPa) = 36.69346 50.50384 43.59865
#
# Velocity S-wave (km/s) = 3.85054 4.51741 4.19724
# Velocity P-wave (km/s) = 5.60151 7.20060 6.45080
#
# Compressibility (1/GPa) = 0.03480925
#
# Stress axis : x y z
#
# Youngs Moduli (GPa) = 128.28450 62.96904 71.58585
#
# Poissons Ratio (x) = 0.17898 0.23931
# Poissons Ratio (y) = 0.36462 -0.34127
# Poissons Ratio (z) = 0.42886 -0.30019
#
# Static dielectric constant tensor:
#      x y z
#    x 1.995780 -0.178780 0.037200 
#    y -0.178780 2.443530 0.021810 
#    z 0.037200 0.021810 1.930030 
# 
# From -- ./inp_files/32296.got.cif
#   From: 2010.05.17/outbox.cif.g08.bks.cpg/sg2_17_cif.got.tgz:32296.got - 2010.06.03 11:33:40.
