data_PCOD9041169
_publ_section_title
;
Structure prediction by ZEFSAII (Michael W. Deem and Ramdas Pophale) SiO2 
 PCOD9041169
Probable space group: P -1
;
_chemical_formula_sum "Si O2"
_cell_formula_units_Z 16
_cell_length_a 5.408392
_cell_length_b 19.532159
_cell_length_c 18.325129
_cell_angle_alpha 23.277736
_cell_angle_beta 112.112556
_cell_angle_gamma 100.152471
_cell_volume 628.198115
_symmetry_space_group_name_H-M "P -1"
_symmetry_group_IT_number 2
_symmetry_cell_setting 'triclinic'
loop_
_space_group_symop_operation_xyz
x,y,z
-x,-y,-z
loop_
_atom_site_type_symbol
_atom_site_label
_atom_site_fract_x
_atom_site_fract_y
_atom_site_fract_z
Si Si1 0.313408 0.263187 0.292382
Si Si2 0.608261 0.870380 0.776891
Si Si3 0.468882 0.923263 0.290640
Si Si4 0.105370 0.502645 0.592122
Si Si5 0.834993 0.948685 0.174588
Si Si6 0.204585 0.484200 0.208313
Si Si7 0.688467 0.370205 0.054966
Si Si8 0.681337 0.347648 0.732796
O O1 0.142557 0.368799 0.246388
O O2 0.049125 0.269390 0.206621
O O3 0.580515 0.056465 0.546252
O O4 0.426668 0.417392 0.129350
O O5 0.419319 0.789056 0.789288
O O6 0.466053 0.964492 0.746498
O O7 0.924260 0.681418 0.008176
O O8 0.572948 0.977637 0.173590
O O9 0.653536 0.687899 0.549685
O O10 0.124407 0.964354 0.223574
O O11 0.465957 0.407787 0.720569
O O12 0.000000 0.500000 0.500000
O O13 0.963422 0.729272 0.375074
O O14 0.975474 0.378501 0.743719
O O15 0.725522 0.132348 0.927329
O O16 0.403286 0.560395 0.108615
O O17 0.500000 0.500000 0.500000
#
# Coordination Sequence:
#
# PCOD9041169 Si02
#       8
#     2   2   2   2   2   2   2   2
#     4   8  19  40  55  96 125 159 231 280 351 398
#     4  11  22  39  64  88 126 183 220 280 339 390
#     4  11  28  44  67  97 140 181 235 266 328 406
#     4  10  23  43  72 104 136 171 215 266 329 395
#     4  12  26  47  69 101 139 179 216 279 329 396
#     4   9  22  40  60  91 124 178 219 285 327 390
#     4   9  19  40  60  88 132 161 223 290 338 398
#     4  10  23  43  71 106 135 171 216 265 329 396
#
# _framework density 25.469674999999999
#
# number of rings (size 3 to 8) (size 9 to 14) (size 15 to 20)
#    0.750    1.250    0.000    1.875    3.500    8.000 
#    2.250    0.000    0.000    0.000    0.000    0.000 
#    0.000    0.000    0.000    0.000    0.000    0.000 
#
# Total GULP energy -89266.453973 kJ/mol
# GULP energy per Si atom -5579.153373 kJ/mol
# Density = 2.541170 g / cm^3
# Si number density = 25.469675 Si / 1000 Ang^3
#
#
#
# Elastic Constant Matrix: (Units=GPa)
#
#
# Indices 1 2 3 4 5 6 
#
# 1 120.8963 14.9639 29.1392 -14.9552 -14.2903 7.0890
# 2 14.9639 60.8094 9.2726 -27.7525 -9.0676 -2.5605
# 3 29.1392 9.2726 154.0352 -14.8454 -9.2168 -7.1817
# 4 -14.9552 -27.7525 -14.8454 51.1427 -3.5655 1.0402
# 5 -14.2903 -9.0676 -9.2168 -3.5655 37.6421 -2.7618
# 6 7.0890 -2.5605 -7.1817 1.0402 -2.7618 23.2726
#
#
#
# Elastic Compliance Matrix: (Units=1/GPa)
#
#
# Indices 1 2 3 4 5 6 
#
# 1 0.009554 -0.000799 -0.001515 0.002197 0.003037 -0.003204
# 2 -0.000799 0.023806 0.000574 0.013277 0.007070 0.003285
# 3 -0.001515 0.000574 0.007174 0.002013 0.001720 0.002853
# 4 0.002197 0.013277 0.002013 0.028473 0.007296 0.001006
# 5 0.003037 0.007070 0.001720 0.007296 0.030807 0.003713
# 6 -0.003204 0.003285 0.002853 0.001006 0.003713 0.045582
#
#
# Mechanical properties :
#
#
# Convention : Reuss Voigt Hill
#
# Bulk Modulus (GPa) = 26.98817 49.16582 38.07700
# Shear Modulus (GPa) = 31.01186 41.23583 36.12384
#
# Velocity S-wave (km/s) = 3.49320 4.02807 3.77013
# Velocity P-wave (km/s) = 5.18547 6.40151 5.82531
#
# Compressibility (1/GPa) = 0.03705328
#
# Stress axis : x y z
#
# Youngs Moduli (GPa) = 104.66505 42.00581 139.39278
#
# Poissons Ratio (x) = 0.03358 0.21121
# Poissons Ratio (y) = 0.08367 -0.08001
# Poissons Ratio (z) = 0.15859 -0.02411
#
# Static dielectric constant tensor:
#      x y z
#    x 2.113060 -0.045170 0.020430 
#    y -0.045170 1.857600 -0.126490 
#    z 0.020430 -0.126490 1.915940 
# 
# From -- ./inp_files/584282.got.cif
#   From: 2010.05.17/outbox.cif.g08.bks.cpg/sg2_293_cif.got.tgz:584282.got - 2010.06.03 11:33:40.
