data_PCOD9041090
_publ_section_title
;
Structure prediction by ZEFSAII (Michael W. Deem and Ramdas Pophale) SiO2 
 PCOD9041090
Probable space group: P -1
;
_chemical_formula_sum "Si O2"
_cell_formula_units_Z 16
_cell_length_a 9.456684
_cell_length_b 9.088419
_cell_length_c 14.604387
_cell_angle_alpha 108.082047
_cell_angle_beta 52.569776
_cell_angle_gamma 74.836915
_cell_volume 760.553375
_symmetry_space_group_name_H-M "P -1"
_symmetry_group_IT_number 2
_symmetry_cell_setting 'triclinic'
loop_
_space_group_symop_operation_xyz
x,y,z
-x,-y,-z
loop_
_atom_site_type_symbol
_atom_site_label
_atom_site_fract_x
_atom_site_fract_y
_atom_site_fract_z
Si Si1 0.997082 0.534686 0.400819
Si Si2 0.794362 0.724812 0.126010
Si Si3 0.296567 0.018645 0.627793
Si Si4 0.001801 0.128113 0.599722
Si Si5 0.493018 0.357316 0.877541
Si Si6 0.532563 0.635026 0.574686
Si Si7 0.490520 0.301743 0.077718
Si Si8 0.252061 0.929701 0.899171
O O1 0.925055 0.747376 0.447968
O O2 0.795311 0.532890 0.446271
O O3 0.000000 0.500000 0.500000
O O4 0.245375 0.396815 0.235441
O O5 0.818050 0.793512 0.228278
O O6 0.586168 0.720735 0.184022
O O7 0.761067 0.888918 0.102275
O O8 0.000000 0.500000 0.000000
O O9 0.149198 0.020276 0.608310
O O10 0.500000 0.000000 0.500000
O O11 0.395360 0.836905 0.616488
O O12 0.750990 0.263232 0.757078
O O13 0.000000 0.000000 0.500000
O O14 0.404999 0.576922 0.935978
O O15 0.452141 0.305058 0.983858
O O16 0.500000 0.500000 0.500000
O O17 0.424631 0.722650 0.736120
O O18 0.659367 0.116819 0.039596
O O19 0.000000 0.000000 0.000000
#
# Coordination Sequence:
#
# PCOD9041090 Si02
#       8
#     2   2   2   2   2   2   2   2
#     4  11  23  44  68  99 141 177 229 287 347 420
#     4  11  26  44  70  98 139 183 230 288 347 421
#     4  11  24  44  69  98 136 174 236 284 335 420
#     4  11  25  42  71  99 136 182 226 291 347 410
#     4  10  24  41  68 100 132 181 232 279 354 405
#     4  11  26  44  68 101 139 184 231 286 353 412
#     4  10  23  43  70  98 138 181 234 290 343 422
#     4  11  25  44  68 102 140 181 234 293 347 421
#
# _framework density 21.037313000000001
#
# number of rings (size 3 to 8) (size 9 to 14) (size 15 to 20)
#    0.000    1.250    2.500    1.500   12.250    3.500 
#    0.000    0.000    0.000    0.000    0.000    0.000 
#    0.000    0.000    0.000    0.000    0.000    0.000 
#
# Total GULP energy -89161.546694 kJ/mol
# GULP energy per Si atom -5572.596668 kJ/mol
# Density = 2.098943 g / cm^3
# Si number density = 21.037313 Si / 1000 Ang^3
#
#
#
# Elastic Constant Matrix: (Units=GPa)
#
#
# Indices 1 2 3 4 5 6 
#
# 1 146.7250 22.9541 25.9232 -3.5263 -11.0503 4.8816
# 2 22.9541 56.7017 30.8785 -3.3334 1.8421 -7.9525
# 3 25.9232 30.8785 79.8378 -4.4118 4.6384 2.5056
# 4 -3.5263 -3.3334 -4.4118 31.4188 0.7974 2.3003
# 5 -11.0503 1.8421 4.6384 0.7974 35.6709 -4.3747
# 6 4.8816 -7.9525 2.5056 2.3003 -4.3747 44.4777
#
#
#
# Elastic Compliance Matrix: (Units=1/GPa)
#
#
# Indices 1 2 3 4 5 6 
#
# 1 0.007726 -0.002409 -0.001678 0.000379 0.002611 -0.000947
# 2 -0.002409 0.024058 -0.008624 0.000713 -0.000272 0.004988
# 3 -0.001678 -0.008624 0.016723 0.001504 -0.002606 -0.002634
# 4 0.000379 0.000713 0.001504 0.032314 -0.001055 -0.001774
# 5 0.002611 -0.000272 -0.002606 -0.001055 0.029560 0.002774
# 6 -0.000947 0.004988 -0.002634 -0.001774 0.002774 0.023992
#
#
# Mechanical properties :
#
#
# Convention : Reuss Voigt Hill
#
# Bulk Modulus (GPa) = 43.31855 49.19736 46.25795
# Shear Modulus (GPa) = 29.85252 35.88073 32.86663
#
# Velocity S-wave (km/s) = 3.77108 4.13434 3.95688
# Velocity P-wave (km/s) = 6.29265 6.79904 6.55074
#
# Compressibility (1/GPa) = 0.02308480
#
# Stress axis : x y z
#
# Youngs Moduli (GPa) = 129.43091 41.56575 59.79863
#
# Poissons Ratio (x) = 0.10015 0.10033
# Poissons Ratio (y) = 0.31185 0.51570
# Poissons Ratio (z) = 0.21717 0.35846
#
# Static dielectric constant tensor:
#      x y z
#    x 1.787590 -0.010380 0.087450 
#    y -0.010380 1.819450 0.053250 
#    z 0.087450 0.053250 1.956970 
# 
# From -- ./inp_files/495396.got.cif
#   From: 2010.05.17/outbox.cif.g08.bks.cpg/sg2_248_cif.got.tgz:495396.got - 2010.06.03 11:33:40.
