data_PCOD9041700
_publ_section_title
;
Structure prediction by ZEFSAII (Michael W. Deem and Ramdas Pophale) SiO2 
 PCOD9041700
Probable space group: P -1
;
_chemical_formula_sum "Si O2"
_cell_formula_units_Z 15
_cell_length_a 15.355763
_cell_length_b 7.660306
_cell_length_c 8.379078
_cell_angle_alpha 65.218132
_cell_angle_beta 98.592195
_cell_angle_gamma 55.875617
_cell_volume 636.480651
_symmetry_space_group_name_H-M "P -1"
_symmetry_group_IT_number 2
_symmetry_cell_setting 'triclinic'
loop_
_space_group_symop_operation_xyz
x,y,z
-x,-y,-z
loop_
_atom_site_type_symbol
_atom_site_label
_atom_site_fract_x
_atom_site_fract_y
_atom_site_fract_z
Si Si1 0.508895 0.052272 0.218584
Si Si2 0.434424 0.407390 0.779998
Si Si3 0.332288 0.708845 0.192141
Si Si4 0.328965 0.270266 0.335602
Si Si5 0.184990 0.934233 0.387006
Si Si6 0.902686 0.559466 0.675423
Si Si7 0.000000 0.000000 0.500000
Si Si8 0.862620 0.906209 0.262548
O O1 0.383917 0.152573 0.221002
O O2 0.574939 0.787623 0.233917
O O3 0.596920 0.965006 0.424140
O O4 0.473590 0.288791 0.014046
O O5 0.544684 0.355182 0.748893
O O6 0.308381 0.712481 0.609867
O O7 0.361969 0.439617 0.314447
O O8 0.240932 0.881340 0.248063
O O9 0.260793 0.853794 0.952501
O O10 0.187308 0.453089 0.260083
O O11 0.104786 0.242784 0.289767
O O12 0.095477 0.892824 0.415831
O O13 0.852739 0.722721 0.430825
O O14 0.035411 0.283659 0.773129
O O15 0.086511 0.009716 0.634108
#
# Coordination Sequence:
#
# PCOD9041700 Si02
#       8
#     2   2   2   2   2   2   1   2
#     4  10  24  41  62  97 137 181 220 273 343 390
#     4  11  24  45  66 102 137 180 222 276 341 407
#     4  12  25  42  71 103 137 173 232 275 342 398
#     4  11  23  39  64 101 135 179 222 284 326 404
#     4  11  24  43  71 100 137 185 218 287 327 404
#     4  10  23  44  66  96 137 177 229 269 346 394
#     4  10  24  46  66  98 132 172 232 268 344 392
#     4  10  24  46  69  99 129 186 220 288 331 404
#
# _framework density 23.567095999999999
#
# number of rings (size 3 to 8) (size 9 to 14) (size 15 to 20)
#    0.000    1.333    1.333    2.800    7.467    3.200 
#    7.200    2.667    0.000    0.000    0.000    0.000 
#    0.000    0.000    0.000    0.000    0.000    0.000 
#
# Total GULP energy -83614.268184 kJ/mol
# GULP energy per Si atom -5574.284546 kJ/mol
# Density = 2.351346 g / cm^3
# Si number density = 23.567096 Si / 1000 Ang^3
#
#
#
# Elastic Constant Matrix: (Units=GPa)
#
#
# Indices 1 2 3 4 5 6 
#
# 1 107.3419 7.4344 10.4119 -1.2712 -1.1693 -35.2293
# 2 7.4344 91.6919 -5.3736 -1.3681 11.3245 -19.1030
# 3 10.4119 -5.3736 83.6297 1.0550 -9.8486 3.6854
# 4 -1.2712 -1.3681 1.0550 13.6413 -9.4822 -7.5657
# 5 -1.1693 11.3245 -9.8486 -9.4822 13.0879 6.0163
# 6 -35.2293 -19.1030 3.6854 -7.5657 6.0163 41.5245
#
#
#
# Elastic Compliance Matrix: (Units=1/GPa)
#
#
# Indices 1 2 3 4 5 6 
#
# 1 0.014763 0.002873 -0.003192 0.006539 -0.006293 0.016234
# 2 0.002873 0.016978 -0.003508 -0.013301 -0.032622 0.012862
# 3 -0.003192 -0.003508 0.015484 0.013008 0.027164 -0.007262
# 4 0.006539 -0.013301 0.013008 0.179380 0.147431 0.009597
# 5 -0.006293 -0.032622 0.027164 0.147431 0.245812 -0.031511
# 6 0.016234 0.012862 -0.007262 0.009597 -0.031511 0.050730
#
#
# Mechanical properties :
#
#
# Convention : Reuss Voigt Hill
#
# Bulk Modulus (GPa) = 25.27079 34.17877 29.72478
# Shear Modulus (GPa) = 9.19129 31.66344 20.42737
#
# Velocity S-wave (km/s) = 1.97700 3.66942 2.94730
# Velocity P-wave (km/s) = 3.99469 5.69974 4.92162
#
# Compressibility (1/GPa) = 0.03957138
#
# Stress axis : x y z
#
# Youngs Moduli (GPa) = 67.73512 58.90020 64.58090
#
# Poissons Ratio (x) = -0.16921 0.20617
# Poissons Ratio (y) = -0.19459 0.22652
# Poissons Ratio (z) = 0.21624 0.20659
#
# Static dielectric constant tensor:
#      x y z
#    x 1.889650 -0.015310 -0.015750 
#    y -0.015310 1.974920 0.047670 
#    z -0.015750 0.047670 1.923380 
# 
# From -- ./inp_files/241127.got.cif
#   From: 2010.05.17/outbox.cif.g08.bks.cpg/sg2_121_cif.got.tgz:241127.got - 2010.06.03 11:33:40.
