data_PCOD9041514
_publ_section_title
;
Structure prediction by ZEFSAII (Michael W. Deem and Ramdas Pophale) SiO2 
 PCOD9041514
Probable space group: P -1
;
_chemical_formula_sum "Si O2"
_cell_formula_units_Z 16
_cell_length_a 6.217665
_cell_length_b 5.654877
_cell_length_c 22.302701
_cell_angle_alpha 83.013984
_cell_angle_beta 121.560096
_cell_angle_gamma 77.834638
_cell_volume 627.346524
_symmetry_space_group_name_H-M "P -1"
_symmetry_group_IT_number 2
_symmetry_cell_setting 'triclinic'
loop_
_space_group_symop_operation_xyz
x,y,z
-x,-y,-z
loop_
_atom_site_type_symbol
_atom_site_label
_atom_site_fract_x
_atom_site_fract_y
_atom_site_fract_z
Si Si1 0.220061 0.865337 0.829625
Si Si2 0.975795 0.192370 0.891416
Si Si3 0.223988 0.318810 0.237315
Si Si4 0.697835 0.613065 0.982601
Si Si5 0.681903 0.160813 0.595243
Si Si6 0.467392 0.149673 0.787383
Si Si7 0.845940 0.641030 0.569455
Si Si8 0.574902 0.550687 0.343680
O O1 0.517195 0.704290 0.894970
O O2 0.038949 0.730847 0.775678
O O3 0.087310 0.956606 0.871244
O O4 0.223489 0.107944 0.786674
O O5 0.895967 0.442936 0.831801
O O6 0.686921 0.173639 0.867150
O O7 0.215881 0.191691 0.969309
O O8 0.397690 0.372588 0.314388
O O9 0.406005 0.095803 0.228565
O O10 0.500000 0.500000 0.000000
O O11 0.000000 0.500000 0.000000
O O12 0.829626 0.369710 0.597935
O O13 0.407906 0.254194 0.513998
O O14 0.587689 0.209139 0.648736
O O15 0.826390 0.874874 0.604419
O O16 0.391619 0.372925 0.722143
O O17 0.135380 0.580891 0.583024
#
# Coordination Sequence:
#
# PCOD9041514 Si02
#       8
#     2   2   2   2   2   2   2   2
#     4  11  24  44  72  96 144 182 242 309 380 452
#     4  10  23  44  66 100 133 183 238 302 382 439
#     4  10  23  44  63  98 142 182 239 299 367 456
#     4  12  26  44  77 103 137 191 250 315 392 467
#     4  10  24  46  73 113 150 195 248 325 372 463
#     4  10  25  42  65 101 139 190 240 305 370 459
#     4  10  24  45  76 110 151 193 255 310 391 446
#     4  11  25  44  72 104 146 195 250 300 385 456
#
# _framework density 25.504246999999999
#
# number of rings (size 3 to 8) (size 9 to 14) (size 15 to 20)
#    0.000    1.500    1.250    1.500    7.000    6.500 
#    0.000    3.750    0.000    0.000    0.000    0.000 
#    0.000    0.000    0.000    0.000    0.000    0.000 
#
# Total GULP energy -89329.669851 kJ/mol
# GULP energy per Si atom -5583.104366 kJ/mol
# Density = 2.544620 g / cm^3
# Si number density = 25.504247 Si / 1000 Ang^3
#
#
#
# Elastic Constant Matrix: (Units=GPa)
#
#
# Indices 1 2 3 4 5 6 
#
# 1 105.4831 35.2363 34.3744 17.5923 20.5510 23.4929
# 2 35.2363 114.4470 27.4806 25.8474 17.2361 4.2295
# 3 34.3744 27.4806 69.0471 22.4472 22.9802 12.8712
# 4 17.5923 25.8474 22.4472 44.7872 6.1953 4.4568
# 5 20.5510 17.2361 22.9802 6.1953 45.3806 3.7855
# 6 23.4929 4.2295 12.8712 4.4568 3.7855 48.4884
#
#
#
# Elastic Compliance Matrix: (Units=1/GPa)
#
#
# Indices 1 2 3 4 5 6 
#
# 1 0.013237 -0.002376 -0.003379 -0.001253 -0.002795 -0.004976
# 2 -0.002376 0.011080 -0.001268 -0.004666 -0.001945 0.001102
# 3 -0.003379 -0.001268 0.022403 -0.007774 -0.008033 -0.002857
# 4 -0.001253 -0.004666 -0.007774 0.029070 0.002289 0.000227
# 5 -0.002795 -0.001945 -0.008033 0.002289 0.027689 0.001284
# 6 -0.004976 0.001102 -0.002857 0.000227 0.001284 0.023576
#
#
# Mechanical properties :
#
#
# Convention : Reuss Voigt Hill
#
# Bulk Modulus (GPa) = 30.60628 53.68443 42.14535
# Shear Modulus (GPa) = 32.89663 40.52364 36.71014
#
# Velocity S-wave (km/s) = 3.59534 3.99042 3.79802
# Velocity P-wave (km/s) = 5.40942 6.50586 5.98281
#
# Compressibility (1/GPa) = 0.03267304
#
# Stress axis : x y z
#
# Youngs Moduli (GPa) = 75.54740 90.25489 44.63629
#
# Poissons Ratio (x) = 0.21447 0.15083
# Poissons Ratio (y) = 0.17952 0.05659
# Poissons Ratio (z) = 0.25529 0.11443
#
# Static dielectric constant tensor:
#      x y z
#    x 2.072490 0.004700 -0.045310 
#    y 0.004700 2.037910 0.012920 
#    z -0.045310 0.012920 2.187930 
# 
# From -- ./inp_files/11281.got.cif
#   From: 2010.05.17/outbox.cif.g08.bks.cpg/sg2_6_cif.got.tgz:11281.got - 2010.06.03 11:33:40.
