data_PCOD9041433
_publ_section_title
;
Structure prediction by ZEFSAII (Michael W. Deem and Ramdas Pophale) SiO2 
 PCOD9041433
Probable space group: P -1
;
_chemical_formula_sum "Si O2"
_cell_formula_units_Z 15
_cell_length_a 7.990657
_cell_length_b 9.438938
_cell_length_c 12.089761
_cell_angle_alpha 88.419535
_cell_angle_beta 130.393733
_cell_angle_gamma 74.919620
_cell_volume 646.254600
_symmetry_space_group_name_H-M "P -1"
_symmetry_group_IT_number 2
_symmetry_cell_setting 'triclinic'
loop_
_space_group_symop_operation_xyz
x,y,z
-x,-y,-z
loop_
_atom_site_type_symbol
_atom_site_label
_atom_site_fract_x
_atom_site_fract_y
_atom_site_fract_z
Si Si1 0.664941 0.860089 0.649246
Si Si2 0.000000 0.000000 0.500000
Si Si3 0.548985 0.222553 0.224118
Si Si4 0.452402 0.216184 0.936484
Si Si5 0.052970 0.770089 0.332880
Si Si6 0.032395 0.991096 0.883387
Si Si7 0.799726 0.576919 0.555744
Si Si8 0.651453 0.520049 0.266710
O O1 0.553740 0.849983 0.720571
O O2 0.701791 0.707692 0.600383
O O3 0.907571 0.883237 0.779178
O O4 0.500000 0.000000 0.500000
O O5 0.816640 0.104449 0.326339
O O6 0.898936 0.143678 0.542495
O O7 0.546811 0.390085 0.244119
O O8 0.414792 0.235036 0.050683
O O9 0.223485 0.205577 0.780702
O O10 0.477381 0.364934 0.888231
O O11 0.689410 0.075273 0.018685
O O12 0.188714 0.589337 0.398078
O O13 0.087539 0.848737 0.233883
O O14 0.000000 0.000000 0.000000
O O15 0.655344 0.610802 0.378813
O O16 0.070276 0.558910 0.644365
#
# Coordination Sequence:
#
# PCOD9041433 Si02
#       8
#     2   1   2   2   2   2   2   2
#     4  12  30  46  72 106 146 190 240 302 360 428
#     4  12  24  42  78 100 138 182 252 284 350 420
#     4  12  25  45  72 105 141 192 236 295 360 427
#     4  11  25  45  74 104 146 186 246 289 359 439
#     4  11  24  47  78 104 140 197 237 301 353 428
#     4  12  27  46  68 109 149 188 236 301 364 427
#     4  10  24  47  73 106 144 179 246 300 360 423
#     4  10  23  43  75 107 137 189 235 301 350 431
#
# _framework density 23.210664999999999
#
# number of rings (size 3 to 8) (size 9 to 14) (size 15 to 20)
#    0.000    0.800    2.667    3.200    5.600    2.667 
#    0.000    4.000    0.000    0.000    0.000    0.000 
#    0.000    0.000    0.000    0.000    0.000    0.000 
#
# Total GULP energy -83785.257560 kJ/mol
# GULP energy per Si atom -5585.683837 kJ/mol
# Density = 2.315784 g / cm^3
# Si number density = 23.210665 Si / 1000 Ang^3
#
#
#
# Elastic Constant Matrix: (Units=GPa)
#
#
# Indices 1 2 3 4 5 6 
#
# 1 71.9268 34.3444 38.6672 0.3825 -32.0140 12.7412
# 2 34.3444 134.5551 45.2171 -0.5627 -27.9075 5.0872
# 3 38.6672 45.2171 113.7350 -4.8670 -29.9357 -1.4501
# 4 0.3825 -0.5627 -4.8670 34.7615 4.7045 -11.8497
# 5 -32.0140 -27.9075 -29.9357 4.7045 46.8423 -4.9895
# 6 12.7412 5.0872 -1.4501 -11.8497 -4.9895 36.7860
#
#
#
# Elastic Compliance Matrix: (Units=1/GPa)
#
#
# Indices 1 2 3 4 5 6 
#
# 1 0.024187 -0.001796 -0.004656 -0.005462 0.012136 -0.008426
# 2 -0.001796 0.009293 -0.002389 -0.000754 0.002791 -0.000621
# 3 -0.004656 -0.002389 0.012391 0.002548 0.003453 0.003721
# 4 -0.005462 -0.000754 0.002548 0.034039 -0.004648 0.012431
# 5 0.012136 0.002791 0.003453 -0.004648 0.033834 -0.001361
# 6 -0.008426 -0.000621 0.003721 0.012431 -0.001361 0.034155
#
#
# Mechanical properties :
#
#
# Convention : Reuss Voigt Hill
#
# Bulk Modulus (GPa) = 35.47681 61.85272 48.66477
# Shear Modulus (GPa) = 28.57543 37.14384 32.85964
#
# Velocity S-wave (km/s) = 3.51256 4.00470 3.76668
# Velocity P-wave (km/s) = 5.63637 6.93468 6.31896
#
# Compressibility (1/GPa) = 0.02818742
#
# Stress axis : x y z
#
# Youngs Moduli (GPa) = 41.34501 107.61316 80.70660
#
# Poissons Ratio (x) = 0.19330 0.37575
# Poissons Ratio (y) = 0.07426 0.19283
# Poissons Ratio (z) = 0.19249 0.25711
#
# Static dielectric constant tensor:
#      x y z
#    x 1.928480 0.034980 0.031200 
#    y 0.034980 1.851520 -0.035820 
#    z 0.031200 -0.035820 1.828330 
# 
# From -- ./inp_files/377721.got.cif
#   From: 2010.05.17/outbox.cif.g08.bks.cpg/sg2_189_cif.got.tgz:377721.got - 2010.06.03 11:33:40.
