data_PCOD9041013
_publ_section_title
;
Structure prediction by ZEFSAII (Michael W. Deem and Ramdas Pophale) SiO2 
 PCOD9041013
Probable space group: P -1
;
_chemical_formula_sum "Si O2"
_cell_formula_units_Z 16
_cell_length_a 8.172633
_cell_length_b 8.759220
_cell_length_c 14.418171
_cell_angle_alpha 72.757540
_cell_angle_beta 140.076511
_cell_angle_gamma 97.699822
_cell_volume 625.241920
_symmetry_space_group_name_H-M "P -1"
_symmetry_group_IT_number 2
_symmetry_cell_setting 'triclinic'
loop_
_space_group_symop_operation_xyz
x,y,z
-x,-y,-z
loop_
_atom_site_type_symbol
_atom_site_label
_atom_site_fract_x
_atom_site_fract_y
_atom_site_fract_z
Si Si1 0.778916 0.618425 0.936941
Si Si2 0.399643 0.842197 0.266866
Si Si3 0.928958 0.895124 0.834549
Si Si4 0.051876 0.652068 0.391655
Si Si5 0.200207 0.662494 0.651924
Si Si6 0.169572 0.195830 0.387464
Si Si7 0.821411 0.437064 0.731794
Si Si8 0.502057 0.866228 0.103311
O O1 0.769599 0.784641 0.846210
O O2 0.489350 0.583044 0.815033
O O3 0.000000 0.500000 0.000000
O O4 0.896778 0.617372 0.091170
O O5 0.603150 0.859599 0.432076
O O6 0.372316 0.652453 0.274904
O O7 0.483466 0.914501 0.194743
O O8 0.124771 0.935525 0.165321
O O9 0.847256 0.915251 0.688770
O O10 0.224531 0.808958 0.978610
O O11 0.997253 0.467882 0.411325
O O12 0.770444 0.750151 0.233780
O O13 0.178808 0.718688 0.525371
O O14 0.212463 0.639839 0.369614
O O15 0.087280 0.781456 0.664015
O O16 0.204623 0.370702 0.326263
O O17 0.500000 0.000000 0.000000
#
# Coordination Sequence:
#
# PCOD9041013 Si02
#       8
#     2   2   2   2   2   2   2   2
#     4  12  25  44  70 109 146 185 230 303 353 417
#     4  12  26  49  70 104 146 187 242 292 347 434
#     4  12  27  45  72 105 146 186 238 294 360 416
#     4  10  23  43  70 105 139 189 233 292 349 426
#     4  10  24  44  71 104 146 180 237 293 356 417
#     4  11  25  47  71 110 139 190 232 297 357 416
#     4  11  25  42  77 105 139 186 238 289 359 421
#     4  12  26  46  72  98 142 191 237 287 355 425
#
# _framework density 25.590095999999999
#
# number of rings (size 3 to 8) (size 9 to 14) (size 15 to 20)
#    0.000    0.750    3.750    2.625    5.250    1.000 
#    2.250    1.250    0.000    0.000    0.000    0.000 
#    0.000    0.000    0.000    0.000    0.000    0.000 
#
# Total GULP energy -89540.395788 kJ/mol
# GULP energy per Si atom -5596.274737 kJ/mol
# Density = 2.553185 g / cm^3
# Si number density = 25.590096 Si / 1000 Ang^3
#
#
#
# Elastic Constant Matrix: (Units=GPa)
#
#
# Indices 1 2 3 4 5 6 
#
# 1 104.7870 24.9437 35.9022 4.6338 -13.5412 -10.8363
# 2 24.9437 37.3993 -2.6982 0.2547 -12.5400 -3.3977
# 3 35.9022 -2.6982 149.8731 17.4224 -17.1542 1.4938
# 4 4.6338 0.2547 17.4224 25.7375 2.9254 -0.6285
# 5 -13.5412 -12.5400 -17.1542 2.9254 60.0500 1.3201
# 6 -10.8363 -3.3977 1.4938 -0.6285 1.3201 31.6651
#
#
#
# Elastic Compliance Matrix: (Units=1/GPa)
#
#
# Indices 1 2 3 4 5 6 
#
# 1 0.013135 -0.008621 -0.003330 0.000051 0.000126 0.003723
# 2 -0.008621 0.034975 0.003669 -0.002008 0.006499 0.000319
# 3 -0.003330 0.003669 0.008508 -0.005542 0.002746 -0.001372
# 4 0.000051 -0.002008 -0.005542 0.043110 -0.004115 0.001091
# 5 0.000126 0.006499 0.002746 -0.004115 0.019029 -0.000264
# 6 0.003723 0.000319 -0.001372 0.001091 -0.000264 0.032986
#
#
# Mechanical properties :
#
#
# Convention : Reuss Voigt Hill
#
# Bulk Modulus (GPa) = 24.96668 45.37275 35.16971
# Shear Modulus (GPa) = 27.52402 39.08463 33.30433
#
# Velocity S-wave (km/s) = 3.28315 3.91235 3.61148
# Velocity P-wave (km/s) = 4.91423 6.17881 5.58245
#
# Compressibility (1/GPa) = 0.04005338
#
# Stress axis : x y z
#
# Youngs Moduli (GPa) = 76.13025 28.59225 117.53147
#
# Poissons Ratio (x) = 0.24649 0.39143
# Poissons Ratio (y) = 0.65631 -0.43121
# Poissons Ratio (z) = 0.25355 -0.10490
#
# Static dielectric constant tensor:
#      x y z
#    x 2.051340 0.022300 -0.064360 
#    y 0.022300 2.051480 -0.044430 
#    z -0.064360 -0.044430 2.022240 
# 
# From -- ./inp_files/494758.got.cif
#   From: 2010.05.17/outbox.cif.g08.bks.cpg/sg2_248_cif.got.tgz:494758.got - 2010.06.03 11:33:40.
