data_PCOD9041771
_publ_section_title
;
Structure prediction by ZEFSAII (Michael W. Deem and Ramdas Pophale) SiO2 
 PCOD9041771
Probable space group: P -1
;
_chemical_formula_sum "Si O2"
_cell_formula_units_Z 16
_cell_length_a 7.286127
_cell_length_b 12.586689
_cell_length_c 8.661755
_cell_angle_alpha 103.046321
_cell_angle_beta 112.033620
_cell_angle_gamma 99.614727
_cell_volume 688.901850
_symmetry_space_group_name_H-M "P -1"
_symmetry_group_IT_number 2
_symmetry_cell_setting 'triclinic'
loop_
_space_group_symop_operation_xyz
x,y,z
-x,-y,-z
loop_
_atom_site_type_symbol
_atom_site_label
_atom_site_fract_x
_atom_site_fract_y
_atom_site_fract_z
Si Si1 0.461486 0.380475 0.124864
Si Si2 0.303639 0.221113 0.548951
Si Si3 0.593980 0.271543 0.400620
Si Si4 0.652466 0.956413 0.929637
Si Si5 0.848467 0.830243 0.179612
Si Si6 0.731619 0.021132 0.649815
Si Si7 0.796966 0.483001 0.040440
Si Si8 0.951684 0.610299 0.442781
O O1 0.529889 0.368986 0.316338
O O2 0.653667 0.379421 0.069606
O O3 0.253637 0.281679 0.988670
O O4 0.384642 0.490881 0.109327
O O5 0.525811 0.262424 0.552853
O O6 0.285325 0.193612 0.714596
O O7 0.209177 0.096241 0.403524
O O8 0.198560 0.321336 0.511662
O O9 0.473874 0.158481 0.234692
O O10 0.832940 0.295753 0.465343
O O11 0.730815 0.039546 0.839302
O O12 0.813172 0.928023 0.088687
O O13 0.500000 0.000000 0.000000
O O14 0.086978 0.872983 0.318598
O O15 0.500000 0.000000 0.500000
O O16 0.874126 0.572145 0.233603
O O17 0.000000 0.500000 0.000000
O O18 0.000000 0.500000 0.500000
#
# Coordination Sequence:
#
# PCOD9041771 Si02
#       8
#     2   2   2   2   2   2   2   2
#     4  10  23  46  62 101 137 178 233 291 347 427
#     4  11  26  43  72 101 141 183 231 292 349 418
#     4  10  25  43  69  99 139 180 238 282 356 409
#     4  10  23  44  67 102 142 186 231 285 347 430
#     4  11  23  44  68 100 142 183 230 290 350 420
#     4  11  25  45  73 107 141 188 234 285 359 424
#     4  11  25  44  70  96 139 180 239 289 359 410
#     4  12  26  46  70 103 138 185 240 293 351 419
#
# _framework density 23.225369000000001
#
# number of rings (size 3 to 8) (size 9 to 14) (size 15 to 20)
#    0.000    1.250    2.500    1.500    8.750    0.500 
#    4.500    0.000    0.000    0.000    0.000    0.000 
#    0.000    0.000    0.000    0.000    0.000    0.000 
#
# Total GULP energy -89187.031541 kJ/mol
# GULP energy per Si atom -5574.189471 kJ/mol
# Density = 2.317251 g / cm^3
# Si number density = 23.225369 Si / 1000 Ang^3
#
#
#
# Elastic Constant Matrix: (Units=GPa)
#
#
# Indices 1 2 3 4 5 6 
#
# 1 118.4447 23.8221 23.9264 -0.0609 0.2337 8.4936
# 2 23.8221 59.3070 20.2403 -14.0708 1.5894 0.9902
# 3 23.9264 20.2403 71.6597 -15.7294 2.7050 2.8261
# 4 -0.0609 -14.0708 -15.7294 44.9322 13.3516 0.4101
# 5 0.2337 1.5894 2.7050 13.3516 39.5253 2.9168
# 6 8.4936 0.9902 2.8261 0.4101 2.9168 35.7647
#
#
#
# Elastic Compliance Matrix: (Units=1/GPa)
#
#
# Indices 1 2 3 4 5 6 
#
# 1 0.009875 -0.003594 -0.002782 -0.002440 0.001256 -0.002100
# 2 -0.003594 0.020963 -0.003278 0.006223 -0.002750 0.000685
# 3 -0.002782 -0.003278 0.017234 0.005895 -0.002991 -0.000434
# 4 -0.002440 0.006223 0.005895 0.029413 -0.010610 0.000469
# 5 0.001256 -0.002750 -0.002991 -0.010610 0.029359 -0.002258
# 6 -0.002100 0.000685 -0.000434 0.000469 -0.002258 0.028653
#
#
# Mechanical properties :
#
#
# Convention : Reuss Voigt Hill
#
# Bulk Modulus (GPa) = 34.76803 42.82099 38.79451
# Shear Modulus (GPa) = 30.41505 36.13929 33.27717
#
# Velocity S-wave (km/s) = 3.62271 3.94893 3.78933
# Velocity P-wave (km/s) = 5.70097 6.26652 5.99042
#
# Compressibility (1/GPa) = 0.02876206
#
# Stress axis : x y z
#
# Youngs Moduli (GPa) = 101.27077 47.70392 58.02629
#
# Poissons Ratio (x) = 0.17147 0.16142
# Poissons Ratio (y) = 0.36401 0.19021
# Poissons Ratio (z) = 0.28173 0.15637
#
# Static dielectric constant tensor:
#      x y z
#    x 1.908390 0.028400 0.034560 
#    y 0.028400 2.042040 -0.032670 
#    z 0.034560 -0.032670 1.892980 
# 
# From -- ./inp_files/135581.got.cif
#   From: 2010.05.17/outbox.cif.g08.bks.cpg/sg2_68_cif.got.tgz:135581.got - 2010.06.03 11:33:40.
