data_PCOD9041529
_publ_section_title
;
Structure prediction by ZEFSAII (Michael W. Deem and Ramdas Pophale) SiO2 
 PCOD9041529
Probable space group: P -1
;
_chemical_formula_sum "Si O2"
_cell_formula_units_Z 16
_cell_length_a 13.882495
_cell_length_b 9.331648
_cell_length_c 9.583858
_cell_angle_alpha 138.237840
_cell_angle_beta 67.047669
_cell_angle_gamma 103.960214
_cell_volume 758.960230
_symmetry_space_group_name_H-M "P -1"
_symmetry_group_IT_number 2
_symmetry_cell_setting 'triclinic'
loop_
_space_group_symop_operation_xyz
x,y,z
-x,-y,-z
loop_
_atom_site_type_symbol
_atom_site_label
_atom_site_fract_x
_atom_site_fract_y
_atom_site_fract_z
Si Si1 0.435128 0.197475 0.104276
Si Si2 0.715369 0.320535 0.823232
Si Si3 0.759128 0.601130 0.477027
Si Si4 0.958054 0.872354 0.801320
Si Si5 0.111723 0.005887 0.364139
Si Si6 0.474403 0.975062 0.335222
Si Si7 0.151235 0.547818 0.407750
Si Si8 0.396669 0.458403 0.707631
O O1 0.322669 0.248542 0.272968
O O2 0.505380 0.397823 0.234990
O O3 0.500000 0.000000 0.000000
O O4 0.435598 0.135730 0.895928
O O5 0.806699 0.178491 0.751809
O O6 0.759245 0.404652 0.715781
O O7 0.623385 0.167208 0.732275
O O8 0.664864 0.508914 0.088244
O O9 0.817098 0.442224 0.440514
O O10 0.688962 0.483437 0.321298
O O11 0.837467 0.762317 0.480736
O O12 0.053938 0.723836 0.568808
O O13 0.883206 0.693485 0.767550
O O14 0.906064 0.013453 0.806775
O O15 0.000000 0.000000 0.000000
O O16 0.000000 0.000000 0.500000
O O17 0.439673 0.215054 0.477633
O O18 0.500000 0.000000 0.500000
#
# Coordination Sequence:
#
# PCOD9041529 Si02
#       8
#     2   2   2   2   2   2   2   2
#     4  11  23  43  65  95 133 169 222 273 324 398
#     4  11  24  43  66  98 133 170 225 268 328 397
#     4  11  23  42  66  96 132 172 218 271 332 388
#     4  10  23  44  64  91 129 169 222 268 332 382
#     4  11  22  45  68  91 134 175 212 275 320 393
#     4  11  26  43  66  97 135 173 219 272 330 395
#     4  10  24  41  62  95 130 165 216 280 320 386
#     4  11  24  42  67  96 130 175 223 267 336 395
#
# _framework density 21.081474
#
# number of rings (size 3 to 8) (size 9 to 14) (size 15 to 20)
#    0.000    1.250    3.750    1.125    5.250    3.000 
#    2.250    1.250    0.000    0.000    0.000    0.000 
#    0.000    0.000    0.000    0.000    0.000    0.000 
#
# Total GULP energy -89457.300545 kJ/mol
# GULP energy per Si atom -5591.081284 kJ/mol
# Density = 2.103349 g / cm^3
# Si number density = 21.081474 Si / 1000 Ang^3
#
#
#
# Elastic Constant Matrix: (Units=GPa)
#
#
# Indices 1 2 3 4 5 6 
#
# 1 62.1138 6.9230 18.0410 -5.4888 4.8856 0.7963
# 2 6.9230 85.2842 29.5105 -8.7419 -3.5111 14.8242
# 3 18.0410 29.5105 86.1361 -7.3579 19.3548 14.0029
# 4 -5.4888 -8.7419 -7.3579 17.0589 -1.3583 -2.1722
# 5 4.8856 -3.5111 19.3548 -1.3583 39.8013 -14.6497
# 6 0.7963 14.8242 14.0029 -2.1722 -14.6497 37.7770
#
#
#
# Elastic Compliance Matrix: (Units=1/GPa)
#
#
# Indices 1 2 3 4 5 6 
#
# 1 0.017475 0.000041 -0.003557 0.004285 0.000197 0.001257
# 2 0.000041 0.014457 -0.004736 0.005283 0.002827 -0.002518
# 3 -0.003557 -0.004736 0.018535 0.002202 -0.012470 -0.009646
# 4 0.004285 0.005283 0.002202 0.063942 0.001526 0.001289
# 5 0.000197 0.002827 -0.012470 0.001526 0.038250 0.018430
# 6 0.001257 -0.002518 -0.009646 0.001289 0.018430 0.038230
#
#
# Mechanical properties :
#
#
# Convention : Reuss Voigt Hill
#
# Bulk Modulus (GPa) = 29.44297 38.05369 33.74833
# Shear Modulus (GPa) = 22.86109 30.86474 26.86291
#
# Velocity S-wave (km/s) = 3.29662 3.83047 3.57353
# Velocity P-wave (km/s) = 5.33731 6.13623 5.75066
#
# Compressibility (1/GPa) = 0.03396396
#
# Stress axis : x y z
#
# Youngs Moduli (GPa) = 57.22450 69.17261 53.95101
#
# Poissons Ratio (x) = -0.00284 0.19189
# Poissons Ratio (y) = -0.00235 0.25551
# Poissons Ratio (z) = 0.20353 0.32760
#
# Static dielectric constant tensor:
#      x y z
#    x 1.659390 -0.029470 0.000150 
#    y -0.029470 1.771520 -0.011880 
#    z 0.000150 -0.011880 1.747740 
# 
# From -- ./inp_files/47810.got.cif
#   From: 2010.05.17/outbox.cif.g08.bks.cpg/sg2_24_cif.got.tgz:47810.got - 2010.06.03 11:33:40.
