data_PCOD9041858
_publ_section_title
;
Structure prediction by ZEFSAII (Michael W. Deem and Ramdas Pophale) SiO2 
 PCOD9041858
Probable space group: P -1
;
_chemical_formula_sum "Si O2"
_cell_formula_units_Z 12
_cell_length_a 11.170839
_cell_length_b 8.760961
_cell_length_c 5.148476
_cell_angle_alpha 84.408550
_cell_angle_beta 79.353841
_cell_angle_gamma 80.739252
_cell_volume 487.547928
_symmetry_space_group_name_H-M "P -1"
_symmetry_group_IT_number 2
_symmetry_cell_setting 'triclinic'
loop_
_space_group_symop_operation_xyz
x,y,z
-x,-y,-z
loop_
_atom_site_type_symbol
_atom_site_label
_atom_site_fract_x
_atom_site_fract_y
_atom_site_fract_z
Si Si1 0.922650 0.469644 0.788782
Si Si2 0.072626 0.841176 0.888848
Si Si3 0.482549 0.323452 0.992354
Si Si4 0.636179 0.797052 0.423059
Si Si5 0.163619 0.207744 0.300440
Si Si6 0.691393 0.064787 0.070655
O O1 0.816499 0.617198 0.817513
O O2 0.000000 0.500000 0.500000
O O3 0.904391 0.294110 0.879147
O O4 0.000000 0.500000 0.000000
O O5 0.980040 0.802425 0.703948
O O6 0.210793 0.874214 0.782361
O O7 0.000000 0.000000 0.000000
O O8 0.422015 0.252491 0.279507
O O9 0.500000 0.500000 0.000000
O O10 0.404459 0.311208 0.765622
O O11 0.612302 0.208621 0.934969
O O12 0.782634 0.793824 0.429287
O O13 0.604682 0.967875 0.286289
O O14 0.239314 0.063641 0.137370
#
# Coordination Sequence:
#
# PCOD9041858 Si02
#       6
#     2   2   2   2   2   2
#     4  10  23  44  67  98 146 193 236 286 346 425
#     4   9  22  46  68 111 146 189 236 291 359 434
#     4  12  29  51  74 107 142 190 252 305 363 426
#     4  12  26  49  77 102 147 190 244 303 365 427
#     4  10  24  44  76 108 147 191 242 289 367 428
#     4  11  25  47  77 105 151 194 240 301 359 438
#
# _framework density 24.612964999999999
#
# number of rings (size 3 to 8) (size 9 to 14) (size 15 to 20)
#    0.000    1.333    1.667    1.500   11.667    0.667 
#   12.000    0.000    0.000    0.000    0.000    0.000 
#    0.000    0.000    0.000    0.000    0.000    0.000 
#
# Total GULP energy -66952.519759 kJ/mol
# GULP energy per Si atom -5579.376647 kJ/mol
# Density = 2.455694 g / cm^3
# Si number density = 24.612965 Si / 1000 Ang^3
#
#
#
# Elastic Constant Matrix: (Units=GPa)
#
#
# Indices 1 2 3 4 5 6 
#
# 1 112.2013 71.4971 39.1957 26.6635 27.1644 17.6013
# 2 71.4971 186.7597 46.9832 -23.6481 17.5597 -6.1662
# 3 39.1957 46.9832 108.6380 11.5155 17.0336 13.9950
# 4 26.6635 -23.6481 11.5155 42.2910 7.1960 6.5985
# 5 27.1644 17.5597 17.0336 7.1960 45.9951 1.6431
# 6 17.6013 -6.1662 13.9950 6.5985 1.6431 53.1853
#
#
#
# Elastic Compliance Matrix: (Units=1/GPa)
#
#
# Indices 1 2 3 4 5 6 
#
# 1 0.022219 -0.010431 0.000156 -0.017865 -0.006181 -0.006196
# 2 -0.010431 0.012010 -0.003481 0.013502 0.000606 0.004066
# 3 0.000156 -0.003481 0.011874 -0.004414 -0.002364 -0.002959
# 4 -0.017865 0.013502 -0.004414 0.043120 0.000167 0.003284
# 5 -0.006181 0.000606 -0.002364 0.000167 0.025942 0.001916
# 6 -0.006196 0.004066 -0.002959 0.003284 0.001916 0.021636
#
#
# Mechanical properties :
#
#
# Convention : Reuss Voigt Hill
#
# Bulk Modulus (GPa) = 53.78969 80.32789 67.05879
# Shear Modulus (GPa) = 29.32386 44.95580 37.13983
#
# Velocity S-wave (km/s) = 3.45541 4.27840 3.88874
# Velocity P-wave (km/s) = 6.14992 7.55735 6.88967
#
# Compressibility (1/GPa) = 0.01859092
#
# Stress axis : x y z
#
# Youngs Moduli (GPa) = 45.00720 83.26194 84.21850
#
# Poissons Ratio (x) = 0.86847 -0.01311
# Poissons Ratio (y) = 0.46945 0.29317
# Poissons Ratio (z) = -0.00701 0.28984
#
# Static dielectric constant tensor:
#      x y z
#    x 2.053660 -0.039600 -0.030090 
#    y -0.039600 2.057490 -0.049610 
#    z -0.030090 -0.049610 1.967460 
# 
# From -- ./inp_files/58917.got.cif
#   From: 2010.05.17/outbox.cif.g08.bks.cpg/sg2_30_cif.got.tgz:58917.got - 2010.06.03 11:33:40.
