data_PCOD9041556
_publ_section_title
;
Structure prediction by ZEFSAII (Michael W. Deem and Ramdas Pophale) SiO2 
 PCOD9041556
Probable space group: P -1
;
_chemical_formula_sum "Si O2"
_cell_formula_units_Z 10
_cell_length_a 5.137390
_cell_length_b 13.704772
_cell_length_c 6.907552
_cell_angle_alpha 68.644825
_cell_angle_beta 81.565777
_cell_angle_gamma 62.013061
_cell_volume 399.803443
_symmetry_space_group_name_H-M "P -1"
_symmetry_group_IT_number 2
_symmetry_cell_setting 'triclinic'
loop_
_space_group_symop_operation_xyz
x,y,z
-x,-y,-z
loop_
_atom_site_type_symbol
_atom_site_label
_atom_site_fract_x
_atom_site_fract_y
_atom_site_fract_z
Si Si1 0.416602 0.222721 0.193710
Si Si2 0.628410 0.642484 0.292342
Si Si3 0.849005 0.128388 0.523417
Si Si4 0.573516 0.964125 0.237918
Si Si5 0.101461 0.627298 0.565397
O O1 0.701119 0.211282 0.292962
O O2 0.121975 0.303074 0.288036
O O3 0.422703 0.274435 0.945807
O O4 0.441908 0.091248 0.267880
O O5 0.344187 0.670045 0.441283
O O6 0.720305 0.510114 0.302202
O O7 0.900258 0.634596 0.396983
O O8 0.093088 0.109218 0.673190
O O9 0.000000 0.000000 0.500000
O O10 0.569328 0.122957 0.653475
O O11 0.500000 0.000000 0.000000
#
# Coordination Sequence:
#
# PCOD9041556 Si02
#       5
#     2   2   2   2   2
#     4  11  24  45  74 101 140 190 229 280 357 409
#     4  10  24  45  70 106 137 180 229 291 346 410
#     4  10  23  44  64  96 139 175 227 287 334 401
#     4  11  25  45  67  99 142 180 229 285 340 405
#     4  10  24  45  70 103 143 173 235 289 341 418
#
# _framework density 25.012293
#
# number of rings (size 3 to 8) (size 9 to 14) (size 15 to 20)
#    0.000    1.600    0.000    3.600    2.800   11.200 
#    0.000    6.000    0.000    0.000    0.000    0.000 
#    0.000    0.000    0.000    0.000    0.000    0.000 
#
# Total GULP energy -55947.535469 kJ/mol
# GULP energy per Si atom -5594.753547 kJ/mol
# Density = 2.495536 g / cm^3
# Si number density = 25.012293 Si / 1000 Ang^3
#
#
#
# Elastic Constant Matrix: (Units=GPa)
#
#
# Indices 1 2 3 4 5 6 
#
# 1 203.9375 12.0563 52.5156 -14.5152 12.0671 6.3822
# 2 12.0563 115.1591 24.6257 -2.8654 0.4991 -11.4852
# 3 52.5156 24.6257 136.1151 -21.1615 22.2207 3.0108
# 4 -14.5152 -2.8654 -21.1615 50.7045 4.6336 -4.7542
# 5 12.0671 0.4991 22.2207 4.6336 37.4958 -6.2126
# 6 6.3822 -11.4852 3.0108 -4.7542 -6.2126 43.7222
#
#
#
# Elastic Compliance Matrix: (Units=1/GPa)
#
#
# Indices 1 2 3 4 5 6 
#
# 1 0.005517 -0.000251 -0.001781 0.000835 -0.000952 -0.000793
# 2 -0.000251 0.009402 -0.001970 -0.000245 0.001625 0.002846
# 3 -0.001781 -0.001970 0.010032 0.003991 -0.006067 -0.001377
# 4 0.000835 -0.000245 0.003991 0.022200 -0.005172 0.001218
# 5 -0.000952 0.001625 -0.006067 -0.005172 0.032012 0.004970
# 6 -0.000793 0.002846 -0.001377 0.001218 0.004970 0.024669
#
#
# Mechanical properties :
#
#
# Convention : Reuss Voigt Hill
#
# Bulk Modulus (GPa) = 59.00845 70.40078 64.70462
# Shear Modulus (GPa) = 42.55877 50.78545 46.67211
#
# Velocity S-wave (km/s) = 4.12942 4.51091 4.32437
# Velocity P-wave (km/s) = 6.81022 7.43899 7.13154
#
# Compressibility (1/GPa) = 0.01694673
#
# Stress axis : x y z
#
# Youngs Moduli (GPa) = 181.24582 106.35988 99.68585
#
# Poissons Ratio (x) = 0.02670 0.17750
# Poissons Ratio (y) = 0.04551 0.19642
# Poissons Ratio (z) = 0.32273 0.20957
#
# Static dielectric constant tensor:
#      x y z
#    x 2.088710 0.087170 -0.050290 
#    y 0.087170 2.462960 0.078890 
#    z -0.050290 0.078890 1.992380 
# 
# From -- ./inp_files/2426.got.cif
#   From: 2010.05.17/outbox.cif.g08.bks.cpg/sg2_2_cif.got.tgz:2426.got - 2010.06.03 11:33:40.
