data_PCOD9041293
_publ_section_title
;
Structure prediction by ZEFSAII (Michael W. Deem and Ramdas Pophale) SiO2 
 PCOD9041293
Probable space group: P -1
;
_chemical_formula_sum "Si O2"
_cell_formula_units_Z 14
_cell_length_a 8.964852
_cell_length_b 16.102755
_cell_length_c 9.687252
_cell_angle_alpha 42.383260
_cell_angle_beta 118.840619
_cell_angle_gamma 84.291378
_cell_volume 524.982965
_symmetry_space_group_name_H-M "P -1"
_symmetry_group_IT_number 2
_symmetry_cell_setting 'triclinic'
loop_
_space_group_symop_operation_xyz
x,y,z
-x,-y,-z
loop_
_atom_site_type_symbol
_atom_site_label
_atom_site_fract_x
_atom_site_fract_y
_atom_site_fract_z
Si Si1 0.220613 0.362629 0.070854
Si Si2 0.342972 0.069322 0.155989
Si Si3 0.202872 0.726014 0.343110
Si Si4 0.066596 0.880183 0.391870
Si Si5 0.521450 0.748666 0.934379
Si Si6 0.484031 0.857328 0.072654
Si Si7 0.744509 0.519243 0.790826
O O1 0.513338 0.140846 0.503045
O O2 0.224844 0.410096 0.858839
O O3 0.183771 0.492052 0.004995
O O4 0.013089 0.369262 0.005153
O O5 0.502833 0.088261 0.281688
O O6 0.374903 0.099554 0.975561
O O7 0.031207 0.237141 0.848434
O O8 0.194097 0.741147 0.487362
O O9 0.509578 0.549278 0.646060
O O10 0.088663 0.916689 0.994228
O O11 0.284468 0.806647 0.687332
O O12 0.830320 0.945602 0.289811
O O13 0.531240 0.730180 0.125687
O O14 0.615755 0.719177 0.431169
#
# Coordination Sequence:
#
# PCOD9041293 Si02
#       7
#     2   2   2   2   2   2   2
#     4  11  20  37  62  82 113 154 192 226 275 344
#     4  10  21  35  62  86 115 140 190 240 285 316
#     4  10  18  33  59  83 111 149 192 229 269 337
#     4  10  17  33  57  84 110 147 195 228 266 336
#     4  10  20  35  58  87 112 147 184 244 273 335
#     4   9  22  34  58  87 114 144 187 240 283 323
#     4  10  22  38  58  84 114 154 191 223 278 345
#
# _framework density 26.667532999999999
#
# number of rings (size 3 to 8) (size 9 to 14) (size 15 to 20)
#    0.857    1.143    2.857    2.571    0.000    2.857 
#    0.000    0.714    3.143    2.571    0.000    0.000 
#    0.000    0.000    0.000    0.000    0.000    0.000 
#
# Total GULP energy -78212.507039 kJ/mol
# GULP energy per Si atom -5586.607646 kJ/mol
# Density = 2.660684 g / cm^3
# Si number density = 26.667533 Si / 1000 Ang^3
#
#
#
# Elastic Constant Matrix: (Units=GPa)
#
#
# Indices 1 2 3 4 5 6 
#
# 1 94.6166 10.3980 54.7438 -9.8092 28.3894 -19.2423
# 2 10.3980 89.9177 33.8612 16.0730 -0.3002 -19.7043
# 3 54.7438 33.8612 102.9172 4.5529 43.2231 3.1251
# 4 -9.8092 16.0730 4.5529 27.0806 2.4558 0.1866
# 5 28.3894 -0.3002 43.2231 2.4558 66.3306 -8.2784
# 6 -19.2423 -19.7043 3.1251 0.1866 -8.2784 41.1922
#
#
#
# Elastic Compliance Matrix: (Units=1/GPa)
#
#
# Indices 1 2 3 4 5 6 
#
# 1 0.021324 0.004595 -0.014258 0.007155 0.001609 0.013532
# 2 0.004595 0.020231 -0.012746 -0.009079 0.008583 0.014557
# 3 -0.014258 -0.012746 0.028162 -0.000897 -0.014495 -0.017803
# 4 0.007155 -0.009079 -0.000897 0.045476 -0.004456 -0.002034
# 5 0.001609 0.008583 -0.014495 -0.004456 0.025421 0.011086
# 6 0.013532 0.014557 -0.017803 -0.002034 0.011086 0.041149
#
#
# Mechanical properties :
#
#
# Convention : Reuss Voigt Hill
#
# Bulk Modulus (GPa) = 40.15951 53.93973 47.04962
# Shear Modulus (GPa) = 21.28737 39.48390 30.38563
#
# Velocity S-wave (km/s) = 2.82840 3.85203 3.37920
# Velocity P-wave (km/s) = 5.07528 6.32889 5.73643
#
# Compressibility (1/GPa) = 0.02490070
#
# Stress axis : x y z
#
# Youngs Moduli (GPa) = 46.89456 49.42829 35.50860
#
# Poissons Ratio (x) = -0.22712 0.50628
# Poissons Ratio (y) = -0.21548 0.45259
# Poissons Ratio (z) = 0.66861 0.63000
#
# Static dielectric constant tensor:
#      x y z
#    x 2.142170 -0.042670 0.032750 
#    y -0.042670 2.167360 -0.001590 
#    z 0.032750 -0.001590 2.086350 
# 
# From -- ./inp_files/401127.got.cif
#   From: 2010.05.17/outbox.cif.g08.bks.cpg/sg2_201_cif.got.tgz:401127.got - 2010.06.03 11:33:40.
