data_PCOD9041864
_publ_section_title
;
Structure prediction by ZEFSAII (Michael W. Deem and Ramdas Pophale) SiO2 
 PCOD9041864
Probable space group: P -1
;
_chemical_formula_sum "Si O2"
_cell_formula_units_Z 16
_cell_length_a 11.756224
_cell_length_b 17.450837
_cell_length_c 9.639704
_cell_angle_alpha 37.892912
_cell_angle_beta 120.006423
_cell_angle_gamma 144.904369
_cell_volume 636.234539
_symmetry_space_group_name_H-M "P -1"
_symmetry_group_IT_number 2
_symmetry_cell_setting 'triclinic'
loop_
_space_group_symop_operation_xyz
x,y,z
-x,-y,-z
loop_
_atom_site_type_symbol
_atom_site_label
_atom_site_fract_x
_atom_site_fract_y
_atom_site_fract_z
Si Si1 0.474810 0.793402 0.371466
Si Si2 0.783706 0.483384 0.639588
Si Si3 0.360385 0.770052 0.846572
Si Si4 0.267175 0.790056 0.466659
Si Si5 0.725359 0.715291 0.270633
Si Si6 0.281646 0.416384 0.965853
Si Si7 0.885258 0.171313 0.258238
Si Si8 0.100535 0.054497 0.211600
O O1 0.411562 0.721013 0.278178
O O2 0.345456 0.811150 0.332760
O O3 0.366711 0.593162 0.670059
O O4 0.716966 0.002869 0.273916
O O5 0.830797 0.661541 0.375708
O O6 0.010566 0.589623 0.597359
O O7 0.726301 0.416124 0.860720
O O8 0.347639 0.764218 0.681344
O O9 0.209902 0.772474 0.811825
O O10 0.605368 0.988080 0.731096
O O11 0.500000 0.500000 0.500000
O O12 0.723708 0.796692 0.016635
O O13 0.871045 0.884691 0.236172
O O14 0.500000 0.500000 0.000000
O O15 0.127353 0.195792 0.119019
O O16 0.129090 0.354886 0.083138
O O17 0.875855 0.053967 0.533617
#
# Coordination Sequence:
#
# PCOD9041864 Si02
#       8
#     2   2   2   2   2   2   2   2
#     4  11  25  42  68 102 140 181 228 289 347 413
#     4  12  24  43  68 101 137 179 230 280 349 407
#     4  10  24  45  71 100 134 181 230 283 345 411
#     4  10  23  44  67  99 137 179 228 284 343 412
#     4  11  28  44  70 101 140 185 228 283 346 414
#     4  12  25  43  71 102 135 185 230 288 347 411
#     4  11  25  43  73  99 140 179 237 282 348 411
#     4  11  25  46  67  99 140 180 232 282 342 410
#
# _framework density 25.147960999999999
#
# number of rings (size 3 to 8) (size 9 to 14) (size 15 to 20)
#    0.000    1.000    2.500    2.625    3.500    9.000 
#    0.000    0.000    0.000    0.000    0.000    0.000 
#    0.000    0.000    0.000    0.000    0.000    0.000 
#
# Total GULP energy -89551.320453 kJ/mol
# GULP energy per Si atom -5596.957528 kJ/mol
# Density = 2.509072 g / cm^3
# Si number density = 25.147961 Si / 1000 Ang^3
#
#
#
# Elastic Constant Matrix: (Units=GPa)
#
#
# Indices 1 2 3 4 5 6 
#
# 1 59.4449 28.2608 11.0609 -13.3975 -14.9532 1.5860
# 2 28.2608 76.6428 8.4027 -7.6192 -11.1290 -17.2924
# 3 11.0609 8.4027 104.8085 -2.1527 -6.3468 5.2351
# 4 -13.3975 -7.6192 -2.1527 33.4622 -2.1129 2.0288
# 5 -14.9532 -11.1290 -6.3468 -2.1129 41.2466 -19.7330
# 6 1.5860 -17.2924 5.2351 2.0288 -19.7330 32.7384
#
#
#
# Elastic Compliance Matrix: (Units=1/GPa)
#
#
# Indices 1 2 3 4 5 6 
#
# 1 0.024049 -0.007368 -0.001320 0.008355 0.006168 -0.001646
# 2 -0.007368 0.022473 -0.001212 0.001686 0.012906 0.020096
# 3 -0.001320 -0.001212 0.009870 -0.000051 -0.000447 -0.002421
# 4 0.008355 0.001686 -0.000051 0.033874 0.006244 0.002158
# 5 0.006168 0.012906 -0.000447 0.006244 0.046627 0.034307
# 6 -0.001646 0.020096 -0.002421 0.002158 0.034307 0.062171
#
#
# Mechanical properties :
#
#
# Convention : Reuss Voigt Hill
#
# Bulk Modulus (GPa) = 27.32748 37.37166 32.34957
# Shear Modulus (GPa) = 21.63919 34.36758 28.00339
#
# Velocity S-wave (km/s) = 2.93657 3.70079 3.34060
# Velocity P-wave (km/s) = 4.73161 5.75796 5.26983
#
# Compressibility (1/GPa) = 0.03659320
#
# Stress axis : x y z
#
# Youngs Moduli (GPa) = 41.58097 44.49787 101.31266
#
# Poissons Ratio (x) = 0.32787 0.13373
# Poissons Ratio (y) = 0.30638 0.12276
# Poissons Ratio (z) = 0.05489 0.05392
#
# Static dielectric constant tensor:
#      x y z
#    x 2.101950 0.043020 0.092390 
#    y 0.043020 1.997580 -0.014280 
#    z 0.092390 -0.014280 2.048640 
# 
# From -- ./inp_files/457433.got.cif
#   From: 2010.05.17/outbox.cif.g08.bks.cpg/sg2_229_cif.got.tgz:457433.got - 2010.06.03 11:33:40.
