data_PCOD9041629
_publ_section_title
;
Structure prediction by ZEFSAII (Michael W. Deem and Ramdas Pophale) SiO2 
 PCOD9041629
Probable space group: P -1
;
_chemical_formula_sum "Si O2"
_cell_formula_units_Z 15
_cell_length_a 8.693653
_cell_length_b 13.697867
_cell_length_c 11.322397
_cell_angle_alpha 148.328778
_cell_angle_beta 88.757187
_cell_angle_gamma 104.089749
_cell_volume 639.458436
_symmetry_space_group_name_H-M "P -1"
_symmetry_group_IT_number 2
_symmetry_cell_setting 'triclinic'
loop_
_space_group_symop_operation_xyz
x,y,z
-x,-y,-z
loop_
_atom_site_type_symbol
_atom_site_label
_atom_site_fract_x
_atom_site_fract_y
_atom_site_fract_z
Si Si1 0.661386 0.009055 0.761801
Si Si2 0.843717 0.776124 0.775065
Si Si3 0.031125 0.387812 0.771638
Si Si4 0.057111 0.334716 0.096208
Si Si5 0.421415 0.159866 0.020892
Si Si6 0.500000 0.000000 0.500000
Si Si7 0.679624 0.584479 0.350798
Si Si8 0.788806 0.933337 0.293506
O O1 0.637906 0.776269 0.525409
O O2 0.860461 0.164206 0.926499
O O3 0.583538 0.040165 0.672380
O O4 0.555321 0.062574 0.919706
O O5 0.671976 0.807316 0.830187
O O6 0.816557 0.656773 0.530352
O O7 0.868435 0.657362 0.766080
O O8 0.000000 0.000000 0.000000
O O9 0.226609 0.459948 0.807461
O O10 0.948792 0.144586 0.540396
O O11 0.940483 0.457472 0.740463
O O12 0.000000 0.500000 0.000000
O O13 0.156788 0.250544 0.917095
O O14 0.522137 0.383199 0.189205
O O15 0.270749 0.033281 0.802016
O O16 0.640055 0.911203 0.362183
#
# Coordination Sequence:
#
# PCOD9041629 Si02
#       8
#     2   2   2   2   2   1   2   2
#     4  11  22  44  67 100 141 180 230 287 351 408
#     4  11  23  46  73 104 140 186 233 291 351 423
#     4  12  26  42  71 107 135 187 243 282 348 425
#     4  11  23  45  73 100 140 187 230 295 353 411
#     4  10  24  44  68 104 141 176 233 288 351 417
#     4  10  24  38  66  94 138 184 224 284 342 404
#     4  12  24  44  71 105 142 182 237 286 352 420
#     4  10  23  44  65  99 140 179 237 285 344 415
#
# _framework density 23.457348
#
# number of rings (size 3 to 8) (size 9 to 14) (size 15 to 20)
#    0.000    1.067    4.000    2.000    3.733    6.400 
#    0.000    3.333    0.000    0.000    0.000    0.000 
#    0.000    0.000    0.000    0.000    0.000    0.000 
#
# Total GULP energy -83676.946616 kJ/mol
# GULP energy per Si atom -5578.463108 kJ/mol
# Density = 2.340396 g / cm^3
# Si number density = 23.457348 Si / 1000 Ang^3
#
#
#
# Elastic Constant Matrix: (Units=GPa)
#
#
# Indices 1 2 3 4 5 6 
#
# 1 122.4020 36.7319 17.7536 0.0803 -30.5386 17.0316
# 2 36.7319 54.2745 33.8264 -10.5918 -5.2213 2.4561
# 3 17.7536 33.8264 71.3164 9.7427 -11.5684 10.5049
# 4 0.0803 -10.5918 9.7427 35.3704 3.3071 -7.9156
# 5 -30.5386 -5.2213 -11.5684 3.3071 48.9191 -13.1661
# 6 17.0316 2.4561 10.5049 -7.9156 -13.1661 49.2240
#
#
#
# Elastic Compliance Matrix: (Units=1/GPa)
#
#
# Indices 1 2 3 4 5 6 
#
# 1 0.014078 -0.013808 0.006057 -0.007604 0.008037 -0.004548
# 2 -0.013808 0.046422 -0.024546 0.023553 -0.008588 0.009190
# 3 0.006057 -0.024546 0.028909 -0.017779 0.007042 -0.008016
# 4 -0.007604 0.023553 -0.017779 0.043189 -0.006546 0.010444
# 5 0.008037 -0.008588 0.007042 -0.006546 0.027294 0.002393
# 6 -0.004548 0.009190 -0.008016 0.010444 0.002393 0.025460
#
#
# Mechanical properties :
#
#
# Convention : Reuss Voigt Hill
#
# Bulk Modulus (GPa) = 40.29733 47.17962 43.73847
# Shear Modulus (GPa) = 19.36354 37.34813 28.35584
#
# Velocity S-wave (km/s) = 2.87623 3.99453 3.48059
# Velocity P-wave (km/s) = 5.31475 6.43674 5.90247
#
# Compressibility (1/GPa) = 0.02481554
#
# Stress axis : x y z
#
# Youngs Moduli (GPa) = 71.03377 21.54147 34.59186
#
# Poissons Ratio (x) = 0.29744 -0.20952
# Poissons Ratio (y) = 0.98081 0.84909
# Poissons Ratio (z) = -0.43025 0.52875
#
# Static dielectric constant tensor:
#      x y z
#    x 1.912870 0.009510 -0.016100 
#    y 0.009510 1.892860 -0.015640 
#    z -0.016100 -0.015640 1.867500 
# 
# From -- ./inp_files/199254.got.cif
#   From: 2010.05.17/outbox.cif.g08.bks.cpg/sg2_100_cif.got.tgz:199254.got - 2010.06.03 11:33:40.
