data_PCOD9041672
_publ_section_title
;
Structure prediction by ZEFSAII (Michael W. Deem and Ramdas Pophale) SiO2 
 PCOD9041672
Probable space group: P -1
;
_chemical_formula_sum "Si O2"
_cell_formula_units_Z 14
_cell_length_a 9.841677
_cell_length_b 7.935304
_cell_length_c 9.640788
_cell_angle_alpha 75.311268
_cell_angle_beta 118.014523
_cell_angle_gamma 111.497541
_cell_volume 615.405798
_symmetry_space_group_name_H-M "P -1"
_symmetry_group_IT_number 2
_symmetry_cell_setting 'triclinic'
loop_
_space_group_symop_operation_xyz
x,y,z
-x,-y,-z
loop_
_atom_site_type_symbol
_atom_site_label
_atom_site_fract_x
_atom_site_fract_y
_atom_site_fract_z
Si Si1 0.005616 0.119276 0.343121
Si Si2 0.877629 0.476047 0.574090
Si Si3 0.434094 0.937639 0.206154
Si Si4 0.068836 0.410365 0.920993
Si Si5 0.790181 0.879453 0.810926
Si Si6 0.482491 0.680579 0.527804
Si Si7 0.312115 0.777055 0.893994
O O1 0.103447 0.325471 0.390642
O O2 0.093045 0.047446 0.276887
O O3 0.831857 0.129212 0.208284
O O4 0.000000 0.000000 0.500000
O O5 0.693327 0.375527 0.474608
O O6 0.000000 0.500000 0.500000
O O7 0.936389 0.369602 0.746919
O O8 0.487307 0.833709 0.380787
O O9 0.269194 0.979913 0.156530
O O10 0.563595 0.126600 0.185121
O O11 0.402536 0.819155 0.075773
O O12 0.220216 0.563731 0.895119
O O13 0.125427 0.242913 0.034651
O O14 0.000000 0.500000 0.000000
O O15 0.626536 0.754448 0.687901
O O16 0.500000 0.500000 0.500000
#
# Coordination Sequence:
#
# PCOD9041672 Si02
#       7
#     2   2   2   2   2   2   2
#     4  11  24  43  66  97 136 179 221 279 338 402
#     4  11  26  43  70 101 132 179 226 277 336 404
#     4  11  26  42  66 102 131 177 224 287 337 399
#     4  11  21  48  69  95 135 182 224 276 339 409
#     4  12  25  42  72 100 131 180 229 279 340 395
#     4  12  24  46  68  95 136 176 222 275 340 409
#     4  10  23  44  66  91 140 174 225 275 343 405
#
# _framework density 22.749217000000002
#
# number of rings (size 3 to 8) (size 9 to 14) (size 15 to 20)
#    0.000    0.857    4.286    3.000    6.000    2.286 
#    2.571    0.000    0.000    0.000    0.000    0.000 
#    0.000    0.000    0.000    0.000    0.000    0.000 
#
# Total GULP energy -78413.604837 kJ/mol
# GULP energy per Si atom -5600.971774 kJ/mol
# Density = 2.269744 g / cm^3
# Si number density = 22.749217 Si / 1000 Ang^3
#
#
#
# Elastic Constant Matrix: (Units=GPa)
#
#
# Indices 1 2 3 4 5 6 
#
# 1 122.4710 16.2450 33.0339 -19.2201 -21.6295 12.0344
# 2 16.2450 62.0153 20.4352 -23.3974 -9.0685 5.7040
# 3 33.0339 20.4352 98.7403 -14.1621 9.7337 0.1748
# 4 -19.2201 -23.3974 -14.1621 38.6887 5.5302 1.1973
# 5 -21.6295 -9.0685 9.7337 5.5302 38.5353 -0.3173
# 6 12.0344 5.7040 0.1748 1.1973 -0.3173 41.7139
#
#
#
# Elastic Compliance Matrix: (Units=1/GPa)
#
#
# Indices 1 2 3 4 5 6 
#
# 1 0.011350 0.001264 -0.004188 0.003959 0.007129 -0.003489
# 2 0.001264 0.022873 -0.003890 0.012402 0.005264 -0.003792
# 3 -0.004188 -0.003890 0.013187 0.001313 -0.006772 0.001596
# 4 0.003959 0.012402 0.001313 0.035970 -0.000385 -0.003879
# 5 0.007129 0.005264 -0.006772 -0.000385 0.032936 -0.002487
# 6 -0.003489 -0.003792 0.001596 -0.003879 -0.002487 0.025584
#
#
# Mechanical properties :
#
#
# Convention : Reuss Voigt Hill
#
# Bulk Modulus (GPa) = 29.60113 46.96161 38.28137
# Shear Modulus (GPa) = 29.97818 38.02176 33.99997
#
# Velocity S-wave (km/s) = 3.63405 4.09264 3.87014
# Velocity P-wave (km/s) = 5.53611 6.55904 6.06916
#
# Compressibility (1/GPa) = 0.03378249
#
# Stress axis : x y z
#
# Youngs Moduli (GPa) = 88.10334 43.71908 75.83428
#
# Poissons Ratio (x) = -0.05525 0.31756
# Poissons Ratio (y) = -0.11134 0.29500
# Poissons Ratio (z) = 0.36894 0.17007
#
# Static dielectric constant tensor:
#      x y z
#    x 1.858710 0.012990 -0.006340 
#    y 0.012990 1.881550 0.033260 
#    z -0.006340 0.033260 1.809660 
# 
# From -- ./inp_files/157128.got.cif
#   From: 2010.05.17/outbox.cif.g08.bks.cpg/sg2_79_cif.got.tgz:157128.got - 2010.06.03 11:33:40.
