data_PCOD9041848
_publ_section_title
;
Structure prediction by ZEFSAII (Michael W. Deem and Ramdas Pophale) SiO2 
 PCOD9041848
Probable space group: P -1
;
_chemical_formula_sum "Si O2"
_cell_formula_units_Z 14
_cell_length_a 16.994668
_cell_length_b 14.937504
_cell_length_c 11.015182
_cell_angle_alpha 135.037148
_cell_angle_beta 150.015987
_cell_angle_gamma 25.925450
_cell_volume 577.402080
_symmetry_space_group_name_H-M "P -1"
_symmetry_group_IT_number 2
_symmetry_cell_setting 'triclinic'
loop_
_space_group_symop_operation_xyz
x,y,z
-x,-y,-z
loop_
_atom_site_type_symbol
_atom_site_label
_atom_site_fract_x
_atom_site_fract_y
_atom_site_fract_z
Si Si1 0.940809 0.682873 0.837071
Si Si2 0.397337 0.697470 0.992751
Si Si3 0.694737 0.145910 0.730362
Si Si4 0.402370 0.080280 0.631480
Si Si5 0.565288 0.482515 0.755215
Si Si6 0.610257 0.798709 0.010373
Si Si7 0.148544 0.895926 0.471102
O O1 0.715451 0.877864 0.816435
O O2 0.110649 0.452442 0.893149
O O3 0.778304 0.759346 0.569510
O O4 0.152773 0.652867 0.051706
O O5 0.523743 0.599916 0.932963
O O6 0.081412 0.926800 0.763436
O O7 0.500000 0.500000 0.000000
O O8 0.437435 0.766066 0.226248
O O9 0.675431 0.014911 0.534685
O O10 0.555654 0.344005 0.652887
O O11 0.000000 0.000000 0.000000
O O12 0.359992 0.193827 0.799876
O O13 0.326898 0.656658 0.507555
O O14 0.500000 0.000000 0.000000
O O15 0.374873 0.853934 0.722283
O O16 0.000000 0.000000 0.500000
#
# Coordination Sequence:
#
# PCOD9041848 Si02
#       7
#     2   2   2   2   2   2   2
#     4  10  23  44  67  98 133 178 225 274 333 393
#     4   9  20  37  68  92 124 167 220 271 323 389
#     4  11  22  39  63  99 130 166 222 273 324 387
#     4  11  25  44  69  99 138 175 223 279 331 400
#     4   9  19  41  65  95 128 171 221 270 329 393
#     4  11  26  44  68  96 137 180 221 272 340 399
#     4   9  20  40  66  93 125 169 220 268 329 390
#
# _framework density 24.246537
#
# number of rings (size 3 to 8) (size 9 to 14) (size 15 to 20)
#    0.000    2.000    1.429    0.429    2.000   12.000 
#    0.000    2.143    0.000    0.000    0.000    0.000 
#    0.000    0.000    0.000    0.000    0.000    0.000 
#
# Total GULP energy -78225.098260 kJ/mol
# GULP energy per Si atom -5587.507019 kJ/mol
# Density = 2.419135 g / cm^3
# Si number density = 24.246537 Si / 1000 Ang^3
#
#
#
# Elastic Constant Matrix: (Units=GPa)
#
#
# Indices 1 2 3 4 5 6 
#
# 1 70.2361 37.3931 39.9322 -3.5950 8.9490 4.0483
# 2 37.3931 125.2852 41.2388 -28.9727 -2.2875 27.2867
# 3 39.9322 41.2388 77.3434 -24.0840 -0.8767 15.2254
# 4 -3.5950 -28.9727 -24.0840 42.7294 -6.1216 -6.7972
# 5 8.9490 -2.2875 -0.8767 -6.1216 31.0117 -2.1318
# 6 4.0483 27.2867 15.2254 -6.7972 -2.1318 64.8751
#
#
#
# Elastic Compliance Matrix: (Units=1/GPa)
#
#
# Indices 1 2 3 4 5 6 
#
# 1 0.026620 -0.006688 -0.014469 -0.011500 -0.010648 0.002993
# 2 -0.006688 0.012794 -0.000027 0.008065 0.004192 -0.003975
# 3 -0.014469 -0.000027 0.025395 0.013592 0.007342 -0.003380
# 4 -0.011500 0.008065 0.013592 0.036953 0.011481 -0.001616
# 5 -0.010648 0.004192 0.007342 0.011481 0.038077 -0.000368
# 6 0.002993 -0.003975 -0.003380 -0.001616 -0.000368 0.017511
#
#
# Mechanical properties :
#
#
# Convention : Reuss Voigt Hill
#
# Bulk Modulus (GPa) = 44.56066 56.66589 50.61327
# Shear Modulus (GPa) = 24.13141 38.00994 31.07068
#
# Velocity S-wave (km/s) = 3.15818 3.96364 3.58362
# Velocity P-wave (km/s) = 5.63177 6.66099 6.16789
#
# Compressibility (1/GPa) = 0.02244132
#
# Stress axis : x y z
#
# Youngs Moduli (GPa) = 37.56562 78.15944 39.37790
#
# Poissons Ratio (x) = 0.52275 0.56974
# Poissons Ratio (y) = 0.25125 0.00107
# Poissons Ratio (z) = 0.54352 0.00213
#
# Static dielectric constant tensor:
#      x y z
#    x 1.954110 0.007150 -0.007780 
#    y 0.007150 1.991700 0.016700 
#    z -0.007780 0.016700 1.906660 
# 
# From -- ./inp_files/466123.got.cif
#   From: 2010.05.17/outbox.cif.g08.bks.cpg/sg2_234_cif.got.tgz:466123.got - 2010.06.03 11:33:40.
