data_PCOD9041713
_publ_section_title
;
Structure prediction by ZEFSAII (Michael W. Deem and Ramdas Pophale) SiO2 
 PCOD9041713
Probable space group: P -1
;
_chemical_formula_sum "Si O2"
_cell_formula_units_Z 16
_cell_length_a 9.376755
_cell_length_b 15.385661
_cell_length_c 15.692919
_cell_angle_alpha 28.489402
_cell_angle_beta 39.946237
_cell_angle_gamma 51.505733
_cell_volume 683.551160
_symmetry_space_group_name_H-M "P -1"
_symmetry_group_IT_number 2
_symmetry_cell_setting 'triclinic'
loop_
_space_group_symop_operation_xyz
x,y,z
-x,-y,-z
loop_
_atom_site_type_symbol
_atom_site_label
_atom_site_fract_x
_atom_site_fract_y
_atom_site_fract_z
Si Si1 0.827695 0.633061 0.884410
Si Si2 0.872425 0.295084 0.714577
Si Si3 0.181335 0.809352 0.451772
Si Si4 0.355892 0.712815 0.002780
Si Si5 0.683851 0.225894 0.224413
Si Si6 0.800825 0.733761 0.544985
Si Si7 0.133424 0.205896 0.100177
Si Si8 0.507363 0.221705 0.799994
O O1 0.826430 0.634061 0.986266
O O2 0.071253 0.729901 0.657513
O O3 0.626831 0.743633 0.856112
O O4 0.764429 0.439034 0.033392
O O5 0.758438 0.215099 0.923558
O O6 0.678595 0.305014 0.724437
O O7 0.000000 0.500000 0.500000
O O8 0.057563 0.199288 0.662662
O O9 0.389346 0.730024 0.382205
O O10 0.980424 0.762263 0.514656
O O11 0.231904 0.030696 0.242310
O O12 0.282062 0.488353 0.231454
O O13 0.290961 0.782047 0.881563
O O14 0.423942 0.180404 0.410325
O O15 0.871763 0.135493 0.263742
O O16 0.264237 0.261214 0.904598
O O17 0.500000 0.000000 0.000000
#
# Coordination Sequence:
#
# PCOD9041713 Si02
#       8
#     2   2   2   2   2   2   2   2
#     4  11  19  37  55  81 105 146 188 221 260 330
#     4   9  17  30  58  83  99 139 203 228 246 319
#     4  10  19  36  60  76 105 145 193 215 258 333
#     4  10  17  33  58  78 106 142 188 221 264 325
#     4  11  21  35  54  83 117 138 171 234 289 310
#     4   9  17  33  55  81 104 143 184 223 261 323
#     4  11  23  35  54  83 113 145 174 225 284 328
#     4   9  19  36  55  79 111 146 183 221 279 329
#
# _framework density 23.407174000000001
#
# number of rings (size 3 to 8) (size 9 to 14) (size 15 to 20)
#    0.000    2.000    3.750    1.500    0.000    0.500 
#    0.000    1.875    0.000    6.750    0.000    0.000 
#    0.000    0.000    0.000    0.000    0.000    0.000 
#
# Total GULP energy -89342.451942 kJ/mol
# GULP energy per Si atom -5583.903246 kJ/mol
# Density = 2.335390 g / cm^3
# Si number density = 23.407174 Si / 1000 Ang^3
#
#
#
# Elastic Constant Matrix: (Units=GPa)
#
#
# Indices 1 2 3 4 5 6 
#
# 1 51.6516 18.6184 -2.3152 3.4320 -5.1773 16.7616
# 2 18.6184 82.6897 39.2513 39.8143 14.7491 12.2253
# 3 -2.3152 39.2513 81.5708 27.5317 2.7490 4.0523
# 4 3.4320 39.8143 27.5317 46.8022 9.6175 0.5548
# 5 -5.1773 14.7491 2.7490 9.6175 32.6831 2.9836
# 6 16.7616 12.2253 4.0523 0.5548 2.9836 17.5869
#
#
#
# Elastic Compliance Matrix: (Units=1/GPa)
#
#
# Indices 1 2 3 4 5 6 
#
# 1 0.033116 -0.006904 0.006075 -0.002075 0.011200 -0.029998
# 2 -0.006904 0.028288 -0.007073 -0.017816 -0.007138 -0.009681
# 3 0.006075 -0.007073 0.017952 -0.005930 0.004906 -0.005655
# 4 -0.002075 -0.017816 -0.005930 0.041064 -0.005273 0.015327
# 5 0.011200 -0.007138 0.004906 -0.005273 0.037928 -0.013111
# 6 -0.029998 -0.009681 -0.005655 0.015327 -0.013111 0.095224
#
#
# Mechanical properties :
#
#
# Convention : Reuss Voigt Hill
#
# Bulk Modulus (GPa) = 15.73497 36.33569 26.03533
# Shear Modulus (GPa) = 17.20804 30.10495 23.65649
#
# Velocity S-wave (km/s) = 2.71433 3.59017 3.18252
# Velocity P-wave (km/s) = 4.06944 5.72213 4.96503
#
# Compressibility (1/GPa) = 0.06355273
#
# Stress axis : x y z
#
# Youngs Moduli (GPa) = 30.19653 35.35063 55.70283
#
# Poissons Ratio (x) = 0.24406 -0.33840
# Poissons Ratio (y) = 0.20847 0.39400
# Poissons Ratio (z) = -0.18345 0.25005
#
# Static dielectric constant tensor:
#      x y z
#    x 1.836530 -0.005780 -0.014320 
#    y -0.005780 1.935680 0.006980 
#    z -0.014320 0.006980 1.907550 
# 
# From -- ./inp_files/185077.got.cif
#   From: 2010.05.17/outbox.cif.g08.bks.cpg/sg2_93_cif.got.tgz:185077.got - 2010.06.03 11:33:40.
