data_PCOD9041528
_publ_section_title
;
Structure prediction by ZEFSAII (Michael W. Deem and Ramdas Pophale) SiO2 
 PCOD9041528
Probable space group: P -1
;
_chemical_formula_sum "Si O2"
_cell_formula_units_Z 16
_cell_length_a 11.196777
_cell_length_b 16.171010
_cell_length_c 9.260949
_cell_angle_alpha 123.886418
_cell_angle_beta 96.846318
_cell_angle_gamma 129.664469
_cell_volume 716.667688
_symmetry_space_group_name_H-M "P -1"
_symmetry_group_IT_number 2
_symmetry_cell_setting 'triclinic'
loop_
_space_group_symop_operation_xyz
x,y,z
-x,-y,-z
loop_
_atom_site_type_symbol
_atom_site_label
_atom_site_fract_x
_atom_site_fract_y
_atom_site_fract_z
Si Si1 0.055103 0.030677 0.762588
Si Si2 0.656110 0.896786 0.631773
Si Si3 0.256213 0.971060 0.765732
Si Si4 0.078769 0.429534 0.591629
Si Si5 0.348825 0.732853 0.698986
Si Si6 0.248949 0.871361 0.350159
Si Si7 0.754823 0.689892 0.159580
Si Si8 0.797068 0.486710 0.985558
O O1 0.849695 0.947671 0.728345
O O2 0.914383 0.864229 0.463150
O O3 0.218781 0.061295 0.881340
O O4 0.217741 0.227506 0.901103
O O5 0.529047 0.834233 0.699505
O O6 0.774360 0.073051 0.737478
O O7 0.439518 0.713515 0.318213
O O8 0.257478 0.941099 0.568820
O O9 0.038948 0.761256 0.601820
O O10 0.496311 0.103436 0.997714
O O11 0.861714 0.351706 0.476027
O O12 0.232548 0.559350 0.600442
O O13 0.210795 0.537411 0.867586
O O14 0.500000 0.000000 0.500000
O O15 0.055778 0.646473 0.117805
O O16 0.820928 0.622156 0.089466
O O17 0.500000 0.500000 0.000000
#
# Coordination Sequence:
#
# PCOD9041528 Si02
#       8
#     2   2   2   2   2   2   2   2
#     4  11  22  38  65  97 127 162 214 260 321 385
#     4  12  24  40  62 101 131 162 210 268 321 372
#     4  11  23  43  67  89 125 174 209 258 319 380
#     4  10  23  44  64  90 119 173 221 254 313 383
#     4  11  26  42  63  89 132 174 212 255 313 386
#     4  11  23  40  66  98 125 161 218 270 317 367
#     4  11  20  36  65  97 124 165 203 266 325 374
#     4  11  22  39  68  95 126 161 210 269 319 370
#
# _framework density 22.325551000000001
#
# number of rings (size 3 to 8) (size 9 to 14) (size 15 to 20)
#    0.000    1.000    5.000    3.375    1.750    5.500 
#    0.000    0.625    0.000    0.000    0.000    0.000 
#    0.000    0.000    0.000    0.000    0.000    0.000 
#
# Total GULP energy -89351.563496 kJ/mol
# GULP energy per Si atom -5584.472718 kJ/mol
# Density = 2.227474 g / cm^3
# Si number density = 22.325551 Si / 1000 Ang^3
#
#
#
# Elastic Constant Matrix: (Units=GPa)
#
#
# Indices 1 2 3 4 5 6 
#
# 1 78.5350 47.8599 3.8192 -1.9623 13.2596 4.7424
# 2 47.8599 162.0065 24.5023 5.3173 -0.3266 4.6058
# 3 3.8192 24.5023 63.2897 6.3402 14.4364 0.5368
# 4 -1.9623 5.3173 6.3402 31.2687 1.8500 8.8861
# 5 13.2596 -0.3266 14.4364 1.8500 21.1192 4.9145
# 6 4.7424 4.6058 0.5368 8.8861 4.9145 30.8944
#
#
#
# Elastic Compliance Matrix: (Units=1/GPa)
#
#
# Indices 1 2 3 4 5 6 
#
# 1 0.019111 -0.006445 0.004621 0.002349 -0.015399 -0.000279
# 2 -0.006445 0.008872 -0.004698 -0.001086 0.007763 -0.001174
# 3 0.004621 -0.004698 0.021838 -0.003236 -0.018427 0.003474
# 4 0.002349 -0.001086 -0.003236 0.035948 0.000011 -0.010484
# 5 -0.015399 0.007763 -0.018427 0.000011 0.072046 -0.009937
# 6 -0.000279 -0.001174 0.003474 -0.010484 -0.009937 0.037122
#
#
# Mechanical properties :
#
#
# Convention : Reuss Voigt Hill
#
# Bulk Modulus (GPa) = 27.18983 50.68824 38.93904
# Shear Modulus (GPa) = 22.70259 31.83313 27.26786
#
# Velocity S-wave (km/s) = 3.19233 3.78015 3.49861
# Velocity P-wave (km/s) = 5.07870 6.46577 5.81375
#
# Compressibility (1/GPa) = 0.03677846
#
# Stress axis : x y z
#
# Youngs Moduli (GPa) = 52.32459 112.71703 45.79153
#
# Poissons Ratio (x) = 0.72647 -0.21162
# Poissons Ratio (y) = 0.33723 0.21512
# Poissons Ratio (z) = -0.24181 0.52952
#
# Static dielectric constant tensor:
#      x y z
#    x 2.073160 0.073410 0.161740 
#    y 0.073410 1.882740 0.063930 
#    z 0.161740 0.063930 1.945930 
# 
# From -- ./inp_files/273855.got.cif
#   From: 2010.05.17/outbox.cif.g08.bks.cpg/sg2_137_cif.got.tgz:273855.got - 2010.06.03 11:33:40.
