data_PCOD9041226
_publ_section_title
;
Structure prediction by ZEFSAII (Michael W. Deem and Ramdas Pophale) SiO2 
 PCOD9041226
Probable space group: P -1
;
_chemical_formula_sum "Si O2"
_cell_formula_units_Z 16
_cell_length_a 25.049802
_cell_length_b 5.558274
_cell_length_c 9.011812
_cell_angle_alpha 100.096516
_cell_angle_beta 35.462965
_cell_angle_gamma 115.396757
_cell_volume 620.317577
_symmetry_space_group_name_H-M "P -1"
_symmetry_group_IT_number 2
_symmetry_cell_setting 'triclinic'
loop_
_space_group_symop_operation_xyz
x,y,z
-x,-y,-z
loop_
_atom_site_type_symbol
_atom_site_label
_atom_site_fract_x
_atom_site_fract_y
_atom_site_fract_z
Si Si1 0.327231 0.194139 0.902803
Si Si2 0.038265 0.507465 0.664576
Si Si3 0.290189 0.706530 0.698691
Si Si4 0.083063 0.301049 0.271949
Si Si5 0.545229 0.294409 0.511659
Si Si6 0.703931 0.738015 0.719213
Si Si7 0.085661 0.923183 0.863113
Si Si8 0.379506 0.895893 0.212533
O O1 0.442427 0.324916 0.740406
O O2 0.354064 0.466549 0.777672
O O3 0.301693 0.945092 0.817963
O O4 0.250053 0.124763 0.207905
O O5 0.116108 0.474817 0.371809
O O6 0.084982 0.692530 0.725752
O O7 0.982171 0.621295 0.690931
O O8 0.950682 0.209787 0.906078
O O9 0.400226 0.700425 0.458755
O O10 0.298096 0.821082 0.528092
O O11 0.190182 0.415371 0.946861
O O12 0.000000 0.000000 0.500000
O O13 0.500000 0.000000 0.500000
O O14 0.652710 0.403344 0.823332
O O15 0.797813 0.817836 0.397670
O O16 0.637168 0.879117 0.820581
O O17 0.000000 0.000000 0.000000
O O18 0.500000 0.000000 0.000000
#
# Coordination Sequence:
#
# PCOD9041226 Si02
#       8
#     2   2   2   2   2   2   2   2
#     4  10  23  43  71  98 141 185 250 297 360 434
#     4  10  24  43  68  98 143 178 244 298 364 423
#     4  11  25  42  73 100 142 190 243 293 374 436
#     4  11  24  43  68  99 141 181 240 300 365 432
#     4   9  21  39  69 101 134 178 240 304 357 430
#     4  12  29  47  77 108 150 198 248 300 380 442
#     4  11  25  45  74 101 145 190 246 303 365 438
#     4  12  30  50  75 113 156 192 244 308 378 449
#
# _framework density 25.793239
#
# number of rings (size 3 to 8) (size 9 to 14) (size 15 to 20)
#    0.000    1.250    0.000    3.375   17.500    4.000 
#    0.000    0.000    0.000    0.000    0.000    0.000 
#    0.000    0.000    0.000    0.000    0.000    0.000 
#
# Total GULP energy -89301.589010 kJ/mol
# GULP energy per Si atom -5581.349313 kJ/mol
# Density = 2.573453 g / cm^3
# Si number density = 25.793239 Si / 1000 Ang^3
#
#
#
# Elastic Constant Matrix: (Units=GPa)
#
#
# Indices 1 2 3 4 5 6 
#
# 1 78.5968 19.0224 34.0535 -1.9778 25.2592 -24.3690
# 2 19.0224 101.2877 37.8748 -4.7345 10.3229 4.6222
# 3 34.0535 37.8748 149.8421 -3.6491 44.6338 -1.2530
# 4 -1.9778 -4.7345 -3.6491 42.8707 3.2812 14.0157
# 5 25.2592 10.3229 44.6338 3.2812 59.1431 4.0987
# 6 -24.3690 4.6222 -1.2530 14.0157 4.0987 41.7871
#
#
#
# Elastic Compliance Matrix: (Units=1/GPa)
#
#
# Indices 1 2 3 4 5 6 
#
# 1 0.021364 -0.003468 -0.001501 -0.003756 -0.008208 0.014863
# 2 -0.003468 0.011635 -0.002611 0.002178 0.001596 -0.004275
# 3 -0.001501 -0.002611 0.009527 0.000927 -0.006144 -0.000009
# 4 -0.003756 0.002178 0.000927 0.027255 -0.000189 -0.011527
# 5 -0.008208 0.001596 -0.006144 -0.000189 0.025307 -0.007566
# 6 0.014863 -0.004275 -0.000009 -0.011527 -0.007566 0.037679
#
#
# Mechanical properties :
#
#
# Convention : Reuss Voigt Hill
#
# Bulk Modulus (GPa) = 36.54129 56.84755 46.69442
# Shear Modulus (GPa) = 31.83711 44.67858 38.25784
#
# Velocity S-wave (km/s) = 3.51710 4.16646 3.85548
# Velocity P-wave (km/s) = 5.53995 6.72558 6.16135
#
# Compressibility (1/GPa) = 0.02736630
#
# Stress axis : x y z
#
# Youngs Moduli (GPa) = 46.80686 85.94957 104.96084
#
# Poissons Ratio (x) = 0.29811 0.15753
# Poissons Ratio (y) = 0.16235 0.27403
# Poissons Ratio (z) = 0.07025 0.22440
#
# Static dielectric constant tensor:
#      x y z
#    x 2.327680 0.029590 0.009970 
#    y 0.029590 2.117610 -0.005960 
#    z 0.009970 -0.005960 2.108800 
# 
# From -- ./inp_files/356018.got.cif
#   From: 2010.05.17/outbox.cif.g08.bks.cpg/sg2_179_cif.got.tgz:356018.got - 2010.06.03 11:33:40.
