data_PCOD9041682
_publ_section_title
;
Structure prediction by ZEFSAII (Michael W. Deem and Ramdas Pophale) SiO2 
 PCOD9041682
Probable space group: P -1
;
_chemical_formula_sum "Si O2"
_cell_formula_units_Z 16
_cell_length_a 18.918543
_cell_length_b 24.132219
_cell_length_c 7.950649
_cell_angle_alpha 38.098046
_cell_angle_beta 33.005498
_cell_angle_gamma 21.942447
_cell_volume 738.110373
_symmetry_space_group_name_H-M "P -1"
_symmetry_group_IT_number 2
_symmetry_cell_setting 'triclinic'
loop_
_space_group_symop_operation_xyz
x,y,z
-x,-y,-z
loop_
_atom_site_type_symbol
_atom_site_label
_atom_site_fract_x
_atom_site_fract_y
_atom_site_fract_z
Si Si1 0.541191 0.694843 0.167448
Si Si2 0.064111 0.646922 0.289475
Si Si3 0.587230 0.855772 0.235085
Si Si4 0.028969 0.579905 0.848443
Si Si5 0.391683 0.151987 0.400639
Si Si6 0.541726 0.689932 0.787468
Si Si7 0.929208 0.055054 0.816493
Si Si8 0.084863 0.843517 0.729942
O O1 0.736589 0.547406 0.235143
O O2 0.319857 0.762159 0.467477
O O3 0.524465 0.810225 0.965339
O O4 0.615524 0.658916 0.909370
O O5 0.996914 0.675387 0.548684
O O6 0.279106 0.470333 0.268261
O O7 0.865012 0.714043 0.425994
O O8 0.103045 0.727442 0.972493
O O9 0.543194 0.876549 0.469268
O O10 0.501602 0.802428 0.487293
O O11 0.839627 0.701833 0.066145
O O12 0.500000 0.000000 0.000000
O O13 0.000000 0.500000 0.000000
O O14 0.500000 0.000000 0.500000
O O15 0.309123 0.777500 0.072796
O O16 0.014082 0.074630 0.451110
O O17 0.950293 0.953087 0.900351
O O18 0.000000 0.000000 0.000000
#
# Coordination Sequence:
#
# PCOD9041682 Si02
#       8
#     2   2   2   2   2   2   2   2
#     4  10  23  45  67  92 136 180 227 273 353 402
#     4  12  25  43  67 102 137 173 232 274 351 405
#     4  11  24  40  64 100 132 173 228 281 339 412
#     4  12  23  41  67  98 135 179 223 279 338 414
#     4  11  24  40  70  98 131 175 225 287 343 403
#     4  10  23  44  66  93 136 181 223 287 340 409
#     4  10  24  46  71  97 134 184 231 277 347 410
#     4  10  26  46  70 100 141 179 225 293 338 413
#
# _framework density 21.676974999999999
#
# number of rings (size 3 to 8) (size 9 to 14) (size 15 to 20)
#    0.000    1.250    2.500    1.500   10.500    5.500 
#    2.250    0.000    0.000    0.000    0.000    0.000 
#    0.000    0.000    0.000    0.000    0.000    0.000 
#
# Total GULP energy -89107.713994 kJ/mol
# GULP energy per Si atom -5569.232125 kJ/mol
# Density = 2.162764 g / cm^3
# Si number density = 21.676975 Si / 1000 Ang^3
#
#
#
# Elastic Constant Matrix: (Units=GPa)
#
#
# Indices 1 2 3 4 5 6 
#
# 1 51.5595 8.0253 26.6965 -8.6840 14.3347 -8.7698
# 2 8.0253 76.0666 21.8788 0.7386 -6.6799 -0.4774
# 3 26.6965 21.8788 119.8092 -18.4598 -9.8581 -6.4244
# 4 -8.6840 0.7386 -18.4598 43.6889 -3.0219 4.4335
# 5 14.3347 -6.6799 -9.8581 -3.0219 33.2839 -2.2415
# 6 -8.7698 -0.4774 -6.4244 4.4335 -2.2415 34.5910
#
#
#
# Elastic Compliance Matrix: (Units=1/GPa)
#
#
# Indices 1 2 3 4 5 6 
#
# 1 0.028083 -0.002305 -0.006518 0.001410 -0.014037 0.004787
# 2 -0.002305 0.014265 -0.002061 -0.001315 0.003099 -0.000401
# 3 -0.006518 -0.002061 0.011297 0.003904 0.006115 0.000313
# 4 0.001410 -0.001315 0.003904 0.025214 0.002439 -0.002009
# 5 -0.014037 0.003099 0.006115 0.002439 0.038732 -0.000183
# 6 0.004787 -0.000401 0.000313 -0.002009 -0.000183 0.030421
#
#
# Mechanical properties :
#
#
# Convention : Reuss Voigt Hill
#
# Bulk Modulus (GPa) = 31.36909 40.07073 35.71991
# Shear Modulus (GPa) = 27.71573 35.03507 31.37540
#
# Velocity S-wave (km/s) = 3.57960 4.02460 3.80861
# Velocity P-wave (km/s) = 5.62026 6.33420 5.98788
#
# Compressibility (1/GPa) = 0.03187851
#
# Stress axis : x y z
#
# Youngs Moduli (GPa) = 35.60870 70.10397 88.52222
#
# Poissons Ratio (x) = 0.16156 0.57697
# Poissons Ratio (y) = 0.08206 0.18240
# Poissons Ratio (z) = 0.23209 0.14445
#
# Static dielectric constant tensor:
#      x y z
#    x 1.507120 0.078290 0.146620 
#    y 0.078290 1.802590 -0.037560 
#    z 0.146620 -0.037560 1.752890 
# 
# From -- ./inp_files/350150.got.cif
#   From: 2010.05.17/outbox.cif.g08.bks.cpg/sg2_176_cif.got.tgz:350150.got - 2010.06.03 11:33:40.
