data_PCOD9041888
_publ_section_title
;
Structure prediction by ZEFSAII (Michael W. Deem and Ramdas Pophale) SiO2 
 PCOD9041888
Probable space group: P -1
;
_chemical_formula_sum "Si O2"
_cell_formula_units_Z 16
_cell_length_a 14.631603
_cell_length_b 8.942981
_cell_length_c 11.150803
_cell_angle_alpha 88.915352
_cell_angle_beta 38.732840
_cell_angle_gamma 112.521571
_cell_volume 704.459051
_symmetry_space_group_name_H-M "P -1"
_symmetry_group_IT_number 2
_symmetry_cell_setting 'triclinic'
loop_
_space_group_symop_operation_xyz
x,y,z
-x,-y,-z
loop_
_atom_site_type_symbol
_atom_site_label
_atom_site_fract_x
_atom_site_fract_y
_atom_site_fract_z
Si Si1 0.167264 0.707061 0.005331
Si Si2 0.867696 0.038790 0.804218
Si Si3 0.025886 0.935959 0.846587
Si Si4 0.235497 0.663042 0.473754
Si Si5 0.516397 0.602021 0.104453
Si Si6 0.688228 0.117060 0.383648
Si Si7 0.282853 0.472201 0.948422
Si Si8 0.990539 0.324213 0.462623
O O1 0.221460 0.887628 0.023672
O O2 0.306612 0.657160 0.879578
O O3 0.967807 0.524680 0.267041
O O4 0.154123 0.735410 0.878859
O O5 0.970044 0.188252 0.587643
O O6 0.002193 0.034075 0.757265
O O7 0.705219 0.826356 0.921027
O O8 0.223509 0.975848 0.649803
O O9 0.853866 0.706299 0.000157
O O10 0.000000 0.000000 0.000000
O O11 0.343159 0.602607 0.296733
O O12 0.339320 0.783572 0.484184
O O13 0.195519 0.780264 0.428686
O O14 0.500000 0.500000 0.000000
O O15 0.533335 0.500446 0.202177
O O16 0.500000 0.000000 0.500000
O O17 0.163382 0.404520 0.196171
O O18 0.000000 0.500000 0.500000
#
# Coordination Sequence:
#
# PCOD9041888 Si02
#       8
#     2   2   2   2   2   2   2   2
#     4  11  22  46  75  99 133 193 238 282 365 422
#     4  11  24  42  78  99 139 188 240 279 364 420
#     4  11  23  43  69 101 138 183 235 292 349 424
#     4  11  24  44  71 100 144 186 235 297 351 421
#     4  11  26  46  64 106 154 180 231 301 350 412
#     4  12  25  46  70 106 142 180 239 300 351 427
#     4  10  23  44  68 100 145 181 240 290 347 424
#     4  11  20  42  72 104 131 184 242 287 343 428
#
# _framework density 22.712461999999999
#
# number of rings (size 3 to 8) (size 9 to 14) (size 15 to 20)
#    0.000    1.000    6.250    1.875    1.750    2.500 
#    4.500    0.625    0.000    0.000    0.000    0.000 
#    0.000    0.000    0.000    0.000    0.000    0.000 
#
# Total GULP energy -89446.633317 kJ/mol
# GULP energy per Si atom -5590.414582 kJ/mol
# Density = 2.266077 g / cm^3
# Si number density = 22.712462 Si / 1000 Ang^3
#
#
#
# Elastic Constant Matrix: (Units=GPa)
#
#
# Indices 1 2 3 4 5 6 
#
# 1 172.1638 60.3669 41.6421 -6.4016 2.2739 -8.5695
# 2 60.3669 129.4380 15.2619 13.6166 5.5339 9.8631
# 3 41.6421 15.2619 61.5694 8.0557 5.6008 -6.3974
# 4 -6.4016 13.6166 8.0557 29.0778 0.7365 5.5692
# 5 2.2739 5.5339 5.6008 0.7365 43.1931 3.2263
# 6 -8.5695 9.8631 -6.3974 5.5692 3.2263 57.0690
#
#
#
# Elastic Compliance Matrix: (Units=1/GPa)
#
#
# Indices 1 2 3 4 5 6 
#
# 1 0.008833 -0.004102 -0.005611 0.005239 0.000635 0.000859
# 2 -0.004102 0.010298 0.000871 -0.005617 -0.000994 -0.001694
# 3 -0.005611 0.000871 0.021339 -0.007933 -0.002621 0.002321
# 4 0.005239 -0.005617 -0.007933 0.040957 0.001012 -0.003186
# 5 0.000635 -0.000994 -0.002621 0.001012 0.023678 -0.001464
# 6 0.000859 -0.001694 0.002321 -0.003186 -0.001464 0.018598
#
#
# Mechanical properties :
#
#
# Convention : Reuss Voigt Hill
#
# Bulk Modulus (GPa) = 43.88735 66.41256 55.14995
# Shear Modulus (GPa) = 33.56085 42.26132 37.91108
#
# Velocity S-wave (km/s) = 3.84818 4.31828 4.08999
# Velocity P-wave (km/s) = 6.25377 7.35985 6.82924
#
# Compressibility (1/GPa) = 0.02278561
#
# Stress axis : x y z
#
# Youngs Moduli (GPa) = 113.21082 97.10203 46.86285
#
# Poissons Ratio (x) = 0.39828 0.26297
# Poissons Ratio (y) = 0.46435 -0.04080
# Poissons Ratio (z) = 0.63528 -0.08455
#
# Static dielectric constant tensor:
#      x y z
#    x 1.898820 -0.005910 -0.015510 
#    y -0.005910 1.878160 -0.016450 
#    z -0.015510 -0.016450 1.849950 
# 
# From -- ./inp_files/447490.got.cif
#   From: 2010.05.17/outbox.cif.g08.bks.cpg/sg2_224_cif.got.tgz:447490.got - 2010.06.03 11:33:40.
