data_PCOD9041634
_publ_section_title
;
Structure prediction by ZEFSAII (Michael W. Deem and Ramdas Pophale) SiO2 
 PCOD9041634
Probable space group: P -1
;
_chemical_formula_sum "Si O2"
_cell_formula_units_Z 16
_cell_length_a 9.280936
_cell_length_b 9.371638
_cell_length_c 9.643095
_cell_angle_alpha 107.351218
_cell_angle_beta 61.258883
_cell_angle_gamma 97.024791
_cell_volume 701.714178
_symmetry_space_group_name_H-M "P -1"
_symmetry_group_IT_number 2
_symmetry_cell_setting 'triclinic'
loop_
_space_group_symop_operation_xyz
x,y,z
-x,-y,-z
loop_
_atom_site_type_symbol
_atom_site_label
_atom_site_fract_x
_atom_site_fract_y
_atom_site_fract_z
Si Si1 0.035116 0.634379 0.918344
Si Si2 0.757973 0.264502 0.939023
Si Si3 0.223945 0.982843 0.511991
Si Si4 0.084978 0.553770 0.320003
Si Si5 0.898829 0.806273 0.620438
Si Si6 0.412015 0.686354 0.225797
Si Si7 0.322481 0.048168 0.042906
Si Si8 0.722384 0.826046 0.191862
O O1 0.993965 0.581849 0.767399
O O2 0.215807 0.676217 0.900506
O O3 0.110341 0.674942 0.215065
O O4 0.000000 0.500000 0.000000
O O5 0.594271 0.307327 0.938782
O O6 0.093857 0.235223 0.940510
O O7 0.782230 0.089232 0.894259
O O8 0.339855 0.848039 0.359758
O O9 0.063216 0.893956 0.608710
O O10 0.176322 0.100460 0.447412
O O11 0.292014 0.080319 0.634262
O O12 0.274535 0.564059 0.290070
O O13 0.957194 0.638981 0.504353
O O14 0.762273 0.810484 0.803352
O O15 0.597086 0.687091 0.196681
O O16 0.321709 0.067691 0.886022
O O17 0.500000 0.000000 0.000000
#
# Coordination Sequence:
#
# PCOD9041634 Si02
#       8
#     2   2   2   2   2   2   2   2
#     4  10  20  36  54  80 109 139 194 235 257 312
#     4   9  17  35  57  78 111 143 172 227 276 316
#     4  10  18  32  53  82 111 137 186 224 269 329
#     4   8  17  34  55  76 101 143 189 224 258 309
#     4  10  17  33  58  75 106 152 178 220 279 320
#     4   9  18  34  53  82 111 140 173 227 273 326
#     4  12  21  36  53  85 120 144 170 221 287 342
#     4  12  23  31  56  88 112 147 179 220 282 326
#
# _framework density 22.801306
#
# number of rings (size 3 to 8) (size 9 to 14) (size 15 to 20)
#    0.750    1.250    2.500    3.375    0.000    2.500 
#    0.000    0.625    0.000    0.750    0.000    0.000 
#    0.000    0.000    0.000    0.000    0.000    0.000 
#
# Total GULP energy -89168.406396 kJ/mol
# GULP energy per Si atom -5573.025400 kJ/mol
# Density = 2.274941 g / cm^3
# Si number density = 22.801306 Si / 1000 Ang^3
#
#
#
# Elastic Constant Matrix: (Units=GPa)
#
#
# Indices 1 2 3 4 5 6 
#
# 1 100.4155 7.6381 44.4659 9.0495 25.6116 15.6344
# 2 7.6381 25.1418 -0.3617 12.5823 7.6825 -1.2367
# 3 44.4659 -0.3617 84.4244 15.7422 21.6140 23.0712
# 4 9.0495 12.5823 15.7422 26.2334 8.9246 8.7714
# 5 25.6116 7.6825 21.6140 8.9246 40.7075 6.4269
# 6 15.6344 -1.2367 23.0712 8.7714 6.4269 28.5257
#
#
#
# Elastic Compliance Matrix: (Units=1/GPa)
#
#
# Indices 1 2 3 4 5 6 
#
# 1 0.014587 -0.005069 -0.006216 0.004008 -0.005290 -0.003228
# 2 -0.005069 0.060825 0.007987 -0.033485 -0.006895 0.010806
# 3 -0.006216 0.007987 0.020638 -0.009357 -0.005096 -0.008914
# 4 0.004008 -0.033485 -0.009357 0.064522 -0.002972 -0.015251
# 5 -0.005290 -0.006895 -0.005096 -0.002972 0.032503 0.000313
# 6 -0.003228 0.010806 -0.008914 -0.015251 0.000313 0.049122
#
#
# Mechanical properties :
#
#
# Convention : Reuss Voigt Hill
#
# Bulk Modulus (GPa) = 11.17891 34.82960 23.00425
# Shear Modulus (GPa) = 17.94603 29.64262 23.79432
#
# Velocity S-wave (km/s) = 2.80851 3.60952 3.23391
# Velocity P-wave (km/s) = 3.92815 5.71664 4.90460
#
# Compressibility (1/GPa) = 0.08945415
#
# Stress axis : x y z
#
# Youngs Moduli (GPa) = 68.55288 16.44050 48.45381
#
# Poissons Ratio (x) = 0.08334 0.30117
# Poissons Ratio (y) = 0.34753 -0.38699
# Poissons Ratio (z) = 0.42610 -0.13131
#
# Static dielectric constant tensor:
#      x y z
#    x 2.120510 0.082860 0.106980 
#    y 0.082860 1.932220 0.019160 
#    z 0.106980 0.019160 1.933720 
# 
# From -- ./inp_files/197823.got.cif
#   From: 2010.05.17/outbox.cif.g08.bks.cpg/sg2_99_cif.got.tgz:197823.got - 2010.06.03 11:33:40.
