data_PCOD9041744
_publ_section_title
;
Structure prediction by ZEFSAII (Michael W. Deem and Ramdas Pophale) SiO2 
 PCOD9041744
Probable space group: P -1
;
_chemical_formula_sum "Si O2"
_cell_formula_units_Z 14
_cell_length_a 7.627501
_cell_length_b 10.005941
_cell_length_c 17.980935
_cell_angle_alpha 39.424858
_cell_angle_beta 135.160278
_cell_angle_gamma 133.686027
_cell_volume 582.360649
_symmetry_space_group_name_H-M "P -1"
_symmetry_group_IT_number 2
_symmetry_cell_setting 'triclinic'
loop_
_space_group_symop_operation_xyz
x,y,z
-x,-y,-z
loop_
_atom_site_type_symbol
_atom_site_label
_atom_site_fract_x
_atom_site_fract_y
_atom_site_fract_z
Si Si1 0.767084 0.853878 0.778660
Si Si2 0.747739 0.159454 0.316003
Si Si3 0.166813 0.900224 0.010936
Si Si4 0.358923 0.881452 0.223914
Si Si5 0.471185 0.639361 0.130094
Si Si6 0.894488 0.870558 0.371270
Si Si7 0.973944 0.513178 0.348610
O O1 0.493010 0.911659 0.666414
O O2 0.679505 0.587055 0.859988
O O3 0.947086 0.973427 0.712971
O O4 0.940077 0.911455 0.881535
O O5 0.920681 0.386502 0.306527
O O6 0.546804 0.129596 0.197529
O O7 0.909169 0.008948 0.394181
O O8 0.134157 0.858074 0.106791
O O9 0.272064 0.706990 0.094204
O O10 0.400105 0.135708 0.974680
O O11 0.584371 0.793118 0.295054
O O12 0.232227 0.720945 0.323335
O O13 0.725856 0.589775 0.261646
O O14 0.987296 0.662417 0.506159
#
# Coordination Sequence:
#
# PCOD9041744 Si02
#       7
#     2   2   2   2   2   2   2
#     4  11  23  45  69  98 132 173 217 275 325 390
#     4   9  24  41  64 101 128 171 219 262 328 392
#     4  11  23  45  63  98 135 171 222 277 316 390
#     4  10  24  41  66  95 134 178 212 268 330 381
#     4  10  24  39  67  96 126 175 224 260 333 384
#     4  10  23  44  67 100 134 168 219 269 330 394
#     4  11  22  45  66  97 134 172 216 273 329 392
#
# _framework density 24.040085999999999
#
# number of rings (size 3 to 8) (size 9 to 14) (size 15 to 20)
#    0.857    0.857    0.000    3.857    2.000    5.714 
#    2.571    6.429    0.000    0.000    0.000    0.000 
#    0.000    0.000    0.000    0.000    0.000    0.000 
#
# Total GULP energy -77970.142934 kJ/mol
# GULP energy per Si atom -5569.295924 kJ/mol
# Density = 2.398537 g / cm^3
# Si number density = 24.040086 Si / 1000 Ang^3
#
#
#
# Elastic Constant Matrix: (Units=GPa)
#
#
# Indices 1 2 3 4 5 6 
#
# 1 54.9028 -2.3748 15.8229 -6.4830 8.3596 3.9373
# 2 -2.3748 125.8696 20.1194 -17.9495 -17.5407 -10.6615
# 3 15.8229 20.1194 67.4556 -8.0329 8.5207 -9.5204
# 4 -6.4830 -17.9495 -8.0329 27.2559 -6.5005 4.7150
# 5 8.3596 -17.5407 8.5207 -6.5005 38.1694 1.5990
# 6 3.9373 -10.6615 -9.5204 4.7150 1.5990 27.9506
#
#
#
# Elastic Compliance Matrix: (Units=1/GPa)
#
#
# Indices 1 2 3 4 5 6 
#
# 1 0.020948 0.001208 -0.005178 0.004657 -0.001877 -0.004932
# 2 0.001208 0.010586 -0.003200 0.007694 0.006579 0.001104
# 3 -0.005178 -0.003200 0.018437 -0.000081 -0.004720 0.006073
# 4 0.004657 0.007694 -0.000081 0.046466 0.010707 -0.006200
# 5 -0.001877 0.006579 -0.004720 0.010707 0.032616 -0.002506
# 6 -0.004932 0.001104 0.006073 -0.006200 -0.002506 0.040151
#
#
# Mechanical properties :
#
#
# Convention : Reuss Voigt Hill
#
# Bulk Modulus (GPa) = 28.06546 35.04034 31.55290
# Shear Modulus (GPa) = 25.58560 32.98589 29.28575
#
# Velocity S-wave (km/s) = 3.26588 3.70823 3.49407
# Velocity P-wave (km/s) = 5.09128 5.73952 5.42509
#
# Compressibility (1/GPa) = 0.03563099
#
# Stress axis : x y z
#
# Youngs Moduli (GPa) = 47.73700 94.45993 54.23801
#
# Poissons Ratio (x) = -0.11409 0.28086
# Poissons Ratio (y) = -0.05766 0.17355
# Poissons Ratio (z) = 0.24720 0.30226
#
# Static dielectric constant tensor:
#      x y z
#    x 2.017750 -0.091190 0.067540 
#    y -0.091190 1.927520 0.040590 
#    z 0.067540 0.040590 1.911880 
# 
# From -- ./inp_files/588914.got.cif
#   From: 2010.05.17/outbox.cif.g08.bks.cpg/sg2_295_cif.got.tgz:588914.got - 2010.06.03 11:33:40.
