data_PCOD9041763
_publ_section_title
;
Structure prediction by ZEFSAII (Michael W. Deem and Ramdas Pophale) SiO2 
 PCOD9041763
Probable space group: P -1
;
_chemical_formula_sum "Si O2"
_cell_formula_units_Z 16
_cell_length_a 16.667676
_cell_length_b 8.525047
_cell_length_c 12.037352
_cell_angle_alpha 111.791126
_cell_angle_beta 51.556307
_cell_angle_gamma 142.517415
_cell_volume 787.964635
_symmetry_space_group_name_H-M "P -1"
_symmetry_group_IT_number 2
_symmetry_cell_setting 'triclinic'
loop_
_space_group_symop_operation_xyz
x,y,z
-x,-y,-z
loop_
_atom_site_type_symbol
_atom_site_label
_atom_site_fract_x
_atom_site_fract_y
_atom_site_fract_z
Si Si1 0.015846 0.027387 0.863335
Si Si2 0.793194 0.523697 0.794190
Si Si3 0.591139 0.969914 0.340453
Si Si4 0.072475 0.467212 0.840256
Si Si5 0.474842 0.277825 0.908432
Si Si6 0.675796 0.810272 0.414370
Si Si7 0.904599 0.200198 0.513380
Si Si8 0.177344 0.795214 0.190404
O O1 0.024596 0.218949 0.849033
O O2 0.181489 0.140087 0.722207
O O3 0.850093 0.731368 0.888604
O O4 0.000000 0.000000 0.000000
O O5 0.625166 0.358126 0.842389
O O6 0.787801 0.337887 0.813839
O O7 0.946159 0.728392 0.631205
O O8 0.530689 0.778835 0.234903
O O9 0.654376 0.915489 0.361395
O O10 0.500000 0.000000 0.500000
O O11 0.738304 0.266986 0.245692
O O12 0.996669 0.424377 0.776683
O O13 0.000000 0.500000 0.000000
O O14 0.500000 0.500000 0.000000
O O15 0.310044 0.005954 0.038946
O O16 0.500000 0.500000 0.500000
O O17 0.754022 0.998878 0.505625
O O18 0.835940 0.089807 0.666613
O O19 0.000000 0.500000 0.500000
#
# Coordination Sequence:
#
# PCOD9041763 Si02
#       8
#     2   2   2   2   2   2   2   2
#     4  11  24  42  71  98 136 182 231 291 351 425
#     4  10  23  44  67 101 137 185 233 285 356 422
#     4  12  28  46  73 102 145 187 236 296 354 427
#     4  12  23  45  68 103 136 179 239 287 360 422
#     4  12  28  45  66 107 146 185 234 291 358 419
#     4  11  25  46  68 102 138 182 240 293 358 421
#     4   9  21  42  70  98 130 181 230 285 349 420
#     4  11  23  43  74  99 137 184 234 298 351 426
#
# _framework density 20.305479999999999
#
# number of rings (size 3 to 8) (size 9 to 14) (size 15 to 20)
#    0.000    1.000    1.250    5.625    8.750    0.000 
#    0.000    1.875    0.000    0.000    0.000    0.000 
#    0.000    0.000    0.000    0.000    0.000    0.000 
#
# Total GULP energy -89148.107563 kJ/mol
# GULP energy per Si atom -5571.756723 kJ/mol
# Density = 2.025926 g / cm^3
# Si number density = 20.305480 Si / 1000 Ang^3
#
#
#
# Elastic Constant Matrix: (Units=GPa)
#
#
# Indices 1 2 3 4 5 6 
#
# 1 101.9081 15.0563 26.5028 23.8090 -1.2315 9.7539
# 2 15.0563 89.4621 28.0959 9.9149 3.2625 19.7635
# 3 26.5028 28.0959 102.7337 18.1096 14.0792 11.4558
# 4 23.8090 9.9149 18.1096 37.1891 9.0281 6.5752
# 5 -1.2315 3.2625 14.0792 9.0281 27.5441 8.8982
# 6 9.7539 19.7635 11.4558 6.5752 8.8982 36.4657
#
#
#
# Elastic Compliance Matrix: (Units=1/GPa)
#
#
# Indices 1 2 3 4 5 6 
#
# 1 0.012501 -0.000212 -0.002240 -0.007652 0.005001 -0.002366
# 2 -0.000212 0.013740 -0.003040 -0.001475 0.002598 -0.006803
# 3 -0.002240 -0.003040 0.012287 -0.002486 -0.005243 0.000114
# 4 -0.007652 -0.001475 -0.002486 0.036018 -0.010612 -0.000278
# 5 0.005001 0.002598 -0.005243 -0.010612 0.045720 -0.010342
# 6 -0.002366 -0.006803 0.000114 -0.000278 -0.010342 0.034281
#
#
# Mechanical properties :
#
#
# Convention : Reuss Voigt Hill
#
# Bulk Modulus (GPa) = 36.30578 48.15709 42.23143
# Shear Modulus (GPa) = 28.61830 35.20306 31.91068
#
# Velocity S-wave (km/s) = 3.75825 4.16826 3.96855
# Velocity P-wave (km/s) = 6.06228 6.85081 6.46857
#
# Compressibility (1/GPa) = 0.02754383
#
# Stress axis : x y z
#
# Youngs Moduli (GPa) = 79.99211 72.77981 81.38537
#
# Poissons Ratio (x) = 0.01544 0.18228
# Poissons Ratio (y) = 0.01697 0.24745
# Poissons Ratio (z) = 0.17916 0.22128
#
# Static dielectric constant tensor:
#      x y z
#    x 1.693410 -0.013470 -0.035560 
#    y -0.013470 1.739000 0.060220 
#    z -0.035560 0.060220 1.843360 
# 
# From -- ./inp_files/462346.got.cif
#   From: 2010.05.17/outbox.cif.g08.bks.cpg/sg2_232_cif.got.tgz:462346.got - 2010.06.03 11:33:40.
