data_PCOD9041651
_publ_section_title
;
Structure prediction by ZEFSAII (Michael W. Deem and Ramdas Pophale) SiO2 
 PCOD9041651
Probable space group: P -1
;
_chemical_formula_sum "Si O2"
_cell_formula_units_Z 14
_cell_length_a 11.250124
_cell_length_b 9.866283
_cell_length_c 17.284628
_cell_angle_alpha 150.940196
_cell_angle_beta 122.612998
_cell_angle_gamma 65.908281
_cell_volume 775.612458
_symmetry_space_group_name_H-M "P -1"
_symmetry_group_IT_number 2
_symmetry_cell_setting 'triclinic'
loop_
_space_group_symop_operation_xyz
x,y,z
-x,-y,-z
loop_
_atom_site_type_symbol
_atom_site_label
_atom_site_fract_x
_atom_site_fract_y
_atom_site_fract_z
Si Si1 0.476868 0.249295 0.926853
Si Si2 0.145035 0.119669 0.758103
Si Si3 0.125583 0.514185 0.385964
Si Si4 0.670769 0.850895 0.778574
Si Si5 0.365738 0.918875 0.967291
Si Si6 0.937108 0.087255 0.206698
Si Si7 0.056728 0.672566 0.924514
O O1 0.314721 0.196236 0.871469
O O2 0.526790 0.972013 0.766889
O O3 0.584853 0.301919 0.064041
O O4 0.500000 0.500000 0.000000
O O5 0.128411 0.844872 0.560794
O O6 0.065401 0.024778 0.762914
O O7 0.092766 0.387029 0.833096
O O8 0.278736 0.414916 0.376382
O O9 0.054082 0.353100 0.356381
O O10 0.029716 0.396406 0.219725
O O11 0.656718 0.827377 0.854978
O O12 0.799410 0.109721 0.935283
O O13 0.500000 0.000000 0.000000
O O14 0.218691 0.834867 0.829326
O O15 0.970128 0.838296 0.036894
#
# Coordination Sequence:
#
# PCOD9041651 Si02
#       7
#     2   2   2   2   2   2   2
#     4  10  19  34  53  79 106 135 184 221 258 310
#     4  12  23  32  54  88 112 135 173 234 271 304
#     4  11  21  36  55  80 113 142 175 218 274 319
#     4   9  18  35  58  76  99 146 185 211 255 322
#     4  10  17  33  58  76  99 137 187 218 249 315
#     4  11  20  38  56  80 107 144 183 216 263 322
#     4  11  19  37  57  77 107 147 182 215 257 326
#
# _framework density 18.050250999999999
#
# number of rings (size 3 to 8) (size 9 to 14) (size 15 to 20)
#    0.857    0.571    5.714    2.143    0.000    0.571 
#    0.000    0.000    0.000    0.000    0.000    5.000 
#    0.000    0.000    0.000    0.000    0.000    0.000 
#
# Total GULP energy -77979.048917 kJ/mol
# GULP energy per Si atom -5569.932066 kJ/mol
# Density = 1.800917 g / cm^3
# Si number density = 18.050251 Si / 1000 Ang^3
#
#
#
# Elastic Constant Matrix: (Units=GPa)
#
#
# Indices 1 2 3 4 5 6 
#
# 1 81.9931 21.9022 5.8711 9.0216 -22.3364 7.7825
# 2 21.9022 99.9373 17.2116 16.9026 -9.7180 1.9419
# 3 5.8711 17.2116 56.4796 17.9917 -7.3218 6.9004
# 4 9.0216 16.9026 17.9917 22.3164 0.5206 -8.8765
# 5 -22.3364 -9.7180 -7.3218 0.5206 17.9314 -2.0137
# 6 7.7825 1.9419 6.9004 -8.8765 -2.0137 28.1077
#
#
#
# Elastic Compliance Matrix: (Units=1/GPa)
#
#
# Indices 1 2 3 4 5 6 
#
# 1 0.026166 0.001017 0.013569 -0.030110 0.037598 -0.017461
# 2 0.001017 0.012818 0.002539 -0.014676 0.009027 -0.005778
# 3 0.013569 0.002539 0.039196 -0.050586 0.032699 -0.027188
# 4 -0.030110 -0.014676 -0.050586 0.134052 -0.063318 0.059567
# 5 0.037598 0.009027 0.032699 -0.063318 0.119258 -0.030514
# 6 -0.017461 -0.005778 -0.027188 0.059567 -0.030514 0.064111
#
#
# Mechanical properties :
#
#
# Convention : Reuss Voigt Hill
#
# Bulk Modulus (GPa) = 8.89437 36.48664 22.69051
# Shear Modulus (GPa) = 12.53673 26.56613 19.55143
#
# Velocity S-wave (km/s) = 2.63828 3.84055 3.29472
# Velocity P-wave (km/s) = 3.77081 6.31856 5.20304
#
# Compressibility (1/GPa) = 0.11243066
#
# Stress axis : x y z
#
# Youngs Moduli (GPa) = 38.21779 78.01262 25.51281
#
# Poissons Ratio (x) = -0.07930 -0.34619
# Poissons Ratio (y) = -0.03885 -0.06479
# Poissons Ratio (z) = -0.51859 -0.19810
#
# Static dielectric constant tensor:
#      x y z
#    x 1.642620 -0.011760 -0.018150 
#    y -0.011760 1.615150 -0.012310 
#    z -0.018150 -0.012310 1.633880 
# 
# From -- ./inp_files/252141.got.cif
#   From: 2010.05.17/outbox.cif.g08.bks.cpg/sg2_127_cif.got.tgz:252141.got - 2010.06.03 11:33:40.
