data_PCOD9041843
_publ_section_title
;
Structure prediction by ZEFSAII (Michael W. Deem and Ramdas Pophale) SiO2 
 PCOD9041843
Probable space group: P -1
;
_chemical_formula_sum "Si O2"
_cell_formula_units_Z 16
_cell_length_a 7.327016
_cell_length_b 16.682855
_cell_length_c 6.475714
_cell_angle_alpha 76.576719
_cell_angle_beta 116.402200
_cell_angle_gamma 120.951786
_cell_volume 608.031090
_symmetry_space_group_name_H-M "P -1"
_symmetry_group_IT_number 2
_symmetry_cell_setting 'triclinic'
loop_
_space_group_symop_operation_xyz
x,y,z
-x,-y,-z
loop_
_atom_site_type_symbol
_atom_site_label
_atom_site_fract_x
_atom_site_fract_y
_atom_site_fract_z
Si Si1 0.032534 0.211939 0.499170
Si Si2 0.137863 0.778165 0.007072
Si Si3 0.810275 0.627975 0.184018
Si Si4 0.289368 0.998917 0.535376
Si Si5 0.328377 0.583011 0.005575
Si Si6 0.821399 0.489004 0.610839
Si Si7 0.030214 0.945246 0.852608
Si Si8 0.550969 0.281676 0.661324
O O1 0.856581 0.216147 0.241069
O O2 0.081840 0.280405 0.672078
O O3 0.285807 0.248872 0.503998
O O4 0.921253 0.104080 0.562873
O O5 0.045757 0.851734 0.972113
O O6 0.971508 0.669331 0.043028
O O7 0.362786 0.795740 0.242258
O O8 0.802388 0.550991 0.384679
O O9 0.555526 0.599342 0.993753
O O10 0.500000 0.000000 0.500000
O O11 0.749753 0.004556 0.228858
O O12 0.202339 0.071288 0.373605
O O13 0.085822 0.536969 0.797086
O O14 0.311692 0.519680 0.236704
O O15 0.399305 0.680917 0.097417
O O16 0.712632 0.378401 0.563639
O O17 0.000000 0.000000 0.000000
#
# Coordination Sequence:
#
# PCOD9041843 Si02
#       8
#     2   2   2   2   2   2   2   2
#     4  10  23  44  67  97 142 175 231 302 353 429
#     4  11  24  42  64 104 134 179 237 290 362 430
#     4  11  21  37  64  94 135 184 233 285 353 417
#     4  10  23  49  75 108 142 189 239 298 372 444
#     4   8  18  35  61  90 128 183 236 285 348 408
#     4   9  18  35  62  91 131 186 236 280 350 420
#     4  10  23  49  72 106 147 183 239 296 372 451
#     4   9  20  39  64  92 139 182 232 287 353 419
#
# _framework density 26.314446
#
# number of rings (size 3 to 8) (size 9 to 14) (size 15 to 20)
#    0.750    1.500    0.000    1.875    0.000    2.000 
#   29.250    1.250    0.000    0.000    0.000    0.000 
#    0.000    0.000    0.000    0.000    0.000    0.000 
#
# Total GULP energy -89177.667442 kJ/mol
# GULP energy per Si atom -5573.604215 kJ/mol
# Density = 2.625455 g / cm^3
# Si number density = 26.314446 Si / 1000 Ang^3
#
#
#
# Elastic Constant Matrix: (Units=GPa)
#
#
# Indices 1 2 3 4 5 6 
#
# 1 123.1060 21.4381 16.1930 -2.4371 -5.4692 6.7266
# 2 21.4381 96.8947 31.8360 -12.2492 3.6995 -13.4196
# 3 16.1930 31.8360 107.3721 -27.7347 11.9875 3.7054
# 4 -2.4371 -12.2492 -27.7347 54.1589 -8.0456 -0.5845
# 5 -5.4692 3.6995 11.9875 -8.0456 32.6942 8.8880
# 6 6.7266 -13.4196 3.7054 -0.5845 8.8880 48.8945
#
#
#
# Elastic Compliance Matrix: (Units=1/GPa)
#
#
# Indices 1 2 3 4 5 6 
#
# 1 0.008844 -0.002059 -0.000995 -0.000212 0.002619 -0.002185
# 2 -0.002059 0.012581 -0.003148 0.000958 -0.001538 0.004266
# 3 -0.000995 -0.003148 0.012024 0.004989 -0.002695 -0.001089
# 4 -0.000212 0.000958 0.004989 0.021741 0.003503 -0.000463
# 5 0.002619 -0.001538 -0.002695 0.003503 0.034920 -0.006884
# 6 -0.002185 0.004266 -0.001089 -0.000463 -0.006884 0.023252
#
#
# Mechanical properties :
#
#
# Convention : Reuss Voigt Hill
#
# Bulk Modulus (GPa) = 47.51691 51.81188 49.66440
# Shear Modulus (GPa) = 37.65584 44.34323 40.99953
#
# Velocity S-wave (km/s) = 3.78695 4.10949 3.95151
# Velocity P-wave (km/s) = 6.10065 6.49996 6.30346
#
# Compressibility (1/GPa) = 0.02104514
#
# Stress axis : x y z
#
# Youngs Moduli (GPa) = 113.06929 79.48499 83.16851
#
# Poissons Ratio (x) = 0.16368 0.08275
# Poissons Ratio (y) = 0.23284 0.26179
# Poissons Ratio (z) = 0.11250 0.25019
#
# Static dielectric constant tensor:
#      x y z
#    x 2.212450 -0.084360 -0.013380 
#    y -0.084360 2.090910 0.030510 
#    z -0.013380 0.030510 2.083980 
# 
# From -- ./inp_files/217184.got.cif
#   From: 2010.05.17/outbox.cif.g08.bks.cpg/sg2_109_cif.got.tgz:217184.got - 2010.06.03 11:33:40.
