data_PCOD9041289
_publ_section_title
;
Structure prediction by ZEFSAII (Michael W. Deem and Ramdas Pophale) SiO2 
 PCOD9041289
Probable space group: P -1
;
_chemical_formula_sum "Si O2"
_cell_formula_units_Z 14
_cell_length_a 8.451843
_cell_length_b 16.655500
_cell_length_c 8.955429
_cell_angle_alpha 146.812942
_cell_angle_beta 64.772909
_cell_angle_gamma 111.523394
_cell_volume 624.103562
_symmetry_space_group_name_H-M "P -1"
_symmetry_group_IT_number 2
_symmetry_cell_setting 'triclinic'
loop_
_space_group_symop_operation_xyz
x,y,z
-x,-y,-z
loop_
_atom_site_type_symbol
_atom_site_label
_atom_site_fract_x
_atom_site_fract_y
_atom_site_fract_z
Si Si1 0.973517 0.474621 0.793122
Si Si2 0.453954 0.112790 0.562142
Si Si3 0.011837 0.990299 0.222548
Si Si4 0.294280 0.065174 0.982894
Si Si5 0.645353 0.598980 0.510083
Si Si6 0.940519 0.799736 0.206951
Si Si7 0.620017 0.418199 0.940021
O O1 0.148895 0.419264 0.559241
O O2 0.798117 0.375806 0.715722
O O3 0.000000 0.500000 0.000000
O O4 0.929648 0.628564 0.974843
O O5 0.251422 0.135044 0.642288
O O6 0.532921 0.272645 0.815975
O O7 0.500000 0.000000 0.500000
O O8 0.555369 0.051065 0.282533
O O9 0.044690 0.849985 0.095944
O O10 0.178736 0.038954 0.135052
O O11 0.977725 0.121731 0.557832
O O12 0.848020 0.957127 0.128637
O O13 0.379691 0.227787 0.198428
O O14 0.500000 0.500000 0.500000
O O15 0.644679 0.536186 0.245132
O O16 0.500000 0.500000 0.000000
#
# Coordination Sequence:
#
# PCOD9041289 Si02
#       7
#     2   2   2   2   2   2   2
#     4  10  23  43  72  96 143 188 241 281 360 422
#     4  12  25  43  75 105 146 185 241 297 359 429
#     4  10  24  41  70  99 147 177 240 291 359 424
#     4  11  25  45  68 106 145 186 230 303 369 414
#     4  11  26  45  72 100 146 185 236 295 361 417
#     4  11  23  45  70 108 134 194 243 293 347 442
#     4  11  24  46  72 103 138 192 244 284 347 437
#
# _framework density 22.432172999999999
#
# number of rings (size 3 to 8) (size 9 to 14) (size 15 to 20)
#    0.000    1.143    2.857    2.571    8.000    2.857 
#    2.571    1.429    0.000    0.000    0.000    0.000 
#    0.000    0.000    0.000    0.000    0.000    0.000 
#
# Total GULP energy -78257.152461 kJ/mol
# GULP energy per Si atom -5589.796604 kJ/mol
# Density = 2.238112 g / cm^3
# Si number density = 22.432173 Si / 1000 Ang^3
#
#
#
# Elastic Constant Matrix: (Units=GPa)
#
#
# Indices 1 2 3 4 5 6 
#
# 1 69.2447 27.8962 19.5436 0.0333 -3.7860 7.4618
# 2 27.8962 116.0088 3.5564 -0.7520 8.6406 2.9467
# 3 19.5436 3.5564 52.2413 11.8073 7.5265 0.8301
# 4 0.0333 -0.7520 11.8073 41.9707 7.7604 -2.4179
# 5 -3.7860 8.6406 7.5265 7.7604 29.5538 3.0595
# 6 7.4618 2.9467 0.8301 -2.4179 3.0595 38.8208
#
#
#
# Elastic Compliance Matrix: (Units=1/GPa)
#
#
# Indices 1 2 3 4 5 6 
#
# 1 0.019301 -0.004752 -0.007889 0.000795 0.006036 -0.003607
# 2 -0.004752 0.010013 0.001562 0.000534 -0.004124 0.000478
# 3 -0.007889 0.001562 0.024124 -0.005535 -0.006264 0.001031
# 4 0.000795 0.000534 -0.005535 0.026589 -0.005838 0.002041
# 5 0.006036 -0.004124 -0.006264 -0.005838 0.039377 -0.004180
# 6 -0.003607 0.000478 0.001031 0.002041 -0.004180 0.026851
#
#
# Mechanical properties :
#
#
# Convention : Reuss Voigt Hill
#
# Bulk Modulus (GPa) = 31.96936 37.72080 34.84508
# Shear Modulus (GPa) = 27.95805 34.50231 31.23018
#
# Velocity S-wave (km/s) = 3.53418 3.92608 3.73527
# Velocity P-wave (km/s) = 5.56205 6.11589 5.84554
#
# Compressibility (1/GPa) = 0.03127995
#
# Stress axis : x y z
#
# Youngs Moduli (GPa) = 51.81120 99.86674 41.45262
#
# Poissons Ratio (x) = 0.47458 0.32702
# Poissons Ratio (y) = 0.24621 -0.06475
# Poissons Ratio (z) = 0.40874 -0.15599
#
# Static dielectric constant tensor:
#      x y z
#    x 1.866420 0.042870 0.012310 
#    y 0.042870 1.863060 -0.025650 
#    z 0.012310 -0.025650 1.821100 
# 
# From -- ./inp_files/218996.got.cif
#   From: 2010.05.17/outbox.cif.g08.bks.cpg/sg2_110_cif.got.tgz:218996.got - 2010.06.03 11:33:40.
