data_PCOD9041760
_publ_section_title
;
Structure prediction by ZEFSAII (Michael W. Deem and Ramdas Pophale) SiO2 
 PCOD9041760
Probable space group: P -1
;
_chemical_formula_sum "Si O2"
_cell_formula_units_Z 13
_cell_length_a 10.476074
_cell_length_b 12.848979
_cell_length_c 5.130920
_cell_angle_alpha 85.858909
_cell_angle_beta 113.139080
_cell_angle_gamma 128.733649
_cell_volume 480.676325
_symmetry_space_group_name_H-M "P -1"
_symmetry_group_IT_number 2
_symmetry_cell_setting 'triclinic'
loop_
_space_group_symop_operation_xyz
x,y,z
-x,-y,-z
loop_
_atom_site_type_symbol
_atom_site_label
_atom_site_fract_x
_atom_site_fract_y
_atom_site_fract_z
Si Si1 0.032095 0.111569 0.302966
Si Si2 0.286313 0.086666 0.236354
Si Si3 0.500000 0.500000 0.000000
Si Si4 0.895096 0.355697 0.801472
Si Si5 0.650666 0.369868 0.323443
Si Si6 0.522585 0.082953 0.756317
Si Si7 0.777246 0.609599 0.776818
O O1 0.159827 0.123184 0.182632
O O2 0.148423 0.274531 0.417329
O O3 0.000000 0.000000 0.500000
O O4 0.840582 0.046371 0.023216
O O5 0.472807 0.211615 0.232079
O O6 0.351242 0.075519 0.570048
O O7 0.404975 0.571187 0.941498
O O8 0.623679 0.592435 0.827212
O O9 0.814356 0.364818 0.466845
O O10 0.715824 0.234974 0.845236
O O11 0.000000 0.500000 0.000000
O O12 0.044374 0.336471 0.920791
O O13 0.702822 0.472463 0.586936
O O14 0.500000 0.000000 0.500000
O O15 0.500000 0.000000 0.000000
#
# Coordination Sequence:
#
# PCOD9041760 Si02
#       7
#     2   2   1   2   2   2   2
#     4  11  25  41  68 100 142 184 238 302 362 439
#     4  10  24  44  64 105 138 182 240 293 372 420
#     4  12  24  40  68  98 138 176 232 290 364 426
#     4   9  22  49  69 106 141 186 252 298 372 436
#     4  10  23  44  67 101 135 181 233 292 363 429
#     4  11  25  48  75 107 148 200 248 305 374 453
#     4  11  24  44  70  99 136 187 239 294 366 432
#
# _framework density 27.045224999999999
#
# number of rings (size 3 to 8) (size 9 to 14) (size 15 to 20)
#    0.000    1.538    1.538    1.385    6.462    0.615 
#   22.154    0.000    0.000    0.000    0.000    0.000 
#    0.000    0.000    0.000    0.000    0.000    0.000 
#
# Total GULP energy -72399.582173 kJ/mol
# GULP energy per Si atom -5569.198629 kJ/mol
# Density = 2.698367 g / cm^3
# Si number density = 27.045225 Si / 1000 Ang^3
#
#
#
# Elastic Constant Matrix: (Units=GPa)
#
#
# Indices 1 2 3 4 5 6 
#
# 1 68.3602 30.2774 31.6689 6.9862 22.3020 16.5183
# 2 30.2774 178.7977 66.4747 -3.2085 -0.7733 12.4519
# 3 31.6689 66.4747 122.7446 -14.9632 28.8924 10.6391
# 4 6.9862 -3.2085 -14.9632 45.3135 -7.8342 8.5349
# 5 22.3020 -0.7733 28.8924 -7.8342 59.6057 5.2965
# 6 16.5183 12.4519 10.6391 8.5349 5.2965 38.9262
#
#
#
# Elastic Compliance Matrix: (Units=1/GPa)
#
#
# Indices 1 2 3 4 5 6 
#
# 1 0.020784 -0.002263 -0.002630 -0.004335 -0.006610 -0.005527
# 2 -0.002263 0.007593 -0.004155 0.000191 0.003055 -0.000790
# 3 -0.002630 -0.004155 0.012731 0.003743 -0.004640 -0.001223
# 4 -0.004335 0.000191 0.003743 0.025628 0.003655 -0.005361
# 5 -0.006610 0.003055 -0.004640 0.003655 0.022082 -0.000710
# 6 -0.005527 -0.000790 -0.001223 -0.005361 -0.000710 0.029894
#
#
# Mechanical properties :
#
#
# Convention : Reuss Voigt Hill
#
# Bulk Modulus (GPa) = 43.45966 69.63831 56.54898
# Shear Modulus (GPa) = 34.60693 44.86785 39.73739
#
# Velocity S-wave (km/s) = 3.58102 4.07749 3.83730
# Velocity P-wave (km/s) = 5.76216 6.92623 6.37084
#
# Compressibility (1/GPa) = 0.02300984
#
# Stress axis : x y z
#
# Youngs Moduli (GPa) = 48.11351 131.70503 78.55096
#
# Poissons Ratio (x) = 0.29806 0.20662
# Poissons Ratio (y) = 0.10888 0.32640
# Poissons Ratio (z) = 0.12656 0.54728
#
# Static dielectric constant tensor:
#      x y z
#    x 2.204440 -0.042200 0.176320 
#    y -0.042200 2.046220 0.032000 
#    z 0.176320 0.032000 2.273080 
# 
# From -- ./inp_files/67745.got.cif
#   From: 2010.05.17/outbox.cif.g08.bks.cpg/sg2_34_cif.got.tgz:67745.got - 2010.06.03 11:33:40.
