data_PCOD9041627
_publ_section_title
;
Structure prediction by ZEFSAII (Michael W. Deem and Ramdas Pophale) SiO2 
 PCOD9041627
Probable space group: P -1
;
_chemical_formula_sum "Si O2"
_cell_formula_units_Z 14
_cell_length_a 7.986311
_cell_length_b 11.594560
_cell_length_c 7.831854
_cell_angle_alpha 47.645994
_cell_angle_beta 84.387011
_cell_angle_gamma 84.569195
_cell_volume 532.951868
_symmetry_space_group_name_H-M "P -1"
_symmetry_group_IT_number 2
_symmetry_cell_setting 'triclinic'
loop_
_space_group_symop_operation_xyz
x,y,z
-x,-y,-z
loop_
_atom_site_type_symbol
_atom_site_label
_atom_site_fract_x
_atom_site_fract_y
_atom_site_fract_z
Si Si1 0.144162 0.324431 0.265417
Si Si2 0.686986 0.342363 0.074145
Si Si3 0.994834 0.820376 0.912288
Si Si4 0.425490 0.747437 0.177439
Si Si5 0.911822 0.351401 0.578780
Si Si6 0.301722 0.025880 0.076308
Si Si7 0.471133 0.139388 0.499604
O O1 0.110230 0.276665 0.120742
O O2 0.984517 0.326903 0.406422
O O3 0.278095 0.198813 0.458455
O O4 0.218297 0.497245 0.086141
O O5 0.566423 0.295058 0.282506
O O6 0.825021 0.199648 0.175424
O O7 0.575817 0.335883 0.921016
O O8 0.874360 0.969893 0.812524
O O9 0.022497 0.764017 0.160703
O O10 0.292930 0.645728 0.399295
O O11 0.317678 0.915255 0.021196
O O12 0.616763 0.805038 0.127283
O O13 0.000000 0.500000 0.500000
O O14 0.428878 0.925957 0.283636
O O15 0.500000 0.000000 0.500000
#
# Coordination Sequence:
#
# PCOD9041627 Si02
#       7
#     2   2   2   2   2   2   2
#     4  12  25  47  72 102 146 181 234 296 353 415
#     4  11  24  45  71 101 138 182 233 298 351 413
#     4  11  25  44  72 102 141 181 238 288 349 418
#     4  10  23  44  65  98 144 176 234 291 343 414
#     4  11  25  45  71 104 139 184 234 287 356 418
#     4  11  25  45  67 102 142 187 233 289 352 422
#     4  12  25  44  69 101 138 187 236 281 353 425
#
# _framework density 26.268789999999999
#
# number of rings (size 3 to 8) (size 9 to 14) (size 15 to 20)
#    0.000    0.857    5.714    0.857    6.000    4.000 
#    0.000    1.429    0.000    0.000    0.000    0.000 
#    0.000    0.000    0.000    0.000    0.000    0.000 
#
# Total GULP energy -78098.174122 kJ/mol
# GULP energy per Si atom -5578.441009 kJ/mol
# Density = 2.620900 g / cm^3
# Si number density = 26.268790 Si / 1000 Ang^3
#
#
#
# Elastic Constant Matrix: (Units=GPa)
#
#
# Indices 1 2 3 4 5 6 
#
# 1 78.5410 -0.0573 20.0846 -4.7932 -3.4107 -7.0049
# 2 -0.0573 93.4263 22.6792 9.1374 -0.6329 22.7663
# 3 20.0846 22.6792 86.4098 3.4036 -12.0467 12.9923
# 4 -4.7932 9.1374 3.4036 32.3185 9.0795 -8.9274
# 5 -3.4107 -0.6329 -12.0467 9.0795 37.6411 -3.4220
# 6 -7.0049 22.7663 12.9923 -8.9274 -3.4220 50.9947
#
#
#
# Elastic Compliance Matrix: (Units=1/GPa)
#
#
# Indices 1 2 3 4 5 6 
#
# 1 0.014311 -0.000307 -0.004045 0.003841 -0.000587 0.003766
# 2 -0.000307 0.013321 -0.002229 -0.005389 0.000205 -0.006351
# 3 -0.004045 -0.002229 0.014462 -0.003841 0.004824 -0.003594
# 4 0.003841 -0.005389 -0.003841 0.038875 -0.009432 0.010085
# 5 -0.000587 0.000205 0.004824 -0.009432 0.030243 -0.001023
# 6 0.003766 -0.006351 -0.003594 0.010085 -0.001023 0.025575
#
#
# Mechanical properties :
#
#
# Convention : Reuss Voigt Hill
#
# Bulk Modulus (GPa) = 34.56388 38.19889 36.38139
# Shear Modulus (GPa) = 31.32958 38.56891 34.94924
#
# Velocity S-wave (km/s) = 3.45723 3.83592 3.65149
# Velocity P-wave (km/s) = 5.39657 5.84741 5.62650
#
# Compressibility (1/GPa) = 0.02893194
#
# Stress axis : x y z
#
# Youngs Moduli (GPa) = 69.87499 75.07214 69.14521
#
# Poissons Ratio (x) = 0.02302 0.27972
# Poissons Ratio (y) = 0.02142 0.15413
# Poissons Ratio (z) = 0.28267 0.16734
#
# Static dielectric constant tensor:
#      x y z
#    x 2.138610 0.036450 0.045410 
#    y 0.036450 2.308840 -0.062750 
#    z 0.045410 -0.062750 2.289260 
# 
# From -- ./inp_files/184121.got.cif
#   From: 2010.05.17/outbox.cif.g08.bks.cpg/sg2_93_cif.got.tgz:184121.got - 2010.06.03 11:33:40.
