data_PCOD9041463
_publ_section_title
;
Structure prediction by ZEFSAII (Michael W. Deem and Ramdas Pophale) SiO2 
 PCOD9041463
Probable space group: P -1
;
_chemical_formula_sum "Si O2"
_cell_formula_units_Z 15
_cell_length_a 19.367097
_cell_length_b 15.762004
_cell_length_c 10.464572
_cell_angle_alpha 35.276481
_cell_angle_beta 150.913214
_cell_angle_gamma 158.567463
_cell_volume 567.374223
_symmetry_space_group_name_H-M "P -1"
_symmetry_group_IT_number 2
_symmetry_cell_setting 'triclinic'
loop_
_space_group_symop_operation_xyz
x,y,z
-x,-y,-z
loop_
_atom_site_type_symbol
_atom_site_label
_atom_site_fract_x
_atom_site_fract_y
_atom_site_fract_z
Si Si1 0.857455 0.808055 0.693925
Si Si2 0.757317 0.744411 0.092443
Si Si3 0.681342 0.183234 0.673852
Si Si4 0.443020 0.176401 0.928847
Si Si5 0.500000 0.000000 0.000000
Si Si6 0.853299 0.634228 0.159371
Si Si7 0.679532 0.971437 0.548747
Si Si8 0.827314 0.447104 0.015656
O O1 0.312149 0.210227 0.618591
O O2 0.810005 0.721580 0.869754
O O3 0.833072 0.629320 0.803412
O O4 0.102410 0.081616 0.772969
O O5 0.754000 0.867920 0.827812
O O6 0.500000 0.500000 0.000000
O O7 0.862155 0.694991 0.243926
O O8 0.541960 0.184108 0.533572
O O9 0.923737 0.405525 0.732958
O O10 0.500000 0.000000 0.500000
O O11 0.715653 0.066564 0.961759
O O12 0.631682 0.363630 0.108537
O O13 0.599236 0.224552 0.010297
O O14 0.737562 0.264424 0.990292
O O15 0.646308 0.987247 0.330748
O O16 0.098486 0.764110 0.365233
#
# Coordination Sequence:
#
# PCOD9041463 Si02
#       8
#     2   2   2   2   1   2   2   2
#     4  10  23  48  74 105 142 191 252 298 372 437
#     4  11  26  44  73 112 147 184 246 315 372 435
#     4  12  27  45  73 107 147 191 251 302 369 448
#     4  11  25  46  76 107 145 201 239 306 379 433
#     4  12  28  46  74 104 154 202 244 296 378 444
#     4  10  23  43  77 100 144 193 242 303 363 443
#     4  11  26  46  72 105 146 201 247 298 377 443
#     4  11  26  47  73 105 148 189 249 304 356 444
#
# _framework density 26.437578999999999
#
# number of rings (size 3 to 8) (size 9 to 14) (size 15 to 20)
#    0.000    1.067    1.333    5.600   11.200    3.200 
#    0.000    0.000    0.000    0.000    0.000    0.000 
#    0.000    0.000    0.000    0.000    0.000    0.000 
#
# Total GULP energy -83555.678752 kJ/mol
# GULP energy per Si atom -5570.378583 kJ/mol
# Density = 2.637741 g / cm^3
# Si number density = 26.437579 Si / 1000 Ang^3
#
#
#
# Elastic Constant Matrix: (Units=GPa)
#
#
# Indices 1 2 3 4 5 6 
#
# 1 72.4466 41.7094 38.1645 8.0472 3.0854 -6.9175
# 2 41.7094 155.6243 59.1727 33.5199 3.0523 -11.4337
# 3 38.1645 59.1727 176.6176 15.3608 -0.6286 -6.6624
# 4 8.0472 33.5199 15.3608 59.7070 0.5699 -2.6212
# 5 3.0854 3.0523 -0.6286 0.5699 35.9741 8.2685
# 6 -6.9175 -11.4337 -6.6624 -2.6212 8.2685 36.0161
#
#
#
# Elastic Compliance Matrix: (Units=1/GPa)
#
#
# Indices 1 2 3 4 5 6 
#
# 1 0.017447 -0.003619 -0.002520 0.000441 -0.001738 0.002167
# 2 -0.003619 0.009124 -0.001858 -0.004072 -0.000835 0.001753
# 3 -0.002520 -0.001858 0.006866 -0.000386 0.000487 0.000057
# 4 0.000441 -0.004072 -0.000386 0.019080 -0.000028 0.000116
# 5 -0.001738 -0.000835 0.000487 -0.000028 0.029712 -0.007332
# 6 0.002167 0.001753 0.000057 0.000116 -0.007332 0.030440
#
#
# Mechanical properties :
#
#
# Convention : Reuss Voigt Hill
#
# Bulk Modulus (GPa) = 57.32901 75.86465 66.59683
# Shear Modulus (GPa) = 37.18102 44.04890 40.61496
#
# Velocity S-wave (km/s) = 3.75423 4.08627 3.92377
# Velocity P-wave (km/s) = 6.36585 7.14294 6.76556
#
# Compressibility (1/GPa) = 0.01744317
#
# Stress axis : x y z
#
# Youngs Moduli (GPa) = 57.31776 109.59829 145.63867
#
# Poissons Ratio (x) = 0.39667 0.36703
# Poissons Ratio (y) = 0.20745 0.27053
# Poissons Ratio (z) = 0.14445 0.20358
#
# Static dielectric constant tensor:
#      x y z
#    x 2.322020 -0.135900 -0.039910 
#    y -0.135900 2.325300 0.027790 
#    z -0.039910 0.027790 2.086920 
# 
# From -- ./inp_files/472398.got.cif
#   From: 2010.05.17/outbox.cif.g08.bks.cpg/sg2_237_cif.got.tgz:472398.got - 2010.06.03 11:33:40.
