data_PCOD9041540
_publ_section_title
;
Structure prediction by ZEFSAII (Michael W. Deem and Ramdas Pophale) SiO2 
 PCOD9041540
Probable space group: P -1
;
_chemical_formula_sum "Si O2"
_cell_formula_units_Z 14
_cell_length_a 7.329222
_cell_length_b 16.841658
_cell_length_c 10.354612
_cell_angle_alpha 62.606590
_cell_angle_beta 36.497319
_cell_angle_gamma 64.149966
_cell_volume 669.654602
_symmetry_space_group_name_H-M "P -1"
_symmetry_group_IT_number 2
_symmetry_cell_setting 'triclinic'
loop_
_space_group_symop_operation_xyz
x,y,z
-x,-y,-z
loop_
_atom_site_type_symbol
_atom_site_label
_atom_site_fract_x
_atom_site_fract_y
_atom_site_fract_z
Si Si1 0.264623 0.904413 0.592454
Si Si2 0.481759 0.340463 0.727302
Si Si3 0.330661 0.944224 0.820653
Si Si4 0.325731 0.173596 0.076920
Si Si5 0.709497 0.280068 0.381526
Si Si6 0.806973 0.408471 0.011967
Si Si7 0.740889 0.438179 0.735292
O O1 0.324054 0.901895 0.713459
O O2 0.420132 0.814620 0.497650
O O3 0.896945 0.898831 0.789828
O O4 0.403595 0.989309 0.391003
O O5 0.587288 0.344382 0.517426
O O6 0.696980 0.371904 0.692192
O O7 0.450680 0.234695 0.849607
O O8 0.154110 0.402921 0.871657
O O9 0.424599 0.871996 0.932741
O O10 0.000000 0.000000 0.000000
O O11 0.070231 0.247583 0.233295
O O12 0.678312 0.329909 0.225269
O O13 0.582925 0.498934 0.101448
O O14 0.823081 0.392565 0.861134
O O15 0.000000 0.500000 0.500000
#
# Coordination Sequence:
#
# PCOD9041540 Si02
#       7
#     2   2   2   2   2   2   2
#     4   9  23  42  61  92 127 164 210 260 313 376
#     4  11  23  42  67  94 123 176 212 261 319 375
#     4  11  23  40  67  94 126 167 210 261 315 377
#     4   9  23  41  62  91 128 164 212 260 312 379
#     4   9  22  42  65  89 130 165 211 260 317 372
#     4  10  23  44  64  93 130 167 211 271 306 384
#     4  11  25  42  66  97 129 167 215 264 320 376
#
# _framework density 20.906299000000001
#
# number of rings (size 3 to 8) (size 9 to 14) (size 15 to 20)
#    0.857    1.143    0.000    1.714    4.000    9.714 
#    5.143    0.000    0.000    0.000    0.000    0.000 
#    0.000    0.000    0.000    0.000    0.000    0.000 
#
# Total GULP energy -78036.391896 kJ/mol
# GULP energy per Si atom -5574.027993 kJ/mol
# Density = 2.085872 g / cm^3
# Si number density = 20.906299 Si / 1000 Ang^3
#
#
#
# Elastic Constant Matrix: (Units=GPa)
#
#
# Indices 1 2 3 4 5 6 
#
# 1 117.0392 41.0483 46.3667 -9.9137 17.7730 -1.7696
# 2 41.0483 41.2054 19.3331 1.5206 9.8506 -3.4275
# 3 46.3667 19.3331 77.4747 -7.2757 18.2979 6.5472
# 4 -9.9137 1.5206 -7.2757 17.0656 -1.4103 8.3873
# 5 17.7730 9.8506 18.2979 -1.4103 25.9303 3.1095
# 6 -1.7696 -3.4275 6.5472 8.3873 3.1095 44.0002
#
#
#
# Elastic Compliance Matrix: (Units=1/GPa)
#
#
# Indices 1 2 3 4 5 6 
#
# 1 0.016494 -0.014140 -0.004940 0.009246 -0.001784 -0.001339
# 2 -0.014140 0.042353 -0.002836 -0.017066 -0.006145 0.006840
# 3 -0.004940 -0.002836 0.019580 0.007032 -0.008482 -0.004074
# 4 0.009246 -0.017066 0.007032 0.076831 0.001370 -0.016746
# 5 -0.001784 -0.006145 -0.008482 0.001370 0.048540 -0.002980
# 6 -0.001339 0.006840 -0.004074 -0.016746 -0.002980 0.027215
#
#
# Mechanical properties :
#
#
# Convention : Reuss Voigt Hill
#
# Bulk Modulus (GPa) = 28.90561 49.91283 39.40922
# Shear Modulus (GPa) = 17.45964 25.99731 21.72848
#
# Velocity S-wave (km/s) = 2.89301 3.53018 3.22736
# Velocity P-wave (km/s) = 5.00156 6.36731 5.72530
#
# Compressibility (1/GPa) = 0.03459535
#
# Stress axis : x y z
#
# Youngs Moduli (GPa) = 60.62746 23.61126 51.07381
#
# Poissons Ratio (x) = 0.33385 0.25230
# Poissons Ratio (y) = 0.85724 0.14484
# Poissons Ratio (z) = 0.29950 0.06696
#
# Static dielectric constant tensor:
#      x y z
#    x 1.733010 0.002970 -0.023060 
#    y 0.002970 1.758050 -0.000860 
#    z -0.023060 -0.000860 1.794270 
# 
# From -- ./inp_files/137429.got.cif
#   From: 2010.05.17/outbox.cif.g08.bks.cpg/sg2_69_cif.got.tgz:137429.got - 2010.06.03 11:33:40.
