data_PCOD9041168
_publ_section_title
;
Structure prediction by ZEFSAII (Michael W. Deem and Ramdas Pophale) SiO2 
 PCOD9041168
Probable space group: P -1
;
_chemical_formula_sum "Si O2"
_cell_formula_units_Z 12
_cell_length_a 8.659270
_cell_length_b 4.977424
_cell_length_c 12.157753
_cell_angle_alpha 86.274012
_cell_angle_beta 103.476639
_cell_angle_gamma 88.151638
_cell_volume 507.896917
_symmetry_space_group_name_H-M "P -1"
_symmetry_group_IT_number 2
_symmetry_cell_setting 'triclinic'
loop_
_space_group_symop_operation_xyz
x,y,z
-x,-y,-z
loop_
_atom_site_type_symbol
_atom_site_label
_atom_site_fract_x
_atom_site_fract_y
_atom_site_fract_z
Si Si1 0.188021 0.716920 0.706094
Si Si2 0.846347 0.532635 0.609034
Si Si3 0.868959 0.578892 0.858394
Si Si4 0.677147 0.050813 0.487101
Si Si5 0.908023 0.941793 0.130017
Si Si6 0.677024 0.381455 0.037895
O O1 0.035955 0.571298 0.637239
O O2 0.267413 0.560634 0.828061
O O3 0.114865 0.988738 0.746473
O O4 0.310573 0.804625 0.632770
O O5 0.793130 0.601727 0.724319
O O6 0.767673 0.759929 0.511013
O O7 0.776876 0.247403 0.575643
O O8 0.962141 0.845297 0.889900
O O9 0.004737 0.340499 0.872493
O O10 0.758060 0.506779 0.941398
O O11 0.500000 0.000000 0.500000
O O12 0.738772 0.062494 0.050358
O O13 0.500000 0.500000 0.000000
#
# Coordination Sequence:
#
# PCOD9041168 Si02
#       6
#     2   2   2   2   2   2
#     4   9  23  44  72 103 142 187 244 281 354 420
#     4  11  24  43  76  98 139 190 238 286 346 435
#     4  11  21  45  69 103 133 188 237 280 349 424
#     4  12  26  46  69 107 142 183 232 302 361 414
#     4   9  22  40  70  97 138 180 236 283 337 423
#     4  10  23  43  71 105 149 178 234 299 358 413
#
# _framework density 23.626839
#
# number of rings (size 3 to 8) (size 9 to 14) (size 15 to 20)
#    1.000    0.667    0.000    4.500    2.333    2.667 
#    0.000    3.333    0.000    0.000    0.000    0.000 
#    0.000    0.000    0.000    0.000    0.000    0.000 
#
# Total GULP energy -66985.352563 kJ/mol
# GULP energy per Si atom -5582.112714 kJ/mol
# Density = 2.357306 g / cm^3
# Si number density = 23.626839 Si / 1000 Ang^3
#
#
#
# Elastic Constant Matrix: (Units=GPa)
#
#
# Indices 1 2 3 4 5 6 
#
# 1 195.8848 51.0011 75.4192 -15.1790 -19.3806 1.3628
# 2 51.0011 112.8172 8.0858 -4.8063 4.0774 3.5715
# 3 75.4192 8.0858 123.4625 -14.9223 -30.5557 11.4346
# 4 -15.1790 -4.8063 -14.9223 33.1309 3.0123 0.9767
# 5 -19.3806 4.0774 -30.5557 3.0123 41.1305 -14.7780
# 6 1.3628 3.5715 11.4346 0.9767 -14.7780 29.4824
#
#
#
# Elastic Compliance Matrix: (Units=1/GPa)
#
#
# Indices 1 2 3 4 5 6 
#
# 1 0.007843 -0.003339 -0.004272 0.000957 0.001685 0.002512
# 2 -0.003339 0.010545 0.000974 0.000807 -0.003053 -0.003058
# 3 -0.004272 0.000974 0.012843 0.003423 0.006560 -0.001727
# 4 0.000957 0.000807 0.003423 0.032404 -0.000455 -0.002771
# 5 0.001685 -0.003053 0.006560 -0.000455 0.035995 0.015805
# 6 0.002512 -0.003058 -0.001727 -0.002771 0.015805 0.042856
#
#
# Mechanical properties :
#
#
# Convention : Reuss Voigt Hill
#
# Bulk Modulus (GPa) = 55.68900 77.90849 66.79874
# Shear Modulus (GPa) = 30.91302 40.59268 35.75285
#
# Velocity S-wave (km/s) = 3.62109 4.14946 3.89425
# Velocity P-wave (km/s) = 6.41127 7.48355 6.96807
#
# Compressibility (1/GPa) = 0.01795687
#
# Stress axis : x y z
#
# Youngs Moduli (GPa) = 127.50928 94.83213 77.86565
#
# Poissons Ratio (x) = 0.31663 0.33264
# Poissons Ratio (y) = 0.42573 -0.07585
# Poissons Ratio (z) = 0.54472 -0.09238
#
# Static dielectric constant tensor:
#      x y z
#    x 1.870970 0.025410 0.008880 
#    y 0.025410 1.943880 0.041730 
#    z 0.008880 0.041730 2.006290 
# 
# From -- ./inp_files/233058.got.cif
#   From: 2010.05.17/outbox.cif.g08.bks.cpg/sg2_117_cif.got.tgz:233058.got - 2010.06.03 11:33:40.
