data_PCOD9041234
_publ_section_title
;
Structure prediction by ZEFSAII (Michael W. Deem and Ramdas Pophale) SiO2 
 PCOD9041234
Probable space group: P -1
;
_chemical_formula_sum "Si O2"
_cell_formula_units_Z 16
_cell_length_a 16.545663
_cell_length_b 11.027716
_cell_length_c 15.453717
_cell_angle_alpha 44.126237
_cell_angle_beta 26.075707
_cell_angle_gamma 60.792365
_cell_volume 741.121139
_symmetry_space_group_name_H-M "P -1"
_symmetry_group_IT_number 2
_symmetry_cell_setting 'triclinic'
loop_
_space_group_symop_operation_xyz
x,y,z
-x,-y,-z
loop_
_atom_site_type_symbol
_atom_site_label
_atom_site_fract_x
_atom_site_fract_y
_atom_site_fract_z
Si Si1 0.909876 0.212768 0.162108
Si Si2 0.475223 0.455244 0.775094
Si Si3 0.105964 0.705725 0.349734
Si Si4 0.658605 0.553975 0.901350
Si Si5 0.808604 0.892552 0.172643
Si Si6 0.408577 0.882550 0.815945
Si Si7 0.298513 0.776882 0.314951
Si Si8 0.947399 0.628530 0.863429
O O1 0.974941 0.280334 0.163523
O O2 0.664346 0.026795 0.490714
O O3 0.916685 0.403339 0.009249
O O4 0.082890 0.163415 0.981165
O O5 0.621197 0.694338 0.499963
O O6 0.614707 0.360523 0.659872
O O7 0.414319 0.395345 0.964993
O O8 0.269661 0.384595 0.950054
O O9 0.190980 0.692169 0.368493
O O10 0.000000 0.500000 0.500000
O O11 0.898805 0.726902 0.554750
O O12 0.308558 0.865185 0.017050
O O13 0.500000 0.500000 0.000000
O O14 0.654872 0.344750 0.032234
O O15 0.712895 0.031948 0.167139
O O16 0.000000 0.000000 0.000000
O O17 0.121993 0.764508 0.555100
O O18 0.500000 0.000000 0.000000
#
# Coordination Sequence:
#
# PCOD9041234 Si02
#       8
#     2   2   2   2   2   2   2   2
#     4  11  25  46  69 102 144 184 238 290 357 425
#     4  12  25  46  73 104 145 182 241 293 360 422
#     4  10  23  43  71  99 142 185 232 294 361 420
#     4  11  25  44  73 104 144 189 230 294 366 428
#     4  12  28  42  76 109 143 187 236 297 361 429
#     4  11  25  45  70 105 142 182 237 292 362 429
#     4  12  26  48  71 102 143 192 244 297 357 432
#     4  11  25  46  71  98 141 192 235 294 353 425
#
# _framework density 21.588913000000002
#
# number of rings (size 3 to 8) (size 9 to 14) (size 15 to 20)
#    0.000    0.750    3.750    3.000    8.750    4.000 
#    0.000    0.000    0.000    0.000    0.000    0.000 
#    0.000    0.000    0.000    0.000    0.000    0.000 
#
# Total GULP energy -89491.350900 kJ/mol
# GULP energy per Si atom -5593.209431 kJ/mol
# Density = 2.153978 g / cm^3
# Si number density = 21.588913 Si / 1000 Ang^3
#
#
#
# Elastic Constant Matrix: (Units=GPa)
#
#
# Indices 1 2 3 4 5 6 
#
# 1 98.8546 8.4252 16.3265 3.0671 -16.7459 -13.2320
# 2 8.4252 38.6687 -17.7146 4.1250 -8.0390 -8.3345
# 3 16.3265 -17.7146 95.6886 18.3167 -4.4484 8.4419
# 4 3.0671 4.1250 18.3167 33.9427 -3.3886 -0.7230
# 5 -16.7459 -8.0390 -4.4484 -3.3886 35.6896 8.6887
# 6 -13.2320 -8.3345 8.4419 -0.7230 8.6887 35.7803
#
#
#
# Elastic Compliance Matrix: (Units=1/GPa)
#
#
# Indices 1 2 3 4 5 6 
#
# 1 0.011900 -0.002443 -0.002851 0.001228 0.003924 0.003576
# 2 -0.002443 0.032666 0.007840 -0.007342 0.005682 0.003328
# 3 -0.002851 0.007840 0.014375 -0.008300 0.002243 -0.003332
# 4 0.001228 -0.007342 -0.008300 0.034837 0.000907 0.001186
# 5 0.003924 0.005682 0.002243 0.000907 0.032900 -0.005726
# 6 0.003576 0.003328 -0.003332 0.001186 -0.005726 0.032247
#
#
# Mechanical properties :
#
#
# Convention : Reuss Voigt Hill
#
# Bulk Modulus (GPa) = 15.61665 27.47622 21.54643
# Shear Modulus (GPa) = 28.54230 36.16083 32.35156
#
# Velocity S-wave (km/s) = 3.63999 4.09708 3.87528
# Velocity P-wave (km/s) = 4.99153 5.92757 5.47957
#
# Compressibility (1/GPa) = 0.06403422
#
# Stress axis : x y z
#
# Youngs Moduli (GPa) = 84.03168 30.61252 69.56313
#
# Poissons Ratio (x) = 0.07480 0.19832
# Poissons Ratio (y) = 0.20531 -0.54539
# Poissons Ratio (z) = 0.23957 -0.24001
#
# Static dielectric constant tensor:
#      x y z
#    x 1.475190 -0.042970 -0.013400 
#    y -0.042970 1.811980 -0.014450 
#    z -0.013400 -0.014450 1.787420 
# 
# From -- ./inp_files/532323.got.cif
#   From: 2010.05.17/outbox.cif.g08.bks.cpg/sg2_267_cif.got.tgz:532323.got - 2010.06.03 11:33:40.
