data_PCOD9041966
_publ_section_title
;
Structure prediction by ZEFSAII (Michael W. Deem and Ramdas Pophale) SiO2 
 PCOD9041966
Probable space group: P -1
;
_chemical_formula_sum "Si O2"
_cell_formula_units_Z 16
_cell_length_a 9.330222
_cell_length_b 12.635987
_cell_length_c 9.396109
_cell_angle_alpha 40.771510
_cell_angle_beta 93.173646
_cell_angle_gamma 87.197421
_cell_volume 715.271355
_symmetry_space_group_name_H-M "P -1"
_symmetry_group_IT_number 2
_symmetry_cell_setting 'triclinic'
loop_
_space_group_symop_operation_xyz
x,y,z
-x,-y,-z
loop_
_atom_site_type_symbol
_atom_site_label
_atom_site_fract_x
_atom_site_fract_y
_atom_site_fract_z
Si Si1 0.405906 0.167490 0.875913
Si Si2 0.630253 0.091028 0.468672
Si Si3 0.461959 0.322124 0.435026
Si Si4 0.068980 0.161229 0.801272
Si Si5 0.925344 0.863846 0.715099
Si Si6 0.891103 0.334625 0.839256
Si Si7 0.409676 0.698939 0.024307
Si Si8 0.862739 0.686243 0.628523
O O1 0.442512 0.300248 0.625084
O O2 0.234364 0.158717 0.868471
O O3 0.467317 0.213010 0.984393
O O4 0.500000 0.000000 0.000000
O O5 0.588140 0.197896 0.498005
O O6 0.500000 0.000000 0.500000
O O7 0.765845 0.955437 0.641676
O O8 0.649636 0.214965 0.212689
O O9 0.470006 0.508169 0.203002
O O10 0.311391 0.275688 0.411263
O O11 0.080510 0.187941 0.606220
O O12 0.961605 0.310735 0.712845
O O13 0.000000 0.000000 0.000000
O O14 0.923335 0.713053 0.759300
O O15 0.000000 0.000000 0.500000
O O16 0.009206 0.797411 0.926183
O O17 0.727019 0.296369 0.881045
O O18 0.892691 0.509978 0.734666
#
# Coordination Sequence:
#
# PCOD9041966 Si02
#       8
#     2   2   2   2   2   2   2   2
#     4  11  24  41  69  98 130 169 216 266 324 381
#     4  12  24  42  69  92 131 171 220 267 316 384
#     4  10  23  44  68  96 128 171 216 269 323 380
#     4  11  24  42  69  99 129 169 218 265 320 387
#     4  12  24  43  65  96 129 172 219 265 324 378
#     4  11  24  44  67  95 132 172 213 268 324 384
#     4  11  24  45  66  95 135 170 213 268 324 383
#     4  10  23  45  67  93 133 170 214 269 324 381
#
# _framework density 22.369133999999999
#
# number of rings (size 3 to 8) (size 9 to 14) (size 15 to 20)
#    0.000    1.000    2.500    3.750    5.250    0.000 
#    4.500    0.000    0.000    0.000    0.000    0.000 
#    0.000    0.000    0.000    0.000    0.000    0.000 
#
# Total GULP energy -89545.363913 kJ/mol
# GULP energy per Si atom -5596.585245 kJ/mol
# Density = 2.231822 g / cm^3
# Si number density = 22.369134 Si / 1000 Ang^3
#
#
#
# Elastic Constant Matrix: (Units=GPa)
#
#
# Indices 1 2 3 4 5 6 
#
# 1 101.0110 37.5054 10.1624 -7.2655 -1.3337 -16.2838
# 2 37.5054 91.3551 4.2125 -3.0702 -4.5888 -17.9067
# 3 10.1624 4.2125 69.9725 -8.6341 -5.5341 6.3603
# 4 -7.2655 -3.0702 -8.6341 35.2521 1.9146 9.9860
# 5 -1.3337 -4.5888 -5.5341 1.9146 30.7988 -0.9766
# 6 -16.2838 -17.9067 6.3603 9.9860 -0.9766 28.1940
#
#
#
# Elastic Compliance Matrix: (Units=1/GPa)
#
#
# Indices 1 2 3 4 5 6 
#
# 1 0.012415 -0.004044 -0.001987 0.000342 -0.000287 0.004919
# 2 -0.004044 0.014215 -0.001076 -0.002179 0.002132 0.007781
# 3 -0.001987 -0.001076 0.016142 0.005410 0.002086 -0.007316
# 4 0.000342 -0.002179 0.005410 0.033764 -0.001894 -0.014431
# 5 -0.000287 0.002132 0.002086 -0.001894 0.033347 0.002544
# 6 0.004919 0.007781 -0.007316 -0.014431 0.002544 0.050102
#
#
# Mechanical properties :
#
#
# Convention : Reuss Voigt Hill
#
# Bulk Modulus (GPa) = 35.01655 40.67768 37.84711
# Shear Modulus (GPa) = 27.21545 32.87953 30.04749
#
# Velocity S-wave (km/s) = 3.49184 3.83804 3.66902
# Velocity P-wave (km/s) = 5.65201 6.15345 5.90805
#
# Compressibility (1/GPa) = 0.02855793
#
# Stress axis : x y z
#
# Youngs Moduli (GPa) = 80.54600 70.34710 61.94918
#
# Poissons Ratio (x) = 0.28449 0.12311
# Poissons Ratio (y) = 0.32573 0.06666
# Poissons Ratio (z) = 0.16007 0.07569
#
# Static dielectric constant tensor:
#      x y z
#    x 1.808400 -0.024920 -0.028960 
#    y -0.024920 1.834310 0.001770 
#    z -0.028960 0.001770 1.832210 
# 
# From -- ./inp_files/184187.got.cif
#   From: 2010.05.17/outbox.cif.g08.bks.cpg/sg2_93_cif.got.tgz:184187.got - 2010.06.03 11:33:40.
