data_PCOD9041242
_publ_section_title
;
Structure prediction by ZEFSAII (Michael W. Deem and Ramdas Pophale) SiO2 
 PCOD9041242
Probable space group: P -1
;
_chemical_formula_sum "Si O2"
_cell_formula_units_Z 16
_cell_length_a 5.439728
_cell_length_b 22.794608
_cell_length_c 14.344106
_cell_angle_alpha 20.490310
_cell_angle_beta 93.540765
_cell_angle_gamma 94.495151
_cell_volume 620.342000
_symmetry_space_group_name_H-M "P -1"
_symmetry_group_IT_number 2
_symmetry_cell_setting 'triclinic'
loop_
_space_group_symop_operation_xyz
x,y,z
-x,-y,-z
loop_
_atom_site_type_symbol
_atom_site_label
_atom_site_fract_x
_atom_site_fract_y
_atom_site_fract_z
Si Si1 0.737278 0.940660 0.535198
Si Si2 0.434426 0.702002 0.520048
Si Si3 0.115821 0.415813 0.886668
Si Si4 0.485184 0.883088 0.900824
Si Si5 0.915783 0.066937 0.716579
Si Si6 0.696034 0.799601 0.210055
Si Si7 0.162901 0.412299 0.208516
Si Si8 0.818631 0.443323 0.665257
O O1 0.500000 0.000000 0.500000
O O2 0.689737 0.012687 0.323338
O O3 0.747483 0.739320 0.837361
O O4 0.000000 0.000000 0.500000
O O5 0.296945 0.577091 0.629845
O O6 0.261692 0.818316 0.397849
O O7 0.634750 0.803355 0.310855
O O8 0.546117 0.579172 0.781812
O O9 0.931619 0.499357 0.830642
O O10 0.979192 0.359112 0.874025
O O11 0.760095 0.977952 0.759565
O O12 0.484683 0.871738 0.030708
O O13 0.411095 0.689888 0.160889
O O14 0.120655 0.211712 0.485160
O O15 0.940301 0.910270 0.019260
O O16 0.732256 0.612674 0.456055
O O17 0.000000 0.500000 0.000000
O O18 0.000000 0.500000 0.500000
#
# Coordination Sequence:
#
# PCOD9041242 Si02
#       8
#     2   2   2   2   2   2   2   2
#     4  12  29  49  76 106 154 198 252 313 372 454
#     4  11  23  45  71  99 142 181 240 309 365 448
#     4  11  27  45  71 108 139 193 248 299 383 440
#     4  10  25  45  69 106 148 187 250 297 378 444
#     4   9  25  44  67 106 134 184 240 299 369 440
#     4  10  23  43  72 100 146 183 238 304 368 447
#     4  11  26  45  73  98 142 191 246 307 373 439
#     4  12  24  44  71 106 148 192 242 300 380 452
#
# _framework density 25.792224999999998
#
# number of rings (size 3 to 8) (size 9 to 14) (size 15 to 20)
#    0.750    0.500    2.500    1.500    8.750    2.500 
#    0.000    0.000    0.000    0.000    0.000    0.000 
#    0.000    0.000    0.000    0.000    0.000    0.000 
#
# Total GULP energy -89248.125743 kJ/mol
# GULP energy per Si atom -5578.007859 kJ/mol
# Density = 2.573352 g / cm^3
# Si number density = 25.792225 Si / 1000 Ang^3
#
#
#
# Elastic Constant Matrix: (Units=GPa)
#
#
# Indices 1 2 3 4 5 6 
#
# 1 66.7462 26.5765 6.5357 -11.3679 8.1608 -3.8684
# 2 26.5765 102.3266 36.5126 2.9736 1.3476 10.2556
# 3 6.5357 36.5126 121.5695 -10.7384 14.6992 3.4508
# 4 -11.3679 2.9736 -10.7384 66.4562 18.5275 5.1498
# 5 8.1608 1.3476 14.6992 18.5275 23.6664 -15.1640
# 6 -3.8684 10.2556 3.4508 5.1498 -15.1640 42.3988
#
#
#
# Elastic Compliance Matrix: (Units=1/GPa)
#
#
# Indices 1 2 3 4 5 6 
#
# 1 0.021835 -0.006823 0.005077 0.012155 -0.024241 -0.006917
# 2 -0.006823 0.013399 -0.005264 -0.005256 0.009317 0.000536
# 3 0.005077 -0.005264 0.013754 0.010943 -0.024670 -0.009536
# 4 0.012155 -0.005256 0.010943 0.035298 -0.052040 -0.021410
# 5 -0.024241 0.009317 -0.024670 -0.052040 0.140913 0.054261
# 6 -0.006917 0.000536 -0.009536 -0.021410 0.054261 0.045608
#
#
# Mechanical properties :
#
#
# Convention : Reuss Voigt Hill
#
# Bulk Modulus (GPa) = 28.59789 47.76577 38.18183
# Shear Modulus (GPa) = 16.86435 41.23877 29.05156
#
# Velocity S-wave (km/s) = 2.55983 4.00294 3.35978
# Velocity P-wave (km/s) = 4.45520 6.31857 5.46686
#
# Compressibility (1/GPa) = 0.03496762
#
# Stress axis : x y z
#
# Youngs Moduli (GPa) = 45.79793 74.63052 72.70648
#
# Poissons Ratio (x) = 0.50922 -0.36909
# Poissons Ratio (y) = 0.31249 0.38270
# Poissons Ratio (z) = -0.23249 0.39283
#
# Static dielectric constant tensor:
#      x y z
#    x 2.282960 0.035950 -0.098450 
#    y 0.035950 2.003430 0.036230 
#    z -0.098450 0.036230 2.079180 
# 
# From -- ./inp_files/485946.got.cif
#   From: 2010.05.17/outbox.cif.g08.bks.cpg/sg2_243_cif.got.tgz:485946.got - 2010.06.03 11:33:40.
