data_PCOD9041743
_publ_section_title
;
Structure prediction by ZEFSAII (Michael W. Deem and Ramdas Pophale) SiO2 
 PCOD9041743
Probable space group: P -1
;
_chemical_formula_sum "Si O2"
_cell_formula_units_Z 14
_cell_length_a 8.392616
_cell_length_b 17.667158
_cell_length_c 7.840061
_cell_angle_alpha 46.925345
_cell_angle_beta 144.322071
_cell_angle_gamma 123.573178
_cell_volume 495.242001
_symmetry_space_group_name_H-M "P -1"
_symmetry_group_IT_number 2
_symmetry_cell_setting 'triclinic'
loop_
_space_group_symop_operation_xyz
x,y,z
-x,-y,-z
loop_
_atom_site_type_symbol
_atom_site_label
_atom_site_fract_x
_atom_site_fract_y
_atom_site_fract_z
Si Si1 0.186066 0.694486 0.773650
Si Si2 0.035232 0.092106 0.609557
Si Si3 0.652100 0.526690 0.262976
Si Si4 0.457865 0.208371 0.555576
Si Si5 0.911031 0.331831 0.656266
Si Si6 0.512433 0.972013 0.357850
Si Si7 0.364832 0.383205 0.453581
O O1 0.240851 0.672394 0.654967
O O2 0.064507 0.811440 0.508812
O O3 0.935134 0.620913 0.723989
O O4 0.427777 0.681359 0.143748
O O5 0.270323 0.137902 0.621887
O O6 0.753228 0.042041 0.375755
O O7 0.209110 0.000545 0.987749
O O8 0.867122 0.429904 0.594713
O O9 0.469016 0.495700 0.311748
O O10 0.793452 0.637230 0.204493
O O11 0.500000 0.500000 0.000000
O O12 0.786393 0.233895 0.799309
O O13 0.420638 0.146905 0.441699
O O14 0.354572 0.319500 0.362134
O O15 0.500000 0.000000 0.500000
#
# Coordination Sequence:
#
# PCOD9041743 Si02
#       7
#     2   2   2   2   2   2   2
#     4  11  24  45  68 104 135 181 233 280 348 398
#     4  11  24  46  68 100 143 179 228 284 338 412
#     4  10  24  46  68 101 138 182 231 282 352 414
#     4  10  23  44  67 100 133 189 226 276 348 404
#     4  10  24  44  69  98 139 181 230 288 338 416
#     4  12  25  44  70 103 140 179 231 286 338 405
#     4  10  25  43  69  97 140 179 229 287 340 415
#
# _framework density 28.269010000000002
#
# number of rings (size 3 to 8) (size 9 to 14) (size 15 to 20)
#    0.000    1.429    0.000    3.857    8.000    3.429 
#    7.714    0.000    0.000    0.000    0.000    0.000 
#    0.000    0.000    0.000    0.000    0.000    0.000 
#
# Total GULP energy -78195.316381 kJ/mol
# GULP energy per Si atom -5585.379742 kJ/mol
# Density = 2.820467 g / cm^3
# Si number density = 28.269010 Si / 1000 Ang^3
#
#
#
# Elastic Constant Matrix: (Units=GPa)
#
#
# Indices 1 2 3 4 5 6 
#
# 1 143.2675 76.8175 30.3495 0.9687 17.6972 -9.8632
# 2 76.8175 152.6393 22.7439 7.4143 20.9153 5.5053
# 3 30.3495 22.7439 145.7909 7.4717 21.5222 -2.4748
# 4 0.9687 7.4143 7.4717 32.5344 13.6458 10.7767
# 5 17.6972 20.9153 21.5222 13.6458 43.5226 17.9088
# 6 -9.8632 5.5053 -2.4748 10.7767 17.9088 55.7788
#
#
#
# Elastic Compliance Matrix: (Units=1/GPa)
#
#
# Indices 1 2 3 4 5 6 
#
# 1 0.010339 -0.004812 -0.000967 0.001301 -0.003051 0.002988
# 2 -0.004812 0.009316 -0.000170 -0.000865 -0.001731 -0.001055
# 3 -0.000967 -0.000170 0.007700 -0.000626 -0.003760 0.001516
# 4 0.001301 -0.000865 -0.000626 0.036304 -0.009700 -0.003612
# 5 -0.003051 -0.001731 -0.003760 -0.009700 0.033874 -0.009537
# 6 0.002988 -0.001055 0.001516 -0.003612 -0.009537 0.022388
#
#
# Mechanical properties :
#
#
# Convention : Reuss Voigt Hill
#
# Bulk Modulus (GPa) = 64.69634 77.94659 71.32147
# Shear Modulus (GPa) = 36.50466 47.15295 41.82881
#
# Velocity S-wave (km/s) = 3.59741 4.08856 3.85082
# Velocity P-wave (km/s) = 6.33962 7.06551 6.71238
#
# Compressibility (1/GPa) = 0.01545683
#
# Stress axis : x y z
#
# Youngs Moduli (GPa) = 96.72450 107.34757 129.87299
#
# Poissons Ratio (x) = 0.51654 0.12560
# Poissons Ratio (y) = 0.46543 0.02203
# Poissons Ratio (z) = 0.09354 0.01821
#
# Static dielectric constant tensor:
#      x y z
#    x 2.290680 0.008190 -0.011320 
#    y 0.008190 2.183320 -0.084040 
#    z -0.011320 -0.084040 2.346630 
# 
# From -- ./inp_files/217221.got.cif
#   From: 2010.05.17/outbox.cif.g08.bks.cpg/sg2_109_cif.got.tgz:217221.got - 2010.06.03 11:33:40.
