data_PCOD9041905
_publ_section_title
;
Structure prediction by ZEFSAII (Michael W. Deem and Ramdas Pophale) SiO2 
 PCOD9041905
Probable space group: P -1
;
_chemical_formula_sum "Si O2"
_cell_formula_units_Z 14
_cell_length_a 11.840510
_cell_length_b 11.371902
_cell_length_c 6.970805
_cell_angle_alpha 59.444314
_cell_angle_beta 109.572093
_cell_angle_gamma 72.145575
_cell_volume 616.134610
_symmetry_space_group_name_H-M "P -1"
_symmetry_group_IT_number 2
_symmetry_cell_setting 'triclinic'
loop_
_space_group_symop_operation_xyz
x,y,z
-x,-y,-z
loop_
_atom_site_type_symbol
_atom_site_label
_atom_site_fract_x
_atom_site_fract_y
_atom_site_fract_z
Si Si1 0.131183 0.374065 0.036451
Si Si2 0.635544 0.229129 0.174754
Si Si3 0.567200 0.077049 0.604084
Si Si4 0.832957 0.743667 0.237018
Si Si5 0.235318 0.587500 0.021775
Si Si6 0.615629 0.670905 0.362525
Si Si7 0.896691 0.854567 0.553964
O O1 0.077098 0.373355 0.795742
O O2 0.229971 0.443180 0.033006
O O3 0.188614 0.199840 0.317354
O O4 0.000000 0.500000 0.000000
O O5 0.597928 0.184528 0.392892
O O6 0.788186 0.055369 0.330806
O O7 0.671447 0.365153 0.081819
O O8 0.504404 0.286878 0.901430
O O9 0.465480 0.189950 0.630782
O O10 0.500000 0.000000 0.500000
O O11 0.713304 0.921371 0.918531
O O12 0.740239 0.684403 0.331114
O O13 0.911883 0.779079 0.414434
O O14 0.307958 0.507109 0.336351
O O15 0.064979 0.753406 0.808540
#
# Coordination Sequence:
#
# PCOD9041905 Si02
#       7
#     2   2   2   2   2   2   2
#     4  10  23  44  68 102 139 177 231 283 344 407
#     4  12  25  46  71  98 145 185 227 288 341 416
#     4  12  23  41  72 104 136 181 239 280 339 409
#     4  12  22  42  75 106 131 179 241 291 334 404
#     4  11  26  46  65 104 145 180 226 287 354 405
#     4  12  25  43  70 105 139 182 231 285 347 409
#     4  11  23  47  72  98 137 185 236 283 336 416
#
# _framework density 22.722308999999999
#
# number of rings (size 3 to 8) (size 9 to 14) (size 15 to 20)
#    0.000    0.571    5.714    3.000    0.000    2.857 
#    2.571    0.714    0.000    0.000    0.000    0.000 
#    0.000    0.000    0.000    0.000    0.000    0.000 
#
# Total GULP energy -78335.340896 kJ/mol
# GULP energy per Si atom -5595.381493 kJ/mol
# Density = 2.267059 g / cm^3
# Si number density = 22.722309 Si / 1000 Ang^3
#
#
#
# Elastic Constant Matrix: (Units=GPa)
#
#
# Indices 1 2 3 4 5 6 
#
# 1 109.4169 33.4226 48.1282 -7.6318 -27.5634 7.1406
# 2 33.4226 71.0790 20.2253 13.3478 -16.4628 -10.3929
# 3 48.1282 20.2253 157.1196 -5.9904 -8.7895 2.3291
# 4 -7.6318 13.3478 -5.9904 33.9129 -10.5888 -12.3159
# 5 -27.5634 -16.4628 -8.7895 -10.5888 49.4359 -11.5860
# 6 7.1406 -10.3929 2.3291 -12.3159 -11.5860 43.9043
#
#
#
# Elastic Compliance Matrix: (Units=1/GPa)
#
#
# Indices 1 2 3 4 5 6 
#
# 1 0.014533 -0.005567 -0.003044 0.007432 0.007422 0.000523
# 2 -0.005567 0.019517 -0.000964 -0.006580 0.002866 0.004487
# 3 -0.003044 -0.000964 0.007424 0.000828 -0.000529 -0.000034
# 4 0.007432 -0.006580 0.000828 0.043153 0.014412 0.013098
# 5 0.007422 0.002866 -0.000529 0.014412 0.031065 0.011740
# 6 0.000523 0.004487 -0.000034 0.013098 0.011740 0.030528
#
#
# Mechanical properties :
#
#
# Convention : Reuss Voigt Hill
#
# Bulk Modulus (GPa) = 44.79898 60.12976 52.46437
# Shear Modulus (GPa) = 28.93341 41.17324 35.05332
#
# Velocity S-wave (km/s) = 3.57227 4.26140 3.93196
# Velocity P-wave (km/s) = 6.06411 7.12271 6.61462
#
# Compressibility (1/GPa) = 0.02232194
#
# Stress axis : x y z
#
# Youngs Moduli (GPa) = 68.80933 51.23846 134.70493
#
# Poissons Ratio (x) = 0.28527 0.41007
# Poissons Ratio (y) = 0.38309 0.12985
# Poissons Ratio (z) = 0.20947 0.04939
#
# Static dielectric constant tensor:
#      x y z
#    x 1.854450 -0.023290 0.022830 
#    y -0.023290 1.897930 -0.058450 
#    z 0.022830 -0.058450 1.877020 
# 
# From -- ./inp_files/68615.got.cif
#   From: 2010.05.17/outbox.cif.g08.bks.cpg/sg2_35_cif.got.tgz:68615.got - 2010.06.03 11:33:40.
