data_PCOD9041317
_publ_section_title
;
Structure prediction by ZEFSAII (Michael W. Deem and Ramdas Pophale) SiO2 
 PCOD9041317
Probable space group: P -1
;
_chemical_formula_sum "Si O2"
_cell_formula_units_Z 12
_cell_length_a 9.690217
_cell_length_b 9.846413
_cell_length_c 8.863832
_cell_angle_alpha 97.360428
_cell_angle_beta 97.648982
_cell_angle_gamma 136.167584
_cell_volume 548.682308
_symmetry_space_group_name_H-M "P -1"
_symmetry_group_IT_number 2
_symmetry_cell_setting 'triclinic'
loop_
_space_group_symop_operation_xyz
x,y,z
-x,-y,-z
loop_
_atom_site_type_symbol
_atom_site_label
_atom_site_fract_x
_atom_site_fract_y
_atom_site_fract_z
Si Si1 0.410701 0.242768 0.780663
Si Si2 0.674977 0.837326 0.574705
Si Si3 0.947054 0.885791 0.129451
Si Si4 0.265394 0.588161 0.646758
Si Si5 0.849424 0.509092 0.035498
Si Si6 0.182003 0.831307 0.562260
O O1 0.717984 0.026343 0.552628
O O2 0.290086 0.258290 0.872646
O O3 0.271632 0.999815 0.726125
O O4 0.646236 0.381080 0.881698
O O5 0.489815 0.694372 0.647917
O O6 0.606516 0.719554 0.389758
O O7 0.892835 0.948112 0.692728
O O8 0.972744 0.743434 0.089906
O O9 0.000000 0.000000 0.000000
O O10 0.231408 0.577037 0.818589
O O11 0.247227 0.724754 0.588146
O O12 0.069822 0.355800 0.520778
O O13 0.000000 0.500000 0.000000
#
# Coordination Sequence:
#
# PCOD9041317 Si02
#       6
#     2   2   2   2   2   2
#     4  10  25  45  70 101 146 177 239 287 348 417
#     4  10  23  43  73 101 135 186 235 286 345 419
#     4  12  26  48  69 101 149 186 230 292 353 415
#     4  11  22  42  72 103 143 182 229 294 351 406
#     4  12  28  44  71 106 143 185 239 287 349 418
#     4   9  23  40  71 102 144 173 238 282 356 403
#
# _framework density 21.87058
#
# number of rings (size 3 to 8) (size 9 to 14) (size 15 to 20)
#    1.000    0.333    1.667    2.500    9.333    0.667 
#    0.000    2.500    0.000    0.000    0.000    0.000 
#    0.000    0.000    0.000    0.000    0.000    0.000 
#
# Total GULP energy -67061.192900 kJ/mol
# GULP energy per Si atom -5588.432742 kJ/mol
# Density = 2.182080 g / cm^3
# Si number density = 21.870580 Si / 1000 Ang^3
#
#
#
# Elastic Constant Matrix: (Units=GPa)
#
#
# Indices 1 2 3 4 5 6 
#
# 1 118.1372 29.6547 38.4849 -6.4265 0.0184 12.9722
# 2 29.6547 74.1015 27.8357 -14.8884 -8.6654 4.1170
# 3 38.4849 27.8357 114.3884 -12.5759 19.2864 0.9346
# 4 -6.4265 -14.8884 -12.5759 43.6291 7.1164 -6.3295
# 5 0.0184 -8.6654 19.2864 7.1164 37.6249 4.4906
# 6 12.9722 4.1170 0.9346 -6.3295 4.4906 25.3882
#
#
#
# Elastic Compliance Matrix: (Units=1/GPa)
#
#
# Indices 1 2 3 4 5 6 
#
# 1 0.010826 -0.002786 -0.003435 -0.001512 0.002080 -0.005698
# 2 -0.002786 0.017458 -0.003869 0.003321 0.005547 -0.001418
# 3 -0.003435 -0.003869 0.012690 0.003884 -0.008656 0.004414
# 4 -0.001512 0.003321 0.003884 0.027345 -0.007377 0.008213
# 5 0.002080 0.005547 -0.008656 -0.007377 0.034838 -0.009645
# 6 -0.005698 -0.001418 0.004414 0.008213 -0.009645 0.046121
#
#
# Mechanical properties :
#
#
# Convention : Reuss Voigt Hill
#
# Bulk Modulus (GPa) = 48.09240 55.39752 51.74496
# Shear Modulus (GPa) = 28.34628 35.37191 31.85910
#
# Velocity S-wave (km/s) = 3.60403 4.02597 3.82083
# Velocity P-wave (km/s) = 6.27344 6.85535 6.57084
#
# Compressibility (1/GPa) = 0.02079330
#
# Stress axis : x y z
#
# Youngs Moduli (GPa) = 92.36884 57.27928 78.80503
#
# Poissons Ratio (x) = 0.15960 0.27067
# Poissons Ratio (y) = 0.25737 0.30493
# Poissons Ratio (z) = 0.31725 0.22164
#
# Static dielectric constant tensor:
#      x y z
#    x 1.774490 -0.017990 -0.001710 
#    y -0.017990 1.802310 0.030480 
#    z -0.001710 0.030480 1.814200 
# 
# From -- ./inp_files/159303.got.cif
#   From: 2010.05.17/outbox.cif.g08.bks.cpg/sg2_80_cif.got.tgz:159303.got - 2010.06.03 11:33:40.
