data_PCOD9041643
_publ_section_title
;
Structure prediction by ZEFSAII (Michael W. Deem and Ramdas Pophale) SiO2 
 PCOD9041643
Probable space group: P -1
;
_chemical_formula_sum "Si O2"
_cell_formula_units_Z 14
_cell_length_a 11.801640
_cell_length_b 18.658159
_cell_length_c 5.938765
_cell_angle_alpha 96.329883
_cell_angle_beta 87.491565
_cell_angle_gamma 153.261803
_cell_volume 580.374180
_symmetry_space_group_name_H-M "P -1"
_symmetry_group_IT_number 2
_symmetry_cell_setting 'triclinic'
loop_
_space_group_symop_operation_xyz
x,y,z
-x,-y,-z
loop_
_atom_site_type_symbol
_atom_site_label
_atom_site_fract_x
_atom_site_fract_y
_atom_site_fract_z
Si Si1 0.362277 0.758997 0.483819
Si Si2 0.276974 0.426070 0.411574
Si Si3 0.902029 0.266306 0.776764
Si Si4 0.058831 0.847888 0.020000
Si Si5 0.162367 0.018022 0.712987
Si Si6 0.727687 0.762214 0.321596
Si Si7 0.018479 0.449871 0.170283
O O1 0.287760 0.784923 0.341946
O O2 0.239202 0.704328 0.716200
O O3 0.225045 0.606050 0.366261
O O4 0.657048 0.911087 0.474870
O O5 0.500000 0.500000 0.500000
O O6 0.096490 0.281368 0.206655
O O7 0.439166 0.580903 0.335374
O O8 0.106509 0.359564 0.604238
O O9 0.039366 0.388957 0.004977
O O10 0.795143 0.131447 0.847403
O O11 0.200413 0.991685 0.921871
O O12 0.856533 0.771227 0.174162
O O13 0.881035 0.856565 0.576652
O O14 0.234940 0.142312 0.782893
O O15 0.000000 0.500000 0.000000
#
# Coordination Sequence:
#
# PCOD9041643 Si02
#       7
#     2   2   2   2   2   2   2
#     4  10  23  44  66 101 141 180 225 281 342 407
#     4  12  24  44  72 101 136 177 234 289 333 404
#     4  11  24  41  70 104 135 178 234 281 339 402
#     4  12  24  45  68 103 138 180 232 279 344 408
#     4  11  26  45  68  99 145 179 222 287 343 413
#     4  11  26  45  68 103 136 183 230 282 346 404
#     4   9  21  40  66 101 134 175 229 277 335 404
#
# _framework density 24.12237
#
# number of rings (size 3 to 8) (size 9 to 14) (size 15 to 20)
#    0.000    1.143    2.857    1.714    8.000    2.857 
#    2.571    5.000    0.000    0.000    0.000    0.000 
#    0.000    0.000    0.000    0.000    0.000    0.000 
#
# Total GULP energy -78332.745613 kJ/mol
# GULP energy per Si atom -5595.196115 kJ/mol
# Density = 2.406747 g / cm^3
# Si number density = 24.122370 Si / 1000 Ang^3
#
#
#
# Elastic Constant Matrix: (Units=GPa)
#
#
# Indices 1 2 3 4 5 6 
#
# 1 138.3504 22.8116 23.4571 -2.9755 5.8071 -35.8103
# 2 22.8116 64.8455 13.7384 -9.8739 13.6112 -22.6057
# 3 23.4571 13.7384 86.2092 -5.6999 -18.2276 -12.9746
# 4 -2.9755 -9.8739 -5.6999 29.8669 -14.2231 9.3174
# 5 5.8071 13.6112 -18.2276 -14.2231 44.1452 -4.0355
# 6 -35.8103 -22.6057 -12.9746 9.3174 -4.0355 50.6700
#
#
#
# Elastic Compliance Matrix: (Units=1/GPa)
#
#
# Indices 1 2 3 4 5 6 
#
# 1 0.009301 -0.000645 -0.002162 -0.002638 -0.002215 0.006041
# 2 -0.000645 0.020350 -0.003386 0.000585 -0.006749 0.007111
# 3 -0.002162 -0.003386 0.015229 0.005974 0.009589 0.000527
# 4 -0.002638 0.000585 0.005974 0.044502 0.016335 -0.006956
# 5 -0.002215 -0.006749 0.009589 0.016335 0.034026 -0.002415
# 6 0.006041 0.007111 0.000527 -0.006956 -0.002415 0.028399
#
#
# Mechanical properties :
#
#
# Convention : Reuss Voigt Hill
#
# Bulk Modulus (GPa) = 30.77319 45.49104 38.13212
# Shear Modulus (GPa) = 28.56770 40.22963 34.39866
#
# Velocity S-wave (km/s) = 3.44507 4.08822 3.78035
# Velocity P-wave (km/s) = 5.34879 6.41748 5.90735
#
# Compressibility (1/GPa) = 0.03249581
#
# Stress axis : x y z
#
# Youngs Moduli (GPa) = 107.51986 49.13972 65.66382
#
# Poissons Ratio (x) = 0.03169 0.14193
# Poissons Ratio (y) = 0.06933 0.22231
# Poissons Ratio (z) = 0.23241 0.16637
#
# Static dielectric constant tensor:
#      x y z
#    x 1.964430 -0.037470 0.032710 
#    y -0.037470 1.925700 0.006740 
#    z 0.032710 0.006740 1.911360 
# 
# From -- ./inp_files/40262.got.cif
#   From: 2010.05.17/outbox.cif.g08.bks.cpg/sg2_21_cif.got.tgz:40262.got - 2010.06.03 11:33:40.
