data_PCOD9041784
_publ_section_title
;
Structure prediction by ZEFSAII (Michael W. Deem and Ramdas Pophale) SiO2 
 PCOD9041784
Probable space group: P -1
;
_chemical_formula_sum "Si O2"
_cell_formula_units_Z 16
_cell_length_a 22.811081
_cell_length_b 15.313060
_cell_length_c 5.070214
_cell_angle_alpha 124.828442
_cell_angle_beta 56.043122
_cell_angle_gamma 155.062966
_cell_volume 608.704883
_symmetry_space_group_name_H-M "P -1"
_symmetry_group_IT_number 2
_symmetry_cell_setting 'triclinic'
loop_
_space_group_symop_operation_xyz
x,y,z
-x,-y,-z
loop_
_atom_site_type_symbol
_atom_site_label
_atom_site_fract_x
_atom_site_fract_y
_atom_site_fract_z
Si Si1 0.344800 0.399323 0.471312
Si Si2 0.910038 0.945842 0.843367
Si Si3 0.603243 0.043904 0.934091
Si Si4 0.248213 0.434556 0.147854
Si Si5 0.549626 0.837398 0.216554
Si Si6 0.658179 0.805083 0.502398
Si Si7 0.117549 0.487256 0.753150
Si Si8 0.051076 0.767005 0.738441
O O1 0.237670 0.218524 0.212432
O O2 0.511617 0.613136 0.381182
O O3 0.320673 0.283845 0.575339
O O4 0.300017 0.461155 0.777474
O O5 0.869038 0.804425 0.911197
O O6 0.000000 0.000000 0.500000
O O7 0.981546 0.149763 0.082708
O O8 0.609302 0.966018 0.550932
O O9 0.758718 0.283831 0.034190
O O10 0.500000 0.000000 0.000000
O O11 0.543253 0.918547 0.140575
O O12 0.388994 0.595292 0.239434
O O13 0.197485 0.483459 0.452333
O O14 0.631990 0.848481 0.893535
O O15 0.788014 0.022803 0.393048
O O16 0.038971 0.419536 0.564859
O O17 0.999205 0.318292 0.984587
#
# Coordination Sequence:
#
# PCOD9041784 Si02
#       8
#     2   2   2   2   2   2   2   2
#     4  10  23  44  67 104 149 199 243 289 344 442
#     4  12  24  40  69 108 154 190 237 293 366 435
#     4  12  26  50  77 110 137 182 243 316 374 422
#     4  11  24  40  69 112 143 188 235 297 364 428
#     4  11  27  46  77 109 142 184 246 306 365 421
#     4  10  24  47  69 102 148 201 244 285 350 432
#     4  12  27  44  74 103 146 182 248 299 371 420
#     4  12  26  45  67 105 147 200 227 294 352 435
#
# _framework density 26.285315000000001
#
# number of rings (size 3 to 8) (size 9 to 14) (size 15 to 20)
#    0.000    0.750    3.750    2.625    5.250    3.500 
#    2.250    3.750    0.000    0.000    0.000    0.000 
#    0.000    0.000    0.000    0.000    0.000    0.000 
#
# Total GULP energy -89630.719436 kJ/mol
# GULP energy per Si atom -5601.919965 kJ/mol
# Density = 2.622549 g / cm^3
# Si number density = 26.285315 Si / 1000 Ang^3
#
#
#
# Elastic Constant Matrix: (Units=GPa)
#
#
# Indices 1 2 3 4 5 6 
#
# 1 72.3590 9.2064 19.4885 -6.6341 10.8876 4.8811
# 2 9.2064 140.7268 52.5354 5.7746 1.7429 12.6035
# 3 19.4885 52.5354 162.7561 8.2238 9.0474 13.3556
# 4 -6.6341 5.7746 8.2238 66.9121 5.9489 8.2779
# 5 10.8876 1.7429 9.0474 5.9489 36.5197 -0.1041
# 6 4.8811 12.6035 13.3556 8.2779 -0.1041 33.2075
#
#
#
# Elastic Compliance Matrix: (Units=1/GPa)
#
#
# Indices 1 2 3 4 5 6 
#
# 1 0.015299 -0.000319 -0.001417 0.002395 -0.004591 -0.002169
# 2 -0.000319 0.008232 -0.002460 -0.000219 0.000342 -0.002032
# 3 -0.001417 -0.002460 0.007339 -0.000515 -0.001199 -0.001685
# 4 0.002395 -0.000219 -0.000515 0.016053 -0.003203 -0.004074
# 5 -0.004591 0.000342 -0.001199 -0.003203 0.029559 0.001919
# 6 -0.002169 -0.002032 -0.001685 -0.004074 0.001919 0.032903
#
#
# Mechanical properties :
#
#
# Convention : Reuss Voigt Hill
#
# Bulk Modulus (GPa) = 44.48815 59.81136 52.14976
# Shear Modulus (GPa) = 39.91381 46.96862 43.44122
#
# Velocity S-wave (km/s) = 3.90100 4.23173 4.06973
# Velocity P-wave (km/s) = 6.10346 6.83234 6.47816
#
# Compressibility (1/GPa) = 0.02247790
#
# Stress axis : x y z
#
# Youngs Moduli (GPa) = 65.36425 121.47693 136.26110
#
# Poissons Ratio (x) = 0.03877 0.19304
# Poissons Ratio (y) = 0.02086 0.33522
# Poissons Ratio (z) = 0.09260 0.29885
#
# Static dielectric constant tensor:
#      x y z
#    x 2.216880 -0.005150 0.008030 
#    y -0.005150 2.089000 -0.035490 
#    z 0.008030 -0.035490 2.050560 
# 
# From -- ./inp_files/127526.got.cif
#   From: 2010.05.17/outbox.cif.g08.bks.cpg/sg2_64_cif.got.tgz:127526.got - 2010.06.03 11:33:40.
