data_PCOD9041756
_publ_section_title
;
Structure prediction by ZEFSAII (Michael W. Deem and Ramdas Pophale) SiO2 
 PCOD9041756
Probable space group: P -1
;
_chemical_formula_sum "Si O2"
_cell_formula_units_Z 15
_cell_length_a 14.879157
_cell_length_b 21.299562
_cell_length_c 11.648971
_cell_angle_alpha 32.149909
_cell_angle_beta 147.936847
_cell_angle_gamma 160.894967
_cell_volume 618.683380
_symmetry_space_group_name_H-M "P -1"
_symmetry_group_IT_number 2
_symmetry_cell_setting 'triclinic'
loop_
_space_group_symop_operation_xyz
x,y,z
-x,-y,-z
loop_
_atom_site_type_symbol
_atom_site_label
_atom_site_fract_x
_atom_site_fract_y
_atom_site_fract_z
Si Si1 0.297475 0.482501 0.368437
Si Si2 0.938016 0.553631 0.456924
Si Si3 0.500000 0.500000 0.000000
Si Si4 0.793299 0.055180 0.483540
Si Si5 0.232537 0.605529 0.902118
Si Si6 0.690140 0.792644 0.936537
Si Si7 0.357420 0.983372 0.161718
Si Si8 0.857940 0.918657 0.350354
O O1 0.500000 0.500000 0.500000
O O2 0.528783 0.692956 0.355286
O O3 0.045554 0.271314 0.484404
O O4 0.145234 0.477341 0.114391
O O5 0.000000 0.500000 0.500000
O O6 0.993643 0.517826 0.692352
O O7 0.165890 0.787494 0.329953
O O8 0.638449 0.451046 0.272936
O O9 0.659755 0.662671 0.025374
O O10 0.961470 0.069525 0.552027
O O11 0.633501 0.879372 0.668780
O O12 0.557584 0.015480 0.247241
O O13 0.452855 0.650098 0.998261
O O14 0.432129 0.821390 0.834122
O O15 0.000000 0.000000 0.000000
O O16 0.154359 0.959952 0.910232
O O17 0.000000 0.000000 0.500000
#
# Coordination Sequence:
#
# PCOD9041756 Si02
#       8
#     2   2   1   2   2   2   2   2
#     4   9  21  44  69 101 136 185 239 295 348 440
#     4  12  24  44  65 106 142 181 239 304 357 429
#     4  12  26  44  72 108 148 188 242 300 362 432
#     4  11  23  45  68 102 138 182 243 293 355 432
#     4  11  23  44  72 101 141 191 237 291 363 435
#     4  12  24  45  73 109 143 190 241 294 364 434
#     4  11  24  44  72  98 141 185 240 298 358 431
#     4  10  23  44  67 100 142 187 238 295 364 430
#
# _framework density 24.245035999999999
#
# number of rings (size 3 to 8) (size 9 to 14) (size 15 to 20)
#    0.000    1.067    2.667    4.400    1.867    4.800 
#    9.600    4.000    0.000    0.000    0.000    0.000 
#    0.000    0.000    0.000    0.000    0.000    0.000 
#
# Total GULP energy -83676.260025 kJ/mol
# GULP energy per Si atom -5578.417335 kJ/mol
# Density = 2.418985 g / cm^3
# Si number density = 24.245036 Si / 1000 Ang^3
#
#
#
# Elastic Constant Matrix: (Units=GPa)
#
#
# Indices 1 2 3 4 5 6 
#
# 1 73.8002 23.7210 59.6370 16.5580 16.9072 -10.6904
# 2 23.7210 49.7996 39.2144 2.1927 -6.3929 -12.4447
# 3 59.6370 39.2144 149.4487 34.7832 14.7839 -25.0093
# 4 16.5580 2.1927 34.7832 58.6584 4.4569 -1.6314
# 5 16.9072 -6.3929 14.7839 4.4569 36.0390 8.8783
# 6 -10.6904 -12.4447 -25.0093 -1.6314 8.8783 37.8790
#
#
#
# Elastic Compliance Matrix: (Units=1/GPa)
#
#
# Indices 1 2 3 4 5 6 
#
# 1 0.023769 -0.007608 -0.005360 -0.002342 -0.010774 0.003094
# 2 -0.007608 0.030642 -0.006951 0.004306 0.011098 0.000914
# 3 -0.005360 -0.006951 0.013484 -0.005672 -0.005037 0.006042
# 4 -0.002342 0.004306 -0.005672 0.020665 0.002283 -0.002636
# 5 -0.010774 0.011098 -0.005037 0.002283 0.039480 -0.011875
# 6 0.003094 0.000914 0.006042 -0.002636 -0.011875 0.034233
#
#
# Mechanical properties :
#
#
# Convention : Reuss Voigt Hill
#
# Bulk Modulus (GPa) = 35.64330 57.57703 46.61017
# Shear Modulus (GPa) = 23.64490 36.54703 30.09597
#
# Velocity S-wave (km/s) = 3.12628 3.88674 3.52707
# Velocity P-wave (km/s) = 5.26922 6.62887 5.98776
#
# Compressibility (1/GPa) = 0.02805576
#
# Stress axis : x y z
#
# Youngs Moduli (GPa) = 42.07226 32.63507 74.16425
#
# Poissons Ratio (x) = 0.24828 0.39750
# Poissons Ratio (y) = 0.32008 0.51555
# Poissons Ratio (z) = 0.22550 0.22686
#
# Static dielectric constant tensor:
#      x y z
#    x 1.966740 0.044140 0.031590 
#    y 0.044140 1.950650 0.024510 
#    z 0.031590 0.024510 1.996270 
# 
# From -- ./inp_files/457675.got.cif
#   From: 2010.05.17/outbox.cif.g08.bks.cpg/sg2_229_cif.got.tgz:457675.got - 2010.06.03 11:33:40.
