data_PCOD9041921
_publ_section_title
;
Structure prediction by ZEFSAII (Michael W. Deem and Ramdas Pophale) SiO2 
 PCOD9041921
Probable space group: P -1
;
_chemical_formula_sum "Si O2"
_cell_formula_units_Z 11
_cell_length_a 7.651310
_cell_length_b 12.047472
_cell_length_c 5.190550
_cell_angle_alpha 114.262116
_cell_angle_beta 69.618503
_cell_angle_gamma 107.788665
_cell_volume 401.440427
_symmetry_space_group_name_H-M "P -1"
_symmetry_group_IT_number 2
_symmetry_cell_setting 'triclinic'
loop_
_space_group_symop_operation_xyz
x,y,z
-x,-y,-z
loop_
_atom_site_type_symbol
_atom_site_label
_atom_site_fract_x
_atom_site_fract_y
_atom_site_fract_z
Si Si1 0.692935 0.946342 0.796563
Si Si2 0.301869 0.289328 0.763957
Si Si3 0.066026 0.706007 0.738902
Si Si4 0.500000 0.500000 0.000000
Si Si5 0.275189 0.952418 0.624836
Si Si6 0.789030 0.516445 0.377924
O O1 0.670412 0.809783 0.557005
O O2 0.806205 0.034888 0.604379
O O3 0.500000 0.000000 0.000000
O O4 0.780431 0.955584 0.043149
O O5 0.297900 0.430990 0.783932
O O6 0.483686 0.340260 0.889138
O O7 0.105824 0.254148 0.978114
O O8 0.211602 0.819795 0.657571
O O9 0.153830 0.615924 0.797143
O O10 0.968366 0.619893 0.471473
O O11 0.347626 0.493643 0.318118
O O12 0.500000 0.000000 0.500000
#
# Coordination Sequence:
#
# PCOD9041921 Si02
#       6
#     2   2   2   1   2   2
#     4  10  25  44  71 101 143 189 238 293 352 422
#     4  11  24  44  70 104 144 184 242 296 363 429
#     4  10  24  43  70 100 146 182 242 294 361 427
#     4  10  24  40  68 104 134 188 234 300 356 426
#     4  10  24  46  69 102 136 195 238 290 351 425
#     4  10  23  44  68 105 136 188 232 303 364 419
#
# _framework density 27.401325
#
# number of rings (size 3 to 8) (size 9 to 14) (size 15 to 20)
#    0.000    1.818    0.000    1.091   12.727    2.909 
#    0.000    0.000    0.000    0.000    0.000    0.000 
#    0.000    0.000    0.000    0.000    0.000    0.000 
#
# Total GULP energy -61390.322617 kJ/mol
# GULP energy per Si atom -5580.938420 kJ/mol
# Density = 2.733896 g / cm^3
# Si number density = 27.401325 Si / 1000 Ang^3
#
#
#
# Elastic Constant Matrix: (Units=GPa)
#
#
# Indices 1 2 3 4 5 6 
#
# 1 100.7824 72.3595 34.0319 -9.9067 -6.9404 -5.7502
# 2 72.3595 208.5117 87.1208 8.6813 -29.3960 15.4929
# 3 34.0319 87.1208 208.5098 -10.5395 1.4199 -10.2174
# 4 -9.9067 8.6813 -10.5395 47.3532 -5.8004 -0.5079
# 5 -6.9404 -29.3960 1.4199 -5.8004 24.3341 0.6145
# 6 -5.7502 15.4929 -10.2174 -0.5079 0.6145 52.9478
#
#
#
# Elastic Compliance Matrix: (Units=1/GPa)
#
#
# Indices 1 2 3 4 5 6 
#
# 1 0.014484 -0.005995 0.000530 0.004006 -0.002275 0.003494
# 2 -0.005995 0.010409 -0.003807 -0.002768 0.010542 -0.004580
# 3 0.000530 -0.003807 0.006541 0.001743 -0.004477 0.002502
# 4 0.004006 -0.002768 0.001743 0.023262 0.003198 0.001767
# 5 -0.002275 0.010542 -0.004477 0.003198 0.054325 -0.004795
# 6 0.003494 -0.004580 0.002502 0.001767 -0.004795 0.021162
#
#
# Mechanical properties :
#
#
# Convention : Reuss Voigt Hill
#
# Bulk Modulus (GPa) = 77.57546 100.53647 89.05596
# Shear Modulus (GPa) = 32.67487 46.54647 39.61067
#
# Velocity S-wave (km/s) = 3.45694 4.12599 3.80620
# Velocity P-wave (km/s) = 6.65629 7.71158 7.20329
#
# Compressibility (1/GPa) = 0.01289067
#
# Stress axis : x y z
#
# Youngs Moduli (GPa) = 69.04065 96.07436 152.87881
#
# Poissons Ratio (x) = 0.57598 -0.08104
# Poissons Ratio (y) = 0.41391 0.58195
# Poissons Ratio (z) = -0.03660 0.36572
#
# Static dielectric constant tensor:
#      x y z
#    x 1.130970 -0.048750 -0.174110 
#    y -0.048750 2.230480 0.098110 
#    z -0.174110 0.098110 2.104520 
# 
# From -- ./inp_files/17545.got.cif
#   From: 2010.05.17/outbox.cif.g08.bks.cpg/sg2_9_cif.got.tgz:17545.got - 2010.06.03 11:33:40.
