data_PCOD9041593
_publ_section_title
;
Structure prediction by ZEFSAII (Michael W. Deem and Ramdas Pophale) SiO2 
 PCOD9041593
Probable space group: P -1
;
_chemical_formula_sum "Si O2"
_cell_formula_units_Z 14
_cell_length_a 18.002074
_cell_length_b 6.531895
_cell_length_c 8.384589
_cell_angle_alpha 109.316112
_cell_angle_beta 39.731911
_cell_angle_gamma 113.869238
_cell_volume 575.975346
_symmetry_space_group_name_H-M "P -1"
_symmetry_group_IT_number 2
_symmetry_cell_setting 'triclinic'
loop_
_space_group_symop_operation_xyz
x,y,z
-x,-y,-z
loop_
_atom_site_type_symbol
_atom_site_label
_atom_site_fract_x
_atom_site_fract_y
_atom_site_fract_z
Si Si1 0.817929 0.609555 0.918122
Si Si2 0.480522 0.126181 0.808517
Si Si3 0.916544 0.386421 0.962830
Si Si4 0.748166 0.153228 0.738923
Si Si5 0.109723 0.176221 0.487192
Si Si6 0.730915 0.388096 0.508551
Si Si7 0.589118 0.743274 0.388580
O O1 0.915101 0.557678 0.865639
O O2 0.745451 0.364364 0.909906
O O3 0.867228 0.738790 0.709373
O O4 0.724071 0.723729 0.189484
O O5 0.588011 0.335878 0.731946
O O6 0.419591 0.186952 0.763800
O O7 0.545785 0.928324 0.609468
O O8 0.376822 0.030909 0.081044
O O9 0.977366 0.192642 0.758143
O O10 0.782753 0.324190 0.239300
O O11 0.000000 0.500000 0.000000
O O12 0.766341 0.239286 0.551852
O O13 0.855095 0.051925 0.596124
O O14 0.202633 0.359589 0.489633
O O15 0.500000 0.500000 0.500000
#
# Coordination Sequence:
#
# PCOD9041593 Si02
#       7
#     2   2   2   2   2   2   2
#     4  11  22  42  67  93 128 164 214 264 317 377
#     4  11  23  39  63  99 131 164 212 253 316 386
#     4  10  23  44  66  92 124 167 219 264 318 370
#     4  11  23  41  63  98 130 168 211 251 323 384
#     4  10  23  44  65  92 128 172 213 264 314 368
#     4  10  24  41  63  94 133 167 212 263 311 373
#     4  11  22  38  64  94 129 166 206 259 314 375
#
# _framework density 24.306594
#
# number of rings (size 3 to 8) (size 9 to 14) (size 15 to 20)
#    0.000    1.429    2.857    1.714    2.000    5.143 
#    0.000    2.857    0.000    0.000    0.000    0.000 
#    0.000    0.000    0.000    0.000    0.000    0.000 
#
# Total GULP energy -78438.603639 kJ/mol
# GULP energy per Si atom -5602.757403 kJ/mol
# Density = 2.425127 g / cm^3
# Si number density = 24.306594 Si / 1000 Ang^3
#
#
#
# Elastic Constant Matrix: (Units=GPa)
#
#
# Indices 1 2 3 4 5 6 
#
# 1 78.5713 6.4095 4.1016 10.4495 -9.5131 -5.4137
# 2 6.4095 68.0770 27.7539 11.5324 -6.2622 -0.3976
# 3 4.1016 27.7539 99.1763 9.7398 -5.4706 -11.5813
# 4 10.4495 11.5324 9.7398 29.0593 -12.1048 -14.4511
# 5 -9.5131 -6.2622 -5.4706 -12.1048 28.7934 -7.0195
# 6 -5.4137 -0.3976 -11.5813 -14.4511 -7.0195 43.9384
#
#
#
# Elastic Compliance Matrix: (Units=1/GPa)
#
#
# Indices 1 2 3 4 5 6 
#
# 1 0.013650 -0.000619 0.000234 -0.002383 0.003799 0.001561
# 2 -0.000619 0.017858 -0.004748 -0.007899 -0.001520 -0.004007
# 3 0.000234 -0.004748 0.011910 0.000744 0.002541 0.003776
# 4 -0.002383 -0.007899 0.000744 0.063709 0.030682 0.025686
# 5 0.003799 -0.001520 0.002541 0.030682 0.053868 0.019821
# 6 0.001561 -0.004007 0.003776 0.025686 0.019821 0.035525
#
#
# Mechanical properties :
#
#
# Convention : Reuss Voigt Hill
#
# Bulk Modulus (GPa) = 30.16230 35.81719 32.98975
# Shear Modulus (GPa) = 22.95307 34.19552 28.57430
#
# Velocity S-wave (km/s) = 3.07630 3.75486 3.43239
# Velocity P-wave (km/s) = 5.00542 5.79363 5.41389
#
# Compressibility (1/GPa) = 0.03315397
#
# Stress axis : x y z
#
# Youngs Moduli (GPa) = 73.26063 55.99724 83.96289
#
# Poissons Ratio (x) = 0.03464 -0.01968
# Poissons Ratio (y) = 0.04531 0.39865
# Poissons Ratio (z) = -0.01717 0.26587
#
# Static dielectric constant tensor:
#      x y z
#    x 1.931080 0.049450 -0.015650 
#    y 0.049450 1.924530 -0.013020 
#    z -0.015650 -0.013020 1.940010 
# 
# From -- ./inp_files/37030.got.cif
#   From: 2010.05.17/outbox.cif.g08.bks.cpg/sg2_19_cif.got.tgz:37030.got - 2010.06.03 11:33:40.
