data_PCOD9041115
_publ_section_title
;
Structure prediction by ZEFSAII (Michael W. Deem and Ramdas Pophale) SiO2 
 PCOD9041115
Probable space group: P -1
;
_chemical_formula_sum "Si O2"
_cell_formula_units_Z 14
_cell_length_a 10.953299
_cell_length_b 8.301831
_cell_length_c 8.393746
_cell_angle_alpha 57.106998
_cell_angle_beta 121.656819
_cell_angle_gamma 109.654962
_cell_volume 544.131377
_symmetry_space_group_name_H-M "P -1"
_symmetry_group_IT_number 2
_symmetry_cell_setting 'triclinic'
loop_
_space_group_symop_operation_xyz
x,y,z
-x,-y,-z
loop_
_atom_site_type_symbol
_atom_site_label
_atom_site_fract_x
_atom_site_fract_y
_atom_site_fract_z
Si Si1 0.641814 0.337536 0.769197
Si Si2 0.925637 0.770977 0.475732
Si Si3 0.631471 0.393529 0.078301
Si Si4 0.962353 0.275137 0.076503
Si Si5 0.236986 0.605260 0.492234
Si Si6 0.354568 0.065777 0.686650
Si Si7 0.842204 0.001890 0.704079
O O1 0.651747 0.444979 0.546553
O O2 0.504383 0.186679 0.750156
O O3 0.649237 0.462631 0.870420
O O4 0.795654 0.245489 0.941645
O O5 0.896703 0.542129 0.560730
O O6 0.769820 0.860745 0.322039
O O7 0.001736 0.803962 0.681071
O O8 0.032378 0.861616 0.369474
O O9 0.737014 0.424315 0.285750
O O10 0.619646 0.161519 0.170524
O O11 0.500000 0.500000 0.000000
O O12 0.067049 0.172379 0.081609
O O13 0.000000 0.500000 0.000000
O O14 0.233983 0.834551 0.343779
O O15 0.278736 0.088804 0.450641
#
# Coordination Sequence:
#
# PCOD9041115 Si02
#       7
#     2   2   2   2   2   2   2
#     4  12  25  46  72 101 147 177 237 296 355 412
#     4  11  21  45  73  98 145 192 232 287 356 426
#     4  11  25  44  67 105 142 182 237 289 350 426
#     4  11  22  43  66 108 142 184 235 293 348 420
#     4  11  25  45  71 108 137 190 237 289 359 418
#     4  10  23  44  71 100 139 191 232 284 365 417
#     4  10  23  43  71 100 146 188 239 285 351 429
#
# _framework density 25.729081000000001
#
# number of rings (size 3 to 8) (size 9 to 14) (size 15 to 20)
#    0.000    1.143    1.429    6.000    0.000    6.286 
#    2.571    0.000    0.000    0.000    0.000    0.000 
#    0.000    0.000    0.000    0.000    0.000    0.000 
#
# Total GULP energy -78169.956437 kJ/mol
# GULP energy per Si atom -5583.568317 kJ/mol
# Density = 2.567052 g / cm^3
# Si number density = 25.729081 Si / 1000 Ang^3
#
#
#
# Elastic Constant Matrix: (Units=GPa)
#
#
# Indices 1 2 3 4 5 6 
#
# 1 87.1413 33.7328 46.5816 27.5601 13.2557 -0.0994
# 2 33.7328 92.0755 54.1124 23.0911 5.1281 -4.0903
# 3 46.5816 54.1124 95.1540 19.6492 11.0315 1.8286
# 4 27.5601 23.0911 19.6492 58.9622 -11.0378 8.4748
# 5 13.2557 5.1281 11.0315 -11.0378 60.7945 4.5901
# 6 -0.0994 -4.0903 1.8286 8.4748 4.5901 55.5840
#
#
#
# Elastic Compliance Matrix: (Units=1/GPa)
#
#
# Indices 1 2 3 4 5 6 
#
# 1 0.018094 -0.000723 -0.006562 -0.006981 -0.004081 0.001596
# 2 -0.000723 0.017352 -0.008655 -0.004011 -0.000632 0.002224
# 3 -0.006562 -0.008655 0.018763 0.000166 -0.001123 -0.001198
# 4 -0.006981 -0.004011 0.000166 0.023584 0.006447 -0.004441
# 5 -0.004081 -0.000632 -0.001123 0.006447 0.018960 -0.002566
# 6 0.001596 0.002224 -0.001198 -0.004441 -0.002566 0.019086
#
#
# Mechanical properties :
#
#
# Convention : Reuss Voigt Hill
#
# Bulk Modulus (GPa) = 44.78806 60.35828 52.57317
# Shear Modulus (GPa) = 32.22440 44.39773 38.31107
#
# Velocity S-wave (km/s) = 3.54284 4.15852 3.86297
# Velocity P-wave (km/s) = 5.84645 6.82406 6.35409
#
# Compressibility (1/GPa) = 0.02232738
#
# Stress axis : x y z
#
# Youngs Moduli (GPa) = 55.26680 57.63027 53.29754
#
# Poissons Ratio (x) = 0.04169 0.34976
# Poissons Ratio (y) = 0.03998 0.46128
# Poissons Ratio (z) = 0.36268 0.49878
#
# Static dielectric constant tensor:
#      x y z
#    x 2.099070 -0.081700 -0.032650 
#    y -0.081700 1.990870 -0.056470 
#    z -0.032650 -0.056470 2.226950 
# 
# From -- ./inp_files/242699.got.cif
#   From: 2010.05.17/outbox.cif.g08.bks.cpg/sg2_122_cif.got.tgz:242699.got - 2010.06.03 11:33:40.
