data_PCOD9041675
_publ_section_title
;
Structure prediction by ZEFSAII (Michael W. Deem and Ramdas Pophale) SiO2 
 PCOD9041675
Probable space group: P -1
;
_chemical_formula_sum "Si O2"
_cell_formula_units_Z 16
_cell_length_a 8.620865
_cell_length_b 10.519391
_cell_length_c 9.466567
_cell_angle_alpha 101.032678
_cell_angle_beta 62.057642
_cell_angle_gamma 117.142902
_cell_volume 674.608406
_symmetry_space_group_name_H-M "P -1"
_symmetry_group_IT_number 2
_symmetry_cell_setting 'triclinic'
loop_
_space_group_symop_operation_xyz
x,y,z
-x,-y,-z
loop_
_atom_site_type_symbol
_atom_site_label
_atom_site_fract_x
_atom_site_fract_y
_atom_site_fract_z
Si Si1 0.873987 0.542293 0.757794
Si Si2 0.680574 0.734166 0.809228
Si Si3 0.179971 0.888148 0.904267
Si Si4 0.709676 0.315945 0.532179
Si Si5 0.251727 0.704648 0.037271
Si Si6 0.350638 0.207406 0.459339
Si Si7 0.042290 0.021222 0.767939
Si Si8 0.391262 0.932296 0.257444
O O1 0.762515 0.642458 0.848265
O O2 0.751643 0.430703 0.663999
O O3 0.874948 0.446106 0.869562
O O4 0.087855 0.633037 0.625615
O O5 0.674278 0.699072 0.637201
O O6 0.839587 0.896858 0.783693
O O7 0.467745 0.713475 0.938425
O O8 0.157041 0.933992 0.765603
O O9 0.389484 0.012118 0.880448
O O10 0.191707 0.744120 0.920129
O O11 0.002967 0.893969 0.068323
O O12 0.534250 0.294192 0.497669
O O13 0.649312 0.167386 0.609601
O O14 0.258264 0.829987 0.169074
O O15 0.379103 0.076292 0.343934
O O16 0.161480 0.128750 0.618964
#
# Coordination Sequence:
#
# PCOD9041675 Si02
#       8
#     2   2   2   2   2   2   2   2
#     4  10  25  43  65  92 129 177 226 265 307 380
#     4  12  24  41  64  96 134 173 221 267 317 383
#     4  11  22  41  67  98 133 170 205 267 340 387
#     4  10  23  44  66  92 127 173 220 268 325 384
#     4  11  23  44  66  92 134 179 214 260 327 391
#     4  12  24  39  69  99 131 168 211 274 335 384
#     4  11  25  40  64 108 134 159 214 276 331 388
#     4  11  20  39  70  94 128 167 207 267 334 386
#
# _framework density 23.717462999999999
#
# number of rings (size 3 to 8) (size 9 to 14) (size 15 to 20)
#    0.000    1.000    3.750    3.000    1.750    3.500 
#    0.000    3.750    0.000    0.000    0.000    0.000 
#    0.000    0.000    0.000    0.000    0.000    0.000 
#
# Total GULP energy -89506.206882 kJ/mol
# GULP energy per Si atom -5594.137930 kJ/mol
# Density = 2.366348 g / cm^3
# Si number density = 23.717463 Si / 1000 Ang^3
#
#
#
# Elastic Constant Matrix: (Units=GPa)
#
#
# Indices 1 2 3 4 5 6 
#
# 1 56.5401 28.1236 8.8886 -17.5947 2.6635 -11.1465
# 2 28.1236 93.2592 24.6438 -21.8527 -2.5954 2.1584
# 3 8.8886 24.6438 94.4108 -26.1063 -6.9178 -6.1551
# 4 -17.5947 -21.8527 -26.1063 39.4748 -5.2632 12.1473
# 5 2.6635 -2.5954 -6.9178 -5.2632 40.4179 -3.8690
# 6 -11.1465 2.1584 -6.1551 12.1473 -3.8690 30.6378
#
#
#
# Elastic Compliance Matrix: (Units=1/GPa)
#
#
# Indices 1 2 3 4 5 6 
#
# 1 0.023862 -0.006384 0.001482 0.005869 -0.000288 0.007065
# 2 -0.006384 0.014742 -0.001858 0.006101 0.001270 -0.005993
# 3 0.001482 -0.001858 0.013704 0.009062 0.003333 0.000251
# 4 0.005869 0.006101 0.009062 0.041896 0.005830 -0.012349
# 5 -0.000288 0.001270 0.003333 0.005830 0.026314 0.001487
# 6 0.007065 -0.005993 0.000251 -0.012349 0.001487 0.040766
#
#
# Mechanical properties :
#
#
# Convention : Reuss Voigt Hill
#
# Bulk Modulus (GPa) = 25.78022 40.83581 33.30801
# Shear Modulus (GPa) = 26.63355 34.27636 30.45496
#
# Velocity S-wave (km/s) = 3.35468 3.80570 3.58728
# Velocity P-wave (km/s) = 5.08906 6.04699 5.58859
#
# Compressibility (1/GPa) = 0.03878943
#
# Stress axis : x y z
#
# Youngs Moduli (GPa) = 41.90787 67.83153 72.97232
#
# Poissons Ratio (x) = 0.43302 -0.10817
# Poissons Ratio (y) = 0.26753 0.13557
# Poissons Ratio (z) = -0.06212 0.12602
#
# Static dielectric constant tensor:
#      x y z
#    x 1.930820 -0.010880 0.045170 
#    y -0.010880 1.894750 0.051750 
#    z 0.045170 0.051750 1.903430 
# 
# From -- ./inp_files/188323.got.cif
#   From: 2010.05.17/outbox.cif.g08.bks.cpg/sg2_95_cif.got.tgz:188323.got - 2010.06.03 11:33:40.
