data_PCOD9041200
_publ_section_title
;
Structure prediction by ZEFSAII (Michael W. Deem and Ramdas Pophale) SiO2 
 PCOD9041200
Probable space group: P -1
;
_chemical_formula_sum "Si O2"
_cell_formula_units_Z 16
_cell_length_a 19.930063
_cell_length_b 11.904502
_cell_length_c 17.480097
_cell_angle_alpha 146.554580
_cell_angle_beta 159.814154
_cell_angle_gamma 44.359079
_cell_volume 736.292752
_symmetry_space_group_name_H-M "P -1"
_symmetry_group_IT_number 2
_symmetry_cell_setting 'triclinic'
loop_
_space_group_symop_operation_xyz
x,y,z
-x,-y,-z
loop_
_atom_site_type_symbol
_atom_site_label
_atom_site_fract_x
_atom_site_fract_y
_atom_site_fract_z
Si Si1 0.608048 0.754907 0.907635
Si Si2 0.555211 0.170814 0.065544
Si Si3 0.803406 0.767166 0.344296
Si Si4 0.724447 0.660520 0.363464
Si Si5 0.984747 0.499790 0.676574
Si Si6 0.042790 0.259401 0.830001
Si Si7 0.807106 0.602096 0.766040
Si Si8 0.091959 0.906958 0.117131
O O1 0.582997 0.842071 0.014043
O O2 0.431415 0.519172 0.580339
O O3 0.824193 0.749287 0.106826
O O4 0.555191 0.937613 0.905148
O O5 0.793906 0.325399 0.420051
O O6 0.442544 0.280477 0.949755
O O7 0.858595 0.733227 0.470478
O O8 0.875973 0.618147 0.280957
O O9 0.901633 0.016563 0.564668
O O10 0.859781 0.574342 0.518114
O O11 0.725532 0.886199 0.533191
O O12 0.500000 0.500000 0.000000
O O13 0.120966 0.698599 0.989120
O O14 0.918956 0.422507 0.779781
O O15 0.185658 0.336996 0.102418
O O16 0.928633 0.796201 0.948115
O O17 0.000000 0.000000 0.000000
#
# Coordination Sequence:
#
# PCOD9041200 Si02
#       8
#     2   2   2   2   2   2   2   2
#     4  11  23  39  60  96 131 171 218 270 330 395
#     4  11  23  37  64  95 130 171 221 274 325 398
#     4  12  23  41  68  99 131 175 227 268 339 399
#     4  11  23  44  72  97 130 175 226 281 330 396
#     4  11  23  43  69  96 134 179 221 277 334 394
#     4  11  24  38  66  96 132 174 219 271 335 400
#     4  11  22  42  64  93 133 173 219 275 331 396
#     4  10  23  43  71  94 133 177 216 277 339 385
#
# _framework density 21.730485000000002
#
# number of rings (size 3 to 8) (size 9 to 14) (size 15 to 20)
#    0.000    1.000    6.250    0.750    1.750    0.500 
#    0.000    0.625    2.750    0.000    0.000    0.000 
#    0.000    0.000    0.000    0.000    0.000    0.000 
#
# Total GULP energy -89257.001017 kJ/mol
# GULP energy per Si atom -5578.562564 kJ/mol
# Density = 2.168103 g / cm^3
# Si number density = 21.730485 Si / 1000 Ang^3
#
#
#
# Elastic Constant Matrix: (Units=GPa)
#
#
# Indices 1 2 3 4 5 6 
#
# 1 85.3617 19.5006 16.2264 11.2597 -5.1440 4.9354
# 2 19.5006 63.4108 20.4225 13.5570 7.8747 -8.4816
# 3 16.2264 20.4225 108.0193 20.2111 -7.3286 -10.0394
# 4 11.2597 13.5570 20.2111 25.3992 -5.2357 -5.9571
# 5 -5.1440 7.8747 -7.3286 -5.2357 24.4755 8.2564
# 6 4.9354 -8.4816 -10.0394 -5.9571 8.2564 37.2417
#
#
#
# Elastic Compliance Matrix: (Units=1/GPa)
#
#
# Indices 1 2 3 4 5 6 
#
# 1 0.013912 -0.004639 -0.000710 -0.003181 0.005121 -0.004736
# 2 -0.004639 0.022350 -0.002046 -0.009391 -0.012991 0.006531
# 3 -0.000710 -0.002046 0.011282 -0.006889 0.002037 0.001116
# 4 -0.003181 -0.009391 -0.006889 0.054162 0.010981 0.002655
# 5 0.005121 -0.012991 0.002037 0.010981 0.053524 -0.013198
# 6 -0.004736 0.006531 0.001116 0.002655 -0.013198 0.032618
#
#
# Mechanical properties :
#
#
# Convention : Reuss Voigt Hill
#
# Bulk Modulus (GPa) = 30.53061 41.01009 35.77035
# Shear Modulus (GPa) = 23.41309 30.79942 27.10626
#
# Velocity S-wave (km/s) = 3.28598 3.76884 3.53566
# Velocity P-wave (km/s) = 5.33639 6.15240 5.75887
#
# Compressibility (1/GPa) = 0.03275401
#
# Stress axis : x y z
#
# Youngs Moduli (GPa) = 71.88277 44.74217 88.63669
#
# Poissons Ratio (x) = 0.20754 0.06296
# Poissons Ratio (y) = 0.33344 0.18135
# Poissons Ratio (z) = 0.05106 0.09154
#
# Static dielectric constant tensor:
#      x y z
#    x 1.820630 0.085550 -0.012480 
#    y 0.085550 1.865420 0.001580 
#    z -0.012480 0.001580 1.830090 
# 
# From -- ./inp_files/124229.got.cif
#   From: 2010.05.17/outbox.cif.g08.bks.cpg/sg2_63_cif.got.tgz:124229.got - 2010.06.03 11:33:40.
