data_PCOD9041380
_publ_section_title
;
Structure prediction by ZEFSAII (Michael W. Deem and Ramdas Pophale) SiO2 
 PCOD9041380
Probable space group: P -1
;
_chemical_formula_sum "Si O2"
_cell_formula_units_Z 14
_cell_length_a 8.652103
_cell_length_b 8.598363
_cell_length_c 11.849073
_cell_angle_alpha 83.730827
_cell_angle_beta 52.180789
_cell_angle_gamma 63.703286
_cell_volume 607.631412
_symmetry_space_group_name_H-M "P -1"
_symmetry_group_IT_number 2
_symmetry_cell_setting 'triclinic'
loop_
_space_group_symop_operation_xyz
x,y,z
-x,-y,-z
loop_
_atom_site_type_symbol
_atom_site_label
_atom_site_fract_x
_atom_site_fract_y
_atom_site_fract_z
Si Si1 0.122204 0.428179 0.315749
Si Si2 0.241759 0.331265 0.884157
Si Si3 0.478162 0.199164 0.997022
Si Si4 0.115564 0.038276 0.048773
Si Si5 0.166575 0.893084 0.612743
Si Si6 0.377364 0.377165 0.570345
Si Si7 0.945644 0.250688 0.552250
O O1 0.263456 0.335557 0.150888
O O2 0.189041 0.561674 0.338130
O O3 0.858337 0.536705 0.395103
O O4 0.144931 0.272482 0.401670
O O5 0.315905 0.350385 0.726179
O O6 0.444224 0.289632 0.883659
O O7 0.206028 0.162966 0.943219
O O8 0.000000 0.500000 0.000000
O O9 0.500000 0.000000 0.000000
O O10 0.697226 0.152103 0.972946
O O11 0.964297 0.131112 0.220227
O O12 0.000000 0.000000 0.000000
O O13 0.422140 0.813348 0.541994
O O14 0.158687 0.799155 0.504846
O O15 0.040832 0.097413 0.614808
O O16 0.500000 0.500000 0.500000
#
# Coordination Sequence:
#
# PCOD9041380 Si02
#       7
#     2   2   2   2   2   2   2
#     4  11  23  45  67 111 140 190 244 301 357 433
#     4  11  23  45  72 101 143 192 237 291 367 431
#     4  10  23  43  73  99 146 191 241 287 368 434
#     4  11  27  47  73 107 143 186 243 302 359 438
#     4  11  25  46  71 105 143 190 243 294 377 425
#     4  12  25  42  72 107 146 186 245 305 361 432
#     4  10  24  42  71  99 147 185 240 298 358 433
#
# _framework density 23.040285999999998
#
# number of rings (size 3 to 8) (size 9 to 14) (size 15 to 20)
#    0.000    1.143    2.857    2.571   10.000    2.857 
#    2.571    1.429    0.000    0.000    0.000    0.000 
#    0.000    0.000    0.000    0.000    0.000    0.000 
#
# Total GULP energy -78148.300809 kJ/mol
# GULP energy per Si atom -5582.021486 kJ/mol
# Density = 2.298785 g / cm^3
# Si number density = 23.040286 Si / 1000 Ang^3
#
#
#
# Elastic Constant Matrix: (Units=GPa)
#
#
# Indices 1 2 3 4 5 6 
#
# 1 114.2892 36.0888 35.3146 -0.0435 3.4910 -29.4188
# 2 36.0888 79.8787 30.6700 -15.1217 3.0319 -14.2950
# 3 35.3146 30.6700 129.0353 -21.9365 3.5431 -7.1939
# 4 -0.0435 -15.1217 -21.9365 44.7186 -11.3965 2.6025
# 5 3.4910 3.0319 3.5431 -11.3965 31.1692 2.8035
# 6 -29.4188 -14.2950 -7.1939 2.6025 2.8035 42.4179
#
#
#
# Elastic Compliance Matrix: (Units=1/GPa)
#
#
# Indices 1 2 3 4 5 6 
#
# 1 0.012897 -0.004054 -0.002723 -0.003854 -0.002828 0.007540
# 2 -0.004054 0.016288 -0.001880 0.004612 0.000587 0.002037
# 3 -0.002723 -0.001880 0.009595 0.004428 0.001128 -0.001241
# 4 -0.003854 0.004612 0.004428 0.028877 0.010292 -0.002819
# 5 -0.002828 0.000587 0.001128 0.010292 0.036392 -0.004609
# 6 0.007540 0.002037 -0.001241 -0.002819 -0.004609 0.029758
#
#
# Mechanical properties :
#
#
# Convention : Reuss Voigt Hill
#
# Bulk Modulus (GPa) = 46.58883 58.59445 52.59164
# Shear Modulus (GPa) = 31.59034 38.40314 34.99674
#
# Velocity S-wave (km/s) = 3.70684 4.08705 3.90158
# Velocity P-wave (km/s) = 6.21171 6.91075 6.57054
#
# Compressibility (1/GPa) = 0.02146437
#
# Stress axis : x y z
#
# Youngs Moduli (GPa) = 77.53685 61.39504 104.22526
#
# Poissons Ratio (x) = 0.24890 0.28383
# Poissons Ratio (y) = 0.31434 0.19598
# Poissons Ratio (z) = 0.21115 0.11544
#
# Static dielectric constant tensor:
#      x y z
#    x 1.947850 -0.006760 -0.045330 
#    y -0.006760 1.900570 0.015180 
#    z -0.045330 0.015180 1.837200 
# 
# From -- ./inp_files/381862.got.cif
#   From: 2010.05.17/outbox.cif.g08.bks.cpg/sg2_191_cif.got.tgz:381862.got - 2010.06.03 11:33:40.
