data_PCOD9041573
_publ_section_title
;
Structure prediction by ZEFSAII (Michael W. Deem and Ramdas Pophale) SiO2 
 PCOD9041573
Probable space group: P -1
;
_chemical_formula_sum "Si O2"
_cell_formula_units_Z 16
_cell_length_a 17.705717
_cell_length_b 15.124140
_cell_length_c 13.040907
_cell_angle_alpha 130.708311
_cell_angle_beta 28.863432
_cell_angle_gamma 149.866498
_cell_volume 762.351984
_symmetry_space_group_name_H-M "P -1"
_symmetry_group_IT_number 2
_symmetry_cell_setting 'triclinic'
loop_
_space_group_symop_operation_xyz
x,y,z
-x,-y,-z
loop_
_atom_site_type_symbol
_atom_site_label
_atom_site_fract_x
_atom_site_fract_y
_atom_site_fract_z
Si Si1 0.700484 0.794020 0.726615
Si Si2 0.480317 0.078876 0.701369
Si Si3 0.255832 0.299016 0.195236
Si Si4 0.550859 0.950348 0.040279
Si Si5 0.939477 0.295665 0.695613
Si Si6 0.641375 0.562252 0.271922
Si Si7 0.042879 0.995639 0.065243
Si Si8 0.885144 0.335777 0.252792
O O1 0.666612 0.755086 0.858041
O O2 0.555798 0.824903 0.889684
O O3 0.582257 0.614037 0.672646
O O4 0.000000 0.000000 0.500000
O O5 0.776224 0.268209 0.448722
O O6 0.358888 0.877935 0.670839
O O7 0.466683 0.076448 0.838091
O O8 0.293334 0.062599 0.851908
O O9 0.071441 0.128984 0.200833
O O10 0.141095 0.327518 0.429042
O O11 0.500000 0.500000 0.000000
O O12 0.810077 0.173170 0.862518
O O13 0.297138 0.854289 0.218860
O O14 0.054858 0.494718 0.717913
O O15 0.500000 0.500000 0.500000
O O16 0.790248 0.769357 0.224117
O O17 0.866025 0.596289 0.020359
O O18 0.000000 0.000000 0.000000
#
# Coordination Sequence:
#
# PCOD9041573 Si02
#       8
#     2   2   2   2   2   2   2   2
#     4  12  23  44  69  98 138 179 233 278 340 415
#     4  10  23  44  71  96 134 185 220 276 346 403
#     4  12  25  41  69 104 136 181 229 283 340 398
#     4  11  24  43  69  97 133 181 225 279 338 401
#     4  11  25  42  66 102 137 172 229 283 333 403
#     4  11  25  42  71 100 134 184 227 281 345 400
#     4  11  24  45  68  99 140 177 232 283 337 407
#     4  10  23  44  65 100 138 174 225 278 339 411
#
# _framework density 20.987679
#
# number of rings (size 3 to 8) (size 9 to 14) (size 15 to 20)
#    0.000    1.000    3.750    2.250    1.750    5.000 
#    0.000    0.000    0.000    0.000    0.000    0.000 
#    0.000    0.000    0.000    0.000    0.000    0.000 
#
# Total GULP energy -89278.263565 kJ/mol
# GULP energy per Si atom -5579.891473 kJ/mol
# Density = 2.093991 g / cm^3
# Si number density = 20.987679 Si / 1000 Ang^3
#
#
#
# Elastic Constant Matrix: (Units=GPa)
#
#
# Indices 1 2 3 4 5 6 
#
# 1 93.1990 24.2004 53.1953 -0.2071 28.8478 -5.1912
# 2 24.2004 145.8219 48.0064 -3.3487 20.4625 -11.4042
# 3 53.1953 48.0064 136.8035 -9.4927 21.5348 -16.5535
# 4 -0.2071 -3.3487 -9.4927 32.7804 -4.1768 7.0962
# 5 28.8478 20.4625 21.5348 -4.1768 35.2602 -1.4547
# 6 -5.1912 -11.4042 -16.5535 7.0962 -1.4547 35.6512
#
#
#
# Elastic Compliance Matrix: (Units=1/GPa)
#
#
# Indices 1 2 3 4 5 6 
#
# 1 0.017115 0.000423 -0.005164 -0.002872 -0.011420 0.000335
# 2 0.000423 0.008173 -0.002304 -0.000643 -0.003692 0.001583
# 3 -0.005164 -0.002304 0.010740 0.002102 -0.000622 0.003054
# 4 -0.002872 -0.000643 0.002102 0.032980 0.005098 -0.006004
# 5 -0.011420 -0.003692 -0.000622 0.005098 0.040728 -0.002486
# 6 0.000335 0.001583 0.003054 -0.006004 -0.002486 0.031117
#
#
# Mechanical properties :
#
#
# Convention : Reuss Voigt Hill
#
# Bulk Modulus (GPa) = 45.58765 69.62539 57.60652
# Shear Modulus (GPa) = 30.81549 37.43318 34.12433
#
# Velocity S-wave (km/s) = 3.83595 4.22783 4.03665
# Velocity P-wave (km/s) = 6.43333 7.55507 7.01665
#
# Compressibility (1/GPa) = 0.02193576
#
# Stress axis : x y z
#
# Youngs Moduli (GPa) = 58.42932 122.34879 93.11235
#
# Poissons Ratio (x) = -0.05170 0.48086
# Poissons Ratio (y) = -0.02469 0.21455
# Poissons Ratio (z) = 0.30175 0.28192
#
# Static dielectric constant tensor:
#      x y z
#    x 1.795320 0.001610 -0.043160 
#    y 0.001610 1.734540 0.005940 
#    z -0.043160 0.005940 1.808820 
# 
# From -- ./inp_files/261431.got.cif
#   From: 2010.05.17/outbox.cif.g08.bks.cpg/sg2_131_cif.got.tgz:261431.got - 2010.06.03 11:33:40.
