data_PCOD9041374
_publ_section_title
;
Structure prediction by ZEFSAII (Michael W. Deem and Ramdas Pophale) SiO2 
 PCOD9041374
Probable space group: P -1
;
_chemical_formula_sum "Si O2"
_cell_formula_units_Z 14
_cell_length_a 9.265490
_cell_length_b 18.769189
_cell_length_c 16.216424
_cell_angle_alpha 30.582194
_cell_angle_beta 26.854885
_cell_angle_gamma 33.772757
_cell_volume 623.166909
_symmetry_space_group_name_H-M "P -1"
_symmetry_group_IT_number 2
_symmetry_cell_setting 'triclinic'
loop_
_space_group_symop_operation_xyz
x,y,z
-x,-y,-z
loop_
_atom_site_type_symbol
_atom_site_label
_atom_site_fract_x
_atom_site_fract_y
_atom_site_fract_z
Si Si1 0.765469 0.853240 0.977917
Si Si2 0.656180 0.344450 0.690081
Si Si3 0.091799 0.186499 0.772920
Si Si4 0.200908 0.900095 0.835224
Si Si5 0.417505 0.673728 0.531027
Si Si6 0.060748 0.191168 0.503432
Si Si7 0.804568 0.131513 0.412958
O O1 0.016375 0.799855 0.977961
O O2 0.004764 0.879868 0.757283
O O3 0.578867 0.743113 0.144873
O O4 0.500000 0.000000 0.000000
O O5 0.808296 0.268141 0.773638
O O6 0.474617 0.510574 0.635367
O O7 0.950742 0.323578 0.492847
O O8 0.238001 0.295807 0.646211
O O9 0.963086 0.088745 0.002081
O O10 0.426761 0.119767 0.614695
O O11 0.113724 0.050194 0.677035
O O12 0.225098 0.777809 0.452009
O O13 0.208833 0.722740 0.673003
O O14 0.406580 0.169766 0.301026
O O15 0.000000 0.000000 0.500000
#
# Coordination Sequence:
#
# PCOD9041374 Si02
#       7
#     2   2   2   2   2   2   2
#     4  12  24  45  70 104 138 188 233 291 348 416
#     4  12  25  45  73 103 146 188 233 285 355 426
#     4  10  25  45  71 105 141 185 233 290 352 416
#     4  11  24  45  70 105 142 180 240 296 344 416
#     4  10  25  47  73 101 145 189 231 290 354 421
#     4  11  24  44  73 103 141 184 239 289 353 412
#     4  10  23  43  73  98 140 178 235 291 348 402
#
# _framework density 22.465890000000002
#
# number of rings (size 3 to 8) (size 9 to 14) (size 15 to 20)
#    0.857    0.286    1.429    4.286    2.000    2.286 
#    0.000    1.429    0.000    0.000    0.000    0.000 
#    0.000    0.000    0.000    0.000    0.000    0.000 
#
# Total GULP energy -78170.216874 kJ/mol
# GULP energy per Si atom -5583.586920 kJ/mol
# Density = 2.241476 g / cm^3
# Si number density = 22.465890 Si / 1000 Ang^3
#
#
#
# Elastic Constant Matrix: (Units=GPa)
#
#
# Indices 1 2 3 4 5 6 
#
# 1 150.0951 45.9295 48.9498 2.8043 -2.4868 13.7156
# 2 45.9295 168.6940 68.3091 9.9543 1.1683 26.9929
# 3 48.9498 68.3091 111.2639 29.9610 0.8738 11.8514
# 4 2.8043 9.9543 29.9610 38.9639 16.9137 6.0718
# 5 -2.4868 1.1683 0.8738 16.9137 43.9639 8.0857
# 6 13.7156 26.9929 11.8514 6.0718 8.0857 38.7290
#
#
#
# Elastic Compliance Matrix: (Units=1/GPa)
#
#
# Indices 1 2 3 4 5 6 
#
# 1 0.008190 -0.000563 -0.003848 0.002887 -0.000237 -0.001734
# 2 -0.000563 0.008883 -0.005484 0.002896 -0.000412 -0.004682
# 3 -0.003848 -0.005484 0.017736 -0.014226 0.004870 0.000971
# 4 0.002887 0.002896 -0.014226 0.042805 -0.015709 -0.002119
# 5 -0.000237 -0.000412 0.004870 -0.015709 0.029579 -0.004832
# 6 -0.001734 -0.004682 0.000971 -0.002119 -0.004832 0.030741
#
#
# Mechanical properties :
#
#
# Convention : Reuss Voigt Hill
#
# Bulk Modulus (GPa) = 66.58184 84.04776 75.31480
# Shear Modulus (GPa) = 30.72547 42.12232 36.42390
#
# Velocity S-wave (km/s) = 3.70219 4.33476 4.03090
# Velocity P-wave (km/s) = 6.92648 7.90861 7.43378
#
# Compressibility (1/GPa) = 0.01501911
#
# Stress axis : x y z
#
# Youngs Moduli (GPa) = 122.09507 112.57754 56.38100
#
# Poissons Ratio (x) = 0.06337 0.21698
# Poissons Ratio (y) = 0.06872 0.30919
# Poissons Ratio (z) = 0.46988 0.61736
#
# Static dielectric constant tensor:
#      x y z
#    x 1.865490 0.048460 -0.047850 
#    y 0.048460 1.887360 0.032150 
#    z -0.047850 0.032150 1.907080 
# 
# From -- ./inp_files/505213.got.cif
#   From: 2010.05.17/outbox.cif.g08.bks.cpg/sg2_253_cif.got.tgz:505213.got - 2010.06.03 11:33:40.
