data_PCOD9041198
_publ_section_title
;
Structure prediction by ZEFSAII (Michael W. Deem and Ramdas Pophale) SiO2 
 PCOD9041198
Probable space group: P -1
;
_chemical_formula_sum "Si O2"
_cell_formula_units_Z 16
_cell_length_a 9.255011
_cell_length_b 10.676372
_cell_length_c 11.200794
_cell_angle_alpha 67.694018
_cell_angle_beta 109.920648
_cell_angle_gamma 137.057472
_cell_volume 694.089137
_symmetry_space_group_name_H-M "P -1"
_symmetry_group_IT_number 2
_symmetry_cell_setting 'triclinic'
loop_
_space_group_symop_operation_xyz
x,y,z
-x,-y,-z
loop_
_atom_site_type_symbol
_atom_site_label
_atom_site_fract_x
_atom_site_fract_y
_atom_site_fract_z
Si Si1 0.600537 0.848807 0.816940
Si Si2 0.666766 0.116518 0.396924
Si Si3 0.007341 0.701773 0.207635
Si Si4 0.135351 0.820539 0.805314
Si Si5 0.100927 0.414281 0.533014
Si Si6 0.232082 0.552407 0.283103
Si Si7 0.404331 0.792267 0.023537
Si Si8 0.071699 0.152963 0.064990
O O1 0.401359 0.775531 0.708487
O O2 0.721796 0.787009 0.838687
O O3 0.775715 0.078474 0.783845
O O4 0.526737 0.792464 0.952820
O O5 0.688044 0.055042 0.295398
O O6 0.894251 0.223084 0.480624
O O7 0.500000 0.000000 0.500000
O O8 0.865752 0.629926 0.312785
O O9 0.085825 0.597587 0.244539
O O10 0.899305 0.695746 0.061377
O O11 0.911314 0.652942 0.739740
O O12 0.100156 0.916683 0.856743
O O13 0.186413 0.713059 0.930685
O O14 0.000000 0.500000 0.500000
O O15 0.283113 0.540800 0.438340
O O16 0.390995 0.697705 0.173156
O O17 0.500000 0.000000 0.000000
O O18 0.000000 0.000000 0.000000
#
# Coordination Sequence:
#
# PCOD9041198 Si02
#       8
#     2   2   2   2   2   2   2   2
#     4  10  20  32  55  85 115 143 187 239 291 327
#     4  10  19  35  60  87 111 141 192 250 280 317
#     4  10  17  33  57  82 112 150 191 231 281 345
#     4  10  21  34  57  83 112 149 196 232 285 338
#     4   9  19  32  55  84 108 150 184 232 282 340
#     4  10  19  33  56  83 108 142 196 240 279 332
#     4  11  18  31  54  84 108 138 186 248 283 320
#     4  10  20  36  54  83 120 156 187 228 288 350
#
# _framework density 23.051794000000001
#
# number of rings (size 3 to 8) (size 9 to 14) (size 15 to 20)
#    0.000    2.000    3.750    1.125    0.000    0.000 
#    0.000    1.250    0.000    0.750    0.000    0.000 
#    0.000    0.000    0.000    0.000    0.000    0.000 
#
# Total GULP energy -89109.667769 kJ/mol
# GULP energy per Si atom -5569.354236 kJ/mol
# Density = 2.299933 g / cm^3
# Si number density = 23.051794 Si / 1000 Ang^3
#
#
#
# Elastic Constant Matrix: (Units=GPa)
#
#
# Indices 1 2 3 4 5 6 
#
# 1 101.0614 -0.5523 49.3126 -4.3277 -24.5365 -0.6052
# 2 -0.5523 40.2322 18.0487 -2.2524 -18.2677 -1.3311
# 3 49.3126 18.0487 164.0051 -19.0036 -58.8363 10.1840
# 4 -4.3277 -2.2524 -19.0036 25.0212 14.7043 -7.8737
# 5 -24.5365 -18.2677 -58.8363 14.7043 44.7917 0.3313
# 6 -0.6052 -1.3311 10.1840 -7.8737 0.3313 18.3365
#
#
#
# Elastic Compliance Matrix: (Units=1/GPa)
#
#
# Indices 1 2 3 4 5 6 
#
# 1 0.012446 0.003936 -0.002253 -0.002731 0.006356 0.000660
# 2 0.003936 0.032895 0.001770 -0.007700 0.020441 -0.002141
# 3 -0.002253 0.001770 0.013243 -0.003773 0.018190 -0.009249
# 4 -0.002731 -0.007700 -0.003773 0.062991 -0.030486 0.029045
# 5 0.006356 0.020441 0.018190 -0.030486 0.068213 -0.022732
# 6 0.000660 -0.002141 -0.009249 0.029045 -0.022732 0.072422
#
#
# Mechanical properties :
#
#
# Convention : Reuss Voigt Hill
#
# Bulk Modulus (GPa) = 15.26934 48.76852 32.01893
# Shear Modulus (GPa) = 18.04190 33.52919 25.78554
#
# Velocity S-wave (km/s) = 2.80066 3.81795 3.34816
# Velocity P-wave (km/s) = 4.13480 6.37477 5.37281
#
# Compressibility (1/GPa) = 0.06549072
#
# Stress axis : x y z
#
# Youngs Moduli (GPa) = 80.34858 30.39983 75.51380
#
# Poissons Ratio (x) = -0.11966 0.17011
# Poissons Ratio (y) = -0.31627 -0.13368
# Poissons Ratio (z) = 0.18100 -0.05381
#
# Static dielectric constant tensor:
#      x y z
#    x 1.860020 0.141190 0.005240 
#    y 0.141190 3.884680 0.100860 
#    z 0.005240 0.100860 1.981560 
# 
# From -- ./inp_files/277827.got.cif
#   From: 2010.05.17/outbox.cif.g08.bks.cpg/sg2_139_cif.got.tgz:277827.got - 2010.06.03 11:33:40.
