data_PCOD9041370
_publ_section_title
;
Structure prediction by ZEFSAII (Michael W. Deem and Ramdas Pophale) SiO2 
 PCOD9041370
Probable space group: P -1
;
_chemical_formula_sum "Si O2"
_cell_formula_units_Z 14
_cell_length_a 11.754355
_cell_length_b 9.811291
_cell_length_c 7.797635
_cell_angle_alpha 78.284831
_cell_angle_beta 75.719017
_cell_angle_gamma 130.377654
_cell_volume 578.160457
_symmetry_space_group_name_H-M "P -1"
_symmetry_group_IT_number 2
_symmetry_cell_setting 'triclinic'
loop_
_space_group_symop_operation_xyz
x,y,z
-x,-y,-z
loop_
_atom_site_type_symbol
_atom_site_label
_atom_site_fract_x
_atom_site_fract_y
_atom_site_fract_z
Si Si1 0.457341 0.125053 0.787478
Si Si2 0.076893 0.844424 0.002139
Si Si3 0.996351 0.659896 0.425022
Si Si4 0.184473 0.237738 0.397208
Si Si5 0.513769 0.659974 0.590709
Si Si6 0.394637 0.051449 0.223205
Si Si7 0.782195 0.745633 0.994323
O O1 0.516965 0.297040 0.592813
O O2 0.558453 0.069749 0.743554
O O3 0.457811 0.155464 0.983906
O O4 0.254558 0.926101 0.862634
O O5 0.980249 0.669374 0.225084
O O6 0.940978 0.773931 0.929998
O O7 0.139233 0.040139 0.025583
O O8 0.000000 0.500000 0.500000
O O9 0.858619 0.640312 0.572131
O O10 0.187382 0.881958 0.346464
O O11 0.303180 0.262144 0.484894
O O12 0.282115 0.305786 0.162606
O O13 0.000000 0.000000 0.500000
O O14 0.525624 0.792934 0.692294
O O15 0.362142 0.429665 0.775083
#
# Coordination Sequence:
#
# PCOD9041370 Si02
#       7
#     2   2   2   2   2   2   2
#     4  10  23  43  73  95 143 192 218 296 360 403
#     4  10  23  46  64 101 141 180 233 286 352 416
#     4  11  25  43  72 101 138 185 232 289 352 422
#     4  12  22  45  72 100 140 188 228 291 357 406
#     4  12  25  43  72 107 135 185 245 287 347 424
#     4  10  23  46  68 102 146 178 241 291 345 421
#     4  11  25  42  68 104 142 177 237 296 341 419
#
# _framework density 24.214732000000001
#
# number of rings (size 3 to 8) (size 9 to 14) (size 15 to 20)
#    0.000    1.143    2.857    2.571    4.000    5.143 
#    0.000    1.429    0.000    0.000    0.000    0.000 
#    0.000    0.000    0.000    0.000    0.000    0.000 
#
# Total GULP energy -78456.588197 kJ/mol
# GULP energy per Si atom -5604.042014 kJ/mol
# Density = 2.415962 g / cm^3
# Si number density = 24.214732 Si / 1000 Ang^3
#
#
#
# Elastic Constant Matrix: (Units=GPa)
#
#
# Indices 1 2 3 4 5 6 
#
# 1 154.2751 27.3739 48.1492 6.0622 6.6259 -10.7141
# 2 27.3739 85.9391 44.6650 8.9054 11.7942 -15.9122
# 3 48.1492 44.6650 142.5797 -8.0440 28.6893 -8.8206
# 4 6.0622 8.9054 -8.0440 25.6391 -5.4141 -0.9938
# 5 6.6259 11.7942 28.6893 -5.4141 47.7721 -2.1570
# 6 -10.7141 -15.9122 -8.8206 -0.9938 -2.1570 37.0443
#
#
#
# Elastic Compliance Matrix: (Units=1/GPa)
#
#
# Indices 1 2 3 4 5 6 
#
# 1 0.007527 -0.000732 -0.002440 -0.002155 0.000414 0.001248
# 2 -0.000732 0.016190 -0.004542 -0.007031 -0.001722 0.005372
# 3 -0.002440 -0.004542 0.010352 0.004490 -0.004262 -0.000320
# 4 -0.002155 -0.007031 0.004490 0.044227 0.004299 -0.001137
# 5 0.000414 -0.001722 -0.004262 0.004299 0.024343 -0.000102
# 6 0.001248 0.005372 -0.000320 -0.001137 -0.000102 0.029551
#
#
# Mechanical properties :
#
#
# Convention : Reuss Voigt Hill
#
# Bulk Modulus (GPa) = 53.64935 69.24111 61.44523
# Shear Modulus (GPa) = 32.50321 39.59815 36.05068
#
# Velocity S-wave (km/s) = 3.66770 4.04826 3.86267
# Velocity P-wave (km/s) = 6.33560 7.10689 6.73230
#
# Compressibility (1/GPa) = 0.01863955
#
# Stress axis : x y z
#
# Youngs Moduli (GPa) = 132.85559 61.76827 96.60047
#
# Poissons Ratio (x) = 0.04519 0.23575
# Poissons Ratio (y) = 0.09720 0.43880
# Poissons Ratio (z) = 0.32423 0.28057
#
# Static dielectric constant tensor:
#      x y z
#    x 1.931740 0.006330 -0.009190 
#    y 0.006330 1.900380 -0.011060 
#    z -0.009190 -0.011060 1.934600 
# 
# From -- ./inp_files/242972.got.cif
#   From: 2010.05.17/outbox.cif.g08.bks.cpg/sg2_122_cif.got.tgz:242972.got - 2010.06.03 11:33:40.
