data_PCOD9041213
_publ_section_title
;
Structure prediction by ZEFSAII (Michael W. Deem and Ramdas Pophale) SiO2 
 PCOD9041213
Probable space group: P -1
;
_chemical_formula_sum "Si O2"
_cell_formula_units_Z 13
_cell_length_a 8.948345
_cell_length_b 11.193761
_cell_length_c 8.262252
_cell_angle_alpha 111.876251
_cell_angle_beta 96.486417
_cell_angle_gamma 128.657235
_cell_volume 527.079484
_symmetry_space_group_name_H-M "P -1"
_symmetry_group_IT_number 2
_symmetry_cell_setting 'triclinic'
loop_
_space_group_symop_operation_xyz
x,y,z
-x,-y,-z
loop_
_atom_site_type_symbol
_atom_site_label
_atom_site_fract_x
_atom_site_fract_y
_atom_site_fract_z
Si Si1 0.490278 0.102965 0.836001
Si Si2 0.456192 0.130603 0.207033
Si Si3 0.902792 0.524679 0.142556
Si Si4 0.722472 0.695331 0.687861
Si Si5 0.908372 0.028312 0.359785
Si Si6 0.258185 0.334567 0.961666
Si Si7 0.000000 0.500000 0.500000
O O1 0.298567 0.014258 0.644241
O O2 0.595071 0.029663 0.777525
O O3 0.387119 0.038217 0.971756
O O4 0.654865 0.321268 0.992329
O O5 0.322732 0.178595 0.246821
O O6 0.718515 0.316253 0.354173
O O7 0.007009 0.554968 0.341903
O O8 0.893661 0.668236 0.166466
O O9 0.000000 0.500000 0.000000
O O10 0.500000 0.500000 0.500000
O O11 0.761360 0.650329 0.842001
O O12 0.910498 0.784630 0.625713
O O13 0.811163 0.855737 0.148685
O O14 0.000000 0.000000 0.500000
O O15 0.500000 0.500000 0.000000
#
# Coordination Sequence:
#
# PCOD9041213 Si02
#       7
#     2   2   2   2   2   2   1
#     4  10  23  45  68 100 139 185 235 296 362 425
#     4  10  23  43  71  97 138 182 236 289 358 426
#     4  11  26  44  74 103 142 189 238 298 359 439
#     4  12  28  45  73 107 142 192 245 297 364 438
#     4  12  27  45  71 106 144 191 240 300 368 431
#     4  12  24  49  71 103 148 182 242 301 369 427
#     4  10  24  46  68 102 138 188 234 290 362 422
#
# _framework density 24.664211999999999
#
# number of rings (size 3 to 8) (size 9 to 14) (size 15 to 20)
#    0.000    0.923    3.077    2.308    8.615    1.231 
#    0.000    1.538    0.000    0.000    0.000    0.000 
#    0.000    0.000    0.000    0.000    0.000    0.000 
#
# Total GULP energy -72378.934535 kJ/mol
# GULP energy per Si atom -5567.610349 kJ/mol
# Density = 2.460807 g / cm^3
# Si number density = 24.664212 Si / 1000 Ang^3
#
#
#
# Elastic Constant Matrix: (Units=GPa)
#
#
# Indices 1 2 3 4 5 6 
#
# 1 98.9767 11.7260 24.9462 -22.0351 20.3977 -26.7302
# 2 11.7260 88.6281 35.9521 -17.0083 18.6110 -3.3932
# 3 24.9462 35.9521 100.1817 -31.1066 38.1286 -1.7241
# 4 -22.0351 -17.0083 -31.1066 53.7397 -12.8535 5.5352
# 5 20.3977 18.6110 38.1286 -12.8535 44.2028 5.6921
# 6 -26.7302 -3.3932 -1.7241 5.5352 5.6921 39.9979
#
#
#
# Elastic Compliance Matrix: (Units=1/GPa)
#
#
# Indices 1 2 3 4 5 6 
#
# 1 0.015368 0.000638 0.000296 0.003639 -0.007970 0.010968
# 2 0.000638 0.013556 -0.003398 0.001762 -0.002762 0.001579
# 3 0.000296 -0.003398 0.017841 0.006221 -0.012492 0.001595
# 4 0.003639 0.001762 0.006221 0.024126 -0.000722 -0.000387
# 5 -0.007970 -0.002762 -0.012492 -0.000722 0.039526 -0.011624
# 6 0.010968 0.001579 0.001595 -0.000387 -0.011624 0.034241
#
#
# Mechanical properties :
#
#
# Convention : Reuss Voigt Hill
#
# Bulk Modulus (GPa) = 23.90237 48.11500 36.00868
# Shear Modulus (GPa) = 30.57529 41.93222 36.25375
#
# Velocity S-wave (km/s) = 3.52470 4.12773 3.83808
# Velocity P-wave (km/s) = 5.12610 6.50138 5.85426
#
# Compressibility (1/GPa) = 0.04183686
#
# Stress axis : x y z
#
# Youngs Moduli (GPa) = 65.07138 73.76981 56.05071
#
# Poissons Ratio (x) = -0.04710 -0.01660
# Poissons Ratio (y) = -0.04155 0.19048
# Poissons Ratio (z) = -0.01927 0.25070
#
# Static dielectric constant tensor:
#      x y z
#    x 2.002260 0.014790 0.037760 
#    y 0.014790 2.053660 0.146850 
#    z 0.037760 0.146850 1.985140 
# 
# From -- ./inp_files/181722.got.cif
#   From: 2010.05.17/outbox.cif.g08.bks.cpg/sg2_91_cif.got.tgz:181722.got - 2010.06.03 11:33:40.
