data_PCOD9041056
_publ_section_title
;
Structure prediction by ZEFSAII (Michael W. Deem and Ramdas Pophale) SiO2 
 PCOD9041056
Probable space group: P -1
;
_chemical_formula_sum "Si O2"
_cell_formula_units_Z 10
_cell_length_a 7.020476
_cell_length_b 7.330543
_cell_length_c 13.894221
_cell_angle_alpha 45.156819
_cell_angle_beta 65.960438
_cell_angle_gamma 88.653290
_cell_volume 422.872124
_symmetry_space_group_name_H-M "P -1"
_symmetry_group_IT_number 2
_symmetry_cell_setting 'triclinic'
loop_
_space_group_symop_operation_xyz
x,y,z
-x,-y,-z
loop_
_atom_site_type_symbol
_atom_site_label
_atom_site_fract_x
_atom_site_fract_y
_atom_site_fract_z
Si Si1 0.305057 0.050204 0.583392
Si Si2 0.216980 0.578465 0.361655
Si Si3 0.407128 0.140725 0.051382
Si Si4 0.124911 0.498629 0.187789
Si Si5 0.935420 0.188238 0.089468
O O1 0.333364 0.364014 0.435624
O O2 0.500000 0.000000 0.500000
O O3 0.265017 0.008324 0.723601
O O4 0.064422 0.806029 0.687264
O O5 0.119955 0.531467 0.290377
O O6 0.000000 0.500000 0.500000
O O7 0.366803 0.907270 0.227522
O O8 0.164711 0.138865 0.075771
O O9 0.612102 0.444267 0.910963
O O10 0.500000 0.000000 0.000000
O O11 0.098417 0.751097 0.038120
O O12 0.000000 0.500000 0.000000
#
# Coordination Sequence:
#
# PCOD9041056 Si02
#       5
#     2   2   2   2   2
#     4  11  25  46  67  99 139 175 225 278 328 403
#     4  11  23  46  66 102 136 171 223 286 331 390
#     4  10  23  43  70  96 137 171 226 276 330 398
#     4  10  25  44  74  93 135 186 222 264 346 399
#     4  10  23  44  67 100 134 175 229 268 326 409
#
# _framework density 23.647811000000001
#
# number of rings (size 3 to 8) (size 9 to 14) (size 15 to 20)
#    0.000    1.600    2.000    0.600   11.200    8.000 
#    0.000    2.000    0.000    0.000    0.000    0.000 
#    0.000    0.000    0.000    0.000    0.000    0.000 
#
# Total GULP energy -55748.891084 kJ/mol
# GULP energy per Si atom -5574.889108 kJ/mol
# Density = 2.359399 g / cm^3
# Si number density = 23.647811 Si / 1000 Ang^3
#
#
#
# Elastic Constant Matrix: (Units=GPa)
#
#
# Indices 1 2 3 4 5 6 
#
# 1 95.1497 45.7563 43.9967 29.2693 24.0351 -16.9242
# 2 45.7563 66.5915 29.2959 16.0603 5.3842 -21.0429
# 3 43.9967 29.2959 142.2043 25.5441 8.1945 -3.1782
# 4 29.2693 16.0603 25.5441 44.3812 -4.7219 -3.7768
# 5 24.0351 5.3842 8.1945 -4.7219 49.2586 0.3356
# 6 -16.9242 -21.0429 -3.1782 -3.7768 0.3356 58.7277
#
#
#
# Elastic Compliance Matrix: (Units=1/GPa)
#
#
# Indices 1 2 3 4 5 6 
#
# 1 0.023301 -0.010773 -0.002319 -0.011115 -0.010886 0.002077
# 2 -0.010773 0.024784 -0.001799 -0.000048 0.002804 0.005659
# 3 -0.002319 -0.001799 0.008645 -0.002923 -0.000383 -0.001031
# 4 -0.011115 -0.000048 -0.002923 0.032409 0.009031 -0.001346
# 5 -0.010886 0.002804 -0.000383 0.009031 0.026247 -0.001722
# 6 0.002077 0.005659 -0.001031 -0.001346 -0.001722 0.019522
#
#
# Mechanical properties :
#
#
# Convention : Reuss Voigt Hill
#
# Bulk Modulus (GPa) = 37.11075 60.22703 48.66889
# Shear Modulus (GPa) = 28.78967 42.79992 35.79479
#
# Velocity S-wave (km/s) = 3.49296 4.25889 3.89480
# Velocity P-wave (km/s) = 5.65640 7.05038 6.39151
#
# Compressibility (1/GPa) = 0.02694637
#
# Stress axis : x y z
#
# Youngs Moduli (GPa) = 42.91607 40.34816 115.68032
#
# Poissons Ratio (x) = 0.43468 0.26832
# Poissons Ratio (y) = 0.46235 0.20812
# Poissons Ratio (z) = 0.09954 0.07259
#
# Static dielectric constant tensor:
#      x y z
#    x 2.048940 0.018990 0.055830 
#    y 0.018990 1.992920 0.091270 
#    z 0.055830 0.091270 1.829890 
# 
# From -- ./inp_files/15771.got.cif
#   From: 2010.05.17/outbox.cif.g08.bks.cpg/sg2_8_cif.got.tgz:15771.got - 2010.06.03 11:33:40.
