data_PCOD9041164
_publ_section_title
;
Structure prediction by ZEFSAII (Michael W. Deem and Ramdas Pophale) SiO2 
 PCOD9041164
Probable space group: P -1
;
_chemical_formula_sum "Si O2"
_cell_formula_units_Z 14
_cell_length_a 5.612861
_cell_length_b 13.754533
_cell_length_c 21.884058
_cell_angle_alpha 21.297448
_cell_angle_beta 112.166047
_cell_angle_gamma 103.376423
_cell_volume 530.781395
_symmetry_space_group_name_H-M "P -1"
_symmetry_group_IT_number 2
_symmetry_cell_setting 'triclinic'
loop_
_space_group_symop_operation_xyz
x,y,z
-x,-y,-z
loop_
_atom_site_type_symbol
_atom_site_label
_atom_site_fract_x
_atom_site_fract_y
_atom_site_fract_z
Si Si1 0.717558 0.266427 0.963993
Si Si2 0.691669 0.209334 0.335076
Si Si3 0.732035 0.753449 0.349993
Si Si4 0.169384 0.480239 0.940466
Si Si5 0.500000 0.000000 0.000000
Si Si6 0.290486 0.044760 0.315762
Si Si7 0.374440 0.478856 0.407914
Si Si8 0.000000 0.000000 0.000000
O O1 0.454911 0.560931 0.761673
O O2 0.747563 0.095883 0.002501
O O3 0.964458 0.372932 0.943244
O O4 0.727724 0.044889 0.148966
O O5 0.663471 0.421518 0.150758
O O6 0.507831 0.032768 0.397129
O O7 0.000000 0.000000 0.500000
O O8 0.471083 0.680980 0.343107
O O9 0.728220 0.720545 0.441449
O O10 0.000000 0.500000 0.500000
O O11 0.999426 0.768193 0.792659
O O12 0.305644 0.236250 0.146129
O O13 0.686135 0.958908 0.982238
O O14 0.364855 0.724550 0.486199
O O15 0.137315 0.663940 0.232704
#
# Coordination Sequence:
#
# PCOD9041164 Si02
#       8
#     2   2   2   2   1   2   2   1
#     4  11  25  45  72 102 145 190 248 307 374 445
#     4  11  26  43  70 104 140 188 239 304 374 444
#     4  11  23  44  67 105 138 191 245 306 366 445
#     4  10  23  46  72 100 142 183 247 304 368 445
#     4  12  28  46  74 108 150 200 246 306 384 448
#     4  10  23  43  71 105 132 190 240 307 367 443
#     4  11  25  41  72 101 147 189 246 303 374 444
#     4  12  28  48  68 114 146 202 242 308 370 458
#
# _framework density 26.376207000000001
#
# number of rings (size 3 to 8) (size 9 to 14) (size 15 to 20)
#    0.000    1.143    1.429    3.000    4.000    9.143 
#    0.000    0.000    0.000    0.000    0.000    0.000 
#    0.000    0.000    0.000    0.000    0.000    0.000 
#
# Total GULP energy -77956.128759 kJ/mol
# GULP energy per Si atom -5568.294911 kJ/mol
# Density = 2.631617 g / cm^3
# Si number density = 26.376207 Si / 1000 Ang^3
#
#
#
# Elastic Constant Matrix: (Units=GPa)
#
#
# Indices 1 2 3 4 5 6 
#
# 1 54.8151 7.0265 14.0669 -1.8462 -2.2783 4.9719
# 2 7.0265 84.3388 53.1503 -2.3042 -6.2019 2.4291
# 3 14.0669 53.1503 126.8294 4.5549 24.5927 -16.8870
# 4 -1.8462 -2.3042 4.5549 43.7000 -4.4170 0.2469
# 5 -2.2783 -6.2019 24.5927 -4.4170 47.5565 -1.7098
# 6 4.9719 2.4291 -16.8870 0.2469 -1.7098 36.5155
#
#
#
# Elastic Compliance Matrix: (Units=1/GPa)
#
#
# Indices 1 2 3 4 5 6 
#
# 1 0.019697 0.001282 -0.003992 0.001661 0.003168 -0.004476
# 2 0.001282 0.019425 -0.010804 0.003073 0.008248 -0.006098
# 3 -0.003992 -0.010804 0.015992 -0.003452 -0.009895 0.008218
# 4 0.001661 0.003073 -0.003452 0.023933 0.004417 -0.001982
# 5 0.003168 0.008248 -0.009895 0.004417 0.027628 -0.004292
# 6 -0.004476 -0.006098 0.008218 -0.001982 -0.004292 0.032014
#
#
# Mechanical properties :
#
#
# Convention : Reuss Voigt Hill
#
# Bulk Modulus (GPa) = 35.60535 46.05230 40.82883
# Shear Modulus (GPa) = 28.55862 38.33704 33.44783
#
# Velocity S-wave (km/s) = 3.29407 3.81658 3.56491
# Velocity P-wave (km/s) = 5.29115 6.07613 5.69718
#
# Compressibility (1/GPa) = 0.02808567
#
# Stress axis : x y z
#
# Youngs Moduli (GPa) = 50.76939 51.48005 62.53154
#
# Poissons Ratio (x) = -0.06600 0.24962
# Poissons Ratio (y) = -0.06509 0.67560
# Poissons Ratio (z) = 0.20267 0.55620
#
# Static dielectric constant tensor:
#      x y z
#    x 1.678450 0.579020 -0.050590 
#    y 0.579020 1.579090 -0.082320 
#    z -0.050590 -0.082320 2.108880 
# 
# From -- ./inp_files/28486.got.cif
#   From: 2010.05.17/outbox.cif.g08.bks.cpg/sg2_15_cif.got.tgz:28486.got - 2010.06.03 11:33:40.
