data_PCOD9041456
_publ_section_title
;
Structure prediction by ZEFSAII (Michael W. Deem and Ramdas Pophale) SiO2 
 PCOD9041456
Probable space group: P -1
;
_chemical_formula_sum "Si O2"
_cell_formula_units_Z 16
_cell_length_a 14.206935
_cell_length_b 11.908172
_cell_length_c 13.740529
_cell_angle_alpha 50.637807
_cell_angle_beta 144.010086
_cell_angle_gamma 102.649401
_cell_volume 804.873154
_symmetry_space_group_name_H-M "P -1"
_symmetry_group_IT_number 2
_symmetry_cell_setting 'triclinic'
loop_
_space_group_symop_operation_xyz
x,y,z
-x,-y,-z
loop_
_atom_site_type_symbol
_atom_site_label
_atom_site_fract_x
_atom_site_fract_y
_atom_site_fract_z
Si Si1 0.488406 0.785322 0.160104
Si Si2 0.179885 0.237564 0.663575
Si Si3 0.414464 0.237778 0.526262
Si Si4 0.727585 0.839470 0.720920
Si Si5 0.245773 0.433520 0.971716
Si Si6 0.208736 0.200457 0.932729
Si Si7 0.950523 0.193526 0.875685
Si Si8 0.540929 0.522341 0.708137
O O1 0.666342 0.723704 0.264886
O O2 0.602149 0.732602 0.389504
O O3 0.385257 0.687231 0.119149
O O4 0.310263 0.013354 0.878815
O O5 0.145530 0.270469 0.731944
O O6 0.960039 0.368038 0.351135
O O7 0.284533 0.191062 0.385673
O O8 0.383270 0.405777 0.348955
O O9 0.644228 0.029315 0.817700
O O10 0.500000 0.000000 0.500000
O O11 0.815851 0.642668 0.953209
O O12 0.895798 0.860839 0.876272
O O13 0.315369 0.280532 0.027736
O O14 0.409407 0.439502 0.163934
O O15 0.020617 0.261543 0.811162
O O16 0.703762 0.350207 0.592756
O O17 0.000000 0.000000 0.000000
#
# Coordination Sequence:
#
# PCOD9041456 Si02
#       8
#     2   2   2   2   2   2   2   2
#     4  10  22  40  60  80 112 156 204 231 270 339
#     4  10  22  41  60  77 111 162 203 229 272 336
#     4  10  19  36  60  87 116 149 185 236 292 339
#     4  10  17  33  57  87 114 142 183 232 291 341
#     4  10  20  35  60  85 117 151 185 238 291 338
#     4  10  19  36  61  86 114 150 190 233 289 344
#     4  11  19  32  58  91 120 140 177 237 299 340
#     4  11  22  36  57  90 121 147 184 241 293 336
#
# _framework density 19.878909
#
# number of rings (size 3 to 8) (size 9 to 14) (size 15 to 20)
#    0.000    1.750    3.750    3.000    0.000    0.500 
#    0.000    9.375    2.750    0.000    0.000    0.000 
#    0.000    0.000    0.000    0.000    0.000    0.000 
#
# Total GULP energy -89086.822025 kJ/mol
# GULP energy per Si atom -5567.926377 kJ/mol
# Density = 1.983366 g / cm^3
# Si number density = 19.878909 Si / 1000 Ang^3
#
#
#
# Elastic Constant Matrix: (Units=GPa)
#
#
# Indices 1 2 3 4 5 6 
#
# 1 51.6104 17.4631 7.8847 2.5753 -19.8710 3.4943
# 2 17.4631 120.6393 30.1872 8.7074 -12.2364 13.5102
# 3 7.8847 30.1872 72.7833 5.0101 -20.3774 8.7246
# 4 2.5753 8.7074 5.0101 41.1331 1.4994 -5.8065
# 5 -19.8710 -12.2364 -20.3774 1.4994 23.4705 2.8122
# 6 3.4943 13.5102 8.7246 -5.8065 2.8122 16.4341
#
#
#
# Elastic Compliance Matrix: (Units=1/GPa)
#
#
# Indices 1 2 3 4 5 6 
#
# 1 0.037602 -0.000412 0.012773 -0.009126 0.046360 -0.025595
# 2 -0.000412 0.010655 -0.001363 -0.003702 0.005480 -0.010194
# 3 0.012773 -0.001363 0.026939 -0.008719 0.037084 -0.025323
# 4 -0.009126 -0.003702 -0.008719 0.030971 -0.022121 0.024341
# 5 0.046360 0.005480 0.037084 -0.022121 0.125922 -0.063413
# 6 -0.025595 -0.010194 -0.025323 0.024341 -0.063413 0.107566
#
#
# Mechanical properties :
#
#
# Convention : Reuss Voigt Hill
#
# Bulk Modulus (GPa) = 10.28895 39.56698 24.92797
# Shear Modulus (GPa) = 14.28345 28.84074 21.56209
#
# Velocity S-wave (km/s) = 2.68344 3.81310 3.29701
# Velocity P-wave (km/s) = 3.84554 6.27164 5.20200
#
# Compressibility (1/GPa) = 0.09719166
#
# Stress axis : x y z
#
# Youngs Moduli (GPa) = 26.59447 93.85624 37.12058
#
# Poissons Ratio (x) = 0.03866 -0.47415
# Poissons Ratio (y) = 0.01096 0.05061
# Poissons Ratio (z) = -0.33970 0.12796
#
# Static dielectric constant tensor:
#      x y z
#    x 1.711560 -0.010350 0.011680 
#    y -0.010350 1.785740 -0.011480 
#    z 0.011680 -0.011480 1.803520 
# 
# From -- ./inp_files/284264.got.cif
#   From: 2010.05.17/outbox.cif.g08.bks.cpg/sg2_143_cif.got.tgz:284264.got - 2010.06.03 11:33:40.
