data_PCOD9041217
_publ_section_title
;
Structure prediction by ZEFSAII (Michael W. Deem and Ramdas Pophale) SiO2 
 PCOD9041217
Probable space group: P -1
;
_chemical_formula_sum "Si O2"
_cell_formula_units_Z 16
_cell_length_a 11.293725
_cell_length_b 12.339811
_cell_length_c 7.926279
_cell_angle_alpha 79.169169
_cell_angle_beta 57.536420
_cell_angle_gamma 55.386803
_cell_volume 756.083951
_symmetry_space_group_name_H-M "P -1"
_symmetry_group_IT_number 2
_symmetry_cell_setting 'triclinic'
loop_
_space_group_symop_operation_xyz
x,y,z
-x,-y,-z
loop_
_atom_site_type_symbol
_atom_site_label
_atom_site_fract_x
_atom_site_fract_y
_atom_site_fract_z
Si Si1 0.361757 0.112279 0.198502
Si Si2 0.962995 0.377348 0.879320
Si Si3 0.347611 0.636788 0.790019
Si Si4 0.359262 0.875902 0.864244
Si Si5 0.810908 0.907551 0.353792
Si Si6 0.715986 0.371717 0.553218
Si Si7 0.965906 0.628178 0.775203
Si Si8 0.890436 0.100619 0.702365
O O1 0.455766 0.172352 0.200557
O O2 0.302243 0.053572 0.404496
O O3 0.194128 0.229675 0.201097
O O4 0.500000 0.000000 0.000000
O O5 0.940446 0.510652 0.789346
O O6 0.110550 0.245475 0.710229
O O7 0.791890 0.379840 0.010239
O O8 0.013284 0.367639 0.040456
O O9 0.348590 0.758646 0.828893
O O10 0.533869 0.501234 0.703785
O O11 0.302088 0.661601 0.617640
O O12 0.296302 0.992658 0.743188
O O13 0.229593 0.932827 0.103401
O O14 0.973604 0.911574 0.266262
O O15 0.776567 0.247616 0.665472
O O16 0.863557 0.398373 0.430436
O O17 0.000000 0.000000 0.500000
#
# Coordination Sequence:
#
# PCOD9041217 Si02
#       8
#     2   2   2   2   2   2   2   2
#     4  12  27  47  67  99 136 177 225 277 329 400
#     4  10  23  43  71  98 133 175 223 272 334 399
#     4  10  23  44  67 102 135 171 221 278 333 395
#     4  12  27  43  69 101 134 178 221 281 334 392
#     4  12  25  46  68  98 135 177 225 275 334 396
#     4  10  23  44  69  98 136 175 222 271 334 398
#     4  10  23  45  69  96 134 182 219 269 334 399
#     4  12  25  42  70  99 132 178 223 276 336 394
#
# _framework density 21.161670999999998
#
# number of rings (size 3 to 8) (size 9 to 14) (size 15 to 20)
#    0.000    1.000    2.500    3.000    7.000    2.000 
#    4.500    0.000    0.000    0.000    0.000    0.000 
#    0.000    0.000    0.000    0.000    0.000    0.000 
#
# Total GULP energy -89587.462101 kJ/mol
# GULP energy per Si atom -5599.216381 kJ/mol
# Density = 2.111351 g / cm^3
# Si number density = 21.161671 Si / 1000 Ang^3
#
#
#
# Elastic Constant Matrix: (Units=GPa)
#
#
# Indices 1 2 3 4 5 6 
#
# 1 84.7251 28.9479 17.3903 5.3393 -27.8817 -5.3057
# 2 28.9479 84.6115 45.6200 3.3430 2.5955 -7.6081
# 3 17.3903 45.6200 114.1718 -0.8499 -15.0223 -20.7607
# 4 5.3393 3.3430 -0.8499 35.6326 1.9317 4.1976
# 5 -27.8817 2.5955 -15.0223 1.9317 26.3686 2.6200
# 6 -5.3057 -7.6081 -20.7607 4.1976 2.6200 28.5610
#
#
#
# Elastic Compliance Matrix: (Units=1/GPa)
#
#
# Indices 1 2 3 4 5 6 
#
# 1 0.025902 -0.012497 0.005853 -0.004713 0.031950 0.003499
# 2 -0.012497 0.021881 -0.009935 0.000944 -0.020904 -0.001936
# 3 0.005853 -0.009935 0.015354 -0.001393 0.015180 0.008414
# 4 -0.004713 0.000944 -0.001393 0.029682 -0.007517 -0.005309
# 5 0.031950 -0.020904 0.015180 -0.007517 0.082473 0.004940
# 6 0.003499 -0.001936 0.008414 -0.005309 0.004940 0.041590
#
#
# Mechanical properties :
#
#
# Convention : Reuss Voigt Hill
#
# Bulk Modulus (GPa) = 33.35642 51.93609 42.64625
# Shear Modulus (GPa) = 19.22846 30.88245 25.05545
#
# Velocity S-wave (km/s) = 3.01765 3.82430 3.44467
# Velocity P-wave (km/s) = 5.28568 6.64049 6.00144
#
# Compressibility (1/GPa) = 0.02997924
#
# Stress axis : x y z
#
# Youngs Moduli (GPa) = 38.60747 45.70226 65.13041
#
# Poissons Ratio (x) = 0.57113 -0.38122
# Poissons Ratio (y) = 0.48247 0.64707
# Poissons Ratio (z) = -0.22598 0.45405
#
# Static dielectric constant tensor:
#      x y z
#    x 1.768700 0.027630 0.029570 
#    y 0.027630 1.707670 0.002900 
#    z 0.029570 0.002900 1.749730 
# 
# From -- ./inp_files/262269.got.cif
#   From: 2010.05.17/outbox.cif.g08.bks.cpg/sg2_132_cif.got.tgz:262269.got - 2010.06.03 11:33:40.
