data_PCOD9041859
_publ_section_title
;
Structure prediction by ZEFSAII (Michael W. Deem and Ramdas Pophale) SiO2 
 PCOD9041859
Probable space group: P -1
;
_chemical_formula_sum "Si O2"
_cell_formula_units_Z 16
_cell_length_a 9.688840
_cell_length_b 21.017067
_cell_length_c 10.215136
_cell_angle_alpha 45.359715
_cell_angle_beta 150.532671
_cell_angle_gamma 124.982080
_cell_volume 723.684305
_symmetry_space_group_name_H-M "P -1"
_symmetry_group_IT_number 2
_symmetry_cell_setting 'triclinic'
loop_
_space_group_symop_operation_xyz
x,y,z
-x,-y,-z
loop_
_atom_site_type_symbol
_atom_site_label
_atom_site_fract_x
_atom_site_fract_y
_atom_site_fract_z
Si Si1 0.651085 0.114665 0.565594
Si Si2 0.722613 0.901085 0.967190
Si Si3 0.250950 0.413557 0.053820
Si Si4 0.450864 0.214628 0.776712
Si Si5 0.139661 0.338652 0.807748
Si Si6 0.113763 0.666302 0.921311
Si Si7 0.316840 0.768644 0.323931
Si Si8 0.278297 0.610191 0.850120
O O1 0.415057 0.126063 0.242970
O O2 0.606537 0.171913 0.577316
O O3 0.687739 0.009115 0.787395
O O4 0.946721 0.133545 0.716144
O O5 0.572887 0.859175 0.025667
O O6 0.485997 0.327116 0.377897
O O7 0.008569 0.398714 0.979912
O O8 0.126245 0.411583 0.808093
O O9 0.376456 0.505329 0.057342
O O10 0.629606 0.186044 0.835860
O O11 0.134997 0.251962 0.418570
O O12 0.605820 0.295737 0.849099
O O13 0.998151 0.257066 0.876164
O O14 0.956919 0.363401 0.492017
O O15 0.464603 0.330484 0.044680
O O16 0.166012 0.623036 0.885223
#
# Coordination Sequence:
#
# PCOD9041859 Si02
#       8
#     2   2   2   2   2   2   2   2
#     4  10  24  42  69  98 130 162 209 255 322 366
#     4  10  23  44  67  99 129 165 204 263 304 389
#     4  11  25  46  63  90 133 167 216 268 319 373
#     4  11  24  42  66  93 133 166 213 254 320 377
#     4  12  25  42  61  95 124 167 215 271 312 376
#     4  11  25  43  63  95 126 172 212 265 315 376
#     4  11  26  42  66  95 130 172 207 265 317 380
#     4  12  27  40  67  91 124 173 220 266 319 369
#
# _framework density 22.109089000000001
#
# number of rings (size 3 to 8) (size 9 to 14) (size 15 to 20)
#    0.000    1.000    2.500    2.625    8.750    0.500 
#    0.000    3.125    0.000    6.750    0.000    0.000 
#    0.000    0.000    0.000    0.000    0.000    0.000 
#
# Total GULP energy -89587.488926 kJ/mol
# GULP energy per Si atom -5599.218058 kJ/mol
# Density = 2.205877 g / cm^3
# Si number density = 22.109089 Si / 1000 Ang^3
#
#
#
# Elastic Constant Matrix: (Units=GPa)
#
#
# Indices 1 2 3 4 5 6 
#
# 1 153.4829 58.2910 29.7712 13.9614 -18.3355 -9.5462
# 2 58.2910 91.3106 8.7722 12.4269 0.6321 -3.4139
# 3 29.7712 8.7722 69.5572 16.0294 5.9739 0.4083
# 4 13.9614 12.4269 16.0294 23.1159 4.8485 -1.5954
# 5 -18.3355 0.6321 5.9739 4.8485 29.6332 2.1061
# 6 -9.5462 -3.4139 0.4083 -1.5954 2.1061 26.2228
#
#
#
# Elastic Compliance Matrix: (Units=1/GPa)
#
#
# Indices 1 2 3 4 5 6 
#
# 1 0.010996 -0.006331 -0.004181 -0.001824 0.007903 0.002498
# 2 -0.006331 0.015512 0.002315 -0.005343 -0.003817 -0.000340
# 3 -0.004181 0.002315 0.018791 -0.010929 -0.004507 -0.001816
# 4 -0.001824 -0.005343 -0.010929 0.056757 -0.008306 0.002931
# 5 0.007903 -0.003817 -0.004507 -0.008306 0.041081 -0.001355
# 6 0.002498 -0.000340 -0.001816 0.002931 -0.001355 0.039315
#
#
# Mechanical properties :
#
#
# Convention : Reuss Voigt Hill
#
# Bulk Modulus (GPa) = 34.59809 56.44660 45.52235
# Shear Modulus (GPa) = 23.98284 30.29548 27.13916
#
# Velocity S-wave (km/s) = 3.29713 3.70574 3.50739
# Velocity P-wave (km/s) = 5.49341 6.62543 6.08580
#
# Compressibility (1/GPa) = 0.02890333
#
# Stress axis : x y z
#
# Youngs Moduli (GPa) = 90.93963 64.46661 53.21772
#
# Poissons Ratio (x) = 0.40816 0.22251
# Poissons Ratio (y) = 0.57576 -0.12318
# Poissons Ratio (z) = 0.38024 -0.14922
#
# Static dielectric constant tensor:
#      x y z
#    x 1.798700 0.005870 0.016370 
#    y 0.005870 1.793860 -0.023120 
#    z 0.016370 -0.023120 1.824030 
# 
# From -- ./inp_files/223541.got.cif
#   From: 2010.05.17/outbox.cif.g08.bks.cpg/sg2_112_cif.got.tgz:223541.got - 2010.06.03 11:33:40.
