data_PCOD9041800
_publ_section_title
;
Structure prediction by ZEFSAII (Michael W. Deem and Ramdas Pophale) SiO2 
 PCOD9041800
Probable space group: P -1
;
_chemical_formula_sum "Si O2"
_cell_formula_units_Z 16
_cell_length_a 11.633314
_cell_length_b 9.342686
_cell_length_c 10.930149
_cell_angle_alpha 82.274398
_cell_angle_beta 103.735235
_cell_angle_gamma 142.348050
_cell_volume 702.051100
_symmetry_space_group_name_H-M "P -1"
_symmetry_group_IT_number 2
_symmetry_cell_setting 'triclinic'
loop_
_space_group_symop_operation_xyz
x,y,z
-x,-y,-z
loop_
_atom_site_type_symbol
_atom_site_label
_atom_site_fract_x
_atom_site_fract_y
_atom_site_fract_z
Si Si1 0.380206 0.211126 0.129634
Si Si2 0.661971 0.821029 0.593507
Si Si3 0.729687 0.481500 0.524463
Si Si4 0.781354 0.661173 0.058571
Si Si5 0.219149 0.767391 0.528886
Si Si6 0.925790 0.266063 0.004088
Si Si7 0.120164 0.844041 0.717872
Si Si8 0.928551 0.880198 0.334187
O O1 0.404419 0.261685 0.273828
O O2 0.583873 0.402371 0.089902
O O3 0.269350 0.240662 0.037193
O O4 0.250645 0.944896 0.105344
O O5 0.471694 0.635415 0.482811
O O6 0.753682 0.068904 0.569732
O O7 0.842897 0.891371 0.607459
O O8 0.667534 0.265377 0.478816
O O9 0.891940 0.609683 0.652939
O O10 0.836310 0.672135 0.422014
O O11 0.903225 0.814489 0.193653
O O12 0.899294 0.667681 0.001937
O O13 0.000000 0.500000 0.500000
O O14 0.239806 0.851864 0.660801
O O15 0.854735 0.158691 0.133779
O O16 0.000000 0.500000 0.000000
O O17 0.166332 0.055359 0.677655
#
# Coordination Sequence:
#
# PCOD9041800 Si02
#       8
#     2   2   2   2   2   2   2   2
#     4  11  24  44  75  99 130 175 236 270 334 403
#     4  12  23  40  75  98 124 182 227 267 332 396
#     4  11  25  43  67  99 132 179 224 271 331 398
#     4  11  24  47  69 100 134 179 225 279 331 399
#     4  10  23  44  67  92 136 178 215 270 335 395
#     4  12  27  43  71 100 138 178 218 277 341 400
#     4  11  25  45  65 100 140 173 218 282 335 390
#     4  12  22  44  71  94 137 171 226 279 330 391
#
# _framework density 22.790364
#
# number of rings (size 3 to 8) (size 9 to 14) (size 15 to 20)
#    0.000    0.750    6.250    1.875    5.250    1.000 
#    2.250    0.000    0.000    0.000    0.000    0.000 
#    0.000    0.000    0.000    0.000    0.000    0.000 
#
# Total GULP energy -89532.950193 kJ/mol
# GULP energy per Si atom -5595.809387 kJ/mol
# Density = 2.273849 g / cm^3
# Si number density = 22.790364 Si / 1000 Ang^3
#
#
#
# Elastic Constant Matrix: (Units=GPa)
#
#
# Indices 1 2 3 4 5 6 
#
# 1 69.9575 2.6324 -13.5636 7.0527 -10.6482 -11.4971
# 2 2.6324 76.1592 -17.1300 -5.0620 5.1898 -1.2767
# 3 -13.5636 -17.1300 71.1438 3.1433 -10.5738 -0.6716
# 4 7.0527 -5.0620 3.1433 33.1390 4.1205 -1.5429
# 5 -10.6482 5.1898 -10.5738 4.1205 27.2418 10.0206
# 6 -11.4971 -1.2767 -0.6716 -1.5429 10.0206 40.7372
#
#
#
# Elastic Compliance Matrix: (Units=1/GPa)
#
#
# Indices 1 2 3 4 5 6 
#
# 1 0.017503 -0.000416 0.004763 -0.005178 0.008558 0.002704
# 2 -0.000416 0.014131 0.002860 0.002336 -0.002493 0.001074
# 3 0.004763 0.002860 0.017077 -0.003296 0.008641 -0.000535
# 4 -0.005178 0.002336 -0.003296 0.033239 -0.009575 0.002172
# 5 0.008558 -0.002493 0.008641 -0.009575 0.048984 -0.009932
# 6 0.002704 0.001074 -0.000535 0.002172 -0.009932 0.027861
#
#
# Mechanical properties :
#
#
# Convention : Reuss Voigt Hill
#
# Bulk Modulus (GPa) = 15.84156 17.90424 16.87290
# Shear Modulus (GPa) = 30.22561 36.57838 33.40200
#
# Velocity S-wave (km/s) = 3.64572 4.01058 3.83249
# Velocity P-wave (km/s) = 4.96868 5.41475 5.19650
#
# Compressibility (1/GPa) = 0.06312508
#
# Stress axis : x y z
#
# Youngs Moduli (GPa) = 57.13458 70.76587 58.55671
#
# Poissons Ratio (x) = 0.02942 -0.27891
# Poissons Ratio (y) = 0.02375 -0.16745
# Poissons Ratio (z) = -0.27213 -0.20237
#
# Static dielectric constant tensor:
#      x y z
#    x 1.872590 0.000700 -0.000290 
#    y 0.000700 1.892700 0.019010 
#    z -0.000290 0.019010 1.805480 
# 
# From -- ./inp_files/417157.got.cif
#   From: 2010.05.17/outbox.cif.g08.bks.cpg/sg2_209_cif.got.tgz:417157.got - 2010.06.03 11:33:40.
