data_PCOD9041972
_publ_section_title
;
Structure prediction by ZEFSAII (Michael W. Deem and Ramdas Pophale) SiO2 
 PCOD9041972
Probable space group: P -1
;
_chemical_formula_sum "Si O2"
_cell_formula_units_Z 16
_cell_length_a 12.244383
_cell_length_b 7.270618
_cell_length_c 18.443809
_cell_angle_alpha 135.208836
_cell_angle_beta 40.523670
_cell_angle_gamma 105.218215
_cell_volume 598.468093
_symmetry_space_group_name_H-M "P -1"
_symmetry_group_IT_number 2
_symmetry_cell_setting 'triclinic'
loop_
_space_group_symop_operation_xyz
x,y,z
-x,-y,-z
loop_
_atom_site_type_symbol
_atom_site_label
_atom_site_fract_x
_atom_site_fract_y
_atom_site_fract_z
Si Si1 0.699927 0.903374 0.417096
Si Si2 0.005154 0.774589 0.997000
Si Si3 0.460618 0.184023 0.861167
Si Si4 0.524189 0.182685 0.371105
Si Si5 0.085398 0.783081 0.584042
Si Si6 0.662124 0.660133 0.780573
Si Si7 0.198174 0.685076 0.245145
Si Si8 0.749727 0.256043 0.994407
O O1 0.635503 0.857470 0.516240
O O2 0.500000 0.000000 0.500000
O O3 0.750285 0.158147 0.452825
O O4 0.891559 0.564994 0.191028
O O5 0.136690 0.754527 0.993649
O O6 0.774713 0.915005 0.181242
O O7 0.000000 0.000000 0.000000
O O8 0.648013 0.210291 0.791448
O O9 0.513219 0.862262 0.706534
O O10 0.319545 0.330613 0.044929
O O11 0.314958 0.465926 0.953923
O O12 0.500000 0.500000 0.500000
O O13 0.202070 0.431861 0.386978
O O14 0.977072 0.055379 0.649796
O O15 0.905929 0.917182 0.773886
O O16 0.825886 0.398360 0.685120
O O17 0.483206 0.624701 0.835494
O O18 0.500000 0.000000 0.000000
#
# Coordination Sequence:
#
# PCOD9041972 Si02
#       8
#     2   2   2   2   2   2   2   2
#     4  12  25  44  73  99 133 187 234 281 340 420
#     4  12  25  45  66  99 139 177 229 285 347 408
#     4   9  19  40  70  95 130 178 229 285 336 404
#     4  12  25  44  63 101 143 176 226 289 353 406
#     4  11  23  43  72 100 127 181 242 274 337 418
#     4  11  24  42  63  99 141 174 219 288 353 403
#     4   9  19  41  69  98 126 175 235 281 331 406
#     4  10  23  44  68  96 134 180 231 284 338 413
#
# _framework density 26.734926999999999
#
# number of rings (size 3 to 8) (size 9 to 14) (size 15 to 20)
#    0.000    1.250    1.250    6.375    0.000    4.000 
#    6.750    0.000    0.000    0.000    0.000    0.000 
#    0.000    0.000    0.000    0.000    0.000    0.000 
#
# Total GULP energy -89480.584012 kJ/mol
# GULP energy per Si atom -5592.536501 kJ/mol
# Density = 2.667408 g / cm^3
# Si number density = 26.734927 Si / 1000 Ang^3
#
#
#
# Elastic Constant Matrix: (Units=GPa)
#
#
# Indices 1 2 3 4 5 6 
#
# 1 132.4825 20.4084 12.7072 -4.5311 11.2124 -10.0747
# 2 20.4084 71.3121 34.7539 -2.0490 5.2537 -13.1517
# 3 12.7072 34.7539 179.2597 -7.1932 38.0056 12.8484
# 4 -4.5311 -2.0490 -7.1932 42.2067 8.8634 4.2492
# 5 11.2124 5.2537 38.0056 8.8634 52.8781 -6.8538
# 6 -10.0747 -13.1517 12.8484 4.2492 -6.8538 41.6866
#
#
#
# Elastic Compliance Matrix: (Units=1/GPa)
#
#
# Indices 1 2 3 4 5 6 
#
# 1 0.008099 -0.002088 0.000173 0.001069 -0.001703 0.000856
# 2 -0.002088 0.017903 -0.004567 -0.001519 0.003137 0.007222
# 3 0.000173 -0.004567 0.008435 0.003232 -0.006895 -0.005462
# 4 0.001069 -0.001519 0.003232 0.026374 -0.007485 -0.005136
# 5 -0.001703 0.003137 -0.006895 -0.007485 0.026178 0.007770
# 6 0.000856 0.007222 -0.005462 -0.005136 0.007770 0.029958
#
#
# Mechanical properties :
#
#
# Convention : Reuss Voigt Hill
#
# Bulk Modulus (GPa) = 46.56880 57.64370 52.10625
# Shear Modulus (GPa) = 36.47837 48.36660 42.42249
#
# Velocity S-wave (km/s) = 3.69785 4.25799 3.98776
# Velocity P-wave (km/s) = 5.97400 6.76623 6.38242
#
# Compressibility (1/GPa) = 0.02147361
#
# Stress axis : x y z
#
# Youngs Moduli (GPa) = 123.47214 55.85647 118.56036
#
# Poissons Ratio (x) = 0.11664 -0.02053
# Poissons Ratio (y) = 0.25783 0.54141
# Poissons Ratio (z) = -0.02139 0.25507
#
# Static dielectric constant tensor:
#      x y z
#    x 2.085120 -0.000180 0.000820 
#    y -0.000180 2.196410 0.079160 
#    z 0.000820 0.079160 2.180820 
# 
# From -- ./inp_files/567050.got.cif
#   From: 2010.05.17/outbox.cif.g08.bks.cpg/sg2_284_cif.got.tgz:567050.got - 2010.06.03 11:33:40.
