data_PCOD9041588
_publ_section_title
;
Structure prediction by ZEFSAII (Michael W. Deem and Ramdas Pophale) SiO2 
 PCOD9041588
Probable space group: P -1
;
_chemical_formula_sum "Si O2"
_cell_formula_units_Z 16
_cell_length_a 7.862359
_cell_length_b 17.880502
_cell_length_c 15.505636
_cell_angle_alpha 35.748587
_cell_angle_beta 135.538744
_cell_angle_gamma 143.404381
_cell_volume 747.049070
_symmetry_space_group_name_H-M "P -1"
_symmetry_group_IT_number 2
_symmetry_cell_setting 'triclinic'
loop_
_space_group_symop_operation_xyz
x,y,z
-x,-y,-z
loop_
_atom_site_type_symbol
_atom_site_label
_atom_site_fract_x
_atom_site_fract_y
_atom_site_fract_z
Si Si1 0.779044 0.434680 0.185973
Si Si2 0.147179 0.024236 0.623507
Si Si3 0.363975 0.762062 0.125365
Si Si4 0.306649 0.254776 0.877314
Si Si5 0.572337 0.500814 0.879131
Si Si6 0.810515 0.227363 0.166910
Si Si7 0.659322 0.102926 0.835105
Si Si8 0.217097 0.855481 0.572242
O O1 0.578413 0.420210 0.206254
O O2 0.853204 0.306134 0.337100
O O3 0.060806 0.610027 0.125545
O O4 0.600288 0.410926 0.054793
O O5 0.489721 0.111804 0.682960
O O6 0.029465 0.107056 0.559657
O O7 0.067702 0.853592 0.772578
O O8 0.000000 0.000000 0.500000
O O9 0.607812 0.734445 0.202146
O O10 0.324496 0.783354 0.191799
O O11 0.478729 0.932526 0.970780
O O12 0.392951 0.406142 0.819761
O O13 0.971326 0.139881 0.885166
O O14 0.536901 0.221890 0.034617
O O15 0.901478 0.609410 0.865988
O O16 0.721032 0.146860 0.301835
O O17 0.500000 0.000000 0.500000
#
# Coordination Sequence:
#
# PCOD9041588 Si02
#       8
#     2   2   2   2   2   2   2   2
#     4  11  21  39  64 101 138 176 227 279 351 399
#     4  10  23  44  65  88 130 180 231 274 318 405
#     4  11  23  39  67 102 137 177 211 297 353 403
#     4  12  21  38  67 105 136 173 212 284 364 402
#     4  11  21  36  68 103 138 166 217 298 350 406
#     4  11  21  39  67 100 133 170 229 279 348 403
#     4  11  24  42  63 103 140 174 226 277 354 412
#     4  11  24  40  64  96 131 185 231 277 326 401
#
# _framework density 21.417603
#
# number of rings (size 3 to 8) (size 9 to 14) (size 15 to 20)
#    0.000    1.000    5.000    2.250    0.000    3.000 
#    2.250    0.625    0.000    3.750    0.000    0.000 
#    0.000    0.000    0.000    0.000    0.000    0.000 
#
# Total GULP energy -89077.052559 kJ/mol
# GULP energy per Si atom -5567.315785 kJ/mol
# Density = 2.136886 g / cm^3
# Si number density = 21.417603 Si / 1000 Ang^3
#
#
#
# Elastic Constant Matrix: (Units=GPa)
#
#
# Indices 1 2 3 4 5 6 
#
# 1 148.8755 54.1008 44.1370 -3.5054 19.9812 0.7939
# 2 54.1008 118.6775 33.4218 1.2562 11.6074 10.8502
# 3 44.1370 33.4218 41.1467 -7.0549 23.7337 16.6873
# 4 -3.5054 1.2562 -7.0549 24.8841 -3.6077 8.5077
# 5 19.9812 11.6074 23.7337 -3.6077 39.3234 -1.6249
# 6 0.7939 10.8502 16.6873 8.5077 -1.6249 46.8800
#
#
#
# Elastic Compliance Matrix: (Units=1/GPa)
#
#
# Indices 1 2 3 4 5 6 
#
# 1 0.012039 -0.001202 -0.019811 -0.005861 0.006004 0.008398
# 2 -0.001202 0.012025 -0.013280 -0.004883 0.004753 0.003015
# 3 -0.019811 -0.013280 0.109773 0.036721 -0.050720 -0.044087
# 4 -0.005861 -0.004883 0.036721 0.055719 -0.013558 -0.022424
# 5 0.006004 0.004753 -0.050720 -0.013558 0.051216 0.021088
# 6 0.008398 0.003015 -0.044087 -0.022424 0.021088 0.040985
#
#
# Mechanical properties :
#
#
# Convention : Reuss Voigt Hill
#
# Bulk Modulus (GPa) = 15.32559 63.55763 39.44161
# Shear Modulus (GPa) = 13.43754 34.02017 23.72886
#
# Velocity S-wave (km/s) = 2.50753 3.98982 3.33214
# Velocity P-wave (km/s) = 3.94395 7.13896 5.76713
#
# Compressibility (1/GPa) = 0.06525035
#
# Stress axis : x y z
#
# Youngs Moduli (GPa) = 83.06666 83.15955 9.10972
#
# Poissons Ratio (x) = 0.09993 0.18048
# Poissons Ratio (y) = 0.09982 0.12098
# Poissons Ratio (z) = 1.64566 1.10436
#
# Static dielectric constant tensor:
#      x y z
#    x 1.865220 -0.068630 0.012000 
#    y -0.068630 1.842640 -0.015940 
#    z 0.012000 -0.015940 1.803490 
# 
# From -- ./inp_files/562648.got.cif
#   From: 2010.05.17/outbox.cif.g08.bks.cpg/sg2_282_cif.got.tgz:562648.got - 2010.06.03 11:33:40.
