data_PCOD9041034
_publ_section_title
;
Structure prediction by ZEFSAII (Michael W. Deem and Ramdas Pophale) SiO2 
 PCOD9041034
Probable space group: P -1
;
_chemical_formula_sum "Si O2"
_cell_formula_units_Z 16
_cell_length_a 9.608842
_cell_length_b 13.630724
_cell_length_c 11.216284
_cell_angle_alpha 65.020746
_cell_angle_beta 58.151085
_cell_angle_gamma 113.548807
_cell_volume 666.021673
_symmetry_space_group_name_H-M "P -1"
_symmetry_group_IT_number 2
_symmetry_cell_setting 'triclinic'
loop_
_space_group_symop_operation_xyz
x,y,z
-x,-y,-z
loop_
_atom_site_type_symbol
_atom_site_label
_atom_site_fract_x
_atom_site_fract_y
_atom_site_fract_z
Si Si1 0.341258 0.792007 0.884922
Si Si2 0.213406 0.140645 0.435200
Si Si3 0.054509 0.291162 0.059350
Si Si4 0.829729 0.668133 0.748515
Si Si5 0.543808 0.966537 0.121632
Si Si6 0.105553 0.178934 0.860172
Si Si7 0.497971 0.689289 0.567455
Si Si8 0.119549 0.599593 0.613319
O O1 0.206964 0.780864 0.837433
O O2 0.086513 0.613507 0.176664
O O3 0.514076 0.778621 0.777364
O O4 0.524136 0.979052 0.774669
O O5 0.143850 0.231778 0.420588
O O6 0.242297 0.129094 0.567267
O O7 0.000000 0.000000 0.500000
O O8 0.121820 0.240447 0.951566
O O9 0.306155 0.512803 0.828659
O O10 0.036919 0.236449 0.229501
O O11 0.927924 0.602133 0.704434
O O12 0.500000 0.500000 0.000000
O O13 0.349638 0.756178 0.330698
O O14 0.863499 0.110541 0.931856
O O15 0.500000 0.000000 0.000000
O O16 0.393432 0.325275 0.583324
O O17 0.000000 0.000000 0.000000
O O18 0.310931 0.684064 0.600355
#
# Coordination Sequence:
#
# PCOD9041034 Si02
#       8
#     2   2   2   2   2   2   2   2
#     4  10  23  45  66  98 131 178 225 265 342 403
#     4  12  26  40  67 103 136 172 216 283 342 394
#     4  10  23  43  70  94 133 175 222 276 326 407
#     4  12  23  41  66 104 132 162 217 281 338 388
#     4  11  26  43  66  96 138 177 221 282 330 396
#     4  11  24  44  65  97 131 175 230 268 327 397
#     4  11  23  44  69  94 132 182 225 266 331 407
#     4  11  23  45  69  95 135 176 222 276 337 398
#
# _framework density 24.023243000000001
#
# number of rings (size 3 to 8) (size 9 to 14) (size 15 to 20)
#    0.000    1.000    3.750    1.875    5.250    2.500 
#    0.000    3.125    0.000    0.000    0.000    0.000 
#    0.000    0.000    0.000    0.000    0.000    0.000 
#
# Total GULP energy -89276.613327 kJ/mol
# GULP energy per Si atom -5579.788333 kJ/mol
# Density = 2.396856 g / cm^3
# Si number density = 24.023243 Si / 1000 Ang^3
#
#
#
# Elastic Constant Matrix: (Units=GPa)
#
#
# Indices 1 2 3 4 5 6 
#
# 1 147.3719 21.7703 13.2224 -0.7082 -9.6729 1.0283
# 2 21.7703 59.6715 -1.7511 -2.2559 -4.6189 1.5380
# 3 13.2224 -1.7511 49.4115 -0.5281 2.9897 1.4501
# 4 -0.7082 -2.2559 -0.5281 23.5909 -6.2455 -1.2660
# 5 -9.6729 -4.6189 2.9897 -6.2455 38.6437 5.9368
# 6 1.0283 1.5380 1.4501 -1.2660 5.9368 38.1808
#
#
#
# Elastic Compliance Matrix: (Units=1/GPa)
#
#
# Indices 1 2 3 4 5 6 
#
# 1 0.007497 -0.002635 -0.002198 0.000396 0.001839 -0.000285
# 2 -0.002635 0.018007 0.001279 0.002119 0.001878 -0.000925
# 3 -0.002198 0.001279 0.021004 -0.000016 -0.001950 -0.000487
# 4 0.000396 0.002119 -0.000016 0.044608 0.007530 0.000213
# 5 0.001839 0.001878 -0.001950 0.007530 0.028583 -0.004246
# 6 -0.000285 -0.000925 -0.000487 0.000213 -0.004246 0.026922
#
#
# Mechanical properties :
#
#
# Convention : Reuss Voigt Hill
#
# Bulk Modulus (GPa) = 25.38085 35.88202 30.63144
# Shear Modulus (GPa) = 29.96518 34.96397 32.46457
#
# Velocity S-wave (km/s) = 3.53560 3.81914 3.68010
# Velocity P-wave (km/s) = 5.22067 5.86656 5.55301
#
# Compressibility (1/GPa) = 0.03939978
#
# Stress axis : x y z
#
# Youngs Moduli (GPa) = 133.39337 55.53525 47.61023
#
# Poissons Ratio (x) = 0.14633 0.10465
# Poissons Ratio (y) = 0.35147 -0.06091
# Poissons Ratio (z) = 0.29322 -0.07105
#
# Static dielectric constant tensor:
#      x y z
#    x 1.844160 -0.025070 -0.003160 
#    y -0.025070 1.963550 -0.035600 
#    z -0.003160 -0.035600 2.048590 
# 
# From -- ./inp_files/238492.got.cif
#   From: 2010.05.17/outbox.cif.g08.bks.cpg/sg2_120_cif.got.tgz:238492.got - 2010.06.03 11:33:40.
