data_PCOD9041111
_publ_section_title
;
Structure prediction by ZEFSAII (Michael W. Deem and Ramdas Pophale) SiO2 
 PCOD9041111
Probable space group: P -1
;
_chemical_formula_sum "Si O2"
_cell_formula_units_Z 16
_cell_length_a 11.929530
_cell_length_b 10.418629
_cell_length_c 19.897006
_cell_angle_alpha 137.736140
_cell_angle_beta 23.745771
_cell_angle_gamma 128.430370
_cell_volume 655.343336
_symmetry_space_group_name_H-M "P -1"
_symmetry_group_IT_number 2
_symmetry_cell_setting 'triclinic'
loop_
_space_group_symop_operation_xyz
x,y,z
-x,-y,-z
loop_
_atom_site_type_symbol
_atom_site_label
_atom_site_fract_x
_atom_site_fract_y
_atom_site_fract_z
Si Si1 0.338570 0.956921 0.789013
Si Si2 0.262253 0.646922 0.608175
Si Si3 0.442724 0.789316 0.442632
Si Si4 0.501652 0.749820 0.755319
Si Si5 0.690330 0.034603 0.845957
Si Si6 0.917025 0.312797 0.915977
Si Si7 0.529409 0.332269 0.763338
Si Si8 0.326110 0.398365 0.107169
O O1 0.411081 0.762896 0.625727
O O2 0.436664 0.903247 0.789667
O O3 0.447826 0.142020 0.769676
O O4 0.000000 0.000000 0.000000
O O5 0.210785 0.783320 0.623959
O O6 0.418158 0.449047 0.408995
O O7 0.953073 0.622150 0.788480
O O8 0.342266 0.731638 0.404263
O O9 0.765224 0.668451 0.232778
O O10 0.500000 0.000000 0.500000
O O11 0.737218 0.833190 0.701226
O O12 0.258793 0.732604 0.938154
O O13 0.928895 0.134264 0.787315
O O14 0.504529 0.201079 0.964848
O O15 0.500000 0.000000 0.000000
O O16 0.748614 0.501504 0.040516
O O17 0.722487 0.446019 0.745134
O O18 0.500000 0.500000 0.000000
#
# Coordination Sequence:
#
# PCOD9041111 Si02
#       8
#     2   2   2   2   2   2   2   2
#     4  12  25  43  71  98 137 182 227 279 346 408
#     4  12  27  44  70 104 138 179 232 287 338 410
#     4  12  25  42  68 106 141 176 232 285 338 406
#     4  11  23  44  68 102 140 178 228 279 342 408
#     4   9  21  42  71  99 129 184 224 274 340 403
#     4  10  23  43  71 100 140 179 225 279 344 402
#     4  11  23  45  70  99 131 188 224 278 344 401
#     4  11  25  48  69  97 136 182 233 277 343 409
#
# _framework density 24.414684000000001
#
# number of rings (size 3 to 8) (size 9 to 14) (size 15 to 20)
#    0.000    1.000    2.500    3.750    5.250    1.500 
#    4.500    1.250    0.000    0.000    0.000    0.000 
#    0.000    0.000    0.000    0.000    0.000    0.000 
#
# Total GULP energy -89328.413277 kJ/mol
# GULP energy per Si atom -5583.025830 kJ/mol
# Density = 2.435911 g / cm^3
# Si number density = 24.414684 Si / 1000 Ang^3
#
#
#
# Elastic Constant Matrix: (Units=GPa)
#
#
# Indices 1 2 3 4 5 6 
#
# 1 131.7210 38.5207 25.5886 17.4645 34.7128 13.8533
# 2 38.5207 128.4293 23.3616 1.1448 11.4677 -4.0626
# 3 25.5886 23.3616 71.2230 17.7510 16.2667 1.6789
# 4 17.4645 1.1448 17.7510 37.4580 11.9335 15.5182
# 5 34.7128 11.4677 16.2667 11.9335 36.8429 14.5012
# 6 13.8533 -4.0626 1.6789 15.5182 14.5012 49.7685
#
#
#
# Elastic Compliance Matrix: (Units=1/GPa)
#
#
# Indices 1 2 3 4 5 6 
#
# 1 0.010958 -0.002375 -0.000714 -0.001908 -0.008606 -0.000118
# 2 -0.002375 0.009003 -0.002440 0.001685 -0.000461 0.001087
# 3 -0.000714 -0.002440 0.018226 -0.007931 -0.005395 0.003430
# 4 -0.001908 0.001685 -0.007931 0.036230 -0.003256 -0.009412
# 5 -0.008606 -0.000461 -0.005395 -0.003256 0.042280 -0.008764
# 6 -0.000118 0.001087 0.003430 -0.009412 -0.008764 0.025587
#
#
# Mechanical properties :
#
#
# Convention : Reuss Voigt Hill
#
# Bulk Modulus (GPa) = 36.86209 56.25725 46.55967
# Shear Modulus (GPa) = 30.79082 41.07403 35.93242
#
# Velocity S-wave (km/s) = 3.55513 4.10610 3.84051
# Velocity P-wave (km/s) = 5.65536 6.75074 6.22718
#
# Compressibility (1/GPa) = 0.02712814
#
# Stress axis : x y z
#
# Youngs Moduli (GPa) = 91.25386 111.07197 54.86800
#
# Poissons Ratio (x) = 0.26382 0.03919
# Poissons Ratio (y) = 0.21675 0.13388
# Poissons Ratio (z) = 0.06518 0.27102
#
# Static dielectric constant tensor:
#      x y z
#    x -28.914160 -9.662680 3.168160 
#    y -9.662680 -1.052750 1.098140 
#    z 3.168160 1.098140 1.704330 
# 
# From -- ./inp_files/566885.got.cif
#   From: 2010.05.17/outbox.cif.g08.bks.cpg/sg2_284_cif.got.tgz:566885.got - 2010.06.03 11:33:40.
