data_PCOD9041203
_publ_section_title
;
Structure prediction by ZEFSAII (Michael W. Deem and Ramdas Pophale) SiO2 
 PCOD9041203
Probable space group: P -1
;
_chemical_formula_sum "Si O2"
_cell_formula_units_Z 16
_cell_length_a 7.834867
_cell_length_b 15.547564
_cell_length_c 9.166471
_cell_angle_alpha 60.374009
_cell_angle_beta 85.394591
_cell_angle_gamma 45.980408
_cell_volume 633.078204
_symmetry_space_group_name_H-M "P -1"
_symmetry_group_IT_number 2
_symmetry_cell_setting 'triclinic'
loop_
_space_group_symop_operation_xyz
x,y,z
-x,-y,-z
loop_
_atom_site_type_symbol
_atom_site_label
_atom_site_fract_x
_atom_site_fract_y
_atom_site_fract_z
Si Si1 0.387689 0.130396 0.604928
Si Si2 0.555107 0.390002 0.303211
Si Si3 0.770588 0.993989 0.928869
Si Si4 0.171364 0.707572 0.934482
Si Si5 0.088346 0.862001 0.299611
Si Si6 0.309329 0.952660 0.612494
Si Si7 0.835184 0.655092 0.964702
Si Si8 0.069890 0.459956 0.362095
O O1 0.628293 0.068443 0.543449
O O2 0.152438 0.310776 0.455057
O O3 0.504576 0.070588 0.809246
O O4 0.318079 0.060717 0.585559
O O5 0.415437 0.554493 0.136167
O O6 0.321202 0.414677 0.330608
O O7 0.734791 0.302038 0.507978
O O8 0.719299 0.296539 0.221770
O O9 0.866104 0.931292 0.139113
O O10 0.752984 0.120250 0.804535
O O11 0.005479 0.847443 0.936743
O O12 0.984464 0.695110 0.917411
O O13 0.954384 0.968446 0.362958
O O14 0.553168 0.790386 0.802960
O O15 0.831926 0.612300 0.162265
O O16 0.000000 0.500000 0.000000
O O17 0.000000 0.500000 0.500000
#
# Coordination Sequence:
#
# PCOD9041203 Si02
#       8
#     2   2   2   2   2   2   2   2
#     4  11  23  44  66  96 135 175 228 275 336 407
#     4  10  23  44  66  99 129 177 227 278 340 400
#     4  11  24  43  64  98 138 179 223 275 341 404
#     4  10  23  43  71  95 133 181 229 281 335 410
#     4  11  26  40  67 101 138 177 223 281 338 406
#     4  11  25  40  69 103 130 176 229 282 336 396
#     4  11  23  43  67 100 135 175 231 280 339 400
#     4  11  25  42  69  97 134 180 222 278 344 407
#
# _framework density 25.273337999999999
#
# number of rings (size 3 to 8) (size 9 to 14) (size 15 to 20)
#    0.000    1.250    3.750    0.750    5.250    5.000 
#    0.000    0.000    0.000    0.000    0.000    0.000 
#    0.000    0.000    0.000    0.000    0.000    0.000 
#
# Total GULP energy -89559.726035 kJ/mol
# GULP energy per Si atom -5597.482877 kJ/mol
# Density = 2.521581 g / cm^3
# Si number density = 25.273338 Si / 1000 Ang^3
#
#
#
# Elastic Constant Matrix: (Units=GPa)
#
#
# Indices 1 2 3 4 5 6 
#
# 1 87.1077 7.3712 23.6994 0.1603 -3.4705 7.0342
# 2 7.3712 69.8638 16.7974 4.0176 -27.7526 8.6043
# 3 23.6994 16.7974 206.0201 -2.5029 -2.7715 3.8579
# 4 0.1603 4.0176 -2.5029 40.7579 -5.3405 1.3194
# 5 -3.4705 -27.7526 -2.7715 -5.3405 21.9930 -0.4555
# 6 7.0342 8.6043 3.8579 1.3194 -0.4555 23.1595
#
#
#
# Elastic Compliance Matrix: (Units=1/GPa)
#
#
# Indices 1 2 3 4 5 6 
#
# 1 0.012188 0.000300 -0.001328 0.000234 0.002117 -0.003564
# 2 0.000300 0.032123 -0.001870 0.002409 0.040703 -0.011051
# 3 -0.001328 -0.001870 0.005134 0.000255 -0.001856 0.000192
# 4 0.000234 0.002409 0.000255 0.025602 0.009278 -0.002284
# 5 0.002117 0.040703 -0.001856 0.009278 0.098893 -0.014039
# 6 -0.003564 -0.011051 0.000192 -0.002284 -0.014039 0.048189
#
#
# Mechanical properties :
#
#
# Convention : Reuss Voigt Hill
#
# Bulk Modulus (GPa) = 22.91070 50.96971 36.94021
# Shear Modulus (GPa) = 20.62078 38.19033 29.40555
#
# Velocity S-wave (km/s) = 2.85951 3.89149 3.41471
# Velocity P-wave (km/s) = 4.47071 6.35632 5.49500
#
# Compressibility (1/GPa) = 0.04364774
#
# Stress axis : x y z
#
# Youngs Moduli (GPa) = 82.04940 31.13073 194.79140
#
# Poissons Ratio (x) = -0.00934 0.25876
# Poissons Ratio (y) = -0.02462 0.36422
# Poissons Ratio (z) = 0.10900 0.05821
#
# Static dielectric constant tensor:
#      x y z
#    x 2.070870 -0.029440 0.025440 
#    y -0.029440 1.956760 -0.007450 
#    z 0.025440 -0.007450 2.061840 
# 
# From -- ./inp_files/217010.got.cif
#   From: 2010.05.17/outbox.cif.g08.bks.cpg/sg2_109_cif.got.tgz:217010.got - 2010.06.03 11:33:40.
