data_PCOD9041906
_publ_section_title
;
Structure prediction by ZEFSAII (Michael W. Deem and Ramdas Pophale) SiO2 
 PCOD9041906
Probable space group: P -1
;
_chemical_formula_sum "Si O2"
_cell_formula_units_Z 14
_cell_length_a 13.793022
_cell_length_b 11.744610
_cell_length_c 10.323353
_cell_angle_alpha 51.930092
_cell_angle_beta 147.851530
_cell_angle_gamma 137.758383
_cell_volume 597.977163
_symmetry_space_group_name_H-M "P -1"
_symmetry_group_IT_number 2
_symmetry_cell_setting 'triclinic'
loop_
_space_group_symop_operation_xyz
x,y,z
-x,-y,-z
loop_
_atom_site_type_symbol
_atom_site_label
_atom_site_fract_x
_atom_site_fract_y
_atom_site_fract_z
Si Si1 0.836704 0.791166 0.858323
Si Si2 0.792958 0.609604 0.426515
Si Si3 0.159964 0.667308 0.974839
Si Si4 0.138105 0.417653 0.754165
Si Si5 0.546164 0.413825 0.783288
Si Si6 0.507542 0.206592 0.372370
Si Si7 0.742967 0.059862 0.903394
O O1 0.947275 0.733634 0.132506
O O2 0.657339 0.609503 0.722392
O O3 0.023717 0.904594 0.892736
O O4 0.705098 0.860836 0.732939
O O5 0.810177 0.654394 0.264273
O O6 0.629533 0.407435 0.376915
O O7 0.018881 0.646838 0.705420
O O8 0.697138 0.671047 0.388173
O O9 0.368090 0.668535 0.160865
O O10 0.231873 0.842540 0.004653
O O11 0.000000 0.500000 0.000000
O O12 0.339366 0.557798 0.966209
O O13 0.000000 0.500000 0.500000
O O14 0.661194 0.152925 0.648317
O O15 0.432801 0.132135 0.196527
#
# Coordination Sequence:
#
# PCOD9041906 Si02
#       7
#     2   2   2   2   2   2   2
#     4   9  19  34  54  83 103 136 183 223 263 305
#     4  11  20  35  55  85 104 138 179 227 264 312
#     4  12  20  34  53  78 116 139 175 220 271 317
#     4  10  17  33  58  83 106 134 182 233 262 306
#     4   9  20  31  52  83 104 135 175 221 269 305
#     4  10  21  34  55  80 109 141 180 215 269 316
#     4  11  21  36  53  80 113 144 173 217 267 328
#
# _framework density 23.412264
#
# number of rings (size 3 to 8) (size 9 to 14) (size 15 to 20)
#    0.857    0.857    4.286    1.714    0.000    1.714 
#    0.000    0.000    0.000    1.714    0.000    0.000 
#    0.000    0.000    0.000    0.000    0.000    0.000 
#
# Total GULP energy -78069.258410 kJ/mol
# GULP energy per Si atom -5576.375601 kJ/mol
# Density = 2.335898 g / cm^3
# Si number density = 23.412264 Si / 1000 Ang^3
#
#
#
# Elastic Constant Matrix: (Units=GPa)
#
#
# Indices 1 2 3 4 5 6 
#
# 1 108.0633 26.3287 15.7343 3.4586 17.8045 -26.6297
# 2 26.3287 44.2445 11.0428 15.2909 2.7227 -26.6438
# 3 15.7343 11.0428 74.7940 -3.8766 11.0816 -3.6751
# 4 3.4586 15.2909 -3.8766 22.6060 -14.8867 -10.8748
# 5 17.8045 2.7227 11.0816 -14.8867 36.8112 -1.8956
# 6 -26.6297 -26.6438 -3.6751 -10.8748 -1.8956 27.4058
#
#
#
# Elastic Compliance Matrix: (Units=1/GPa)
#
#
# Indices 1 2 3 4 5 6 
#
# 1 0.013435 0.000525 -0.001461 0.000029 -0.005416 0.013006
# 2 0.000525 0.065417 -0.006982 -0.029086 -0.012138 0.050792
# 3 -0.001461 -0.006982 0.014965 0.003947 -0.001931 -0.004768
# 4 0.000029 -0.029086 0.003947 0.099026 0.041741 0.014462
# 5 -0.005416 -0.012138 -0.001931 0.041741 0.048277 0.002581
# 6 0.013006 0.050792 -0.004768 0.014462 0.002581 0.103784
#
#
# Mechanical properties :
#
#
# Convention : Reuss Voigt Hill
#
# Bulk Modulus (GPa) = 12.82362 37.03484 24.92923
# Shear Modulus (GPa) = 12.92878 28.96433 20.94656
#
# Velocity S-wave (km/s) = 2.35249 3.52112 2.99437
# Velocity P-wave (km/s) = 3.58722 5.69069 4.75669
#
# Compressibility (1/GPa) = 0.07798110
#
# Stress axis : x y z
#
# Youngs Moduli (GPa) = 74.43222 15.28650 66.82389
#
# Poissons Ratio (x) = -0.00803 0.09762
# Poissons Ratio (y) = -0.03911 0.46659
# Poissons Ratio (z) = 0.10874 0.10674
#
# Static dielectric constant tensor:
#      x y z
#    x 1.937150 -0.009090 0.019090 
#    y -0.009090 1.870370 -0.013870 
#    z 0.019090 -0.013870 1.896700 
# 
# From -- ./inp_files/421894.got.cif
#   From: 2010.05.17/outbox.cif.g08.bks.cpg/sg2_211_cif.got.tgz:421894.got - 2010.06.03 11:33:40.
