data_PCOD9041511
_publ_section_title
;
Structure prediction by ZEFSAII (Michael W. Deem and Ramdas Pophale) SiO2 
 PCOD9041511
Probable space group: P -1
;
_chemical_formula_sum "Si O2"
_cell_formula_units_Z 16
_cell_length_a 21.060096
_cell_length_b 21.596320
_cell_length_c 9.433903
_cell_angle_alpha 142.921162
_cell_angle_beta 134.537892
_cell_angle_gamma 18.392265
_cell_volume 780.496909
_symmetry_space_group_name_H-M "P -1"
_symmetry_group_IT_number 2
_symmetry_cell_setting 'triclinic'
loop_
_space_group_symop_operation_xyz
x,y,z
-x,-y,-z
loop_
_atom_site_type_symbol
_atom_site_label
_atom_site_fract_x
_atom_site_fract_y
_atom_site_fract_z
Si Si1 0.946704 0.301620 0.336857
Si Si2 0.525607 0.225377 0.063430
Si Si3 0.120362 0.146859 0.625526
Si Si4 0.858279 0.050965 0.203154
Si Si5 0.867221 0.707473 0.557400
Si Si6 0.097231 0.767034 0.352541
Si Si7 0.183713 0.358235 0.932297
Si Si8 0.464938 0.210341 0.247081
O O1 0.721144 0.552433 0.512984
O O2 0.109144 0.141714 0.430784
O O3 0.986754 0.352615 0.383020
O O4 0.990652 0.149681 0.049764
O O5 0.661225 0.179834 0.137069
O O6 0.291986 0.487050 0.116870
O O7 0.500098 0.245970 0.230567
O O8 0.660484 0.981930 0.794506
O O9 0.073963 0.094509 0.548905
O O10 0.321114 0.003169 0.721382
O O11 0.919365 0.424219 0.860051
O O12 0.810563 0.220884 0.426013
O O13 0.977686 0.909659 0.279841
O O14 0.797676 0.718214 0.327035
O O15 0.000000 0.500000 0.500000
O O16 0.392521 0.173541 0.008219
O O17 0.000000 0.500000 0.000000
#
# Coordination Sequence:
#
# PCOD9041511 Si02
#       8
#     2   2   2   2   2   2   2   2
#     4  10  23  44  63  97 134 166 225 273 323 394
#     4  11  22  43  69  98 132 173 222 271 330 394
#     4  11  22  42  66  92 137 177 213 273 327 393
#     4  10  24  42  70 103 130 173 221 277 332 389
#     4  11  24  43  68 100 135 171 220 278 329 393
#     4  11  22  44  72  95 136 176 218 273 336 391
#     4  11  22  44  63  94 131 171 224 264 327 392
#     4  11  22  41  67  91 131 177 214 268 333 380
#
# _framework density 20.499760999999999
#
# number of rings (size 3 to 8) (size 9 to 14) (size 15 to 20)
#    0.000    1.250    6.250    1.125    1.750    3.500 
#    2.250    1.875    0.000    0.000    0.000    0.000 
#    0.000    0.000    0.000    0.000    0.000    0.000 
#
# Total GULP energy -89237.363587 kJ/mol
# GULP energy per Si atom -5577.335224 kJ/mol
# Density = 2.045310 g / cm^3
# Si number density = 20.499761 Si / 1000 Ang^3
#
#
#
# Elastic Constant Matrix: (Units=GPa)
#
#
# Indices 1 2 3 4 5 6 
#
# 1 89.3849 34.9253 44.0888 0.1672 -8.6518 -7.1590
# 2 34.9253 85.8782 16.3062 -8.4117 1.9512 4.9110
# 3 44.0888 16.3062 95.9900 2.4701 -7.0254 2.7298
# 4 0.1672 -8.4117 2.4701 26.3284 -5.7980 2.9259
# 5 -8.6518 1.9512 -7.0254 -5.7980 27.1598 -2.3113
# 6 -7.1590 4.9110 2.7298 2.9259 -2.3113 26.1597
#
#
#
# Elastic Compliance Matrix: (Units=1/GPa)
#
#
# Indices 1 2 3 4 5 6 
#
# 1 0.018479 -0.006846 -0.007149 -0.001412 0.004881 0.007677
# 2 -0.006846 0.015209 0.000402 0.004911 -0.002593 -0.005549
# 3 -0.007149 0.000402 0.013805 -0.000561 0.000861 -0.003334
# 4 -0.001412 0.004911 -0.000561 0.041858 0.007540 -0.005265
# 5 0.004881 -0.002593 0.000861 0.007540 0.040775 0.004492
# 6 0.007677 -0.005549 -0.003334 -0.005265 0.004492 0.042703
#
#
# Mechanical properties :
#
#
# Convention : Reuss Voigt Hill
#
# Bulk Modulus (GPa) = 49.24180 51.32152 50.28166
# Shear Modulus (GPa) = 24.17980 27.65842 25.91911
#
# Velocity S-wave (km/s) = 3.43813 3.67714 3.55964
# Velocity P-wave (km/s) = 6.31141 6.56643 6.44018
#
# Compressibility (1/GPa) = 0.02030795
#
# Stress axis : x y z
#
# Youngs Moduli (GPa) = 54.11627 65.74910 72.43557
#
# Poissons Ratio (x) = 0.45011 0.51786
# Poissons Ratio (y) = 0.37047 -0.02914
# Poissons Ratio (z) = 0.38689 -0.02645
#
# Static dielectric constant tensor:
#      x y z
#    x 1.781190 0.010960 0.029180 
#    y 0.010960 1.765820 -0.016350 
#    z 0.029180 -0.016350 1.735160 
# 
# From -- ./inp_files/349604.got.cif
#   From: 2010.05.17/outbox.cif.g08.bks.cpg/sg2_175_cif.got.tgz:349604.got - 2010.06.03 11:33:40.
