data_PCOD9041733
_publ_section_title
;
Structure prediction by ZEFSAII (Michael W. Deem and Ramdas Pophale) SiO2 
 PCOD9041733
Probable space group: P -1
;
_chemical_formula_sum "Si O2"
_cell_formula_units_Z 15
_cell_length_a 6.614892
_cell_length_b 11.374459
_cell_length_c 11.603167
_cell_angle_alpha 114.331005
_cell_angle_beta 73.762685
_cell_angle_gamma 122.285102
_cell_volume 670.494869
_symmetry_space_group_name_H-M "P -1"
_symmetry_group_IT_number 2
_symmetry_cell_setting 'triclinic'
loop_
_space_group_symop_operation_xyz
x,y,z
-x,-y,-z
loop_
_atom_site_type_symbol
_atom_site_label
_atom_site_fract_x
_atom_site_fract_y
_atom_site_fract_z
Si Si1 0.882911 0.881242 0.868509
Si Si2 0.376383 0.784503 0.465805
Si Si3 0.037241 0.860473 0.169335
Si Si4 0.833102 0.072083 0.573264
Si Si5 0.000000 0.500000 0.500000
Si Si6 0.342885 0.741349 0.973072
Si Si7 0.054399 0.395441 0.199999
Si Si8 0.493331 0.670487 0.165817
O O1 0.596505 0.803829 0.894926
O O2 0.967748 0.759613 0.818701
O O3 0.961890 0.985151 0.786124
O O4 0.000000 0.000000 0.000000
O O5 0.157315 0.815101 0.479226
O O6 0.273453 0.643015 0.504142
O O7 0.476997 0.760696 0.317322
O O8 0.569318 0.931984 0.556363
O O9 0.775605 0.730197 0.126548
O O10 0.096599 0.845391 0.284254
O O11 0.244327 0.856945 0.058403
O O12 0.000000 0.000000 0.500000
O O13 0.012059 0.470572 0.348254
O O14 0.132326 0.623272 0.878560
O O15 0.385230 0.695034 0.074708
O O16 0.326608 0.501351 0.157529
#
# Coordination Sequence:
#
# PCOD9041733 Si02
#       8
#     2   2   2   2   1   2   2   2
#     4  12  26  44  68 106 139 175 226 287 343 406
#     4  10  23  44  66  99 136 177 234 279 334 410
#     4  12  25  42  71 100 141 179 229 289 341 406
#     4  11  23  40  70 101 129 184 234 280 339 400
#     4  10  26  48  68  98 142 182 218 288 340 406
#     4  12  24  44  71 100 133 182 228 282 346 404
#     4  11  27  47  69  99 142 181 229 282 346 408
#     4  11  23  45  67  99 136 179 229 284 336 412
#
# _framework density 22.371535000000002
#
# number of rings (size 3 to 8) (size 9 to 14) (size 15 to 20)
#    0.000    0.800    5.333    0.800    3.733    3.200 
#    0.000    1.333    0.000    0.000    0.000    0.000 
#    0.000    0.000    0.000    0.000    0.000    0.000 
#
# Total GULP energy -83570.487871 kJ/mol
# GULP energy per Si atom -5571.365858 kJ/mol
# Density = 2.232062 g / cm^3
# Si number density = 22.371535 Si / 1000 Ang^3
#
#
#
# Elastic Constant Matrix: (Units=GPa)
#
#
# Indices 1 2 3 4 5 6 
#
# 1 100.7017 16.4346 26.8047 -0.0529 17.8194 14.6438
# 2 16.4346 73.1667 9.3072 -3.1971 16.9733 17.5531
# 3 26.8047 9.3072 66.0759 4.0677 12.5256 6.3477
# 4 -0.0529 -3.1971 4.0677 33.6582 3.7999 1.1967
# 5 17.8194 16.9733 12.5256 3.7999 28.9787 0.2323
# 6 14.6438 17.5531 6.3477 1.1967 0.2323 26.7851
#
#
#
# Elastic Compliance Matrix: (Units=1/GPa)
#
#
# Indices 1 2 3 4 5 6 
#
# 1 0.012973 0.000906 -0.003470 0.001579 -0.007160 -0.006873
# 2 0.000906 0.019788 0.000322 0.003756 -0.012670 -0.013598
# 3 -0.003470 0.000322 0.017875 -0.001419 -0.005575 -0.002438
# 4 0.001579 0.003756 -0.001419 0.031141 -0.006606 -0.004322
# 5 -0.007160 -0.012670 -0.005575 -0.006606 0.049501 0.013405
# 6 -0.006873 -0.013598 -0.002438 -0.004322 0.013405 0.050657
#
#
# Mechanical properties :
#
#
# Convention : Reuss Voigt Hill
#
# Bulk Modulus (GPa) = 21.66713 38.33746 30.00230
# Shear Modulus (GPa) = 24.77656 30.37760 27.57708
#
# Velocity S-wave (km/s) = 3.33153 3.68892 3.51477
# Velocity P-wave (km/s) = 4.95025 5.94291 5.46914
#
# Compressibility (1/GPa) = 0.04615285
#
# Stress axis : x y z
#
# Youngs Moduli (GPa) = 77.08107 50.53446 55.94429
#
# Poissons Ratio (x) = -0.04579 0.19413
# Poissons Ratio (y) = -0.06985 -0.01801
# Poissons Ratio (z) = 0.26748 -0.01627
#
# Static dielectric constant tensor:
#      x y z
#    x 1.899180 0.031210 0.036070 
#    y 0.031210 1.929040 0.060910 
#    z 0.036070 0.060910 1.866200 
# 
# From -- ./inp_files/66056.got.cif
#   From: 2010.05.17/outbox.cif.g08.bks.cpg/sg2_34_cif.got.tgz:66056.got - 2010.06.03 11:33:40.
