data_PCOD9041663
_publ_section_title
;
Structure prediction by ZEFSAII (Michael W. Deem and Ramdas Pophale) SiO2 
 PCOD9041663
Probable space group: P -1
;
_chemical_formula_sum "Si O2"
_cell_formula_units_Z 13
_cell_length_a 5.501663
_cell_length_b 9.092996
_cell_length_c 14.531241
_cell_angle_alpha 131.901332
_cell_angle_beta 100.061103
_cell_angle_gamma 98.959208
_cell_volume 494.573957
_symmetry_space_group_name_H-M "P -1"
_symmetry_group_IT_number 2
_symmetry_cell_setting 'triclinic'
loop_
_space_group_symop_operation_xyz
x,y,z
-x,-y,-z
loop_
_atom_site_type_symbol
_atom_site_label
_atom_site_fract_x
_atom_site_fract_y
_atom_site_fract_z
Si Si1 0.064136 0.143578 0.654156
Si Si2 0.358248 0.967945 0.846151
Si Si3 0.887689 0.518490 0.809298
Si Si4 0.480442 0.585463 0.680978
Si Si5 0.000000 0.000000 0.000000
Si Si6 0.863847 0.774880 0.611996
Si Si7 0.586601 0.328299 0.881589
O O1 0.033547 0.364791 0.722631
O O2 0.352729 0.200414 0.741068
O O3 0.867443 0.992755 0.656440
O O4 0.000000 0.000000 0.500000
O O5 0.478612 0.798051 0.820825
O O6 0.152756 0.828623 0.696764
O O7 0.582109 0.158343 0.887370
O O8 0.184477 0.051322 0.936705
O O9 0.625380 0.473408 0.710155
O O10 0.828876 0.452778 0.883896
O O11 0.027279 0.767592 0.907247
O O12 0.665103 0.688862 0.648040
O O13 0.219942 0.407438 0.547152
O O14 0.500000 0.500000 0.000000
#
# Coordination Sequence:
#
# PCOD9041663 Si02
#       7
#     2   2   2   2   1   2   2
#     4  11  27  47  73 100 146 185 229 292 345 414
#     4  11  24  46  68 101 140 180 232 282 352 401
#     4  12  27  46  70 106 138 182 237 278 354 413
#     4  11  24  41  75 100 138 180 227 295 340 416
#     4  12  26  44  70 102 142 178 228 294 336 418
#     4  10  23  44  66 106 132 182 230 288 344 406
#     4  11  25  47  71 104 137 192 230 285 346 418
#
# _framework density 26.285250000000001
#
# number of rings (size 3 to 8) (size 9 to 14) (size 15 to 20)
#    0.000    0.923    3.077    2.308    4.308    9.846 
#    0.000    0.000    0.000    0.000    0.000    0.000 
#    0.000    0.000    0.000    0.000    0.000    0.000 
#
# Total GULP energy -72611.524683 kJ/mol
# GULP energy per Si atom -5585.501899 kJ/mol
# Density = 2.622542 g / cm^3
# Si number density = 26.285250 Si / 1000 Ang^3
#
#
#
# Elastic Constant Matrix: (Units=GPa)
#
#
# Indices 1 2 3 4 5 6 
#
# 1 36.4696 40.6649 5.3835 -7.7912 -17.1057 -2.0637
# 2 40.6649 159.2729 43.3287 20.7375 -6.5806 10.2056
# 3 5.3835 43.3287 109.6646 -3.1316 10.4384 -12.6062
# 4 -7.7912 20.7375 -3.1316 59.9596 -8.8645 -5.5739
# 5 -17.1057 -6.5806 10.4384 -8.8645 51.0510 -3.8302
# 6 -2.0637 10.2056 -12.6062 -5.5739 -3.8302 60.8927
#
#
#
# Elastic Compliance Matrix: (Units=1/GPa)
#
#
# Indices 1 2 3 4 5 6 
#
# 1 0.063725 -0.019631 0.004173 0.019430 0.022053 0.009480
# 2 -0.019631 0.013855 -0.004812 -0.008923 -0.005745 -0.005162
# 3 0.004173 -0.004812 0.011379 0.003017 -0.000760 0.003532
# 4 0.019430 -0.008923 0.003017 0.024355 0.009392 0.005599
# 5 0.022053 -0.005745 -0.000760 0.009392 0.028338 0.004195
# 6 0.009480 -0.005162 0.003532 0.005599 0.004195 0.019116
#
#
# Mechanical properties :
#
#
# Convention : Reuss Voigt Hill
#
# Bulk Modulus (GPa) = 20.65266 53.79570 37.22418
# Shear Modulus (GPa) = 22.99403 48.78266 35.88835
#
# Velocity S-wave (km/s) = 2.96089 4.31268 3.69906
# Velocity P-wave (km/s) = 4.42305 6.73124 5.69530
#
# Compressibility (1/GPa) = 0.04841990
#
# Stress axis : x y z
#
# Youngs Moduli (GPa) = 15.69251 72.17678 87.87778
#
# Poissons Ratio (x) = 1.41692 -0.36675
# Poissons Ratio (y) = 0.30806 0.42284
# Poissons Ratio (z) = -0.06549 0.34729
#
# Static dielectric constant tensor:
#      x y z
#    x 2.666600 0.049500 0.275390 
#    y 0.049500 2.044010 0.003050 
#    z 0.275390 0.003050 2.119390 
# 
# From -- ./inp_files/22181.got.cif
#   From: 2010.05.17/outbox.cif.g08.bks.cpg/sg2_12_cif.got.tgz:22181.got - 2010.06.03 11:33:40.
