data_PCOD9041632
_publ_section_title
;
Structure prediction by ZEFSAII (Michael W. Deem and Ramdas Pophale) SiO2 
 PCOD9041632
Probable space group: P -1
;
_chemical_formula_sum "Si O2"
_cell_formula_units_Z 15
_cell_length_a 13.053172
_cell_length_b 9.799007
_cell_length_c 11.329947
_cell_angle_alpha 113.327828
_cell_angle_beta 60.051066
_cell_angle_gamma 147.567582
_cell_volume 672.423851
_symmetry_space_group_name_H-M "P -1"
_symmetry_group_IT_number 2
_symmetry_cell_setting 'triclinic'
loop_
_space_group_symop_operation_xyz
x,y,z
-x,-y,-z
loop_
_atom_site_type_symbol
_atom_site_label
_atom_site_fract_x
_atom_site_fract_y
_atom_site_fract_z
Si Si1 0.500000 0.500000 0.500000
Si Si2 0.841866 0.087117 0.841379
Si Si3 0.798253 0.891334 0.051803
Si Si4 0.870905 0.723265 0.453281
Si Si5 0.412047 0.548652 0.819168
Si Si6 0.190118 0.607742 0.480058
Si Si7 0.696034 0.239070 0.049436
Si Si8 0.366047 0.957611 0.726080
O O1 0.638126 0.524728 0.503024
O O2 0.393475 0.449981 0.670214
O O3 0.641524 0.845667 0.796503
O O4 0.813993 0.958217 0.929590
O O5 0.033068 0.246340 0.707852
O O6 0.851149 0.271443 0.928433
O O7 0.629079 0.605192 0.101794
O O8 0.743682 0.993941 0.180775
O O9 0.000000 0.000000 0.000000
O O10 0.896031 0.638540 0.517295
O O11 0.000000 0.000000 0.500000
O O12 0.270385 0.551137 0.913327
O O13 0.391315 0.787271 0.348195
O O14 0.000000 0.500000 0.500000
O O15 0.267530 0.770898 0.609000
O O16 0.655573 0.156703 0.179988
O O17 0.500000 0.000000 0.000000
#
# Coordination Sequence:
#
# PCOD9041632 Si02
#       8
#     1   2   2   2   2   2   2   2
#     4  12  24  42  70 102 144 182 224 294 346 414
#     4  10  23  44  66 100 136 178 232 286 346 419
#     4  11  24  43  67  99 140 180 232 289 350 417
#     4  12  26  45  70 106 140 182 241 290 356 424
#     4  11  22  41  69 102 134 184 227 286 347 410
#     4  11  27  45  74 102 141 192 235 295 353 426
#     4   9  21  41  73  96 133 183 228 284 345 418
#     4  10  24  49  66 103 144 180 237 289 354 419
#
# _framework density 22.307359000000002
#
# number of rings (size 3 to 8) (size 9 to 14) (size 15 to 20)
#    0.000    1.333    1.333    2.800    3.733    6.400 
#    4.800    3.333    0.000    0.000    0.000    0.000 
#    0.000    0.000    0.000    0.000    0.000    0.000 
#
# Total GULP energy -83564.106246 kJ/mol
# GULP energy per Si atom -5570.940416 kJ/mol
# Density = 2.225659 g / cm^3
# Si number density = 22.307359 Si / 1000 Ang^3
#
#
#
# Elastic Constant Matrix: (Units=GPa)
#
#
# Indices 1 2 3 4 5 6 
#
# 1 148.0217 21.2791 28.1481 -2.8845 -19.0301 -13.7719
# 2 21.2791 71.6475 11.5594 -6.0965 -6.7358 -14.2256
# 3 28.1481 11.5594 101.8635 -8.4803 -19.3002 -5.5672
# 4 -2.8845 -6.0965 -8.4803 14.2124 2.7085 -3.8316
# 5 -19.0301 -6.7358 -19.3002 2.7085 38.7967 0.3702
# 6 -13.7719 -14.2256 -5.5672 -3.8316 0.3702 45.6861
#
#
#
# Elastic Compliance Matrix: (Units=1/GPa)
#
#
# Indices 1 2 3 4 5 6 
#
# 1 0.007748 -0.001476 -0.001334 0.000055 0.002860 0.001695
# 2 -0.001476 0.016255 -0.000250 0.007666 0.001389 0.005218
# 3 -0.001334 -0.000250 0.011684 0.006084 0.004676 0.001416
# 4 0.000055 0.007666 0.006084 0.080204 -0.001309 0.009882
# 5 0.002860 0.001389 0.004676 -0.001309 0.029823 0.001513
# 6 0.001695 0.005218 0.001416 0.009882 0.001513 0.025013
#
#
# Mechanical properties :
#
#
# Convention : Reuss Voigt Hill
#
# Bulk Modulus (GPa) = 33.82249 49.27841 41.55045
# Shear Modulus (GPa) = 26.78042 37.10879 31.94461
#
# Velocity S-wave (km/s) = 3.46861 4.08305 3.78831
# Velocity P-wave (km/s) = 5.58897 6.66086 6.14832
#
# Compressibility (1/GPa) = 0.02956612
#
# Stress axis : x y z
#
# Youngs Moduli (GPa) = 129.06236 61.52067 85.58631
#
# Poissons Ratio (x) = 0.09079 0.11421
# Poissons Ratio (y) = 0.19046 0.02142
# Poissons Ratio (z) = 0.17222 0.01540
#
# Static dielectric constant tensor:
#      x y z
#    x 2.349740 0.217110 -0.098570 
#    y 0.217110 1.934630 0.009390 
#    z -0.098570 0.009390 1.830060 
# 
# From -- ./inp_files/417808.got.cif
#   From: 2010.05.17/outbox.cif.g08.bks.cpg/sg2_209_cif.got.tgz:417808.got - 2010.06.03 11:33:40.
