data_PCOD9041286
_publ_section_title
;
Structure prediction by ZEFSAII (Michael W. Deem and Ramdas Pophale) SiO2 
 PCOD9041286
Probable space group: P -1
;
_chemical_formula_sum "Si O2"
_cell_formula_units_Z 16
_cell_length_a 7.275854
_cell_length_b 18.232703
_cell_length_c 9.297365
_cell_angle_alpha 43.109346
_cell_angle_beta 86.224403
_cell_angle_gamma 116.141897
_cell_volume 586.603490
_symmetry_space_group_name_H-M "P -1"
_symmetry_group_IT_number 2
_symmetry_cell_setting 'triclinic'
loop_
_space_group_symop_operation_xyz
x,y,z
-x,-y,-z
loop_
_atom_site_type_symbol
_atom_site_label
_atom_site_fract_x
_atom_site_fract_y
_atom_site_fract_z
Si Si1 0.790754 0.618307 0.744387
Si Si2 0.081718 0.872216 0.577700
Si Si3 0.773782 0.846781 0.872413
Si Si4 0.737553 0.931232 0.256304
Si Si5 0.986393 0.408721 0.761487
Si Si6 0.524102 0.288691 0.645973
Si Si7 0.211096 0.691238 0.805033
Si Si8 0.883303 0.231135 0.763044
O O1 0.948603 0.788257 0.552983
O O2 0.955780 0.590856 0.854654
O O3 0.863356 0.650911 0.525011
O O4 0.500000 0.500000 0.000000
O O5 0.211599 0.814068 0.691148
O O6 0.849339 0.807464 0.790653
O O7 0.285369 0.054774 0.306675
O O8 0.568782 0.719372 0.178988
O O9 0.039543 0.975909 0.767235
O O10 0.724574 0.841146 0.254815
O O11 0.466567 0.787364 0.557840
O O12 0.751216 0.058988 0.013160
O O13 0.263630 0.531814 0.658027
O O14 0.000000 0.500000 0.500000
O O15 0.948936 0.285581 0.848265
O O16 0.793063 0.368946 0.954722
O O17 0.678321 0.238731 0.714390
#
# Coordination Sequence:
#
# PCOD9041286 Si02
#       8
#     2   2   2   2   2   2   2   2
#     4  10  23  43  72  96 135 178 229 274 331 408
#     4   9  22  42  62  98 131 181 223 275 333 395
#     4  11  23  38  64  99 138 173 221 286 336 388
#     4  12  24  41  73  99 134 178 235 278 332 403
#     4  10  25  42  67 103 138 173 221 284 342 400
#     4  11  23  43  64  97 139 175 220 279 337 404
#     4  10  23  46  68  99 131 185 230 274 333 409
#     4  11  23  45  71 100 132 185 226 276 338 403
#
# _framework density 27.275666000000001
#
# number of rings (size 3 to 8) (size 9 to 14) (size 15 to 20)
#    0.750    0.750    1.250    3.000    1.750    8.500 
#    2.250    1.875    0.000    0.000    0.000    0.000 
#    0.000    0.000    0.000    0.000    0.000    0.000 
#
# Total GULP energy -89459.782592 kJ/mol
# GULP energy per Si atom -5591.236412 kJ/mol
# Density = 2.721359 g / cm^3
# Si number density = 27.275666 Si / 1000 Ang^3
#
#
#
# Elastic Constant Matrix: (Units=GPa)
#
#
# Indices 1 2 3 4 5 6 
#
# 1 56.8853 6.1821 -12.5273 2.3277 2.6814 12.1585
# 2 6.1821 137.8937 22.1339 11.4897 3.2640 -3.2992
# 3 -12.5273 22.1339 112.7503 36.5583 -18.3654 13.2778
# 4 2.3277 11.4897 36.5583 52.6508 3.5419 -8.5982
# 5 2.6814 3.2640 -18.3654 3.5419 41.9700 -5.8467
# 6 12.1585 -3.2992 13.2778 -8.5982 -5.8467 36.7383
#
#
#
# Elastic Compliance Matrix: (Units=1/GPa)
#
#
# Indices 1 2 3 4 5 6 
#
# 1 0.021838 -0.001715 0.006423 -0.006924 0.000569 -0.011233
# 2 -0.001715 0.007738 -0.002260 0.000361 -0.001237 0.001967
# 3 0.006423 -0.002260 0.016786 -0.013618 0.006797 -0.010501
# 4 -0.006924 0.000361 -0.013618 0.031316 -0.006297 0.013573
# 5 0.000569 -0.001237 0.006797 -0.006297 0.027411 0.000133
# 6 -0.011233 0.001967 -0.010501 0.013573 0.000133 0.038107
#
#
# Mechanical properties :
#
#
# Convention : Reuss Voigt Hill
#
# Bulk Modulus (GPa) = 19.50920 37.67853 28.59386
# Shear Modulus (GPa) = 32.17830 45.72119 38.94974
#
# Velocity S-wave (km/s) = 3.43847 4.09866 3.78299
# Velocity P-wave (km/s) = 4.78876 6.02019 5.43943
#
# Compressibility (1/GPa) = 0.05125788
#
# Stress axis : x y z
#
# Youngs Moduli (GPa) = 45.79263 129.23435 59.57413
#
# Poissons Ratio (x) = 0.22169 -0.38267
# Poissons Ratio (y) = 0.07855 0.13462
# Poissons Ratio (z) = -0.29415 0.29204
#
# Static dielectric constant tensor:
#      x y z
#    x 2.222540 0.053260 0.072780 
#    y 0.053260 2.135850 -0.040910 
#    z 0.072780 -0.040910 2.320270 
# 
# From -- ./inp_files/223198.got.cif
#   From: 2010.05.17/outbox.cif.g08.bks.cpg/sg2_112_cif.got.tgz:223198.got - 2010.06.03 11:33:40.
