data_PCOD9041019
_publ_section_title
;
Structure prediction by ZEFSAII (Michael W. Deem and Ramdas Pophale) SiO2 
 PCOD9041019
Probable space group: P -1
;
_chemical_formula_sum "Si O2"
_cell_formula_units_Z 16
_cell_length_a 14.297571
_cell_length_b 5.461618
_cell_length_c 15.320405
_cell_angle_alpha 79.182663
_cell_angle_beta 139.740571
_cell_angle_gamma 116.904878
_cell_volume 663.151878
_symmetry_space_group_name_H-M "P -1"
_symmetry_group_IT_number 2
_symmetry_cell_setting 'triclinic'
loop_
_space_group_symop_operation_xyz
x,y,z
-x,-y,-z
loop_
_atom_site_type_symbol
_atom_site_label
_atom_site_fract_x
_atom_site_fract_y
_atom_site_fract_z
Si Si1 0.682597 0.427053 0.155009
Si Si2 0.010732 0.057285 0.737528
Si Si3 0.364320 0.585419 0.362792
Si Si4 0.673673 0.129498 0.851745
Si Si5 0.190264 0.613049 0.401670
Si Si6 0.993920 0.131948 0.077624
Si Si7 0.400816 0.549063 0.705415
Si Si8 0.475858 0.162522 0.866375
O O1 0.635991 0.408013 0.224398
O O2 0.851033 0.714857 0.242413
O O3 0.659036 0.106654 0.156474
O O4 0.567680 0.396678 0.991943
O O5 0.877090 0.167874 0.643067
O O6 0.944525 0.723717 0.689330
O O7 0.084555 0.094816 0.884835
O O8 0.500000 0.500000 0.500000
O O9 0.399739 0.760285 0.285880
O O10 0.314837 0.719996 0.400395
O O11 0.184327 0.318340 0.229891
O O12 0.619216 0.158842 0.908934
O O13 0.586403 0.788111 0.797558
O O14 0.870917 0.265775 0.975710
O O15 0.284102 0.589500 0.553848
O O16 0.000000 0.000000 0.000000
O O17 0.382553 0.239727 0.720040
#
# Coordination Sequence:
#
# PCOD9041019 Si02
#       8
#     2   2   2   2   2   2   2   2
#     4  10  24  42  74 100 146 188 249 306 381 431
#     4  11  27  48  74 107 151 198 242 314 371 447
#     4  11  26  46  75 108 152 199 245 309 380 451
#     4  11  25  43  76 107 145 195 249 311 370 444
#     4  11  28  47  72 106 151 195 252 297 381 455
#     4  11  26  45  73 111 145 194 254 306 373 448
#     4  11  25  44  71 104 144 191 252 307 372 444
#     4  10  23  43  70 107 141 185 249 311 377 436
#
# _framework density 24.127206000000001
#
# number of rings (size 3 to 8) (size 9 to 14) (size 15 to 20)
#    0.000    1.250    0.000    3.000   17.500    2.500 
#    0.000    0.000    0.000    0.000    0.000    0.000 
#    0.000    0.000    0.000    0.000    0.000    0.000 
#
# Total GULP energy -89235.022062 kJ/mol
# GULP energy per Si atom -5577.188879 kJ/mol
# Density = 2.407229 g / cm^3
# Si number density = 24.127206 Si / 1000 Ang^3
#
#
#
# Elastic Constant Matrix: (Units=GPa)
#
#
# Indices 1 2 3 4 5 6 
#
# 1 80.6452 17.1745 28.0674 0.1797 -25.7922 19.5303
# 2 17.1745 68.3060 15.2474 0.1268 -1.7674 29.9219
# 3 28.0674 15.2474 141.2692 -25.2562 -12.0498 5.4999
# 4 0.1797 0.1268 -25.2562 25.2542 6.3752 0.0587
# 5 -25.7922 -1.7674 -12.0498 6.3752 31.9538 -7.5760
# 6 19.5303 29.9219 5.4999 0.0587 -7.5760 40.7545
#
#
#
# Elastic Compliance Matrix: (Units=1/GPa)
#
#
# Indices 1 2 3 4 5 6 
#
# 1 0.020101 -0.001551 -0.003705 -0.007623 0.015033 -0.005189
# 2 -0.001551 0.022537 -0.002043 -0.000982 -0.004458 -0.016355
# 3 -0.003705 -0.002043 0.009658 0.009951 -0.001028 0.001767
# 4 -0.007623 -0.000982 0.009951 0.052855 -0.012867 0.000564
# 5 0.015033 -0.004458 -0.001028 -0.012867 0.046518 0.004873
# 6 -0.005189 -0.016355 0.001767 0.000564 0.004873 0.039698
#
#
# Mechanical properties :
#
#
# Convention : Reuss Voigt Hill
#
# Bulk Modulus (GPa) = 26.52731 45.68878 36.10805
# Shear Modulus (GPa) = 22.88009 34.90792 28.89400
#
# Velocity S-wave (km/s) = 3.08281 3.80785 3.46435
# Velocity P-wave (km/s) = 4.86726 6.18956 5.56780
#
# Compressibility (1/GPa) = 0.03769699
#
# Stress axis : x y z
#
# Youngs Moduli (GPa) = 49.74830 44.37169 103.54290
#
# Poissons Ratio (x) = 0.06883 0.38362
# Poissons Ratio (y) = 0.07716 0.21158
# Poissons Ratio (z) = 0.18431 0.09067
#
# Static dielectric constant tensor:
#      x y z
#    x 1.998110 -0.137850 0.047280 
#    y -0.137850 2.254440 -0.023230 
#    z 0.047280 -0.023230 1.930140 
# 
# From -- ./inp_files/525630.got.cif
#   From: 2010.05.17/outbox.cif.g08.bks.cpg/sg2_263_cif.got.tgz:525630.got - 2010.06.03 11:33:40.
