data_PCOD9041570
_publ_section_title
;
Structure prediction by ZEFSAII (Michael W. Deem and Ramdas Pophale) SiO2 
 PCOD9041570
Probable space group: P -1
;
_chemical_formula_sum "Si O2"
_cell_formula_units_Z 16
_cell_length_a 22.510959
_cell_length_b 6.843483
_cell_length_c 16.838864
_cell_angle_alpha 98.134073
_cell_angle_beta 157.869879
_cell_angle_gamma 66.516386
_cell_volume 674.246257
_symmetry_space_group_name_H-M "P -1"
_symmetry_group_IT_number 2
_symmetry_cell_setting 'triclinic'
loop_
_space_group_symop_operation_xyz
x,y,z
-x,-y,-z
loop_
_atom_site_type_symbol
_atom_site_label
_atom_site_fract_x
_atom_site_fract_y
_atom_site_fract_z
Si Si1 0.006942 0.695599 0.775715
Si Si2 0.482385 0.675963 0.233827
Si Si3 0.840212 0.831737 0.416392
Si Si4 0.972063 0.439059 0.835309
Si Si5 0.483630 0.777354 0.831856
Si Si6 0.571305 0.470426 0.676067
Si Si7 0.852275 0.779837 0.252996
Si Si8 0.142707 0.075728 0.174339
O O1 0.074001 0.421708 0.876820
O O2 0.017425 0.741480 0.698175
O O3 0.169958 0.702829 0.017060
O O4 0.741745 0.950207 0.478086
O O5 0.481133 0.475083 0.169046
O O6 0.459492 0.655483 0.298325
O O7 0.729193 0.556613 0.525408
O O8 0.275299 0.984721 0.958331
O O9 0.867814 0.874777 0.363065
O O10 0.906061 0.538430 0.484236
O O11 0.604594 0.110112 0.180107
O O12 0.949810 0.662668 0.871422
O O13 0.120542 0.168201 0.060918
O O14 0.685210 0.745491 0.063039
O O15 0.500000 0.500000 0.500000
O O16 0.398772 0.803032 0.503025
O O17 0.000000 0.000000 0.000000
#
# Coordination Sequence:
#
# PCOD9041570 Si02
#       8
#     2   2   2   2   2   2   2   2
#     4  10  23  44  64  99 140 181 228 293 346 419
#     4  12  25  43  74 102 138 193 238 286 359 430
#     4   9  23  43  73 103 148 178 236 293 358 420
#     4  11  24  41  70  97 125 186 241 279 345 430
#     4  10  23  44  71 101 148 183 227 296 360 413
#     4  12  27  43  66  99 144 185 230 299 352 411
#     4  11  22  47  72 108 137 192 230 296 353 434
#     4  11  24  43  67  91 135 177 234 291 349 402
#
# _framework density 23.730201000000001
#
# number of rings (size 3 to 8) (size 9 to 14) (size 15 to 20)
#    0.750    0.500    2.500    2.625    5.250    2.000 
#    2.250    5.625    0.000    0.000    0.000    0.000 
#    0.000    0.000    0.000    0.000    0.000    0.000 
#
# Total GULP energy -89241.847023 kJ/mol
# GULP energy per Si atom -5577.615439 kJ/mol
# Density = 2.367619 g / cm^3
# Si number density = 23.730201 Si / 1000 Ang^3
#
#
#
# Elastic Constant Matrix: (Units=GPa)
#
#
# Indices 1 2 3 4 5 6 
#
# 1 92.2918 34.6934 28.5001 9.1022 -26.8439 -12.1536
# 2 34.6934 84.9440 12.6194 4.9958 -16.2040 -2.7085
# 3 28.5001 12.6194 95.0066 7.5801 -34.7616 6.9212
# 4 9.1022 4.9958 7.5801 38.9243 10.8042 -3.0231
# 5 -26.8439 -16.2040 -34.7616 10.8042 39.5261 -3.7765
# 6 -12.1536 -2.7085 6.9212 -3.0231 -3.7765 34.9575
#
#
#
# Elastic Compliance Matrix: (Units=1/GPa)
#
#
# Indices 1 2 3 4 5 6 
#
# 1 0.017613 -0.004182 -0.000075 -0.006552 0.012604 0.006609
# 2 -0.004182 0.014351 0.001364 -0.002513 0.004901 -0.000300
# 3 -0.000075 0.001364 0.018081 -0.009035 0.018663 -0.002266
# 4 -0.006552 -0.002513 -0.009035 0.035738 -0.023204 -0.000100
# 5 0.012604 0.004901 0.018663 -0.023204 0.059145 0.005449
# 6 0.006609 -0.000300 -0.002266 -0.000100 0.005449 0.031909
#
#
# Mechanical properties :
#
#
# Convention : Reuss Voigt Hill
#
# Bulk Modulus (GPa) = 22.59453 47.09649 34.84551
# Shear Modulus (GPa) = 25.33207 35.77687 30.55447
#
# Velocity S-wave (km/s) = 3.27081 3.88706 3.59218
# Velocity P-wave (km/s) = 4.87918 6.32735 5.64986
#
# Compressibility (1/GPa) = 0.04425849
#
# Stress axis : x y z
#
# Youngs Moduli (GPa) = 56.77639 69.68140 55.30519
#
# Poissons Ratio (x) = 0.29141 0.00416
# Poissons Ratio (y) = 0.23744 -0.07543
# Poissons Ratio (z) = 0.00427 -0.09503
#
# Static dielectric constant tensor:
#      x y z
#    x 2.036040 -0.063710 -0.010140 
#    y -0.063710 1.933840 -0.012800 
#    z -0.010140 -0.012800 1.882980 
# 
# From -- ./inp_files/578725.got.cif
#   From: 2010.05.17/outbox.cif.g08.bks.cpg/sg2_290_cif.got.tgz:578725.got - 2010.06.03 11:33:40.
