data_PCOD9041157
_publ_section_title
;
Structure prediction by ZEFSAII (Michael W. Deem and Ramdas Pophale) SiO2 
 PCOD9041157
Probable space group: P -1
;
_chemical_formula_sum "Si O2"
_cell_formula_units_Z 15
_cell_length_a 5.525175
_cell_length_b 14.271182
_cell_length_c 15.277083
_cell_angle_alpha 145.979265
_cell_angle_beta 70.348397
_cell_angle_gamma 116.078893
_cell_volume 604.408805
_symmetry_space_group_name_H-M "P -1"
_symmetry_group_IT_number 2
_symmetry_cell_setting 'triclinic'
loop_
_space_group_symop_operation_xyz
x,y,z
-x,-y,-z
loop_
_atom_site_type_symbol
_atom_site_label
_atom_site_fract_x
_atom_site_fract_y
_atom_site_fract_z
Si Si1 0.816604 0.342513 0.957053
Si Si2 0.604443 0.164814 0.504510
Si Si3 0.912008 0.082246 0.988461
Si Si4 0.000000 0.000000 0.500000
Si Si5 0.537211 0.267152 0.246960
Si Si6 0.217776 0.142809 0.821038
Si Si7 0.477464 0.595822 0.453932
Si Si8 0.944622 0.624759 0.297740
O O1 0.802768 0.441143 0.126577
O O2 0.528101 0.262635 0.884443
O O3 0.000000 0.500000 0.000000
O O4 0.993903 0.212195 0.854031
O O5 0.320209 0.032535 0.465267
O O6 0.605603 0.273599 0.500130
O O7 0.739291 0.322519 0.677655
O O8 0.784595 0.034090 0.366585
O O9 0.129312 0.116574 0.912485
O O10 0.656574 0.927931 0.863651
O O11 0.801997 0.243484 0.151414
O O12 0.000000 0.000000 0.000000
O O13 0.062877 0.213595 0.637449
O O14 0.387139 0.382930 0.299223
O O15 0.591360 0.356074 0.403819
O O16 0.788703 0.631298 0.412872
#
# Coordination Sequence:
#
# PCOD9041157 Si02
#       8
#     2   2   2   1   2   2   2   2
#     4  12  30  51  78 114 155 200 255 323 386 456
#     4  11  25  45  76 105 144 199 253 309 379 450
#     4  11  25  42  75 106 151 200 255 305 388 450
#     4  10  24  42  72 100 144 176 250 302 376 434
#     4  10  23  44  69 108 148 193 248 311 374 450
#     4  12  29  49  80 110 160 199 259 314 387 455
#     4  10  23  43  71 103 148 188 250 307 373 445
#     4  11  25  44  75 104 144 194 254 304 384 442
#
# _framework density 24.817639
#
# number of rings (size 3 to 8) (size 9 to 14) (size 15 to 20)
#    0.000    1.067    0.000    4.000   16.800    1.067 
#    0.000    3.333    0.000    0.000    0.000    0.000 
#    0.000    0.000    0.000    0.000    0.000    0.000 
#
# Total GULP energy -83623.941924 kJ/mol
# GULP energy per Si atom -5574.929462 kJ/mol
# Density = 2.476115 g / cm^3
# Si number density = 24.817639 Si / 1000 Ang^3
#
#
#
# Elastic Constant Matrix: (Units=GPa)
#
#
# Indices 1 2 3 4 5 6 
#
# 1 21.4535 -27.7975 18.0999 5.1161 1.5363 8.9255
# 2 -27.7975 68.2852 7.2952 -3.0696 -6.1056 -3.4852
# 3 18.0999 7.2952 116.1195 0.7737 -13.2599 5.3528
# 4 5.1161 -3.0696 0.7737 38.3409 -5.7641 -3.0329
# 5 1.5363 -6.1056 -13.2599 -5.7641 41.2403 10.9677
# 6 8.9255 -3.4852 5.3528 -3.0329 10.9677 30.9704
#
#
#
# Elastic Compliance Matrix: (Units=1/GPa)
#
#
# Indices 1 2 3 4 5 6 
#
# 1 0.226600 0.092813 -0.038219 -0.025656 0.003231 -0.051911
# 2 0.092813 0.053051 -0.016462 -0.008907 0.003157 -0.019924
# 3 -0.038219 -0.016462 0.015661 0.004389 0.003096 0.005789
# 4 -0.025656 -0.008907 0.004389 0.029776 0.003242 0.007401
# 5 0.003231 0.003157 0.003096 0.003242 0.028985 -0.011058
# 6 -0.051911 -0.019924 0.005789 0.007401 -0.011058 0.048648
#
#
# Mechanical properties :
#
#
# Convention : Reuss Voigt Hill
#
# Bulk Modulus (GPa) = 2.69124 22.33926 12.51525
# Shear Modulus (GPa) = 11.10339 35.99436 23.54887
#
# Velocity S-wave (km/s) = 2.11748 3.81248 3.08373
# Velocity P-wave (km/s) = 2.65801 5.32925 4.21106
#
# Compressibility (1/GPa) = 0.37157646
#
# Stress axis : x y z
#
# Youngs Moduli (GPa) = 4.41307 18.84994 63.85387
#
# Poissons Ratio (x) = -1.74952 2.44042
# Poissons Ratio (y) = -0.40959 1.05114
# Poissons Ratio (z) = 0.16866 0.31030
#
# Static dielectric constant tensor:
#      x y z
#    x 2.075570 -0.054090 0.049140 
#    y -0.054090 1.977840 -0.058020 
#    z 0.049140 -0.058020 2.020480 
# 
# From -- ./inp_files/549979.got.cif
#   From: 2010.05.17/outbox.cif.g08.bks.cpg/sg2_275_cif.got.tgz:549979.got - 2010.06.03 11:33:40.
