data_PCOD9041108
_publ_section_title
;
Structure prediction by ZEFSAII (Michael W. Deem and Ramdas Pophale) SiO2 
 PCOD9041108
Probable space group: P -1
;
_chemical_formula_sum "Si O2"
_cell_formula_units_Z 16
_cell_length_a 9.598009
_cell_length_b 27.602552
_cell_length_c 9.183354
_cell_angle_alpha 41.650384
_cell_angle_beta 105.972103
_cell_angle_gamma 139.119476
_cell_volume 789.174948
_symmetry_space_group_name_H-M "P -1"
_symmetry_group_IT_number 2
_symmetry_cell_setting 'triclinic'
loop_
_space_group_symop_operation_xyz
x,y,z
-x,-y,-z
loop_
_atom_site_type_symbol
_atom_site_label
_atom_site_fract_x
_atom_site_fract_y
_atom_site_fract_z
Si Si1 0.796668 0.621661 0.725839
Si Si2 0.847905 0.371527 0.153686
Si Si3 0.233847 0.581076 0.268128
Si Si4 0.324722 0.117821 0.219660
Si Si5 0.788620 0.596678 0.434101
Si Si6 0.260849 0.942607 0.147005
Si Si7 0.784131 0.943571 0.335522
Si Si8 0.399140 0.893603 0.823420
O O1 0.767971 0.604305 0.582198
O O2 0.977107 0.627155 0.799342
O O3 0.992011 0.775006 0.476223
O O4 0.500000 0.500000 0.000000
O O5 0.517263 0.217552 0.448203
O O6 0.832026 0.393739 0.938094
O O7 0.000000 0.500000 0.000000
O O8 0.205821 0.487075 0.413287
O O9 0.000000 0.500000 0.500000
O O10 0.546412 0.744404 0.042268
O O11 0.258036 0.059464 0.495217
O O12 0.553272 0.162551 0.117127
O O13 0.048666 0.002741 0.293852
O O14 0.500000 0.500000 0.500000
O O15 0.071047 0.756283 0.088921
O O16 0.409338 0.025990 0.155732
O O17 0.500000 0.000000 0.000000
O O18 0.165295 0.966508 0.958357
O O19 0.500000 0.000000 0.500000
#
# Coordination Sequence:
#
# PCOD9041108 Si02
#       8
#     2   2   2   2   2   2   2   2
#     4  12  29  48  70 107 142 189 238 294 358 418
#     4  11  23  44  71  96 142 183 235 288 350 415
#     4  11  24  42  72 100 137 184 228 286 355 414
#     4  10  24  43  70 103 139 179 234 291 353 417
#     4  12  28  46  72 106 145 185 240 293 351 427
#     4  12  24  45  74  96 138 185 234 292 351 413
#     4  10  23  43  71 100 136 179 232 288 351 413
#     4  12  27  45  72 103 141 186 237 292 355 422
#
# _framework density 20.274339000000001
#
# number of rings (size 3 to 8) (size 9 to 14) (size 15 to 20)
#    0.000    0.750    5.000    0.750    7.000    3.500 
#    0.000    0.000    0.000    0.000    0.000    0.000 
#    0.000    0.000    0.000    0.000    0.000    0.000 
#
# Total GULP energy -89345.993811 kJ/mol
# GULP energy per Si atom -5584.124613 kJ/mol
# Density = 2.022819 g / cm^3
# Si number density = 20.274339 Si / 1000 Ang^3
#
#
#
# Elastic Constant Matrix: (Units=GPa)
#
#
# Indices 1 2 3 4 5 6 
#
# 1 47.0633 50.4122 49.2592 0.4453 -12.1171 7.7816
# 2 50.4122 91.6632 51.6606 -16.2813 4.4534 19.9246
# 3 49.2592 51.6606 155.3726 -16.4328 -5.8548 13.0096
# 4 0.4453 -16.2813 -16.4328 37.6657 4.1293 1.4948
# 5 -12.1171 4.4534 -5.8548 4.1293 37.8526 0.3175
# 6 7.7816 19.9246 13.0096 1.4948 0.3175 38.9245
#
#
#
# Elastic Compliance Matrix: (Units=1/GPa)
#
#
# Indices 1 2 3 4 5 6 
#
# 1 0.168976 -0.098324 -0.027509 -0.065084 0.068272 0.027685
# 2 -0.098324 0.073181 0.011762 0.043537 -0.042821 -0.023057
# 3 -0.027509 0.011762 0.012602 0.012155 -0.009524 -0.005122
# 4 -0.065084 0.043537 0.012155 0.055332 -0.029985 -0.015217
# 5 0.068272 -0.042821 -0.009524 -0.029985 0.055007 0.012156
# 6 0.027685 -0.023057 -0.005122 -0.015217 0.012156 0.034156
#
#
# Mechanical properties :
#
#
# Convention : Reuss Voigt Hill
#
# Bulk Modulus (GPa) = 37.56839 66.30698 51.93769
# Shear Modulus (GPa) = 7.85830 32.40636 20.13233
#
# Velocity S-wave (km/s) = 1.97089 4.00233 3.15460
# Velocity P-wave (km/s) = 4.87334 7.35758 6.24033
#
# Compressibility (1/GPa) = 0.02661812
#
# Stress axis : x y z
#
# Youngs Moduli (GPa) = 5.91799 13.66469 79.34952
#
# Poissons Ratio (x) = 1.34356 2.18283
# Poissons Ratio (y) = 0.58188 -0.93328
# Poissons Ratio (z) = 0.16280 -0.16072
#
# Static dielectric constant tensor:
#      x y z
#    x 1.711320 0.002060 0.026090 
#    y 0.002060 1.803860 -0.106460 
#    z 0.026090 -0.106460 1.708780 
# 
# From -- ./inp_files/227720.got.cif
#   From: 2010.05.17/outbox.cif.g08.bks.cpg/sg2_114_cif.got.tgz:227720.got - 2010.06.03 11:33:40.
