data_PCOD9041671
_publ_section_title
;
Structure prediction by ZEFSAII (Michael W. Deem and Ramdas Pophale) SiO2 
 PCOD9041671
Probable space group: P -1
;
_chemical_formula_sum "Si O2"
_cell_formula_units_Z 16
_cell_length_a 9.239077
_cell_length_b 8.320738
_cell_length_c 25.325835
_cell_angle_alpha 125.856129
_cell_angle_beta 29.977692
_cell_angle_gamma 115.879871
_cell_volume 776.279911
_symmetry_space_group_name_H-M "P -1"
_symmetry_group_IT_number 2
_symmetry_cell_setting 'triclinic'
loop_
_space_group_symop_operation_xyz
x,y,z
-x,-y,-z
loop_
_atom_site_type_symbol
_atom_site_label
_atom_site_fract_x
_atom_site_fract_y
_atom_site_fract_z
Si Si1 0.711413 0.951511 0.611483
Si Si2 0.142090 0.299139 0.383644
Si Si3 0.447010 0.779188 0.459122
Si Si4 0.352220 0.606719 0.618691
Si Si5 0.137899 0.028954 0.169458
Si Si6 0.210853 0.696663 0.862066
Si Si7 0.296344 0.247572 0.737755
Si Si8 0.201175 0.981694 0.015988
O O1 0.780387 0.889080 0.637437
O O2 0.565160 0.762955 0.600004
O O3 0.466061 0.145920 0.715595
O O4 0.000000 0.000000 0.500000
O O5 0.441812 0.322715 0.264990
O O6 0.000000 0.500000 0.500000
O O7 0.872498 0.251384 0.425229
O O8 0.661268 0.578759 0.373191
O O9 0.468798 0.764300 0.386092
O O10 0.500000 0.000000 0.500000
O O11 0.500000 0.500000 0.500000
O O12 0.036919 0.742853 0.733687
O O13 0.154409 0.960578 0.089243
O O14 0.454390 0.001198 0.090994
O O15 0.932951 0.890724 0.234605
O O16 0.145753 0.473079 0.839067
O O17 0.155018 0.802631 0.956837
O O18 0.018821 0.828878 0.903041
#
# Coordination Sequence:
#
# PCOD9041671 Si02
#       8
#     2   2   2   2   2   2   2   2
#     4  11  20  36  57  92 132 166 199 246 321 382
#     4  12  22  40  66  93 131 168 201 264 327 380
#     4  12  24  39  59  99 136 168 204 252 330 394
#     4  11  24  39  64  93 131 164 206 261 319 382
#     4  10  23  44  66  91 128 171 210 269 317 376
#     4  11  23  42  67  94 123 170 218 266 315 379
#     4  11  22  38  65  94 128 161 212 267 313 383
#     4  10  24  45  66  86 123 176 220 258 320 369
#
# _framework density 20.611122000000002
#
# number of rings (size 3 to 8) (size 9 to 14) (size 15 to 20)
#    0.000    1.000    3.750    3.750    3.500    1.000 
#    0.000    0.000    0.000    0.000    0.000    0.000 
#    0.000    0.000    0.000    0.000    0.000    0.000 
#
# Total GULP energy -89331.519941 kJ/mol
# GULP energy per Si atom -5583.219996 kJ/mol
# Density = 2.056421 g / cm^3
# Si number density = 20.611122 Si / 1000 Ang^3
#
#
#
# Elastic Constant Matrix: (Units=GPa)
#
#
# Indices 1 2 3 4 5 6 
#
# 1 65.6385 15.3986 12.7297 16.0105 -5.4790 0.4401
# 2 15.3986 106.4731 27.0222 24.9520 -15.2053 -2.3879
# 3 12.7297 27.0222 79.7608 13.1219 -21.3368 4.8317
# 4 16.0105 24.9520 13.1219 38.8112 5.0825 -2.1368
# 5 -5.4790 -15.2053 -21.3368 5.0825 34.8862 -6.6618
# 6 0.4401 -2.3879 4.8317 -2.1368 -6.6618 25.2286
#
#
#
# Elastic Compliance Matrix: (Units=1/GPa)
#
#
# Indices 1 2 3 4 5 6 
#
# 1 0.017462 -0.000169 -0.000630 -0.007319 0.003363 0.000068
# 2 -0.000169 0.012668 -0.001346 -0.008317 0.006348 0.002431
# 3 -0.000630 -0.001346 0.016910 -0.006006 0.010314 -0.001140
# 4 -0.007319 -0.008317 -0.006006 0.037994 -0.013980 0.000017
# 5 0.003363 0.006348 0.010314 -0.013980 0.041919 0.008452
# 6 0.000068 0.002431 -0.001140 0.000017 0.008452 0.042318
#
#
# Mechanical properties :
#
#
# Convention : Reuss Voigt Hill
#
# Bulk Modulus (GPa) = 23.39110 40.24148 31.81629
# Shear Modulus (GPa) = 26.62246 32.89998 29.76122
#
# Velocity S-wave (km/s) = 3.59786 3.99961 3.80404
# Velocity P-wave (km/s) = 5.35097 6.39498 5.89613
#
# Compressibility (1/GPa) = 0.04275131
#
# Stress axis : x y z
#
# Youngs Moduli (GPa) = 57.26662 78.93750 59.13575
#
# Poissons Ratio (x) = 0.01331 0.03728
# Poissons Ratio (y) = 0.00965 0.07958
# Poissons Ratio (z) = 0.03610 0.10623
#
# Static dielectric constant tensor:
#      x y z
#    x 1.786630 0.004490 -0.019300 
#    y 0.004490 1.761890 -0.028970 
#    z -0.019300 -0.028970 1.773730 
# 
# From -- ./inp_files/187908.got.cif
#   From: 2010.05.17/outbox.cif.g08.bks.cpg/sg2_94_cif.got.tgz:187908.got - 2010.06.03 11:33:40.
