data_PCOD9041983
_publ_section_title
;
Structure prediction by ZEFSAII (Michael W. Deem and Ramdas Pophale) SiO2 
 PCOD9041983
Probable space group: P -1
;
_chemical_formula_sum "Si O2"
_cell_formula_units_Z 14
_cell_length_a 5.285233
_cell_length_b 18.373178
_cell_length_c 8.207015
_cell_angle_alpha 64.898764
_cell_angle_beta 87.104219
_cell_angle_gamma 55.867947
_cell_volume 578.383116
_symmetry_space_group_name_H-M "P -1"
_symmetry_group_IT_number 2
_symmetry_cell_setting 'triclinic'
loop_
_space_group_symop_operation_xyz
x,y,z
-x,-y,-z
loop_
_atom_site_type_symbol
_atom_site_label
_atom_site_fract_x
_atom_site_fract_y
_atom_site_fract_z
Si Si1 0.325838 0.842924 0.836673
Si Si2 0.687195 0.573026 0.551538
Si Si3 0.962505 0.701942 0.857019
Si Si4 0.148428 0.097158 0.464391
Si Si5 0.255066 0.003027 0.886015
Si Si6 0.231771 0.530684 0.773933
Si Si7 0.330458 0.683284 0.147998
O O1 0.058926 0.911774 0.651537
O O2 0.433633 0.901620 0.869449
O O3 0.599422 0.749070 0.815126
O O4 0.242553 0.791890 0.018449
O O5 0.495073 0.532047 0.662533
O O6 0.428782 0.657530 0.355917
O O7 0.000000 0.500000 0.500000
O O8 0.867840 0.591925 0.662581
O O9 0.185464 0.593341 0.875227
O O10 0.954855 0.790849 0.682811
O O11 0.045887 0.692547 0.055374
O O12 0.500000 0.000000 0.500000
O O13 0.108218 0.086977 0.668083
O O14 0.500000 0.000000 0.000000
O O15 0.000000 0.000000 0.000000
O O16 0.374261 0.413827 0.869066
#
# Coordination Sequence:
#
# PCOD9041983 Si02
#       7
#     2   2   2   2   2   2   2
#     4  11  26  45  73 103 141 195 234 290 377 426
#     4  10  23  44  68  96 143 197 236 287 360 411
#     4  11  26  42  73 104 139 190 245 290 353 433
#     4  11  24  50  74  99 146 193 236 296 371 438
#     4  12  28  47  75 107 138 178 239 302 359 428
#     4  11  25  44  70 106 143 192 243 290 349 422
#     4  10  24  43  69 100 147 185 233 293 346 423
#
# _framework density 24.205411999999999
#
# number of rings (size 3 to 8) (size 9 to 14) (size 15 to 20)
#    0.000    1.143    1.429    3.429   14.000    2.857 
#    0.000    0.000    0.000    0.000    0.000    0.000 
#    0.000    0.000    0.000    0.000    0.000    0.000 
#
# Total GULP energy -78006.581198 kJ/mol
# GULP energy per Si atom -5571.898657 kJ/mol
# Density = 2.415032 g / cm^3
# Si number density = 24.205412 Si / 1000 Ang^3
#
#
#
# Elastic Constant Matrix: (Units=GPa)
#
#
# Indices 1 2 3 4 5 6 
#
# 1 147.7376 38.9689 79.6397 -5.2086 19.7827 12.0978
# 2 38.9689 86.6732 15.7130 -5.6872 14.3106 5.8225
# 3 79.6397 15.7130 152.5065 -19.0090 15.4897 9.3999
# 4 -5.2086 -5.6872 -19.0090 30.8723 -2.4600 6.0109
# 5 19.7827 14.3106 15.4897 -2.4600 44.5558 1.7021
# 6 12.0978 5.8225 9.3999 6.0109 1.7021 44.3385
#
#
#
# Elastic Compliance Matrix: (Units=1/GPa)
#
#
# Indices 1 2 3 4 5 6 
#
# 1 0.010853 -0.003678 -0.005293 -0.002059 -0.001872 -0.001005
# 2 -0.003678 0.013729 0.001226 0.002678 -0.003005 -0.001307
# 3 -0.005293 0.001226 0.010136 0.005792 -0.001186 -0.001605
# 4 -0.002059 0.002678 0.005792 0.037316 0.000333 -0.006090
# 5 -0.001872 -0.003005 -0.001186 0.000333 0.024665 0.000165
# 6 -0.001005 -0.001307 -0.001605 -0.006090 0.000165 0.024159
#
#
# Mechanical properties :
#
#
# Convention : Reuss Voigt Hill
#
# Bulk Modulus (GPa) = 52.01015 72.84007 62.42511
# Shear Modulus (GPa) = 35.02458 40.79302 37.90880
#
# Velocity S-wave (km/s) = 3.80804 4.10968 3.96173
# Velocity P-wave (km/s) = 6.39285 7.25790 6.83906
#
# Compressibility (1/GPa) = 0.01922702
#
# Stress axis : x y z
#
# Youngs Moduli (GPa) = 92.14402 72.83965 98.65703
#
# Poissons Ratio (x) = 0.26793 0.52217
# Poissons Ratio (y) = 0.33893 -0.12094
# Poissons Ratio (z) = 0.48770 -0.08929
#
# Static dielectric constant tensor:
#      x y z
#    x 2.019650 0.015880 -0.033620 
#    y 0.015880 1.978370 0.028290 
#    z -0.033620 0.028290 2.029670 
# 
# From -- ./inp_files/138713.got.cif
#   From: 2010.05.17/outbox.cif.g08.bks.cpg/sg2_70_cif.got.tgz:138713.got - 2010.06.03 11:33:40.
