data_PCOD9041926
_publ_section_title
;
Structure prediction by ZEFSAII (Michael W. Deem and Ramdas Pophale) SiO2 
 PCOD9041926
Probable space group: P -1
;
_chemical_formula_sum "Si O2"
_cell_formula_units_Z 14
_cell_length_a 22.645174
_cell_length_b 11.822204
_cell_length_c 6.050700
_cell_angle_alpha 87.143845
_cell_angle_beta 109.297864
_cell_angle_gamma 31.984895
_cell_volume 608.137763
_symmetry_space_group_name_H-M "P -1"
_symmetry_group_IT_number 2
_symmetry_cell_setting 'triclinic'
loop_
_space_group_symop_operation_xyz
x,y,z
-x,-y,-z
loop_
_atom_site_type_symbol
_atom_site_label
_atom_site_fract_x
_atom_site_fract_y
_atom_site_fract_z
Si Si1 0.460744 0.695542 0.912570
Si Si2 0.022102 0.277652 0.678398
Si Si3 0.232332 0.410934 0.348219
Si Si4 0.993387 0.896277 0.648747
Si Si5 0.534817 0.153583 0.481308
Si Si6 0.294815 0.548369 0.505931
Si Si7 0.203319 0.177558 0.869341
O O1 0.582115 0.577196 0.200857
O O2 0.500000 0.500000 0.000000
O O3 0.471219 0.723100 0.678262
O O4 0.286871 0.002340 0.763105
O O5 0.897862 0.445863 0.693953
O O6 0.937488 0.503334 0.380863
O O7 0.068621 0.093867 0.604125
O O8 0.157581 0.137753 0.944117
O O9 0.275456 0.448013 0.549105
O O10 0.390766 0.075634 0.535739
O O11 0.148890 0.592948 0.999253
O O12 0.872508 0.119214 0.679602
O O13 0.000000 0.000000 0.500000
O O14 0.367164 0.418887 0.362993
O O15 0.668046 0.958837 0.842096
#
# Coordination Sequence:
#
# PCOD9041926 Si02
#       7
#     2   2   2   2   2   2   2
#     4  11  25  46  69  99 142 179 228 281 344 404
#     4  11  23  42  74  98 142 173 232 283 337 404
#     4  12  25  46  72 102 137 183 230 282 341 407
#     4  12  26  45  68 102 142 175 227 284 343 403
#     4  11  25  46  71 101 139 180 233 278 341 410
#     4  11  27  43  71 104 136 183 225 281 347 403
#     4  10  23  44  68 106 129 184 229 281 336 400
#
# _framework density 23.021101999999999
#
# number of rings (size 3 to 8) (size 9 to 14) (size 15 to 20)
#    0.000    0.857    4.286    1.714    2.000    6.857 
#    0.000    0.000    0.000    0.000    0.000    0.000 
#    0.000    0.000    0.000    0.000    0.000    0.000 
#
# Total GULP energy -78145.781150 kJ/mol
# GULP energy per Si atom -5581.841511 kJ/mol
# Density = 2.296871 g / cm^3
# Si number density = 23.021102 Si / 1000 Ang^3
#
#
#
# Elastic Constant Matrix: (Units=GPa)
#
#
# Indices 1 2 3 4 5 6 
#
# 1 123.2421 34.1139 8.3937 -9.9250 0.2479 2.1656
# 2 34.1139 121.2081 -2.0082 -15.5892 -0.7864 0.9625
# 3 8.3937 -2.0082 27.8711 -7.4465 -4.5284 8.0974
# 4 -9.9250 -15.5892 -7.4465 19.4040 6.6567 0.6800
# 5 0.2479 -0.7864 -4.5284 6.6567 28.8084 3.1777
# 6 2.1656 0.9625 8.0974 0.6800 3.1777 46.0345
#
#
#
# Elastic Compliance Matrix: (Units=1/GPa)
#
#
# Indices 1 2 3 4 5 6 
#
# 1 0.009108 -0.002334 -0.002534 0.002168 -0.001053 0.000107
# 2 -0.002334 0.010101 0.003853 0.008784 -0.001036 -0.000837
# 3 -0.002534 0.003853 0.044784 0.017924 0.003949 -0.008376
# 4 0.002168 0.008784 0.017924 0.071170 -0.013010 -0.003592
# 5 -0.001053 -0.001036 0.003949 -0.013010 0.038662 -0.003100
# 6 0.000107 -0.000837 -0.008376 -0.003592 -0.003100 0.023476
#
#
# Mechanical properties :
#
#
# Convention : Reuss Voigt Hill
#
# Bulk Modulus (GPa) = 16.13892 39.25778 27.69835
# Shear Modulus (GPa) = 22.72886 34.30417 28.51651
#
# Velocity S-wave (km/s) = 3.14555 3.86439 3.52335
# Velocity P-wave (km/s) = 4.49648 6.08287 5.34882
#
# Compressibility (1/GPa) = 0.06196202
#
# Stress axis : x y z
#
# Youngs Moduli (GPa) = 109.79787 99.00237 22.32933
#
# Poissons Ratio (x) = 0.23108 0.05658
# Poissons Ratio (y) = 0.25628 -0.08603
# Poissons Ratio (z) = 0.27821 -0.38142
#
# Static dielectric constant tensor:
#      x y z
#    x 1.943050 -0.016460 0.086400 
#    y -0.016460 1.916170 0.018230 
#    z 0.086400 0.018230 1.943010 
# 
# From -- ./inp_files/48228.got.cif
#   From: 2010.05.17/outbox.cif.g08.bks.cpg/sg2_25_cif.got.tgz:48228.got - 2010.06.03 11:33:40.
