data_PCOD9041810
_publ_section_title
;
Structure prediction by ZEFSAII (Michael W. Deem and Ramdas Pophale) SiO2 
 PCOD9041810
Probable space group: P -1
;
_chemical_formula_sum "Si O2"
_cell_formula_units_Z 12
_cell_length_a 9.502657
_cell_length_b 12.404703
_cell_length_c 5.152397
_cell_angle_alpha 121.144844
_cell_angle_beta 100.642146
_cell_angle_gamma 75.105473
_cell_volume 501.361321
_symmetry_space_group_name_H-M "P -1"
_symmetry_group_IT_number 2
_symmetry_cell_setting 'triclinic'
loop_
_space_group_symop_operation_xyz
x,y,z
-x,-y,-z
loop_
_atom_site_type_symbol
_atom_site_label
_atom_site_fract_x
_atom_site_fract_y
_atom_site_fract_z
Si Si1 0.873951 0.125200 0.646950
Si Si2 0.424913 0.774168 0.207528
Si Si3 0.377041 0.618878 0.504165
Si Si4 0.989841 0.152816 0.222326
Si Si5 0.160621 0.445967 0.371753
Si Si6 0.755984 0.721918 0.321638
O O1 0.710972 0.109707 0.635751
O O2 0.872891 0.192041 0.455002
O O3 0.000000 0.000000 0.500000
O O4 0.931829 0.206621 0.992904
O O5 0.403830 0.665760 0.279783
O O6 0.590071 0.792778 0.308158
O O7 0.397382 0.728198 0.852773
O O8 0.500000 0.500000 0.500000
O O9 0.233359 0.559308 0.426359
O O10 0.137702 0.188996 0.416875
O O11 0.000000 0.000000 0.000000
O O12 0.245339 0.379362 0.570803
O O13 0.000000 0.500000 0.500000
O O14 0.178302 0.346605 0.009069
#
# Coordination Sequence:
#
# PCOD9041810 Si02
#       6
#     2   2   2   2   2   2
#     4  10  23  44  67  97 126 171 231 281 343 395
#     4  12  24  41  70  97 134 188 219 275 340 399
#     4  12  23  43  64  97 144 175 226 269 331 410
#     4  10  23  44  67  94 129 171 224 283 337 394
#     4  12  27  41  63 102 139 178 223 277 323 398
#     4  12  24  44  65  99 138 176 228 272 334 405
#
# _framework density 23.934833999999999
#
# number of rings (size 3 to 8) (size 9 to 14) (size 15 to 20)
#    0.000    0.667    3.333    4.000    7.000    0.000 
#    0.000    6.667    0.000    0.000    0.000    0.000 
#    0.000    0.000    0.000    0.000    0.000    0.000 
#
# Total GULP energy -67044.383743 kJ/mol
# GULP energy per Si atom -5587.031979 kJ/mol
# Density = 2.388036 g / cm^3
# Si number density = 23.934834 Si / 1000 Ang^3
#
#
#
# Elastic Constant Matrix: (Units=GPa)
#
#
# Indices 1 2 3 4 5 6 
#
# 1 164.4470 4.0224 73.7786 7.9806 4.3121 -28.1259
# 2 4.0224 60.3827 30.5481 -10.9312 -11.0332 -13.0357
# 3 73.7786 30.5481 148.4854 -39.2456 -6.8390 -9.8258
# 4 7.9806 -10.9312 -39.2456 48.4559 -0.8883 -7.7038
# 5 4.3121 -11.0332 -6.8390 -0.8883 35.9361 -2.1631
# 6 -28.1259 -13.0357 -9.8258 -7.7038 -2.1631 45.8550
#
#
#
# Elastic Compliance Matrix: (Units=1/GPa)
#
#
# Indices 1 2 3 4 5 6 
#
# 1 0.010253 0.002365 -0.007003 -0.006169 -0.001728 0.004342
# 2 0.002365 0.021680 -0.004247 0.002347 0.006067 0.007384
# 3 -0.007003 -0.004247 0.014290 0.011761 0.002526 -0.000346
# 4 -0.006169 0.002347 0.011761 0.032608 0.004812 0.005109
# 5 -0.001728 0.006067 0.002526 0.004812 0.030705 0.003463
# 6 0.004342 0.007384 -0.000346 0.005109 0.003463 0.027518
#
#
# Mechanical properties :
#
#
# Convention : Reuss Voigt Hill
#
# Bulk Modulus (GPa) = 35.14772 65.55704 50.35238
# Shear Modulus (GPa) = 30.43060 43.71381 37.07221
#
# Velocity S-wave (km/s) = 3.56953 4.27824 3.93985
# Velocity P-wave (km/s) = 5.63075 7.20095 6.46371
#
# Compressibility (1/GPa) = 0.02845135
#
# Stress axis : x y z
#
# Youngs Moduli (GPa) = 97.53637 46.12648 69.97847
#
# Poissons Ratio (x) = -0.10909 0.49009
# Poissons Ratio (y) = -0.23069 0.29720
# Poissons Ratio (z) = 0.68309 0.19590
#
# Static dielectric constant tensor:
#      x y z
#    x 1.937030 0.021080 -0.026100 
#    y 0.021080 1.534360 -0.019500 
#    z -0.026100 -0.019500 1.921220 
# 
# From -- ./inp_files/36683.got.cif
#   From: 2010.05.17/outbox.cif.g08.bks.cpg/sg2_19_cif.got.tgz:36683.got - 2010.06.03 11:33:40.
