data_PCOD9041884
_publ_section_title
;
Structure prediction by ZEFSAII (Michael W. Deem and Ramdas Pophale) SiO2 
 PCOD9041884
Probable space group: P -1
;
_chemical_formula_sum "Si O2"
_cell_formula_units_Z 13
_cell_length_a 8.745725
_cell_length_b 14.592458
_cell_length_c 10.484005
_cell_angle_alpha 53.457260
_cell_angle_beta 138.406671
_cell_angle_gamma 144.534521
_cell_volume 515.022924
_symmetry_space_group_name_H-M "P -1"
_symmetry_group_IT_number 2
_symmetry_cell_setting 'triclinic'
loop_
_space_group_symop_operation_xyz
x,y,z
-x,-y,-z
loop_
_atom_site_type_symbol
_atom_site_label
_atom_site_fract_x
_atom_site_fract_y
_atom_site_fract_z
Si Si1 0.794076 0.853957 0.837878
Si Si2 0.500000 0.500000 0.500000
Si Si3 0.397147 0.547011 0.669737
Si Si4 0.792062 0.994967 0.480647
Si Si5 0.245939 0.647388 0.121254
Si Si6 0.911367 0.343452 0.722251
Si Si7 0.515438 0.886361 0.868705
O O1 0.626969 0.703734 0.769049
O O2 0.869810 0.986196 0.680690
O O3 0.565965 0.816610 0.841015
O O4 0.135666 0.937580 0.039672
O O5 0.554297 0.541495 0.652274
O O6 0.469846 0.630466 0.343528
O O7 0.135346 0.539082 0.442399
O O8 0.197968 0.399739 0.765268
O O9 0.428535 0.827506 0.377632
O O10 0.761993 0.119486 0.335311
O O11 0.000000 0.000000 0.500000
O O12 0.051865 0.644720 0.113877
O O13 0.427019 0.797322 0.019689
O O14 0.000000 0.500000 0.000000
#
# Coordination Sequence:
#
# PCOD9041884 Si02
#       7
#     2   1   2   2   2   2   2
#     4  10  23  44  68 100 141 186 230 289 355 417
#     4  10  24  44  68 100 134 174 230 288 354 422
#     4   9  19  41  69  97 133 176 228 286 347 412
#     4  11  24  43  68  97 138 189 236 290 350 408
#     4  11  24  41  64  95 133 178 226 283 343 412
#     4   9  20  39  64  96 130 173 228 280 341 414
#     4  11  25  43  67 102 140 184 239 285 347 431
#
# _framework density 25.241593999999999
#
# number of rings (size 3 to 8) (size 9 to 14) (size 15 to 20)
#    0.000    1.846    0.000    2.308    0.000   12.308 
#    0.000    2.308    0.000    1.846    0.000    0.000 
#    0.000    0.000    0.000    0.000    0.000    0.000 
#
# Total GULP energy -72495.751767 kJ/mol
# GULP energy per Si atom -5576.596290 kJ/mol
# Density = 2.518414 g / cm^3
# Si number density = 25.241594 Si / 1000 Ang^3
#
#
#
# Elastic Constant Matrix: (Units=GPa)
#
#
# Indices 1 2 3 4 5 6 
#
# 1 146.3096 44.2297 83.3743 -11.8994 -26.6599 -3.2431
# 2 44.2297 63.4744 23.7110 1.6246 -12.2472 17.7495
# 3 83.3743 23.7110 130.8117 -13.9689 -16.0999 -0.3933
# 4 -11.8994 1.6246 -13.9689 61.8225 -10.7622 -6.6482
# 5 -26.6599 -12.2472 -16.0999 -10.7622 66.5822 -2.6250
# 6 -3.2431 17.7495 -0.3933 -6.6482 -2.6250 24.7255
#
#
#
# Elastic Compliance Matrix: (Units=1/GPa)
#
#
# Indices 1 2 3 4 5 6 
#
# 1 0.014957 -0.010194 -0.006884 0.003303 0.003394 0.010418
# 2 -0.010194 0.029428 0.000488 -0.005255 -0.000343 -0.023904
# 3 -0.006884 0.000488 0.012152 0.001424 0.000477 -0.000626
# 4 0.003303 -0.005255 0.001424 0.019049 0.004165 0.009793
# 5 0.003394 -0.000343 0.000477 0.004165 0.017248 0.003650
# 6 0.010418 -0.023904 -0.000626 0.009793 0.003650 0.061981
#
#
# Mechanical properties :
#
#
# Convention : Reuss Voigt Hill
#
# Bulk Modulus (GPa) = 42.81135 71.46954 57.14045
# Shear Modulus (GPa) = 25.53877 43.24474 34.39175
#
# Velocity S-wave (km/s) = 3.18429 4.14361 3.69521
# Velocity P-wave (km/s) = 5.52422 7.16019 6.39474
#
# Compressibility (1/GPa) = 0.02335829
#
# Stress axis : x y z
#
# Youngs Moduli (GPa) = 66.85837 33.98100 82.28809
#
# Poissons Ratio (x) = 0.34640 0.56644
# Poissons Ratio (y) = 0.68155 -0.04014
# Poissons Ratio (z) = 0.46022 -0.01657
#
# Static dielectric constant tensor:
#      x y z
#    x 1.998760 0.063360 -0.024160 
#    y 0.063360 2.068500 -0.028300 
#    z -0.024160 -0.028300 1.876240 
# 
# From -- ./inp_files/162037.got.cif
#   From: 2010.05.17/outbox.cif.g08.bks.cpg/sg2_82_cif.got.tgz:162037.got - 2010.06.03 11:33:40.
