data_PCOD9041083
_publ_section_title
;
Structure prediction by ZEFSAII (Michael W. Deem and Ramdas Pophale) SiO2 
 PCOD9041083
Probable space group: P -1
;
_chemical_formula_sum "Si O2"
_cell_formula_units_Z 14
_cell_length_a 11.889769
_cell_length_b 8.856748
_cell_length_c 20.074262
_cell_angle_alpha 31.685000
_cell_angle_beta 34.080301
_cell_angle_gamma 35.349576
_cell_volume 576.376944
_symmetry_space_group_name_H-M "P -1"
_symmetry_group_IT_number 2
_symmetry_cell_setting 'triclinic'
loop_
_space_group_symop_operation_xyz
x,y,z
-x,-y,-z
loop_
_atom_site_type_symbol
_atom_site_label
_atom_site_fract_x
_atom_site_fract_y
_atom_site_fract_z
Si Si1 0.518954 0.647703 0.538832
Si Si2 0.310771 0.220979 0.059466
Si Si3 0.045767 0.941650 0.904243
Si Si4 0.548544 0.137662 0.108011
Si Si5 0.718816 0.662215 0.303357
Si Si6 0.969675 0.115334 0.724854
Si Si7 0.668138 0.677883 0.596001
O O1 0.682751 0.520752 0.444666
O O2 0.306886 0.583501 0.644917
O O3 0.586838 0.553804 0.616837
O O4 0.498982 0.003864 0.413891
O O5 0.227726 0.596202 0.954068
O O6 0.396997 0.116309 0.130586
O O7 0.500000 0.000000 0.000000
O O8 0.100341 0.148022 0.172527
O O9 0.092528 0.206445 0.824727
O O10 0.040245 0.032667 0.795989
O O11 0.801945 0.963983 0.029660
O O12 0.530032 0.972307 0.248124
O O13 0.500000 0.500000 0.000000
O O14 0.755603 0.425207 0.704550
O O15 0.146962 0.203963 0.565587
#
# Coordination Sequence:
#
# PCOD9041083 Si02
#       7
#     2   2   2   2   2   2   2
#     4  10  23  43  72  97 132 187 233 291 346 411
#     4  12  27  45  74 105 139 188 233 288 354 416
#     4  12  26  46  71 104 148 180 231 296 344 425
#     4  12  27  45  70 104 145 189 224 284 357 422
#     4  11  24  44  67 102 141 181 232 283 354 416
#     4  11  24  42  68 102 138 176 237 290 349 406
#     4  10  23  43  70  98 134 181 234 300 337 403
#
# _framework density 24.289663000000001
#
# number of rings (size 3 to 8) (size 9 to 14) (size 15 to 20)
#    0.000    0.857    4.286    1.714    6.000    0.000 
#    0.000    0.714    0.000    0.000    0.000    0.000 
#    0.000    0.000    0.000    0.000    0.000    0.000 
#
# Total GULP energy -78163.598539 kJ/mol
# GULP energy per Si atom -5583.114181 kJ/mol
# Density = 2.423438 g / cm^3
# Si number density = 24.289663 Si / 1000 Ang^3
#
#
#
# Elastic Constant Matrix: (Units=GPa)
#
#
# Indices 1 2 3 4 5 6 
#
# 1 187.8925 18.1165 45.3875 -14.1692 -16.3279 6.4394
# 2 18.1165 82.1373 27.7353 -9.5580 -8.7123 -8.0430
# 3 45.3875 27.7353 104.0268 -17.8209 -9.9719 3.0741
# 4 -14.1692 -9.5580 -17.8209 34.7613 -3.7859 -2.3759
# 5 -16.3279 -8.7123 -9.9719 -3.7859 37.9226 -15.4804
# 6 6.4394 -8.0430 3.0741 -2.3759 -15.4804 25.0558
#
#
#
# Elastic Compliance Matrix: (Units=1/GPa)
#
#
# Indices 1 2 3 4 5 6 
#
# 1 0.006175 -0.000185 -0.002153 0.001624 0.002288 0.000185
# 2 -0.000185 0.015477 -0.002932 0.004179 0.007326 0.010298
# 3 -0.002153 -0.002932 0.012372 0.004874 0.002073 -0.000163
# 4 0.001624 0.004179 0.004874 0.034925 0.010581 0.010175
# 5 0.002288 0.007326 0.002073 0.010581 0.042344 0.028675
# 6 0.000185 0.010298 -0.000163 0.010175 0.028675 0.061870
#
#
# Mechanical properties :
#
#
# Convention : Reuss Voigt Hill
#
# Bulk Modulus (GPa) = 42.58041 61.83725 52.20883
# Shear Modulus (GPa) = 26.10520 38.40241 32.25380
#
# Velocity S-wave (km/s) = 3.28189 3.98052 3.64796
# Velocity P-wave (km/s) = 5.65061 6.82931 6.26773
#
# Compressibility (1/GPa) = 0.02348498
#
# Stress axis : x y z
#
# Youngs Moduli (GPa) = 161.94283 64.61051 80.82569
#
# Poissons Ratio (x) = 0.01197 0.17399
# Poissons Ratio (y) = 0.03000 0.23697
# Poissons Ratio (z) = 0.34862 0.18943
#
# Static dielectric constant tensor:
#      x y z
#    x 1.917450 0.004160 -0.016580 
#    y 0.004160 2.014800 0.047490 
#    z -0.016580 0.047490 1.995540 
# 
# From -- ./inp_files/593337.got.cif
#   From: 2010.05.17/outbox.cif.g08.bks.cpg/sg2_297_cif.got.tgz:593337.got - 2010.06.03 11:33:40.
