data_PCOD9041239
_publ_section_title
;
Structure prediction by ZEFSAII (Michael W. Deem and Ramdas Pophale) SiO2 
 PCOD9041239
Probable space group: P -1
;
_chemical_formula_sum "Si O2"
_cell_formula_units_Z 14
_cell_length_a 9.035726
_cell_length_b 10.327974
_cell_length_c 10.555382
_cell_angle_alpha 135.479315
_cell_angle_beta 64.430678
_cell_angle_gamma 123.332431
_cell_volume 575.721912
_symmetry_space_group_name_H-M "P -1"
_symmetry_group_IT_number 2
_symmetry_cell_setting 'triclinic'
loop_
_space_group_symop_operation_xyz
x,y,z
-x,-y,-z
loop_
_atom_site_type_symbol
_atom_site_label
_atom_site_fract_x
_atom_site_fract_y
_atom_site_fract_z
Si Si1 0.584221 0.540030 0.729408
Si Si2 0.898408 0.254415 0.707689
Si Si3 0.760617 0.390294 0.064171
Si Si4 0.889160 0.548831 0.466864
Si Si5 0.374425 0.105727 0.562869
Si Si6 0.172950 0.850984 0.925251
Si Si7 0.766045 0.807940 0.058273
O O1 0.422640 0.608290 0.819219
O O2 0.746794 0.626018 0.632126
O O3 0.503813 0.303393 0.584024
O O4 0.655455 0.599776 0.886554
O O5 0.082323 0.393124 0.809951
O O6 0.967008 0.300851 0.572211
O O7 0.774361 0.022607 0.573554
O O8 0.771196 0.355594 0.886197
O O9 0.781011 0.192457 0.978772
O O10 0.805229 0.341356 0.279217
O O11 0.000000 0.500000 0.500000
O O12 0.287743 0.162335 0.759421
O O13 0.500000 0.000000 0.500000
O O14 0.259812 0.034682 0.924796
O O15 0.970030 0.831729 0.994724
#
# Coordination Sequence:
#
# PCOD9041239 Si02
#       7
#     2   2   2   2   2   2   2
#     4  12  26  42  73 108 144 179 240 288 361 410
#     4  10  24  45  72  96 148 186 231 277 364 417
#     4  10  25  47  71 104 141 193 223 297 350 430
#     4  11  21  42  72 103 138 183 230 301 342 413
#     4  12  26  42  71 108 141 181 238 302 343 411
#     4  10  23  43  72 100 139 180 240 280 355 413
#     4  11  24  43  73 105 131 189 234 291 344 417
#
# _framework density 24.317297
#
# number of rings (size 3 to 8) (size 9 to 14) (size 15 to 20)
#    0.000    1.143    1.429    3.857   10.000    3.429 
#    0.000    1.429    0.000    2.571    0.000    0.000 
#    0.000    0.000    0.000    0.000    0.000    0.000 
#
# Total GULP energy -78152.789470 kJ/mol
# GULP energy per Si atom -5582.342105 kJ/mol
# Density = 2.426195 g / cm^3
# Si number density = 24.317297 Si / 1000 Ang^3
#
#
#
# Elastic Constant Matrix: (Units=GPa)
#
#
# Indices 1 2 3 4 5 6 
#
# 1 74.5125 12.0897 1.1512 -6.6598 -21.3897 -4.7044
# 2 12.0897 48.6311 -3.3235 -0.1483 0.4508 -3.5931
# 3 1.1512 -3.3235 89.4781 -16.3029 6.8081 16.6543
# 4 -6.6598 -0.1483 -16.3029 39.2644 12.8326 -7.4542
# 5 -21.3897 0.4508 6.8081 12.8326 41.5531 -1.4092
# 6 -4.7044 -3.5931 16.6543 -7.4542 -1.4092 21.6248
#
#
#
# Elastic Compliance Matrix: (Units=1/GPa)
#
#
# Indices 1 2 3 4 5 6 
#
# 1 0.017144 -0.004104 -0.002072 -0.000045 0.009401 0.005240
# 2 -0.004104 0.021837 0.000843 0.001063 -0.002738 0.002275
# 3 -0.002072 0.000843 0.014522 0.005602 -0.005521 -0.009923
# 4 -0.000045 0.001063 0.005602 0.032521 -0.010780 0.006360
# 5 0.009401 -0.002738 -0.005521 -0.010780 0.033314 0.004297
# 6 0.005240 0.002275 -0.009923 0.006360 0.004297 0.057876
#
#
# Mechanical properties :
#
#
# Convention : Reuss Voigt Hill
#
# Bulk Modulus (GPa) = 23.34436 25.82851 24.58643
# Shear Modulus (GPa) = 24.73300 34.00207 29.36754
#
# Velocity S-wave (km/s) = 3.19265 3.74340 3.47894
# Velocity P-wave (km/s) = 4.81783 5.41558 5.12543
#
# Compressibility (1/GPa) = 0.04283690
#
# Stress axis : x y z
#
# Youngs Moduli (GPa) = 58.33045 45.79294 68.86270
#
# Poissons Ratio (x) = 0.18792 0.14267
# Poissons Ratio (y) = 0.23937 -0.05802
# Poissons Ratio (z) = 0.12085 -0.03858
#
# Static dielectric constant tensor:
#      x y z
#    x 1.770810 0.053300 -0.130410 
#    y 0.053300 1.968550 0.092600 
#    z -0.130410 0.092600 1.835550 
# 
# From -- ./inp_files/393283.got.cif
#   From: 2010.05.17/outbox.cif.g08.bks.cpg/sg2_197_cif.got.tgz:393283.got - 2010.06.03 11:33:40.
