data_PCOD9041067
_publ_section_title
;
Structure prediction by ZEFSAII (Michael W. Deem and Ramdas Pophale) SiO2 
 PCOD9041067
Probable space group: P -1
;
_chemical_formula_sum "Si O2"
_cell_formula_units_Z 12
_cell_length_a 7.021428
_cell_length_b 20.804939
_cell_length_c 11.534770
_cell_angle_alpha 25.287785
_cell_angle_beta 144.576639
_cell_angle_gamma 141.333417
_cell_volume 410.553056
_symmetry_space_group_name_H-M "P -1"
_symmetry_group_IT_number 2
_symmetry_cell_setting 'triclinic'
loop_
_space_group_symop_operation_xyz
x,y,z
-x,-y,-z
loop_
_atom_site_type_symbol
_atom_site_label
_atom_site_fract_x
_atom_site_fract_y
_atom_site_fract_z
Si Si1 0.817920 0.216348 0.741144
Si Si2 0.438429 0.463402 0.211528
Si Si3 0.305011 0.300194 0.634565
Si Si4 0.559727 0.809571 0.771675
Si Si5 0.910793 0.278880 0.098486
Si Si6 0.381638 0.991700 0.740201
O O1 0.732387 0.364553 0.520169
O O2 0.480683 0.108477 0.705630
O O3 0.026018 0.271900 0.639191
O O4 0.070527 0.142789 0.067209
O O5 0.235343 0.402883 0.326202
O O6 0.225827 0.397030 0.103036
O O7 0.547727 0.642460 0.982877
O O8 0.658795 0.366970 0.761292
O O9 0.380751 0.134086 0.905664
O O10 0.295361 0.789913 0.777755
O O11 0.477948 0.922041 0.449018
O O12 0.940416 0.132631 0.268854
#
# Coordination Sequence:
#
# PCOD9041067 Si02
#       6
#     2   2   2   2   2   2
#     4  11  25  42  72  98 139 171 225 277 335 393
#     4  12  25  44  69 104 132 177 224 274 334 401
#     4   9  24  44  68  99 132 175 223 273 335 387
#     4  11  24  43  71  98 136 179 223 271 337 399
#     4   9  23  41  70  95 137 174 223 274 333 394
#     4  10  23  43  70  97 131 183 220 274 336 390
#
# _framework density 29.228867999999999
#
# number of rings (size 3 to 8) (size 9 to 14) (size 15 to 20)
#    1.000    0.667    0.000    3.000    2.333    7.333 
#    0.000    0.000    0.000    0.000    0.000    0.000 
#    0.000    0.000    0.000    0.000    0.000    0.000 
#
# Total GULP energy -67362.067758 kJ/mol
# GULP energy per Si atom -5613.505647 kJ/mol
# Density = 2.916234 g / cm^3
# Si number density = 29.228868 Si / 1000 Ang^3
#
#
#
# Elastic Constant Matrix: (Units=GPa)
#
#
# Indices 1 2 3 4 5 6 
#
# 1 268.6419 -25.8904 178.5654 -27.3157 88.5751 -0.3586
# 2 -25.8904 263.9165 6.6385 9.6863 -54.5825 -1.9959
# 3 178.5654 6.6385 306.1752 -28.1924 67.5400 6.1200
# 4 -27.3157 9.6863 -28.1924 68.7139 -19.5177 13.6826
# 5 88.5751 -54.5825 67.5400 -19.5177 104.0042 5.2059
# 6 -0.3586 -1.9959 6.1200 13.6826 5.2059 48.2000
#
#
#
# Elastic Compliance Matrix: (Units=1/GPa)
#
#
# Indices 1 2 3 4 5 6 
#
# 1 0.007324 -0.000041 -0.003370 0.000205 -0.004075 0.000863
# 2 -0.000041 0.004377 -0.000692 -0.000136 0.002755 0.000010
# 3 -0.003370 -0.000692 0.005546 0.000975 -0.000864 -0.000941
# 4 0.000205 -0.000136 0.000975 0.016803 0.002532 -0.005171
# 5 -0.004075 0.002755 -0.000864 0.002532 0.015679 -0.002219
# 6 0.000863 0.000010 -0.000941 -0.005171 -0.002219 0.022581
#
#
# Mechanical properties :
#
#
# Convention : Reuss Voigt Hill
#
# Bulk Modulus (GPa) = 110.58695 128.59563 119.59129
# Shear Modulus (GPa) = 59.85921 89.47830 74.66876
#
# Velocity S-wave (km/s) = 4.53034 5.53890 5.05981
# Velocity P-wave (km/s) = 8.07974 9.21941 8.66833
#
# Compressibility (1/GPa) = 0.00904266
#
# Stress axis : x y z
#
# Youngs Moduli (GPa) = 136.53208 228.44882 180.31473
#
# Poissons Ratio (x) = 0.00926 0.60769
# Poissons Ratio (y) = 0.00553 0.12473
# Poissons Ratio (z) = 0.46013 0.15803
#
# Static dielectric constant tensor:
#      x y z
#    x 2.286420 0.015110 0.124980 
#    y 0.015110 2.242470 0.021250 
#    z 0.124980 0.021250 2.326540 
# 
# From -- ./inp_files/404102.got.cif
#   From: 2010.05.17/outbox.cif.g08.bks.cpg/sg2_203_cif.got.tgz:404102.got - 2010.06.03 11:33:40.
