data_PCOD9041585
_publ_section_title
;
Structure prediction by ZEFSAII (Michael W. Deem and Ramdas Pophale) SiO2 
 PCOD9041585
Probable space group: P -1
;
_chemical_formula_sum "Si O2"
_cell_formula_units_Z 14
_cell_length_a 13.274354
_cell_length_b 15.169613
_cell_length_c 5.251478
_cell_angle_alpha 72.564344
_cell_angle_beta 109.271188
_cell_angle_gamma 143.678669
_cell_volume 590.182721
_symmetry_space_group_name_H-M "P -1"
_symmetry_group_IT_number 2
_symmetry_cell_setting 'triclinic'
loop_
_space_group_symop_operation_xyz
x,y,z
-x,-y,-z
loop_
_atom_site_type_symbol
_atom_site_label
_atom_site_fract_x
_atom_site_fract_y
_atom_site_fract_z
Si Si1 0.904494 0.029067 0.478631
Si Si2 0.894446 0.456927 0.694267
Si Si3 0.463785 0.890530 0.743843
Si Si4 0.102534 0.345333 0.259762
Si Si5 0.246558 0.807751 0.029264
Si Si6 0.536231 0.464159 0.813630
Si Si7 0.674433 0.860544 0.943937
O O1 0.795706 0.939347 0.725300
O O2 0.785561 0.967247 0.187706
O O3 0.000000 0.000000 0.500000
O O4 0.033448 0.204831 0.459596
O O5 0.852256 0.536525 0.620968
O O6 0.738266 0.276216 0.721983
O O7 0.000000 0.500000 0.500000
O O8 0.000000 0.500000 0.000000
O O9 0.519011 0.825471 0.780188
O O10 0.500000 0.000000 0.500000
O O11 0.610596 0.017445 0.967219
O O12 0.279163 0.787941 0.794475
O O13 0.266912 0.434962 0.146791
O O14 0.938677 0.271738 0.027386
O O15 0.500000 0.500000 0.500000
O O16 0.500000 0.500000 0.000000
O O17 0.411616 0.292503 0.899965
#
# Coordination Sequence:
#
# PCOD9041585 Si02
#       7
#     2   2   2   2   2   2   2
#     4  12  26  46  77 108 144 194 261 313 365 441
#     4  10  24  40  67 101 145 180 239 291 355 433
#     4  11  24  42  72 105 154 190 241 300 374 447
#     4  11  24  48  75 105 147 198 249 307 372 442
#     4  10  23  44  65 106 142 190 243 296 359 449
#     4  12  28  52  76 110 150 197 252 318 380 441
#     4  12  26  48  74 108 151 196 243 309 388 432
#
# _framework density 23.721467000000001
#
# number of rings (size 3 to 8) (size 9 to 14) (size 15 to 20)
#    0.000    0.857    1.429    4.714    8.000    3.429 
#    2.571    0.000    0.000    0.000    0.000    0.000 
#    0.000    0.000    0.000    0.000    0.000    0.000 
#
# Total GULP energy -78157.346534 kJ/mol
# GULP energy per Si atom -5582.667610 kJ/mol
# Density = 2.366748 g / cm^3
# Si number density = 23.721467 Si / 1000 Ang^3
#
#
#
# Elastic Constant Matrix: (Units=GPa)
#
#
# Indices 1 2 3 4 5 6 
#
# 1 181.0289 60.9739 75.0499 -25.4561 -1.2530 -8.6694
# 2 60.9739 110.0407 31.2247 -38.2710 -11.3608 -20.2616
# 3 75.0499 31.2247 156.8996 -28.6091 -22.5111 -4.0673
# 4 -25.4561 -38.2710 -28.6091 51.2109 4.8437 11.7856
# 5 -1.2530 -11.3608 -22.5111 4.8437 47.8658 -11.9846
# 6 -8.6694 -20.2616 -4.0673 11.7856 -11.9846 48.8531
#
#
#
# Elastic Compliance Matrix: (Units=1/GPa)
#
#
# Indices 1 2 3 4 5 6 
#
# 1 0.008324 -0.004265 -0.003660 -0.000575 -0.002740 -0.001130
# 2 -0.004265 0.015414 0.001309 0.008609 0.004485 0.004769
# 3 -0.003660 0.001309 0.009184 0.003682 0.004373 0.000842
# 4 -0.000575 0.008609 0.003682 0.028424 0.000120 -0.003053
# 5 -0.002740 0.004485 0.004373 0.000120 0.025951 0.008075
# 6 -0.001130 0.004769 0.000842 -0.003053 0.008075 0.025034
#
#
# Mechanical properties :
#
#
# Convention : Reuss Voigt Hill
#
# Bulk Modulus (GPa) = 50.78290 86.94071 68.86180
# Shear Modulus (GPa) = 37.84253 48.30067 43.07160
#
# Velocity S-wave (km/s) = 3.99844 4.51728 4.26575
# Velocity P-wave (km/s) = 6.53996 7.99612 7.30442
#
# Compressibility (1/GPa) = 0.01969167
#
# Stress axis : x y z
#
# Youngs Moduli (GPa) = 120.13658 64.87423 108.88072
#
# Poissons Ratio (x) = 0.27666 0.39852
# Poissons Ratio (y) = 0.51233 -0.14255
# Poissons Ratio (z) = 0.43972 -0.08494
#
# Static dielectric constant tensor:
#      x y z
#    x 1.991500 -0.997420 0.158820 
#    y -0.997420 32.157520 -4.607470 
#    z 0.158820 -4.607470 2.611110 
# 
# From -- ./inp_files/77447.got.cif
#   From: 2010.05.17/outbox.cif.g08.bks.cpg/sg2_39_cif.got.tgz:77447.got - 2010.06.03 11:33:40.
