data_PCOD9041649
_publ_section_title
;
Structure prediction by ZEFSAII (Michael W. Deem and Ramdas Pophale) SiO2 
 PCOD9041649
Probable space group: P -1
;
_chemical_formula_sum "Si O2"
_cell_formula_units_Z 14
_cell_length_a 15.727280
_cell_length_b 27.088409
_cell_length_c 6.491192
_cell_angle_alpha 134.106501
_cell_angle_beta 132.683822
_cell_angle_gamma 16.915398
_cell_volume 576.794317
_symmetry_space_group_name_H-M "P -1"
_symmetry_group_IT_number 2
_symmetry_cell_setting 'triclinic'
loop_
_space_group_symop_operation_xyz
x,y,z
-x,-y,-z
loop_
_atom_site_type_symbol
_atom_site_label
_atom_site_fract_x
_atom_site_fract_y
_atom_site_fract_z
Si Si1 0.501896 0.903110 0.663628
Si Si2 0.198928 0.151422 0.568281
Si Si3 0.691010 0.332200 0.249318
Si Si4 0.006290 0.924588 0.680441
Si Si5 0.262858 0.322209 0.284947
Si Si6 0.433764 0.709025 0.413905
Si Si7 0.006911 0.611443 0.314304
O O1 0.619255 0.814263 0.821271
O O2 0.778909 0.753140 0.533348
O O3 0.295352 0.079232 0.753379
O O4 0.297269 0.948706 0.418677
O O5 0.994772 0.326342 0.675625
O O6 0.007754 0.190599 0.289867
O O7 0.500000 0.000000 0.500000
O O8 0.500000 0.500000 0.500000
O O9 0.760767 0.248604 0.318462
O O10 0.548090 0.362125 0.928689
O O11 0.125562 0.868840 0.485278
O O12 0.000000 0.000000 0.000000
O O13 0.506511 0.248583 0.460114
O O14 0.000000 0.500000 0.500000
O O15 0.127828 0.377923 0.003970
O O16 0.686422 0.565351 0.584064
#
# Coordination Sequence:
#
# PCOD9041649 Si02
#       7
#     2   2   2   2   2   2   2
#     4  10  23  44  66 102 138 183 232 293 353 421
#     4   9  22  44  71  99 138 185 232 293 352 425
#     4  11  26  47  73 106 147 192 243 297 364 431
#     4  11  25  43  70 102 150 186 237 298 365 428
#     4  12  26  41  71 103 137 185 239 291 356 420
#     4  12  27  44  73 108 147 192 240 299 362 431
#     4  11  24  44  72 102 142 184 244 292 351 432
#
# _framework density 24.272082999999999
#
# number of rings (size 3 to 8) (size 9 to 14) (size 15 to 20)
#    0.000    1.143    1.429    3.000    6.000    8.571 
#    0.000    7.143    0.000    0.000    0.000    0.000 
#    0.000    0.000    0.000    0.000    0.000    0.000 
#
# Total GULP energy -78258.066471 kJ/mol
# GULP energy per Si atom -5589.861891 kJ/mol
# Density = 2.421684 g / cm^3
# Si number density = 24.272083 Si / 1000 Ang^3
#
#
#
# Elastic Constant Matrix: (Units=GPa)
#
#
# Indices 1 2 3 4 5 6 
#
# 1 161.2932 49.4212 28.7141 -5.7562 21.7196 17.2708
# 2 49.4212 105.3146 17.4028 -19.3614 5.2145 13.3307
# 3 28.7141 17.4028 99.1691 -20.6943 0.7162 5.4297
# 4 -5.7562 -19.3614 -20.6943 42.1831 1.2586 -5.1362
# 5 21.7196 5.2145 0.7162 1.2586 23.8844 -4.7187
# 6 17.2708 13.3307 5.4297 -5.1362 -4.7187 58.6212
#
#
#
# Elastic Compliance Matrix: (Units=1/GPa)
#
#
# Indices 1 2 3 4 5 6 
#
# 1 0.008840 -0.003389 -0.002078 -0.001431 -0.007631 -0.002381
# 2 -0.003389 0.012177 -0.000050 0.004942 -0.000101 -0.001341
# 3 -0.002078 -0.000050 0.011820 0.005467 0.001280 0.000111
# 4 -0.001431 0.004942 0.005467 0.028644 -0.001213 0.001203
# 5 -0.007631 -0.000101 0.001280 -0.001213 0.050056 0.006076
# 6 -0.002381 -0.001341 0.000111 0.001203 0.006076 0.018649
#
#
# Mechanical properties :
#
#
# Convention : Reuss Voigt Hill
#
# Bulk Modulus (GPa) = 45.86560 61.87256 53.86908
# Shear Modulus (GPa) = 33.67294 42.95368 38.31331
#
# Velocity S-wave (km/s) = 3.72870 4.21131 3.97734
# Velocity P-wave (km/s) = 6.12169 7.01381 6.58288
#
# Compressibility (1/GPa) = 0.02180283
#
# Stress axis : x y z
#
# Youngs Moduli (GPa) = 113.12727 82.12110 84.60342
#
# Poissons Ratio (x) = 0.27828 0.17580
# Poissons Ratio (y) = 0.38334 0.00426
# Poissons Ratio (z) = 0.23507 0.00414
#
# Static dielectric constant tensor:
#      x y z
#    x 1.982610 0.115680 0.069270 
#    y 0.115680 2.090020 0.099750 
#    z 0.069270 0.099750 2.029740 
# 
# From -- ./inp_files/101631.got.cif
#   From: 2010.05.17/outbox.cif.g08.bks.cpg/sg2_51_cif.got.tgz:101631.got - 2010.06.03 11:33:40.
