data_PCOD9041118
_publ_section_title
;
Structure prediction by ZEFSAII (Michael W. Deem and Ramdas Pophale) SiO2 
 PCOD9041118
Probable space group: P -1
;
_chemical_formula_sum "Si O2"
_cell_formula_units_Z 16
_cell_length_a 14.972928
_cell_length_b 9.108364
_cell_length_c 9.463373
_cell_angle_alpha 81.803093
_cell_angle_beta 37.326264
_cell_angle_gamma 92.582456
_cell_volume 747.090717
_symmetry_space_group_name_H-M "P -1"
_symmetry_group_IT_number 2
_symmetry_cell_setting 'triclinic'
loop_
_space_group_symop_operation_xyz
x,y,z
-x,-y,-z
loop_
_atom_site_type_symbol
_atom_site_label
_atom_site_fract_x
_atom_site_fract_y
_atom_site_fract_z
Si Si1 0.730554 0.928429 0.531036
Si Si2 0.625299 0.487542 0.135738
Si Si3 0.967623 0.063592 0.684033
Si Si4 0.254460 0.721535 0.471650
Si Si5 0.857869 0.886894 0.111225
Si Si6 0.274878 0.457726 0.674896
Si Si7 0.856127 0.352398 0.694834
Si Si8 0.553500 0.670045 0.982198
O O1 0.751546 0.107949 0.506647
O O2 0.719839 0.905931 0.379774
O O3 0.600706 0.801766 0.788939
O O4 0.876351 0.889680 0.428652
O O5 0.439318 0.449887 0.398266
O O6 0.691437 0.508900 0.207062
O O7 0.708572 0.378459 0.959369
O O8 0.668762 0.641271 0.961482
O O9 0.898931 0.206449 0.727408
O O10 0.000000 0.000000 0.500000
O O11 0.860460 0.937769 0.939618
O O12 0.212111 0.589436 0.661447
O O13 0.172987 0.675131 0.431385
O O14 0.427041 0.722369 0.221648
O O15 0.846678 0.707407 0.162400
O O16 0.000000 0.000000 0.000000
O O17 0.000000 0.500000 0.500000
O O18 0.500000 0.500000 0.000000
#
# Coordination Sequence:
#
# PCOD9041118 Si02
#       8
#     2   2   2   2   2   2   2   2
#     4  11  23  43  65  94 137 171 222 275 334 396
#     4  10  23  43  71 101 132 178 228 278 340 400
#     4  11  25  45  63  92 133 175 223 275 335 395
#     4  11  24  41  66 102 131 175 223 274 339 400
#     4  10  25  42  67  94 131 180 222 276 341 399
#     4  10  24  45  71  97 139 175 225 284 344 407
#     4  12  26  40  69  99 132 176 233 277 330 406
#     4  11  21  40  73  97 132 173 222 274 335 404
#
# _framework density 21.416405999999998
#
# number of rings (size 3 to 8) (size 9 to 14) (size 15 to 20)
#    0.000    1.250    2.500    2.625    8.750    0.000 
#    0.000    3.750    0.000    0.000    0.000    0.000 
#    0.000    0.000    0.000    0.000    0.000    0.000 
#
# Total GULP energy -89230.554973 kJ/mol
# GULP energy per Si atom -5576.909686 kJ/mol
# Density = 2.136766 g / cm^3
# Si number density = 21.416406 Si / 1000 Ang^3
#
#
#
# Elastic Constant Matrix: (Units=GPa)
#
#
# Indices 1 2 3 4 5 6 
#
# 1 90.3853 68.6482 39.9989 -2.4974 29.5555 -16.7963
# 2 68.6482 149.0536 50.8429 -25.4274 21.2373 -27.5458
# 3 39.9989 50.8429 89.5264 -21.1322 41.7752 -10.8780
# 4 -2.4974 -25.4274 -21.1322 34.4890 -5.7951 1.3157
# 5 29.5555 21.2373 41.7752 -5.7951 44.1007 2.9989
# 6 -16.7963 -27.5458 -10.8780 1.3157 2.9989 36.8267
#
#
#
# Elastic Compliance Matrix: (Units=1/GPa)
#
#
# Indices 1 2 3 4 5 6 
#
# 1 0.022575 -0.008917 -0.001106 -0.007652 -0.011098 0.004477
# 2 -0.008917 0.013563 -0.002296 0.008155 0.002357 0.004917
# 3 -0.001106 -0.002296 0.027027 0.010672 -0.022845 0.007240
# 4 -0.007652 0.008155 0.010672 0.040152 -0.003948 0.004649
# 5 -0.011098 0.002357 -0.022845 -0.003948 0.051055 -0.014063
# 6 0.004477 0.004917 0.007240 0.004649 -0.014063 0.035992
#
#
# Mechanical properties :
#
#
# Convention : Reuss Voigt Hill
#
# Bulk Modulus (GPa) = 25.95579 71.99391 48.97485
# Shear Modulus (GPa) = 21.94496 34.38164 28.16330
#
# Velocity S-wave (km/s) = 3.20453 4.01108 3.63027
# Velocity P-wave (km/s) = 5.08310 7.42569 6.36313
#
# Compressibility (1/GPa) = 0.03852705
#
# Stress axis : x y z
#
# Youngs Moduli (GPa) = 44.29695 73.73049 37.00049
#
# Poissons Ratio (x) = 0.65743 0.04093
# Poissons Ratio (y) = 0.39498 0.08495
# Poissons Ratio (z) = 0.04900 0.16927
#
# Static dielectric constant tensor:
#      x y z
#    x 1.751030 -0.014710 0.067000 
#    y -0.014710 1.784670 -0.064010 
#    z 0.067000 -0.064010 1.998040 
# 
# From -- ./inp_files/278022.got.cif
#   From: 2010.05.17/outbox.cif.g08.bks.cpg/sg2_140_cif.got.tgz:278022.got - 2010.06.03 11:33:40.
