data_PCOD9041039
_publ_section_title
;
Structure prediction by ZEFSAII (Michael W. Deem and Ramdas Pophale) SiO2 
 PCOD9041039
Probable space group: P -1
;
_chemical_formula_sum "Si O2"
_cell_formula_units_Z 12
_cell_length_a 16.685443
_cell_length_b 12.942939
_cell_length_c 11.226226
_cell_angle_alpha 45.897209
_cell_angle_beta 155.682780
_cell_angle_gamma 147.921602
_cell_volume 496.971879
_symmetry_space_group_name_H-M "P -1"
_symmetry_group_IT_number 2
_symmetry_cell_setting 'triclinic'
loop_
_space_group_symop_operation_xyz
x,y,z
-x,-y,-z
loop_
_atom_site_type_symbol
_atom_site_label
_atom_site_fract_x
_atom_site_fract_y
_atom_site_fract_z
Si Si1 0.443424 0.761821 0.830242
Si Si2 0.909689 0.316754 0.395127
Si Si3 0.813729 0.688980 0.440674
Si Si4 0.128021 0.001084 0.290839
Si Si5 0.951280 0.141320 0.125572
Si Si6 0.718802 0.432060 0.708373
O O1 0.616299 0.704206 0.104711
O O2 0.378598 0.771105 0.872502
O O3 0.143953 0.564214 0.526721
O O4 0.026410 0.158550 0.352400
O O5 0.968379 0.273556 0.382385
O O6 0.957182 0.208337 0.636390
O O7 0.385397 0.028779 0.181982
O O8 0.631239 0.470823 0.438198
O O9 0.024556 0.047008 0.220000
O O10 0.465616 0.198635 0.591924
O O11 0.000000 0.000000 0.000000
O O12 0.158041 0.384006 0.179471
O O13 0.000000 0.500000 0.000000
#
# Coordination Sequence:
#
# PCOD9041039 Si02
#       6
#     2   2   2   2   2   2
#     4  11  22  43  64 107 126 172 225 275 336 390
#     4  11  25  41  71  98 134 170 228 277 330 404
#     4  10  23  43  70  95 129 178 214 285 326 394
#     4  12  25  45  67  98 137 183 220 273 345 398
#     4  10  24  41  69  94 133 172 225 274 329 400
#     4  10  24  45  64 101 132 175 223 273 337 398
#
# _framework density 24.146232999999999
#
# number of rings (size 3 to 8) (size 9 to 14) (size 15 to 20)
#    1.000    0.333    1.667    3.500    2.333    2.000 
#    6.000    1.667    0.000    0.000    0.000    0.000 
#    0.000    0.000    0.000    0.000    0.000    0.000 
#
# Total GULP energy -66946.066507 kJ/mol
# GULP energy per Si atom -5578.838876 kJ/mol
# Density = 2.409128 g / cm^3
# Si number density = 24.146233 Si / 1000 Ang^3
#
#
#
# Elastic Constant Matrix: (Units=GPa)
#
#
# Indices 1 2 3 4 5 6 
#
# 1 136.7905 13.8842 31.5456 2.9150 30.4850 -19.5687
# 2 13.8842 68.7375 15.3176 17.7141 -2.6889 -3.5867
# 3 31.5456 15.3176 62.1984 22.9384 22.4755 -1.6432
# 4 2.9150 17.7141 22.9384 37.6572 4.9190 9.9970
# 5 30.4850 -2.6889 22.4755 4.9190 33.8700 -7.4660
# 6 -19.5687 -3.5867 -1.6432 9.9970 -7.4660 34.3320
#
#
#
# Elastic Compliance Matrix: (Units=1/GPa)
#
#
# Indices 1 2 3 4 5 6 
#
# 1 0.010147 -0.002017 -0.002695 0.001824 -0.007024 0.003386
# 2 -0.002017 0.018481 -0.002733 -0.009171 0.007520 0.004956
# 3 -0.002695 -0.002733 0.028645 -0.014175 -0.014632 0.000495
# 4 0.001824 -0.009171 -0.014175 0.043296 -0.002270 -0.013698
# 5 -0.007024 0.007520 -0.014632 -0.002270 0.048069 0.007196
# 6 0.003386 0.004956 0.000495 -0.013698 0.007196 0.037152
#
#
# Mechanical properties :
#
#
# Convention : Reuss Voigt Hill
#
# Bulk Modulus (GPa) = 23.59366 43.24681 33.42024
# Shear Modulus (GPa) = 23.27662 34.97044 29.12353
#
# Velocity S-wave (km/s) = 3.10818 3.80975 3.47671
# Velocity P-wave (km/s) = 4.76166 6.10750 5.47608
#
# Compressibility (1/GPa) = 0.04238427
#
# Stress axis : x y z
#
# Youngs Moduli (GPa) = 98.54707 54.11081 34.90954
#
# Poissons Ratio (x) = 0.10915 0.09408
# Poissons Ratio (y) = 0.19879 0.09539
# Poissons Ratio (z) = 0.26557 0.14786
#
# Static dielectric constant tensor:
#      x y z
#    x 1.952020 -0.003180 0.005100 
#    y -0.003180 2.063370 0.019330 
#    z 0.005100 0.019330 1.960700 
# 
# From -- ./inp_files/448808.got.cif
#   From: 2010.05.17/outbox.cif.g08.bks.cpg/sg2_225_cif.got.tgz:448808.got - 2010.06.03 11:33:40.
