data_PCOD9041942
_publ_section_title
;
Structure prediction by ZEFSAII (Michael W. Deem and Ramdas Pophale) SiO2 
 PCOD9041942
Probable space group: P -1
;
_chemical_formula_sum "Si O2"
_cell_formula_units_Z 15
_cell_length_a 14.890462
_cell_length_b 11.739971
_cell_length_c 8.303668
_cell_angle_alpha 141.329363
_cell_angle_beta 51.473658
_cell_angle_gamma 133.632318
_cell_volume 645.023644
_symmetry_space_group_name_H-M "P -1"
_symmetry_group_IT_number 2
_symmetry_cell_setting 'triclinic'
loop_
_space_group_symop_operation_xyz
x,y,z
-x,-y,-z
loop_
_atom_site_type_symbol
_atom_site_label
_atom_site_fract_x
_atom_site_fract_y
_atom_site_fract_z
Si Si1 0.284917 0.902262 0.950558
Si Si2 0.923448 0.540020 0.277239
Si Si3 0.105507 0.187539 0.002378
Si Si4 0.000000 0.500000 0.500000
Si Si5 0.237212 0.246449 0.242330
Si Si6 0.552881 0.094567 0.717303
Si Si7 0.518761 0.488393 0.158906
Si Si8 0.715536 0.922998 0.509164
O O1 0.233715 0.026317 0.025413
O O2 0.272517 0.980010 0.224975
O O3 0.433467 0.970277 0.828052
O O4 0.198957 0.667810 0.775301
O O5 0.864878 0.702141 0.490289
O O6 0.995680 0.594994 0.427596
O O7 0.000000 0.500000 0.000000
O O8 0.056039 0.351145 0.192503
O O9 0.215587 0.277574 0.113060
O O10 0.160545 0.104413 0.706100
O O11 0.000000 0.000000 0.000000
O O12 0.379725 0.396096 0.290682
O O13 0.500000 0.000000 0.500000
O O14 0.675215 0.058725 0.583687
O O15 0.575707 0.325395 0.946365
O O16 0.603408 0.702020 0.373979
O O17 0.500000 0.500000 0.000000
#
# Coordination Sequence:
#
# PCOD9041942 Si02
#       8
#     2   2   2   1   2   2   2   2
#     4  11  26  43  66 104 142 172 226 290 353 417
#     4  11  26  46  71 101 137 184 236 287 347 411
#     4  11  24  43  67  98 132 179 236 276 342 415
#     4  10  26  46  70  96 134 182 236 286 336 406
#     4  10  23  44  68  92 134 180 224 289 339 409
#     4  11  23  42  71  99 136 183 225 282 350 417
#     4  11  21  42  68  99 131 174 231 277 341 413
#     4  12  25  40  69 101 135 179 222 288 349 411
#
# _framework density 23.254961999999999
#
# number of rings (size 3 to 8) (size 9 to 14) (size 15 to 20)
#    0.000    1.067    2.667    2.800    5.600    4.800 
#    0.000    0.000    0.000    0.000    0.000    0.000 
#    0.000    0.000    0.000    0.000    0.000    0.000 
#
# Total GULP energy -83719.695751 kJ/mol
# GULP energy per Si atom -5581.313050 kJ/mol
# Density = 2.320203 g / cm^3
# Si number density = 23.254962 Si / 1000 Ang^3
#
#
#
# Elastic Constant Matrix: (Units=GPa)
#
#
# Indices 1 2 3 4 5 6 
#
# 1 46.1729 11.7542 23.7630 11.1657 -24.4005 -7.9609
# 2 11.7542 48.8952 7.3373 14.8097 -10.8824 7.8310
# 3 23.7630 7.3373 125.5300 -12.9876 -26.7417 -4.6251
# 4 11.1657 14.8097 -12.9876 52.3760 -12.6434 0.8171
# 5 -24.4005 -10.8824 -26.7417 -12.6434 46.5008 6.6977
# 6 -7.9609 7.8310 -4.6251 0.8171 6.6977 25.4455
#
#
#
# Elastic Compliance Matrix: (Units=1/GPa)
#
#
# Indices 1 2 3 4 5 6 
#
# 1 0.033536 -0.005000 -0.003557 -0.003815 0.012148 0.008309
# 2 -0.005000 0.025753 -0.000912 -0.005600 0.002828 -0.010220
# 3 -0.003557 -0.000912 0.010287 0.004835 0.005222 -0.000492
# 4 -0.003815 -0.005600 0.004835 0.024199 0.006192 -0.000998
# 5 0.012148 0.002828 0.005222 0.006192 0.033986 -0.005265
# 6 0.008309 -0.010220 -0.000492 -0.000998 -0.005265 0.046373
#
#
# Mechanical properties :
#
#
# Convention : Reuss Voigt Hill
#
# Bulk Modulus (GPa) = 19.74777 34.03413 26.89095
# Shear Modulus (GPa) = 23.81501 36.71404 30.26453
#
# Velocity S-wave (km/s) = 3.20360 3.97767 3.61144
# Velocity P-wave (km/s) = 4.71109 5.98020 5.38318
#
# Compressibility (1/GPa) = 0.05063862
#
# Stress axis : x y z
#
# Youngs Moduli (GPa) = 29.81889 38.83002 97.20628
#
# Poissons Ratio (x) = 0.19414 0.34575
# Poissons Ratio (y) = 0.14909 0.08868
# Poissons Ratio (z) = 0.10606 0.03543
#
# Static dielectric constant tensor:
#      x y z
#    x 1.934170 0.198660 0.104010 
#    y 0.198660 9.909590 4.819010 
#    z 0.104010 4.819010 4.784800 
# 
# From -- ./inp_files/308698.got.cif
#   From: 2010.05.17/outbox.cif.g08.bks.cpg/sg2_155_cif.got.tgz:308698.got - 2010.06.03 11:33:40.
