data_PCOD9041621
_publ_section_title
;
Structure prediction by ZEFSAII (Michael W. Deem and Ramdas Pophale) SiO2 
 PCOD9041621
Probable space group: P -1
;
_chemical_formula_sum "Si O2"
_cell_formula_units_Z 12
_cell_length_a 5.074288
_cell_length_b 9.234518
_cell_length_c 10.908583
_cell_angle_alpha 88.046565
_cell_angle_beta 83.959492
_cell_angle_gamma 86.364288
_cell_volume 507.106244
_symmetry_space_group_name_H-M "P -1"
_symmetry_group_IT_number 2
_symmetry_cell_setting 'triclinic'
loop_
_space_group_symop_operation_xyz
x,y,z
-x,-y,-z
loop_
_atom_site_type_symbol
_atom_site_label
_atom_site_fract_x
_atom_site_fract_y
_atom_site_fract_z
Si Si1 0.030024 0.878450 0.828422
Si Si2 0.220512 0.181549 0.779160
Si Si3 0.917812 0.623350 0.684103
Si Si4 0.184715 0.566510 0.092227
Si Si5 0.493025 0.809052 0.991170
Si Si6 0.697460 0.621478 0.447993
O O1 0.088496 0.742476 0.738021
O O2 0.076214 0.033942 0.762480
O O3 0.224728 0.866612 0.936056
O O4 0.737561 0.850019 0.893711
O O5 0.003880 0.300557 0.842928
O O6 0.433236 0.144001 0.877034
O O7 0.360842 0.256271 0.655355
O O8 0.749296 0.548959 0.799845
O O9 0.075127 0.483482 0.622754
O O10 0.771832 0.693124 0.571244
O O11 0.434876 0.642068 0.022558
O O12 0.000000 0.500000 0.000000
O O13 0.500000 0.500000 0.500000
#
# Coordination Sequence:
#
# PCOD9041621 Si02
#       6
#     2   2   2   2   2   2
#     4  12  27  42  70 101 138 178 216 283 333 402
#     4  11  25  42  67  99 139 178 227 268 341 396
#     4  10  23  44  65  98 135 168 233 271 338 383
#     4  11  22  41  67 102 132 179 219 276 329 399
#     4  12  24  44  67 102 140 175 220 271 340 398
#     4  10  23  45  70  94 130 180 225 282 327 398
#
# _framework density 23.663682000000001
#
# number of rings (size 3 to 8) (size 9 to 14) (size 15 to 20)
#    0.000    1.000    3.333    2.000    4.667    3.333 
#    0.000    0.833    0.000    0.000    0.000    0.000 
#    0.000    0.000    0.000    0.000    0.000    0.000 
#
# Total GULP energy -67046.140862 kJ/mol
# GULP energy per Si atom -5587.178405 kJ/mol
# Density = 2.360982 g / cm^3
# Si number density = 23.663682 Si / 1000 Ang^3
#
#
#
# Elastic Constant Matrix: (Units=GPa)
#
#
# Indices 1 2 3 4 5 6 
#
# 1 83.4609 17.4974 25.3431 -6.0187 -4.0662 22.5971
# 2 17.4974 172.8103 58.6687 -6.3785 4.4667 33.8481
# 3 25.3431 58.6687 138.0537 -17.3433 0.8274 14.6701
# 4 -6.0187 -6.3785 -17.3433 28.9675 12.6262 -5.1504
# 5 -4.0662 4.4667 0.8274 12.6262 26.8638 -7.0251
# 6 22.5971 33.8481 14.6701 -5.1504 -7.0251 42.8439
#
#
#
# Elastic Compliance Matrix: (Units=1/GPa)
#
#
# Indices 1 2 3 4 5 6 
#
# 1 0.014528 0.000731 -0.002104 0.000642 -0.000110 -0.007461
# 2 0.000731 0.007955 -0.002792 0.000416 -0.002928 -0.006144
# 3 -0.002104 -0.002792 0.009553 0.005975 -0.002881 0.000290
# 4 0.000642 0.000416 0.005975 0.048228 -0.023003 -0.000687
# 5 -0.000110 -0.002928 -0.002881 -0.023003 0.050934 0.008944
# 6 -0.007461 -0.006144 0.000290 -0.000687 0.008944 0.033415
#
#
# Mechanical properties :
#
#
# Convention : Reuss Voigt Hill
#
# Bulk Modulus (GPa) = 42.18144 66.37148 54.27646
# Shear Modulus (GPa) = 27.64790 39.25608 33.45199
#
# Velocity S-wave (km/s) = 3.42185 4.07740 3.76392
# Velocity P-wave (km/s) = 5.78586 7.09053 6.47116
#
# Compressibility (1/GPa) = 0.02370711
#
# Stress axis : x y z
#
# Youngs Moduli (GPa) = 68.83238 125.70455 104.67485
#
# Poissons Ratio (x) = -0.09189 0.22019
# Poissons Ratio (y) = -0.05032 0.29227
# Poissons Ratio (z) = 0.14479 0.35099
#
# Static dielectric constant tensor:
#      x y z
#    x 1.995900 -0.056600 -0.046700 
#    y -0.056600 1.962320 0.016500 
#    z -0.046700 0.016500 1.949550 
# 
# From -- ./inp_files/338359.got.cif
#   From: 2010.05.17/outbox.cif.g08.bks.cpg/sg2_170_cif.got.tgz:338359.got - 2010.06.03 11:33:40.
