data_PCOD9041133
_publ_section_title
;
Structure prediction by ZEFSAII (Michael W. Deem and Ramdas Pophale) SiO2 
 PCOD9041133
Probable space group: P -1
;
_chemical_formula_sum "Si O2"
_cell_formula_units_Z 16
_cell_length_a 8.632785
_cell_length_b 14.570547
_cell_length_c 13.034322
_cell_angle_alpha 46.905926
_cell_angle_beta 64.460272
_cell_angle_gamma 100.414664
_cell_volume 748.075495
_symmetry_space_group_name_H-M "P -1"
_symmetry_group_IT_number 2
_symmetry_cell_setting 'triclinic'
loop_
_space_group_symop_operation_xyz
x,y,z
-x,-y,-z
loop_
_atom_site_type_symbol
_atom_site_label
_atom_site_fract_x
_atom_site_fract_y
_atom_site_fract_z
Si Si1 0.586714 0.501766 0.323739
Si Si2 0.165689 0.465942 0.959258
Si Si3 0.760381 0.805336 0.172887
Si Si4 0.351888 0.585210 0.176391
Si Si5 0.270480 0.924985 0.555493
Si Si6 0.062094 0.785781 0.514047
Si Si7 0.630772 0.732917 0.771392
Si Si8 0.571589 0.911741 0.987237
O O1 0.713154 0.472353 0.233239
O O2 0.784834 0.693140 0.181465
O O3 0.415418 0.336599 0.577688
O O4 0.426939 0.515466 0.289204
O O5 0.383763 0.574943 0.896887
O O6 0.000000 0.500000 0.000000
O O7 0.980945 0.251022 0.183861
O O8 0.639339 0.845345 0.103931
O O9 0.000000 0.000000 0.000000
O O10 0.083450 0.409389 0.342040
O O11 0.548577 0.682444 0.952011
O O12 0.372018 0.732243 0.110877
O O13 0.251219 0.856681 0.498485
O O14 0.500000 0.000000 0.500000
O O15 0.288816 0.082934 0.415456
O O16 0.848031 0.758197 0.648912
O O17 0.202263 0.934068 0.271068
O O18 0.500000 0.000000 0.000000
#
# Coordination Sequence:
#
# PCOD9041133 Si02
#       8
#     2   2   2   2   2   2   2   2
#     4  10  23  43  71 102 134 181 239 288 346 411
#     4  12  25  43  66 106 152 181 223 290 361 427
#     4  10  23  47  72  98 132 180 242 295 342 407
#     4  11  22  44  75 101 137 182 237 289 344 420
#     4  12  26  42  65 104 149 185 224 279 359 423
#     4  12  24  42  76 102 137 184 235 288 344 422
#     4  12  24  43  72 108 137 180 235 284 351 431
#     4  11  27  47  68 103 141 183 238 294 354 410
#
# _framework density 21.388214999999999
#
# number of rings (size 3 to 8) (size 9 to 14) (size 15 to 20)
#    0.000    0.750    5.000    2.250    3.500    1.500 
#    4.500    0.000    0.000    0.000    0.000    0.000 
#    0.000    0.000    0.000    0.000    0.000    0.000 
#
# Total GULP energy -89490.521054 kJ/mol
# GULP energy per Si atom -5593.157566 kJ/mol
# Density = 2.133953 g / cm^3
# Si number density = 21.388215 Si / 1000 Ang^3
#
#
#
# Elastic Constant Matrix: (Units=GPa)
#
#
# Indices 1 2 3 4 5 6 
#
# 1 75.7509 59.9421 42.8017 -1.1875 4.0561 10.1651
# 2 59.9421 179.8510 67.3860 -17.0955 -1.5329 8.0438
# 3 42.8017 67.3860 125.9473 -9.1316 23.3409 11.1347
# 4 -1.1875 -17.0955 -9.1316 57.1027 7.6247 -0.3176
# 5 4.0561 -1.5329 23.3409 7.6247 28.4165 -5.8130
# 6 10.1651 8.0438 11.1347 -0.3176 -5.8130 33.8646
#
#
#
# Elastic Compliance Matrix: (Units=1/GPa)
#
#
# Indices 1 2 3 4 5 6 
#
# 1 0.019930 -0.005264 -0.003696 -0.001724 -0.000366 -0.003596
# 2 -0.005264 0.008818 -0.003742 0.001376 0.004229 0.001455
# 3 -0.003696 -0.003742 0.014278 0.002817 -0.013166 -0.004930
# 4 -0.001724 0.001376 0.002817 0.019338 -0.007561 -0.001852
# 5 -0.000366 0.004229 -0.013166 -0.007561 0.050786 0.012081
# 6 -0.003596 0.001455 -0.004930 -0.001852 0.012081 0.033941
#
#
# Mechanical properties :
#
#
# Convention : Reuss Voigt Hill
#
# Bulk Modulus (GPa) = 56.74358 80.20096 68.47227
# Shear Modulus (GPa) = 28.03199 37.97139 33.00169
#
# Velocity S-wave (km/s) = 3.62419 4.21805 3.93235
# Velocity P-wave (km/s) = 6.64085 7.82954 7.25957
#
# Compressibility (1/GPa) = 0.01762314
#
# Stress axis : x y z
#
# Youngs Moduli (GPa) = 50.17632 113.40189 70.03820
#
# Poissons Ratio (x) = 0.59691 0.25885
# Poissons Ratio (y) = 0.26411 0.26207
# Poissons Ratio (z) = 0.18544 0.42433
#
# Static dielectric constant tensor:
#      x y z
#    x 1.777480 0.014820 0.006330 
#    y 0.014820 1.815230 -0.014230 
#    z 0.006330 -0.014230 1.760000 
# 
# From -- ./inp_files/398572.got.cif
#   From: 2010.05.17/outbox.cif.g08.bks.cpg/sg2_200_cif.got.tgz:398572.got - 2010.06.03 11:33:40.
