data_PCOD9041992
_publ_section_title
;
Structure prediction by ZEFSAII (Michael W. Deem and Ramdas Pophale) SiO2 
 PCOD9041992
Probable space group: P -1
;
_chemical_formula_sum "Si O2"
_cell_formula_units_Z 16
_cell_length_a 18.027129
_cell_length_b 8.518433
_cell_length_c 8.506246
_cell_angle_alpha 103.770203
_cell_angle_beta 43.479690
_cell_angle_gamma 126.388483
_cell_volume 678.490988
_symmetry_space_group_name_H-M "P -1"
_symmetry_group_IT_number 2
_symmetry_cell_setting 'triclinic'
loop_
_space_group_symop_operation_xyz
x,y,z
-x,-y,-z
loop_
_atom_site_type_symbol
_atom_site_label
_atom_site_fract_x
_atom_site_fract_y
_atom_site_fract_z
Si Si1 0.464427 0.223471 0.905979
Si Si2 0.935430 0.065230 0.284905
Si Si3 0.741954 0.920225 0.259143
Si Si4 0.038837 0.912739 0.280496
Si Si5 0.485834 0.584905 0.782240
Si Si6 0.166750 0.791132 0.259898
Si Si7 0.360115 0.819417 0.580521
Si Si8 0.222938 0.502663 0.000321
O O1 0.467530 0.387206 0.831889
O O2 0.593970 0.237468 0.656207
O O3 0.471425 0.275761 0.091995
O O4 0.325215 0.992451 0.027645
O O5 0.863205 0.130027 0.522382
O O6 0.927251 0.873412 0.317651
O O7 0.864114 0.008926 0.215984
O O8 0.094615 0.268915 0.098185
O O9 0.606343 0.710149 0.494047
O O10 0.712854 0.083006 0.328352
O O11 0.808952 0.927630 0.993857
O O12 0.055743 0.753083 0.292933
O O13 0.000000 0.000000 0.500000
O O14 0.348623 0.534257 0.905303
O O15 0.166955 0.599191 0.214786
O O16 0.275684 0.631667 0.788069
O O17 0.500000 0.000000 0.500000
#
# Coordination Sequence:
#
# PCOD9041992 Si02
#       8
#     2   2   2   2   2   2   2   2
#     4  11  24  45  68 109 136 179 231 295 342 404
#     4  11  26  42  68  99 137 186 233 281 343 412
#     4  12  23  46  70 103 137 187 229 288 345 410
#     4  10  23  44  68  97 138 184 228 284 344 412
#     4  11  26  43  74 103 140 177 237 287 345 413
#     4  11  21  45  69  95 142 181 232 281 349 408
#     4  12  24  43  71  99 142 181 230 286 344 406
#     4  12  25  44  67 106 135 187 228 284 344 416
#
# _framework density 23.581744
#
# number of rings (size 3 to 8) (size 9 to 14) (size 15 to 20)
#    0.000    0.750    5.000    1.500    3.500    2.000 
#    0.000    0.000    0.000    0.000    0.000    0.000 
#    0.000    0.000    0.000    0.000    0.000    0.000 
#
# Total GULP energy -89464.156152 kJ/mol
# GULP energy per Si atom -5591.509759 kJ/mol
# Density = 2.352807 g / cm^3
# Si number density = 23.581744 Si / 1000 Ang^3
#
#
#
# Elastic Constant Matrix: (Units=GPa)
#
#
# Indices 1 2 3 4 5 6 
#
# 1 144.8537 36.8371 37.6525 -2.1575 -21.5776 -12.4702
# 2 36.8371 83.9947 34.0713 4.5162 -13.8421 -14.4405
# 3 37.6525 34.0713 153.6004 12.8883 6.5165 -9.0307
# 4 -2.1575 4.5162 12.8883 37.4991 -4.6560 -2.5200
# 5 -21.5776 -13.8421 6.5165 -4.6560 36.4080 2.6274
# 6 -12.4702 -14.4405 -9.0307 -2.5200 2.6274 30.0237
#
#
#
# Elastic Compliance Matrix: (Units=1/GPa)
#
#
# Indices 1 2 3 4 5 6 
#
# 1 0.008884 -0.002061 -0.002008 0.002193 0.004988 0.001842
# 2 -0.002061 0.015704 -0.002862 -0.000059 0.004864 0.005406
# 3 -0.002008 -0.002862 0.008088 -0.003042 -0.004138 0.000329
# 4 0.002193 -0.000059 -0.003042 0.028638 0.005346 0.001903
# 5 0.004988 0.004864 -0.004138 0.005346 0.033648 0.000671
# 6 0.001842 0.005406 0.000329 0.001903 0.000671 0.036872
#
#
# Mechanical properties :
#
#
# Convention : Reuss Voigt Hill
#
# Bulk Modulus (GPa) = 53.15007 66.61898 59.88452
# Shear Modulus (GPa) = 32.90194 39.04537 35.97365
#
# Velocity S-wave (km/s) = 3.73933 4.07350 3.90999
# Velocity P-wave (km/s) = 6.42114 7.10184 6.77005
#
# Compressibility (1/GPa) = 0.01881465
#
# Stress axis : x y z
#
# Youngs Moduli (GPa) = 112.56398 63.67677 123.64595
#
# Poissons Ratio (x) = 0.13122 0.24827
# Poissons Ratio (y) = 0.23197 0.35386
# Poissons Ratio (z) = 0.22602 0.18224
#
# Static dielectric constant tensor:
#      x y z
#    x 1.870630 -0.031930 0.038540 
#    y -0.031930 1.920770 0.008170 
#    z 0.038540 0.008170 1.972920 
# 
# From -- ./inp_files/226162.got.cif
#   From: 2010.05.17/outbox.cif.g08.bks.cpg/sg2_114_cif.got.tgz:226162.got - 2010.06.03 11:33:40.
