data_PCOD9041278
_publ_section_title
;
Structure prediction by ZEFSAII (Michael W. Deem and Ramdas Pophale) SiO2 
 PCOD9041278
Probable space group: P -1
;
_chemical_formula_sum "Si O2"
_cell_formula_units_Z 14
_cell_length_a 11.852982
_cell_length_b 10.079798
_cell_length_c 9.641976
_cell_angle_alpha 31.134991
_cell_angle_beta 95.914509
_cell_angle_gamma 98.652135
_cell_volume 588.114787
_symmetry_space_group_name_H-M "P -1"
_symmetry_group_IT_number 2
_symmetry_cell_setting 'triclinic'
loop_
_space_group_symop_operation_xyz
x,y,z
-x,-y,-z
loop_
_atom_site_type_symbol
_atom_site_label
_atom_site_fract_x
_atom_site_fract_y
_atom_site_fract_z
Si Si1 0.572237 0.760421 0.722630
Si Si2 0.943795 0.618056 0.225263
Si Si3 0.821515 0.298600 0.728215
Si Si4 0.424710 0.237787 0.775431
Si Si5 0.271381 0.140024 0.093010
Si Si6 0.280611 0.337986 0.427337
Si Si7 0.968362 0.715821 0.690500
O O1 0.676176 0.853507 0.755459
O O2 0.620712 0.690615 0.643344
O O3 0.500000 0.000000 0.500000
O O4 0.500000 0.500000 0.000000
O O5 0.885261 0.545040 0.431232
O O6 0.066365 0.791604 0.103583
O O7 0.967239 0.365561 0.367186
O O8 0.848074 0.746846 0.017352
O O9 0.735576 0.389557 0.747320
O O10 0.757714 0.125914 0.756274
O O11 0.500000 0.500000 0.500000
O O12 0.317985 0.180532 0.706128
O O13 0.368006 0.286728 0.872806
O O14 0.500000 0.000000 0.000000
O O15 0.162294 0.285682 0.375677
O O16 0.000000 0.000000 0.500000
O O17 0.000000 0.500000 0.000000
#
# Coordination Sequence:
#
# PCOD9041278 Si02
#       7
#     2   2   2   2   2   2   2
#     4  12  30  50  73 106 147 197 253 312 363 433
#     4  10  23  43  72 110 148 184 245 295 369 449
#     4  10  23  44  73 112 145 190 237 303 370 454
#     4  12  26  45  71 104 139 188 251 307 357 427
#     4  12  25  44  79 102 149 196 245 303 383 433
#     4  11  25  50  74 108 149 194 243 309 375 434
#     4  11  27  46  73 111 152 193 238 295 371 459
#
# _framework density 23.804877000000001
#
# number of rings (size 3 to 8) (size 9 to 14) (size 15 to 20)
#    0.000    0.857    1.429    3.857    6.000    5.714 
#    0.000    0.000    0.000    0.000    0.000    0.000 
#    0.000    0.000    0.000    0.000    0.000    0.000 
#
# Total GULP energy -78291.525866 kJ/mol
# GULP energy per Si atom -5592.251848 kJ/mol
# Density = 2.375070 g / cm^3
# Si number density = 23.804877 Si / 1000 Ang^3
#
#
#
# Elastic Constant Matrix: (Units=GPa)
#
#
# Indices 1 2 3 4 5 6 
#
# 1 113.9213 45.7861 39.4413 -9.1699 38.3860 -11.1542
# 2 45.7861 158.0415 37.6650 -10.2253 8.4735 -9.3185
# 3 39.4413 37.6650 96.2419 -15.8355 28.3573 3.2395
# 4 -9.1699 -10.2253 -15.8355 48.2576 6.3913 1.2041
# 5 38.3860 8.4735 28.3573 6.3913 45.5416 14.0484
# 6 -11.1542 -9.3185 3.2395 1.2041 14.0484 64.4917
#
#
#
# Elastic Compliance Matrix: (Units=1/GPa)
#
#
# Indices 1 2 3 4 5 6 
#
# 1 0.016146 -0.003169 -0.000465 0.004094 -0.015018 0.005553
# 2 -0.003169 0.007702 -0.002593 -0.000202 0.002858 0.000076
# 3 -0.000465 -0.002593 0.015372 0.005677 -0.009737 0.000788
# 4 0.004094 -0.000202 0.005677 0.024738 -0.011148 0.002360
# 5 -0.015018 0.002858 -0.009737 -0.011148 0.045208 -0.011335
# 6 0.005553 0.000076 0.000788 0.002360 -0.011335 0.018863
#
#
# Mechanical properties :
#
#
# Convention : Reuss Voigt Hill
#
# Bulk Modulus (GPa) = 37.36140 68.22107 52.79123
# Shear Modulus (GPa) = 33.46583 48.01234 40.73909
#
# Velocity S-wave (km/s) = 3.75352 4.49588 4.14137
# Velocity P-wave (km/s) = 5.87487 7.46131 6.71511
#
# Compressibility (1/GPa) = 0.02676559
#
# Stress axis : x y z
#
# Youngs Moduli (GPa) = 61.93388 129.83835 65.05177
#
# Poissons Ratio (x) = 0.41151 0.03024
# Poissons Ratio (y) = 0.19630 0.16869
# Poissons Ratio (z) = 0.02879 0.33669
#
# Static dielectric constant tensor:
#      x y z
#    x 1.819160 0.077030 0.043860 
#    y 0.077030 1.890330 0.004910 
#    z 0.043860 0.004910 1.961850 
# 
# From -- ./inp_files/241813.got.cif
#   From: 2010.05.17/outbox.cif.g08.bks.cpg/sg2_121_cif.got.tgz:241813.got - 2010.06.03 11:33:40.
