data_PCOD9041683
_publ_section_title
;
Structure prediction by ZEFSAII (Michael W. Deem and Ramdas Pophale) SiO2 
 PCOD9041683
Probable space group: P -1
;
_chemical_formula_sum "Si O2"
_cell_formula_units_Z 16
_cell_length_a 19.681777
_cell_length_b 20.824903
_cell_length_c 5.659548
_cell_angle_alpha 115.225258
_cell_angle_beta 74.028306
_cell_angle_gamma 159.272188
_cell_volume 685.304697
_symmetry_space_group_name_H-M "P -1"
_symmetry_group_IT_number 2
_symmetry_cell_setting 'triclinic'
loop_
_space_group_symop_operation_xyz
x,y,z
-x,-y,-z
loop_
_atom_site_type_symbol
_atom_site_label
_atom_site_fract_x
_atom_site_fract_y
_atom_site_fract_z
Si Si1 0.965438 0.405399 0.696630
Si Si2 0.555433 0.692629 0.333082
Si Si3 0.164503 0.324927 0.415117
Si Si4 0.944838 0.985118 0.279998
Si Si5 0.011610 0.671266 0.055727
Si Si6 0.796711 0.025374 0.950434
Si Si7 0.594396 0.335791 0.954707
Si Si8 0.277731 0.793497 0.775031
O O1 0.743898 0.211296 0.487662
O O2 0.151400 0.601810 0.649254
O O3 0.000000 0.500000 0.000000
O O4 0.979783 0.342126 0.697854
O O5 0.347211 0.466370 0.296589
O O6 0.700730 0.774276 0.189100
O O7 0.486491 0.690621 0.219798
O O8 0.697520 0.862223 0.667756
O O9 0.272415 0.489272 0.718338
O O10 0.071911 0.178905 0.448355
O O11 0.979728 0.177599 0.193000
O O12 0.000000 0.000000 0.500000
O O13 0.000000 0.000000 0.000000
O O14 0.766475 0.442571 0.870633
O O15 0.149964 0.740040 0.916324
O O16 0.113562 0.839426 0.127435
O O17 0.606102 0.880835 0.050860
O O18 0.500000 0.000000 0.000000
#
# Coordination Sequence:
#
# PCOD9041683 Si02
#       8
#     2   2   2   2   2   2   2   2
#     4   9  22  44  62  93 136 173 225 285 339 412
#     4  11  25  47  72 102 146 187 233 300 364 415
#     4  11  25  47  73  99 151 181 233 301 366 413
#     4  12  28  47  75 109 146 197 252 292 356 449
#     4  11  24  40  69 103 133 177 240 284 351 436
#     4  11  24  44  69 104 138 187 229 296 363 423
#     4  11  25  42  71 102 136 183 229 295 360 420
#     4  10  23  44  66  93 137 184 224 288 353 411
#
# _framework density 23.347280000000001
#
# number of rings (size 3 to 8) (size 9 to 14) (size 15 to 20)
#    0.000    1.250    2.500    1.500    7.000    3.000 
#    4.500    0.000    0.000    0.000    0.000    0.000 
#    0.000    0.000    0.000    0.000    0.000    0.000 
#
# Total GULP energy -89434.629336 kJ/mol
# GULP energy per Si atom -5589.664333 kJ/mol
# Density = 2.329414 g / cm^3
# Si number density = 23.347280 Si / 1000 Ang^3
#
#
#
# Elastic Constant Matrix: (Units=GPa)
#
#
# Indices 1 2 3 4 5 6 
#
# 1 126.1863 79.0885 49.5909 -2.3038 31.5954 4.6868
# 2 79.0885 157.2612 22.9573 11.5890 17.9171 14.4772
# 3 49.5909 22.9573 110.9051 10.7731 29.3118 13.9017
# 4 -2.3038 11.5890 10.7731 31.0860 6.2944 0.4888
# 5 31.5954 17.9171 29.3118 6.2944 44.2082 -11.1889
# 6 4.6868 14.4772 13.9017 0.4888 -11.1889 66.9519
#
#
#
# Elastic Compliance Matrix: (Units=1/GPa)
#
#
# Indices 1 2 3 4 5 6 
#
# 1 0.015908 -0.007128 -0.004673 0.006719 -0.006262 0.000302
# 2 -0.007128 0.010241 0.001831 -0.004929 -0.000094 -0.002075
# 3 -0.004673 0.001831 0.013399 -0.004259 -0.006676 -0.003935
# 4 0.006719 -0.004929 -0.004259 0.037020 -0.005164 0.000347
# 5 -0.006262 -0.000094 -0.006676 -0.005164 0.034219 0.007601
# 6 0.000302 -0.002075 -0.003935 0.000347 0.007601 0.017449
#
#
# Mechanical properties :
#
#
# Convention : Reuss Voigt Hill
#
# Bulk Modulus (GPa) = 50.99984 77.51401 64.25692
# Shear Modulus (GPa) = 32.31808 44.63030 38.47419
#
# Velocity S-wave (km/s) = 3.72456 4.37691 4.06385
# Velocity P-wave (km/s) = 6.35515 7.66914 7.04285
#
# Compressibility (1/GPa) = 0.01960791
#
# Stress axis : x y z
#
# Youngs Moduli (GPa) = 62.86076 97.64518 74.63419
#
# Poissons Ratio (x) = 0.69599 0.34879
# Poissons Ratio (y) = 0.44805 -0.13666
# Poissons Ratio (z) = 0.29377 -0.17879
#
# Static dielectric constant tensor:
#      x y z
#    x 1.894460 0.016320 -0.021770 
#    y 0.016320 1.968340 -0.123880 
#    z -0.021770 -0.123880 2.000060 
# 
# From -- ./inp_files/120447.got.cif
#   From: 2010.05.17/outbox.cif.g08.bks.cpg/sg2_61_cif.got.tgz:120447.got - 2010.06.03 11:33:40.
