data_PCOD9041857
_publ_section_title
;
Structure prediction by ZEFSAII (Michael W. Deem and Ramdas Pophale) SiO2 
 PCOD9041857
Probable space group: P -1
;
_chemical_formula_sum "Si O2"
_cell_formula_units_Z 16
_cell_length_a 13.162744
_cell_length_b 9.147927
_cell_length_c 7.723254
_cell_angle_alpha 128.832626
_cell_angle_beta 97.557218
_cell_angle_gamma 98.139296
_cell_volume 687.247124
_symmetry_space_group_name_H-M "P -1"
_symmetry_group_IT_number 2
_symmetry_cell_setting 'triclinic'
loop_
_space_group_symop_operation_xyz
x,y,z
-x,-y,-z
loop_
_atom_site_type_symbol
_atom_site_label
_atom_site_fract_x
_atom_site_fract_y
_atom_site_fract_z
Si Si1 0.022838 0.659390 0.966199
Si Si2 0.550080 0.955917 0.701723
Si Si3 0.412263 0.183893 0.021498
Si Si4 0.886596 0.547812 0.539114
Si Si5 0.245895 0.742705 0.162459
Si Si6 0.205152 0.839525 0.623867
Si Si7 0.019883 0.078449 0.365864
Si Si8 0.572765 0.421205 0.824627
O O1 0.144141 0.655885 0.950782
O O2 0.046715 0.893001 0.155798
O O3 0.000000 0.500000 0.000000
O O4 0.915953 0.616118 0.795420
O O5 0.494222 0.124880 0.862637
O O6 0.669767 0.059526 0.740687
O O7 0.516598 0.210752 0.567419
O O8 0.552885 0.852446 0.806900
O O9 0.300833 0.026536 0.831970
O O10 0.403713 0.402035 0.174927
O O11 0.791878 0.349237 0.400749
O O12 0.000000 0.500000 0.500000
O O13 0.892513 0.724829 0.539034
O O14 0.210100 0.789940 0.383157
O O15 0.315632 0.592058 0.083501
O O16 0.093488 0.884009 0.674053
O O17 0.000000 0.000000 0.500000
O O18 0.500000 0.500000 0.000000
#
# Coordination Sequence:
#
# PCOD9041857 Si02
#       8
#     2   2   2   2   2   2   2   2
#     4  12  24  44  67 101 141 185 233 292 352 417
#     4  11  25  47  71 102 143 181 236 308 352 421
#     4  11  25  46  73 104 141 181 240 296 362 427
#     4  10  23  44  67  98 144 184 230 293 350 416
#     4  12  24  44  70 101 140 184 237 286 357 424
#     4  11  23  45  70 101 140 188 227 295 354 423
#     4  11  23  45  69  99 139 185 236 285 351 425
#     4  12  24  47  73 102 138 187 234 294 362 427
#
# _framework density 23.281291
#
# number of rings (size 3 to 8) (size 9 to 14) (size 15 to 20)
#    0.000    0.750    5.000    2.625    5.250    0.000 
#    2.250    0.000    0.000    0.000    0.000    0.000 
#    0.000    0.000    0.000    0.000    0.000    0.000 
#
# Total GULP energy -89194.864076 kJ/mol
# GULP energy per Si atom -5574.679005 kJ/mol
# Density = 2.322830 g / cm^3
# Si number density = 23.281291 Si / 1000 Ang^3
#
#
#
# Elastic Constant Matrix: (Units=GPa)
#
#
# Indices 1 2 3 4 5 6 
#
# 1 87.2713 10.3573 4.9050 8.6945 -2.9174 -1.7832
# 2 10.3573 140.1419 25.9987 22.4569 -9.0273 5.1050
# 3 4.9050 25.9987 33.2420 8.8565 -4.9906 4.1088
# 4 8.6945 22.4569 8.8565 44.1662 -2.8600 -1.1007
# 5 -2.9174 -9.0273 -4.9906 -2.8600 32.5381 11.0220
# 6 -1.7832 5.1050 4.1088 -1.1007 11.0220 39.7155
#
#
#
# Elastic Compliance Matrix: (Units=1/GPa)
#
#
# Indices 1 2 3 4 5 6 
#
# 1 0.011770 -0.000382 -0.000922 -0.001895 0.000476 0.000488
# 2 -0.000382 0.008875 -0.005636 -0.003227 0.001661 -0.001125
# 3 -0.000922 -0.005636 0.037117 -0.004172 0.005285 -0.004739
# 4 -0.001895 -0.003227 -0.004172 0.025532 0.000046 0.001456
# 5 0.000476 0.001661 0.005285 0.000046 0.035653 -0.010632
# 6 0.000488 -0.001125 -0.004739 0.001456 -0.010632 0.028827
#
#
# Mechanical properties :
#
#
# Convention : Reuss Voigt Hill
#
# Bulk Modulus (GPa) = 22.78862 38.13080 30.45971
# Shear Modulus (GPa) = 28.36371 37.91024 33.13697
#
# Velocity S-wave (km/s) = 3.49421 4.03967 3.77680
# Velocity P-wave (km/s) = 5.10774 6.17838 5.66839
#
# Compressibility (1/GPa) = 0.04388155
#
# Stress axis : x y z
#
# Youngs Moduli (GPa) = 84.95903 112.68047 26.94165
#
# Poissons Ratio (x) = 0.04309 0.02483
# Poissons Ratio (y) = 0.03249 0.15185
# Poissons Ratio (z) = 0.07831 0.63509
#
# Static dielectric constant tensor:
#      x y z
#    x 1.871500 0.049570 -0.027090 
#    y 0.049570 2.014740 -0.107530 
#    z -0.027090 -0.107530 1.877700 
# 
# From -- ./inp_files/299724.got.cif
#   From: 2010.05.17/outbox.cif.g08.bks.cpg/sg2_150_cif.got.tgz:299724.got - 2010.06.03 11:33:40.
