data_PCOD9041974
_publ_section_title
;
Structure prediction by ZEFSAII (Michael W. Deem and Ramdas Pophale) SiO2 
 PCOD9041974
Probable space group: P -1
;
_chemical_formula_sum "Si O2"
_cell_formula_units_Z 14
_cell_length_a 16.487800
_cell_length_b 6.556086
_cell_length_c 8.857063
_cell_angle_alpha 80.495377
_cell_angle_beta 134.479687
_cell_angle_gamma 87.581604
_cell_volume 656.553791
_symmetry_space_group_name_H-M "P -1"
_symmetry_group_IT_number 2
_symmetry_cell_setting 'triclinic'
loop_
_space_group_symop_operation_xyz
x,y,z
-x,-y,-z
loop_
_atom_site_type_symbol
_atom_site_label
_atom_site_fract_x
_atom_site_fract_y
_atom_site_fract_z
Si Si1 0.218995 0.231008 0.969076
Si Si2 0.790422 0.222296 0.492229
Si Si3 0.078270 0.144312 0.504925
Si Si4 0.563847 0.163300 0.711940
Si Si5 0.572232 0.183442 0.388420
Si Si6 0.002011 0.433339 0.837328
Si Si7 0.366681 0.523706 0.003831
O O1 0.155124 0.212060 0.729496
O O2 0.121751 0.272365 0.965952
O O3 0.282320 0.425327 0.014468
O O4 0.320046 0.021152 0.141530
O O5 0.702199 0.181435 0.510197
O O6 0.709946 0.380256 0.249947
O O7 0.894066 0.326007 0.672947
O O8 0.844607 0.006228 0.499807
O O9 0.008929 0.357579 0.307426
O O10 0.000000 0.000000 0.500000
O O11 0.545003 0.274439 0.510979
O O12 0.459404 0.045879 0.622612
O O13 0.587056 0.298920 0.866313
O O14 0.477666 0.332552 0.138587
O O15 0.000000 0.500000 0.000000
#
# Coordination Sequence:
#
# PCOD9041974 Si02
#       7
#     2   2   2   2   2   2   2
#     4  11  23  43  69  97 131 179 227 266 342 413
#     4  12  25  43  70 100 136 178 227 280 338 397
#     4  12  24  45  70  95 137 185 228 273 332 413
#     4  10  23  44  68  96 135 179 221 279 334 405
#     4  10  25  42  65 102 136 170 229 276 339 398
#     4  12  29  44  67 106 140 174 228 290 342 400
#     4  11  22  43  69  96 132 182 221 274 334 405
#
# _framework density 21.323463
#
# number of rings (size 3 to 8) (size 9 to 14) (size 15 to 20)
#    0.000    0.857    4.286    2.143    4.000    2.286 
#    0.000    0.000    0.000    0.000    0.000    0.000 
#    0.000    0.000    0.000    0.000    0.000    0.000 
#
# Total GULP energy -78330.680955 kJ/mol
# GULP energy per Si atom -5595.048640 kJ/mol
# Density = 2.127493 g / cm^3
# Si number density = 21.323463 Si / 1000 Ang^3
#
#
#
# Elastic Constant Matrix: (Units=GPa)
#
#
# Indices 1 2 3 4 5 6 
#
# 1 129.5985 36.2742 9.8800 15.9396 21.5820 13.7745
# 2 36.2742 54.2894 4.1933 10.4887 -0.6391 1.6041
# 3 9.8800 4.1933 64.7441 14.7980 -5.4052 5.8117
# 4 15.9396 10.4887 14.7980 46.7665 -2.1367 3.0905
# 5 21.5820 -0.6391 -5.4052 -2.1367 26.1357 6.3114
# 6 13.7745 1.6041 5.8117 3.0905 6.3114 19.0399
#
#
#
# Elastic Compliance Matrix: (Units=1/GPa)
#
#
# Indices 1 2 3 4 5 6 
#
# 1 0.012327 -0.007694 -0.001308 -0.002227 -0.009791 -0.004263
# 2 -0.007694 0.024078 0.000643 -0.002796 0.006446 0.001659
# 3 -0.001308 0.000643 0.017650 -0.004649 0.005728 -0.005639
# 4 -0.002227 -0.002796 -0.004649 0.024507 0.003245 -0.001787
# 5 -0.009791 0.006446 0.005728 0.003245 0.051007 -0.012643
# 6 -0.004263 0.001659 -0.005639 -0.001787 -0.012643 0.061669
#
#
# Mechanical properties :
#
#
# Convention : Reuss Voigt Hill
#
# Bulk Modulus (GPa) = 26.78336 38.81410 32.79873
# Shear Modulus (GPa) = 22.68571 31.60737 27.14654
#
# Velocity S-wave (km/s) = 3.26526 3.85422 3.57190
# Velocity P-wave (km/s) = 5.17723 6.16836 5.69440
#
# Compressibility (1/GPa) = 0.03733662
#
# Stress axis : x y z
#
# Youngs Moduli (GPa) = 81.12266 41.53116 56.65582
#
# Poissons Ratio (x) = 0.31955 0.07412
# Poissons Ratio (y) = 0.62419 -0.03644
# Poissons Ratio (z) = 0.10614 -0.02671
#
# Static dielectric constant tensor:
#      x y z
#    x 1.762890 0.013510 -0.007840 
#    y 0.013510 1.770650 -0.033430 
#    z -0.007840 -0.033430 1.768660 
# 
# From -- ./inp_files/317223.got.cif
#   From: 2010.05.17/outbox.cif.g08.bks.cpg/sg2_159_cif.got.tgz:317223.got - 2010.06.03 11:33:40.
