data_PCOD9041829
_publ_section_title
;
Structure prediction by ZEFSAII (Michael W. Deem and Ramdas Pophale) SiO2 
 PCOD9041829
Probable space group: P -1
;
_chemical_formula_sum "Si O2"
_cell_formula_units_Z 14
_cell_length_a 24.637554
_cell_length_b 15.435552
_cell_length_c 5.658364
_cell_angle_alpha 78.557709
_cell_angle_beta 100.126317
_cell_angle_gamma 163.189306
_cell_volume 609.213304
_symmetry_space_group_name_H-M "P -1"
_symmetry_group_IT_number 2
_symmetry_cell_setting 'triclinic'
loop_
_space_group_symop_operation_xyz
x,y,z
-x,-y,-z
loop_
_atom_site_type_symbol
_atom_site_label
_atom_site_fract_x
_atom_site_fract_y
_atom_site_fract_z
Si Si1 0.480246 0.614137 0.472545
Si Si2 0.320532 0.892550 0.584864
Si Si3 0.863209 0.833603 0.289286
Si Si4 0.246885 0.717643 0.123956
Si Si5 0.651256 0.714618 0.800997
Si Si6 0.365858 0.690799 0.693088
Si Si7 0.948349 0.720927 0.045149
O O1 0.289481 0.332177 0.630501
O O2 0.613361 0.736709 0.579891
O O3 0.399193 0.459746 0.242769
O O4 0.592707 0.876965 0.441602
O O5 0.208990 0.709991 0.347694
O O6 0.505073 0.112668 0.550716
O O7 0.212154 0.707494 0.845052
O O8 0.734788 0.558210 0.242289
O O9 0.000000 0.000000 0.500000
O O10 0.989720 0.084816 0.075599
O O11 0.472529 0.054717 0.124600
O O12 0.142447 0.464565 0.152782
O O13 0.863938 0.041280 0.868307
O O14 0.500000 0.500000 0.000000
O O15 0.203206 0.509408 0.734393
#
# Coordination Sequence:
#
# PCOD9041829 Si02
#       7
#     2   2   2   2   2   2   2
#     4  10  23  44  67  96 133 183 226 288 338 415
#     4   9  23  42  72  94 141 183 227 269 352 411
#     4  11  23  39  68 105 134 176 228 288 347 408
#     4  10  24  44  67 105 140 186 221 278 353 411
#     4  11  24  43  67  98 134 179 231 286 352 387
#     4   9  23  41  65  99 139 180 218 276 351 405
#     4  12  24  41  69 103 141 174 233 285 337 418
#
# _framework density 22.980457999999999
#
# number of rings (size 3 to 8) (size 9 to 14) (size 15 to 20)
#    0.857    0.857    1.429    1.714    8.000    2.857 
#    0.000    1.429    0.000    0.000    0.000    0.000 
#    0.000    0.000    0.000    0.000    0.000    0.000 
#
# Total GULP energy -78091.918694 kJ/mol
# GULP energy per Si atom -5577.994192 kJ/mol
# Density = 2.292815 g / cm^3
# Si number density = 22.980458 Si / 1000 Ang^3
#
#
#
# Elastic Constant Matrix: (Units=GPa)
#
#
# Indices 1 2 3 4 5 6 
#
# 1 67.5369 38.6699 26.3363 16.9933 -13.1850 -1.8892
# 2 38.6699 118.8431 32.5168 28.0582 -2.5370 -17.1562
# 3 26.3363 32.5168 102.5561 7.4209 -14.5360 -11.4627
# 4 16.9933 28.0582 7.4209 35.4731 -8.1912 0.7441
# 5 -13.1850 -2.5370 -14.5360 -8.1912 40.8935 7.6553
# 6 -1.8892 -17.1562 -11.4627 0.7441 7.6553 40.8615
#
#
#
# Elastic Compliance Matrix: (Units=1/GPa)
#
#
# Indices 1 2 3 4 5 6 
#
# 1 0.020975 -0.005417 -0.002997 -0.003883 0.005153 -0.003040
# 2 -0.005417 0.013656 -0.002290 -0.008912 -0.004596 0.005864
# 3 -0.002997 -0.002290 0.011753 0.001462 0.003063 0.001597
# 4 -0.003883 -0.008912 0.001462 0.038645 0.007508 -0.005621
# 5 0.005153 -0.004596 0.003063 0.007508 0.029644 -0.006523
# 6 -0.003040 0.005864 0.001597 -0.005621 -0.006523 0.028567
#
#
# Mechanical properties :
#
#
# Convention : Reuss Voigt Hill
#
# Bulk Modulus (GPa) = 40.03859 53.77578 46.90718
# Shear Modulus (GPa) = 28.90603 36.20649 32.55626
#
# Velocity S-wave (km/s) = 3.55047 3.97361 3.76798
# Velocity P-wave (km/s) = 5.85393 6.67115 6.27585
#
# Compressibility (1/GPa) = 0.02497591
#
# Stress axis : x y z
#
# Youngs Moduli (GPa) = 47.67560 73.22721 85.08202
#
# Poissons Ratio (x) = 0.39668 0.25502
# Poissons Ratio (y) = 0.25826 0.19483
# Poissons Ratio (z) = 0.14290 0.16768
#
# Static dielectric constant tensor:
#      x y z
#    x 1.920570 -0.019310 0.039900 
#    y -0.019310 1.882010 -0.014680 
#    z 0.039900 -0.014680 1.946090 
# 
# From -- ./inp_files/124260.got.cif
#   From: 2010.05.17/outbox.cif.g08.bks.cpg/sg2_63_cif.got.tgz:124260.got - 2010.06.03 11:33:40.
