data_PCOD9041028
_publ_section_title
;
Structure prediction by ZEFSAII (Michael W. Deem and Ramdas Pophale) SiO2 
 PCOD9041028
Probable space group: P -1
;
_chemical_formula_sum "Si O2"
_cell_formula_units_Z 14
_cell_length_a 7.863907
_cell_length_b 10.531858
_cell_length_c 9.521275
_cell_angle_alpha 101.736762
_cell_angle_beta 130.506283
_cell_angle_gamma 99.815863
_cell_volume 536.351178
_symmetry_space_group_name_H-M "P -1"
_symmetry_group_IT_number 2
_symmetry_cell_setting 'triclinic'
loop_
_space_group_symop_operation_xyz
x,y,z
-x,-y,-z
loop_
_atom_site_type_symbol
_atom_site_label
_atom_site_fract_x
_atom_site_fract_y
_atom_site_fract_z
Si Si1 0.432947 0.834153 0.428326
Si Si2 0.085101 0.147062 0.159214
Si Si3 0.137608 0.859811 0.662477
Si Si4 0.718761 0.568239 0.826409
Si Si5 0.629252 0.816656 0.237377
Si Si6 0.043969 0.577592 0.259307
Si Si7 0.675511 0.371540 0.223783
O O1 0.650418 0.817127 0.624977
O O2 0.446012 0.787584 0.264393
O O3 0.180537 0.746526 0.352353
O O4 0.500000 0.000000 0.500000
O O5 0.116349 0.271842 0.097296
O O6 0.913592 0.137148 0.197233
O O7 0.000000 0.000000 0.000000
O O8 0.263202 0.749541 0.695413
O O9 0.876732 0.810594 0.431534
O O10 0.297050 0.020401 0.734888
O O11 0.749625 0.473563 0.696927
O O12 0.456204 0.559966 0.727435
O O13 0.834225 0.532976 0.018829
O O14 0.514754 0.711297 0.022536
O O15 0.910258 0.492274 0.304403
#
# Coordination Sequence:
#
# PCOD9041028 Si02
#       7
#     2   2   2   2   2   2   2
#     4  11  26  44  74 105 141 191 242 310 370 435
#     4  11  23  43  72 108 144 189 248 297 369 438
#     4  10  23  43  70 110 151 192 245 314 350 434
#     4  11  24  44  74 106 143 197 238 294 375 436
#     4  10  23  44  71 110 151 191 250 299 366 430
#     4  11  25  49  70 105 150 187 246 306 367 442
#     4  12  24  46  78 106 148 200 244 299 373 436
#
# _framework density 26.102298999999999
#
# number of rings (size 3 to 8) (size 9 to 14) (size 15 to 20)
#    0.000    1.143    1.429    4.286    4.000    2.857 
#    2.571    2.143    0.000    0.000    0.000    0.000 
#    0.000    0.000    0.000    0.000    0.000    0.000 
#
# Total GULP energy -78632.818701 kJ/mol
# GULP energy per Si atom -5616.629907 kJ/mol
# Density = 2.604289 g / cm^3
# Si number density = 26.102299 Si / 1000 Ang^3
#
#
#
# Elastic Constant Matrix: (Units=GPa)
#
#
# Indices 1 2 3 4 5 6 
#
# 1 189.3726 72.8948 46.2377 -11.4250 -13.5123 7.7737
# 2 72.8948 145.9747 36.2017 0.0712 -2.3779 15.5247
# 3 46.2377 36.2017 117.8839 -7.1225 -11.1126 9.8500
# 4 -11.4250 0.0712 -7.1225 45.2662 13.0075 4.0422
# 5 -13.5123 -2.3779 -11.1126 13.0075 37.5496 -2.2351
# 6 7.7737 15.5247 9.8500 4.0422 -2.2351 56.7089
#
#
#
# Elastic Compliance Matrix: (Units=1/GPa)
#
#
# Indices 1 2 3 4 5 6 
#
# 1 0.007035 -0.003105 -0.001612 0.001085 0.001491 0.000147
# 2 -0.003105 0.008946 -0.001504 -0.000624 -0.000884 -0.001753
# 3 -0.001612 -0.001504 0.009891 0.000685 0.001951 -0.001057
# 4 0.001085 -0.000624 0.000685 0.025043 -0.008252 -0.002207
# 5 0.001491 -0.000884 0.001951 -0.008252 0.030637 0.001495
# 6 0.000147 -0.001753 -0.001057 -0.002207 0.001495 0.018493
#
#
# Mechanical properties :
#
#
# Convention : Reuss Voigt Hill
#
# Bulk Modulus (GPa) = 74.46091 84.87775 79.66933
# Shear Modulus (GPa) = 42.74769 47.76472 45.25621
#
# Velocity S-wave (km/s) = 4.05124 4.28238 4.16841
# Velocity P-wave (km/s) = 7.10436 7.55246 7.33183
#
# Compressibility (1/GPa) = 0.01342987
#
# Stress axis : x y z
#
# Youngs Moduli (GPa) = 142.13981 111.77567 101.10404
#
# Poissons Ratio (x) = 0.34710 0.16298
# Poissons Ratio (y) = 0.44139 0.15206
# Poissons Ratio (z) = 0.22913 0.16811
#
# Static dielectric constant tensor:
#      x y z
#    x 1.995350 -0.031950 -0.021120 
#    y -0.031950 2.109960 -0.000970 
#    z -0.021120 -0.000970 2.090600 
# 
# From -- ./inp_files/190517.got.cif
#   From: 2010.05.17/outbox.cif.g08.bks.cpg/sg2_96_cif.got.tgz:190517.got - 2010.06.03 11:33:40.
