data_PCOD9041959
_publ_section_title
;
Structure prediction by ZEFSAII (Michael W. Deem and Ramdas Pophale) SiO2 
 PCOD9041959
Probable space group: P -1
;
_chemical_formula_sum "Si O2"
_cell_formula_units_Z 16
_cell_length_a 15.510951
_cell_length_b 8.780459
_cell_length_c 6.329015
_cell_angle_alpha 93.709533
_cell_angle_beta 120.572048
_cell_angle_gamma 96.174974
_cell_volume 730.627026
_symmetry_space_group_name_H-M "P -1"
_symmetry_group_IT_number 2
_symmetry_cell_setting 'triclinic'
loop_
_space_group_symop_operation_xyz
x,y,z
-x,-y,-z
loop_
_atom_site_type_symbol
_atom_site_label
_atom_site_fract_x
_atom_site_fract_y
_atom_site_fract_z
Si Si1 0.047413 0.645146 0.426767
Si Si2 0.962836 0.097842 0.270099
Si Si3 0.742275 0.333221 0.526897
Si Si4 0.899437 0.793828 0.934656
Si Si5 0.304815 0.417237 0.234709
Si Si6 0.395717 0.537745 0.966935
Si Si7 0.520981 0.758074 0.451296
Si Si8 0.426999 0.936899 0.706504
O O1 0.089131 0.776492 0.663108
O O2 0.141485 0.628118 0.393244
O O3 0.000000 0.500000 0.500000
O O4 0.965822 0.707662 0.175116
O O5 0.900233 0.968968 0.032070
O O6 0.000000 0.000000 0.500000
O O7 0.049669 0.188590 0.232215
O O8 0.724898 0.415868 0.733208
O O9 0.686881 0.156394 0.413696
O O10 0.676951 0.422421 0.299497
O O11 0.787165 0.702469 0.799634
O O12 0.328473 0.409176 0.015499
O O13 0.408067 0.371882 0.451461
O O14 0.431712 0.684506 0.176942
O O15 0.500000 0.500000 0.000000
O O16 0.480789 0.813768 0.628545
O O17 0.577823 0.913936 0.429504
O O18 0.500000 0.000000 0.000000
#
# Coordination Sequence:
#
# PCOD9041959 Si02
#       8
#     2   2   2   2   2   2   2   2
#     4  11  24  43  65 100 137 171 224 280 331 398
#     4   9  21  44  68  91 134 171 218 274 335 393
#     4  12  25  41  68  95 128 179 219 272 336 396
#     4  10  23  44  68  95 132 178 217 280 331 397
#     4  12  25  41  68  97 128 174 230 261 336 402
#     4  12  23  43  67  94 131 174 220 278 330 388
#     4  11  24  42  64  93 133 167 218 275 325 399
#     4  11  24  43  64  95 135 171 215 275 333 394
#
# _framework density 21.898999
#
# number of rings (size 3 to 8) (size 9 to 14) (size 15 to 20)
#    0.000    1.000    3.750    2.625    0.000    8.000 
#    0.000    0.000    0.000    0.000    0.000    0.000 
#    0.000    0.000    0.000    0.000    0.000    0.000 
#
# Total GULP energy -89295.076620 kJ/mol
# GULP energy per Si atom -5580.942289 kJ/mol
# Density = 2.184916 g / cm^3
# Si number density = 21.898999 Si / 1000 Ang^3
#
#
#
# Elastic Constant Matrix: (Units=GPa)
#
#
# Indices 1 2 3 4 5 6 
#
# 1 111.0754 41.0088 24.4222 5.1572 -13.3392 14.2774
# 2 41.0088 75.0619 -3.4042 2.4350 -8.6119 19.0255
# 3 24.4222 -3.4042 45.1485 3.9741 -15.9767 -0.0118
# 4 5.1572 2.4350 3.9741 37.3663 -0.3962 -9.3134
# 5 -13.3392 -8.6119 -15.9767 -0.3962 34.6715 2.4556
# 6 14.2774 19.0255 -0.0118 -9.3134 2.4556 48.2621
#
#
#
# Elastic Compliance Matrix: (Units=1/GPa)
#
#
# Indices 1 2 3 4 5 6 
#
# 1 0.013716 -0.007533 -0.007980 -0.000866 -0.000193 -0.001247
# 2 -0.007533 0.020292 0.008072 -0.002723 0.006299 -0.006615
# 3 -0.007980 0.008072 0.032288 -0.003247 0.013928 -0.002149
# 4 -0.000866 -0.002723 -0.003247 0.029143 -0.002675 0.007089
# 5 -0.000193 0.006299 0.013928 -0.002675 0.037062 -0.004824
# 6 -0.001247 -0.006615 -0.002149 0.007089 -0.004824 0.025310
#
#
# Mechanical properties :
#
#
# Convention : Reuss Voigt Hill
#
# Bulk Modulus (GPa) = 19.45010 39.48216 29.46613
# Shear Modulus (GPa) = 26.33926 35.34391 30.84158
#
# Velocity S-wave (km/s) = 3.47185 4.02176 3.75688
# Velocity P-wave (km/s) = 4.99726 6.29559 5.68362
#
# Compressibility (1/GPa) = 0.05141362
#
# Stress axis : x y z
#
# Youngs Moduli (GPa) = 72.90716 49.28134 30.97095
#
# Poissons Ratio (x) = 0.37125 0.24714
# Poissons Ratio (y) = 0.54923 -0.24999
# Poissons Ratio (z) = 0.58178 -0.39779
#
# Static dielectric constant tensor:
#      x y z
#    x 1.781610 0.005000 0.013310 
#    y 0.005000 1.845190 0.072320 
#    z 0.013310 0.072320 1.488990 
# 
# From -- ./inp_files/48350.got.cif
#   From: 2010.05.17/outbox.cif.g08.bks.cpg/sg2_25_cif.got.tgz:48350.got - 2010.06.03 11:33:40.
