data_PCOD9041720
_publ_section_title
;
Structure prediction by ZEFSAII (Michael W. Deem and Ramdas Pophale) SiO2 
 PCOD9041720
Probable space group: P -1
;
_chemical_formula_sum "Si O2"
_cell_formula_units_Z 14
_cell_length_a 9.575879
_cell_length_b 14.400071
_cell_length_c 12.112491
_cell_angle_alpha 151.794267
_cell_angle_beta 55.006453
_cell_angle_gamma 117.217851
_cell_volume 641.712218
_symmetry_space_group_name_H-M "P -1"
_symmetry_group_IT_number 2
_symmetry_cell_setting 'triclinic'
loop_
_space_group_symop_operation_xyz
x,y,z
-x,-y,-z
loop_
_atom_site_type_symbol
_atom_site_label
_atom_site_fract_x
_atom_site_fract_y
_atom_site_fract_z
Si Si1 0.138989 0.395911 0.912636
Si Si2 0.472103 0.204833 0.984389
Si Si3 0.183658 0.565688 0.520949
Si Si4 0.744894 0.086941 0.304469
Si Si5 0.829010 0.975080 0.624446
Si Si6 0.977089 0.165290 0.946474
Si Si7 0.608470 0.316796 0.814299
O O1 0.234671 0.217760 0.606413
O O2 0.071772 0.288305 0.939498
O O3 0.236454 0.578602 0.096202
O O4 0.000000 0.500000 0.000000
O O5 0.343248 0.393098 0.278812
O O6 0.499301 0.236979 0.876071
O O7 0.368524 0.017519 0.840122
O O8 0.667594 0.148060 0.877118
O O9 0.216679 0.714512 0.563751
O O10 0.000000 0.500000 0.500000
O O11 0.160275 0.681176 0.768201
O O12 0.657960 0.152578 0.528900
O O13 0.903538 0.931746 0.110505
O O14 0.900573 0.988787 0.730223
O O15 0.000000 0.000000 0.500000
O O16 0.500000 0.500000 0.000000
#
# Coordination Sequence:
#
# PCOD9041720 Si02
#       7
#     2   2   2   2   2   2   2
#     4  11  22  42  69 101 135 177 229 288 344 406
#     4  12  25  44  69 102 144 178 231 290 345 409
#     4  12  26  46  71 102 143 184 236 280 339 416
#     4  12  24  45  71 103 143 181 232 290 341 409
#     4  10  23  44  66  98 138 175 224 289 345 407
#     4  11  23  44  70  99 140 188 230 280 348 412
#     4  12  21  37  66 100 132 171 225 285 346 392
#
# _framework density 21.816631999999998
#
# number of rings (size 3 to 8) (size 9 to 14) (size 15 to 20)
#    0.000    0.571    2.857    7.714    0.000    0.571 
#    0.000    0.714    0.000    0.000    0.000    0.000 
#    0.000    0.000    0.000    0.000    0.000    0.000 
#
# Total GULP energy -78133.858409 kJ/mol
# GULP energy per Si atom -5580.989886 kJ/mol
# Density = 2.176698 g / cm^3
# Si number density = 21.816632 Si / 1000 Ang^3
#
#
#
# Elastic Constant Matrix: (Units=GPa)
#
#
# Indices 1 2 3 4 5 6 
#
# 1 92.2825 -3.6553 18.6353 0.9312 -18.6978 -0.6924
# 2 -3.6553 17.2755 1.2268 8.1253 -8.5677 6.1141
# 3 18.6353 1.2268 158.8042 -12.9195 -5.9479 10.6281
# 4 0.9312 8.1253 -12.9195 27.7665 -8.4756 0.2512
# 5 -18.6978 -8.5677 -5.9479 -8.4756 47.6598 0.9510
# 6 -0.6924 6.1141 10.6281 0.2512 0.9510 15.1241
#
#
#
# Elastic Compliance Matrix: (Units=1/GPa)
#
#
# Indices 1 2 3 4 5 6 
#
# 1 0.012539 0.006749 -0.001300 -0.001220 0.005785 -0.001584
# 2 0.006749 0.090274 -0.000203 -0.021601 0.015741 -0.036674
# 3 -0.001300 -0.000203 0.007148 0.003819 0.001127 -0.005135
# 4 -0.001220 -0.021601 0.003819 0.045354 0.004081 0.004983
# 5 0.005785 0.015741 0.001127 0.004081 0.027121 -0.008664
# 6 -0.001584 -0.036674 -0.005135 0.004983 -0.008664 0.084943
#
#
# Mechanical properties :
#
#
# Convention : Reuss Voigt Hill
#
# Bulk Modulus (GPa) = 8.30204 33.41955 20.86080
# Shear Modulus (GPa) = 16.83291 34.92043 25.87667
#
# Velocity S-wave (km/s) = 2.78072 4.00513 3.44771
# Velocity P-wave (km/s) = 3.75812 6.06133 5.04298
#
# Compressibility (1/GPa) = 0.12045236
#
# Stress axis : x y z
#
# Youngs Moduli (GPa) = 79.75341 11.07739 139.90354
#
# Poissons Ratio (x) = -0.07476 0.18189
# Poissons Ratio (y) = -0.53824 0.02836
# Poissons Ratio (z) = 0.10369 0.00225
#
# Static dielectric constant tensor:
#      x y z
#    x 1.850060 0.043130 -0.047160 
#    y 0.043130 1.817880 0.023560 
#    z -0.047160 0.023560 1.813300 
# 
# From -- ./inp_files/399890.got.cif
#   From: 2010.05.17/outbox.cif.g08.bks.cpg/sg2_200_cif.got.tgz:399890.got - 2010.06.03 11:33:40.
