data_PCOD9041065
_publ_section_title
;
Structure prediction by ZEFSAII (Michael W. Deem and Ramdas Pophale) SiO2 
 PCOD9041065
Probable space group: P -1
;
_chemical_formula_sum "Si O2"
_cell_formula_units_Z 16
_cell_length_a 14.684834
_cell_length_b 8.657028
_cell_length_c 12.886607
_cell_angle_alpha 142.939878
_cell_angle_beta 50.445769
_cell_angle_gamma 116.271900
_cell_volume 753.609254
_symmetry_space_group_name_H-M "P -1"
_symmetry_group_IT_number 2
_symmetry_cell_setting 'triclinic'
loop_
_space_group_symop_operation_xyz
x,y,z
-x,-y,-z
loop_
_atom_site_type_symbol
_atom_site_label
_atom_site_fract_x
_atom_site_fract_y
_atom_site_fract_z
Si Si1 0.912512 0.450519 0.128796
Si Si2 0.447405 0.694488 0.230044
Si Si3 0.324805 0.076497 0.767974
Si Si4 0.303515 0.231253 0.643102
Si Si5 0.167103 0.118950 0.112737
Si Si6 0.287770 0.418317 0.354314
Si Si7 0.959987 0.297068 0.228746
Si Si8 0.477329 0.520715 0.405491
O O1 0.798231 0.659906 0.303833
O O2 0.971463 0.463711 0.206159
O O3 0.000000 0.500000 0.000000
O O4 0.867851 0.168896 0.003904
O O5 0.565701 0.761374 0.234900
O O6 0.357578 0.560009 0.292687
O O7 0.379031 0.976068 0.401915
O O8 0.500000 0.500000 0.000000
O O9 0.259332 0.139462 0.738768
O O10 0.393308 0.787964 0.580439
O O11 0.249513 0.132167 0.957268
O O12 0.390242 0.450045 0.713690
O O13 0.229599 0.203966 0.216481
O O14 0.048136 0.310192 0.268014
O O15 0.176238 0.610941 0.587832
O O16 0.393682 0.326420 0.311621
O O17 0.000000 0.000000 0.000000
O O18 0.500000 0.500000 0.500000
#
# Coordination Sequence:
#
# PCOD9041065 Si02
#       8
#     2   2   2   2   2   2   2   2
#     4  11  25  45  69  98 134 180 237 283 335 414
#     4  11  22  39  66 105 137 179 222 280 341 402
#     4  11  20  40  65  97 132 179 230 266 329 423
#     4  11  22  39  68  98 134 181 234 272 334 407
#     4  11  24  41  70 101 136 176 231 288 347 395
#     4  12  22  41  70 100 143 170 226 289 348 398
#     4  10  23  43  70  97 129 185 235 274 335 414
#     4  11  21  38  64  95 130 179 223 268 330 409
#
# _framework density 21.231162000000001
#
# number of rings (size 3 to 8) (size 9 to 14) (size 15 to 20)
#    0.000    1.000    3.750    4.875    3.500    0.000 
#    0.000    6.875    0.000    0.000    0.000    0.000 
#    0.000    0.000    0.000    0.000    0.000    0.000 
#
# Total GULP energy -89178.099203 kJ/mol
# GULP energy per Si atom -5573.631200 kJ/mol
# Density = 2.118284 g / cm^3
# Si number density = 21.231162 Si / 1000 Ang^3
#
#
#
# Elastic Constant Matrix: (Units=GPa)
#
#
# Indices 1 2 3 4 5 6 
#
# 1 93.5914 19.0857 13.5546 10.6240 10.6655 -21.4651
# 2 19.0857 93.0421 19.7216 -18.9289 3.4135 -12.9972
# 3 13.5546 19.7216 93.0825 -18.2705 0.1264 -5.5226
# 4 10.6240 -18.9289 -18.2705 29.3307 5.1739 -2.6941
# 5 10.6655 3.4135 0.1264 5.1739 34.1877 -3.0331
# 6 -21.4651 -12.9972 -5.5226 -2.6941 -3.0331 42.0983
#
#
#
# Elastic Compliance Matrix: (Units=1/GPa)
#
#
# Indices 1 2 3 4 5 6 
#
# 1 0.014049 -0.003105 -0.002611 -0.007815 -0.002420 0.005188
# 2 -0.003105 0.014144 -0.000242 0.010718 -0.001771 0.003310
# 3 -0.002611 -0.000242 0.013003 0.009056 -0.000505 0.000843
# 4 -0.007815 0.010718 0.009056 0.050859 -0.006067 0.003330
# 5 -0.002420 -0.001771 -0.000505 -0.006067 0.031103 0.000006
# 6 0.005188 0.003310 0.000843 0.003330 0.000006 0.027745
#
#
# Mechanical properties :
#
#
# Convention : Reuss Voigt Hill
#
# Bulk Modulus (GPa) = 34.15301 42.71552 38.43427
# Shear Modulus (GPa) = 28.97245 36.28029 32.62637
#
# Velocity S-wave (km/s) = 3.69808 4.13828 3.92436
# Velocity P-wave (km/s) = 5.86137 6.55719 6.21902
#
# Compressibility (1/GPa) = 0.02927999
#
# Stress axis : x y z
#
# Youngs Moduli (GPa) = 71.18064 70.70141 76.90653
#
# Poissons Ratio (x) = 0.21952 0.20079
# Poissons Ratio (y) = 0.22101 0.01861
# Poissons Ratio (z) = 0.18584 0.01711
#
# Static dielectric constant tensor:
#      x y z
#    x 1.799000 0.031820 0.033470 
#    y 0.031820 1.785890 -0.007330 
#    z 0.033470 -0.007330 1.814720 
# 
# From -- ./inp_files/448298.got.cif
#   From: 2010.05.17/outbox.cif.g08.bks.cpg/sg2_225_cif.got.tgz:448298.got - 2010.06.03 11:33:40.
