data_PCOD9041871
_publ_section_title
;
Structure prediction by ZEFSAII (Michael W. Deem and Ramdas Pophale) SiO2 
 PCOD9041871
Probable space group: P -1
;
_chemical_formula_sum "Si O2"
_cell_formula_units_Z 16
_cell_length_a 14.706290
_cell_length_b 9.747039
_cell_length_c 8.725091
_cell_angle_alpha 52.428716
_cell_angle_beta 49.974661
_cell_angle_gamma 39.629874
_cell_volume 593.858516
_symmetry_space_group_name_H-M "P -1"
_symmetry_group_IT_number 2
_symmetry_cell_setting 'triclinic'
loop_
_space_group_symop_operation_xyz
x,y,z
-x,-y,-z
loop_
_atom_site_type_symbol
_atom_site_label
_atom_site_fract_x
_atom_site_fract_y
_atom_site_fract_z
Si Si1 0.719839 0.067479 0.328161
Si Si2 0.651547 0.754120 0.022766
Si Si3 0.710962 0.692476 0.679488
Si Si4 0.967675 0.197497 0.691136
Si Si5 0.535734 0.439269 0.817902
Si Si6 0.779414 0.033681 0.960030
Si Si7 0.697908 0.606502 0.417611
Si Si8 0.044930 0.300015 0.243681
O O1 0.697253 0.913235 0.557912
O O2 0.891510 0.969090 0.240622
O O3 0.602971 0.334698 0.274458
O O4 0.719903 0.000002 0.199849
O O5 0.653419 0.649626 0.927149
O O6 0.818031 0.693029 0.877522
O O7 0.639017 0.693803 0.250456
O O8 0.500000 0.000000 0.000000
O O9 0.880016 0.457461 0.642595
O O10 0.635220 0.723078 0.574692
O O11 0.841017 0.166006 0.850052
O O12 0.043185 0.152110 0.473961
O O13 0.639271 0.171223 0.901298
O O14 0.672251 0.427697 0.596357
O O15 0.500000 0.500000 0.000000
O O16 0.919345 0.813209 0.881454
O O17 0.870853 0.515228 0.287904
#
# Coordination Sequence:
#
# PCOD9041871 Si02
#       8
#     2   2   2   2   2   2   2   2
#     4  11  23  40  70  99 140 183 241 296 361 414
#     4  12  27  45  72 113 147 184 243 298 364 429
#     4  11  24  45  76 103 148 182 242 302 354 432
#     4  11  23  43  70 103 137 191 237 295 359 424
#     4  10  23  44  67  99 140 189 241 288 357 434
#     4  11  23  45  69  99 142 193 243 287 358 433
#     4  11  25  45  72 106 142 196 237 290 373 419
#     4  11  24  44  71  98 146 186 241 294 354 430
#
# _framework density 26.942443999999998
#
# number of rings (size 3 to 8) (size 9 to 14) (size 15 to 20)
#    0.000    1.000    3.750    3.000    3.500    4.000 
#    0.000    0.625    0.000    0.000    0.000    0.000 
#    0.000    0.000    0.000    0.000    0.000    0.000 
#
# Total GULP energy -89193.744029 kJ/mol
# GULP energy per Si atom -5574.609002 kJ/mol
# Density = 2.688112 g / cm^3
# Si number density = 26.942444 Si / 1000 Ang^3
#
#
#
# Elastic Constant Matrix: (Units=GPa)
#
#
# Indices 1 2 3 4 5 6 
#
# 1 61.0649 33.3681 35.7480 -6.2695 21.0069 -21.8716
# 2 33.3681 114.2817 31.3162 3.6618 8.1187 -31.7160
# 3 35.7480 31.3162 154.8144 -11.5811 39.1489 -22.1940
# 4 -6.2695 3.6618 -11.5811 52.7803 -8.6387 8.2833
# 5 21.0069 8.1187 39.1489 -8.6387 47.4766 6.5597
# 6 -21.8716 -31.7160 -22.1940 8.2833 6.5597 38.9349
#
#
#
# Elastic Compliance Matrix: (Units=1/GPa)
#
#
# Indices 1 2 3 4 5 6 
#
# 1 0.028839 -0.002626 -0.000070 -0.001481 -0.014850 0.016839
# 2 -0.002626 0.012599 -0.000009 -0.003236 -0.002951 0.009969
# 3 -0.000070 -0.000009 0.009768 -0.000476 -0.009098 0.007156
# 4 -0.001481 -0.003236 -0.000476 0.021491 0.006819 -0.009460
# 5 -0.014850 -0.002951 -0.009098 0.006819 0.040219 -0.024159
# 6 0.016839 0.009969 0.007156 -0.009460 -0.024159 0.053425
#
#
# Mechanical properties :
#
#
# Convention : Reuss Voigt Hill
#
# Bulk Modulus (GPa) = 21.83509 59.00285 40.41897
# Shear Modulus (GPa) = 26.73551 43.15360 34.94456
#
# Velocity S-wave (km/s) = 3.15353 4.00646 3.60531
# Velocity P-wave (km/s) = 4.62402 6.58403 5.68907
#
# Compressibility (1/GPa) = 0.04579785
#
# Stress axis : x y z
#
# Youngs Moduli (GPa) = 34.67488 79.36886 102.37464
#
# Poissons Ratio (x) = 0.20842 0.00713
# Poissons Ratio (y) = 0.09105 0.00091
# Poissons Ratio (z) = 0.00242 0.00070
#
# Static dielectric constant tensor:
#      x y z
#    x 2.513380 0.015540 -0.036940 
#    y 0.015540 2.076640 -0.023340 
#    z -0.036940 -0.023340 2.125180 
# 
# From -- ./inp_files/332836.got.cif
#   From: 2010.05.17/outbox.cif.g08.bks.cpg/sg2_167_cif.got.tgz:332836.got - 2010.06.03 11:33:40.
