data_PCOD9041330
_publ_section_title
;
Structure prediction by ZEFSAII (Michael W. Deem and Ramdas Pophale) SiO2 
 PCOD9041330
Probable space group: P -1
;
_chemical_formula_sum "Si O2"
_cell_formula_units_Z 14
_cell_length_a 8.145838
_cell_length_b 18.903342
_cell_length_c 11.359448
_cell_angle_alpha 133.631065
_cell_angle_beta 64.643291
_cell_angle_gamma 148.209818
_cell_volume 606.815119
_symmetry_space_group_name_H-M "P -1"
_symmetry_group_IT_number 2
_symmetry_cell_setting 'triclinic'
loop_
_space_group_symop_operation_xyz
x,y,z
-x,-y,-z
loop_
_atom_site_type_symbol
_atom_site_label
_atom_site_fract_x
_atom_site_fract_y
_atom_site_fract_z
Si Si1 0.674815 0.298621 0.916915
Si Si2 0.460618 0.364382 0.214108
Si Si3 0.598475 0.055633 0.712257
Si Si4 0.808173 0.721536 0.541634
Si Si5 0.776754 0.445099 0.613909
Si Si6 0.377063 0.148334 0.596841
Si Si7 0.139837 0.818529 0.967225
O O1 0.786591 0.237850 0.822475
O O2 0.408481 0.196115 0.776330
O O3 0.563306 0.302490 0.074105
O O4 0.000000 0.500000 0.000000
O O5 0.743956 0.579118 0.361809
O O6 0.362198 0.329229 0.339660
O O7 0.146546 0.253105 0.099280
O O8 0.596939 0.956838 0.526330
O O9 0.768492 0.107310 0.844054
O O10 0.207310 0.915584 0.668664
O O11 0.590453 0.685412 0.474487
O O12 0.662278 0.323253 0.618984
O O13 0.000000 0.500000 0.500000
O O14 0.995186 0.640941 0.808605
O O15 0.000000 0.000000 0.500000
O O16 0.500000 0.000000 0.000000
#
# Coordination Sequence:
#
# PCOD9041330 Si02
#       7
#     2   2   2   2   2   2   2
#     4  12  27  44  68 101 140 186 235 287 354 428
#     4  10  23  44  68 102 142 183 227 290 350 418
#     4  12  25  44  72 102 139 184 240 294 348 421
#     4  10  23  43  73 104 139 180 239 288 349 412
#     4  11  26  44  74 103 143 189 236 294 355 419
#     4  12  27  49  71 102 146 190 238 290 361 431
#     4  11  22  41  66 107 140 178 229 295 357 412
#
# _framework density 23.071276999999998
#
# number of rings (size 3 to 8) (size 9 to 14) (size 15 to 20)
#    0.000    0.857    1.429    4.714    8.000    4.000 
#    0.000    5.000    0.000    0.000    0.000    0.000 
#    0.000    0.000    0.000    0.000    0.000    0.000 
#
# Total GULP energy -78242.060725 kJ/mol
# GULP energy per Si atom -5588.718623 kJ/mol
# Density = 2.301877 g / cm^3
# Si number density = 23.071277 Si / 1000 Ang^3
#
#
#
# Elastic Constant Matrix: (Units=GPa)
#
#
# Indices 1 2 3 4 5 6 
#
# 1 95.6736 10.9860 25.7491 2.1310 -2.9610 -9.3545
# 2 10.9860 61.0771 22.8778 2.3009 -20.6356 -10.8688
# 3 25.7491 22.8778 115.8603 -9.5338 2.7108 -1.4261
# 4 2.1310 2.3009 -9.5338 41.0050 -0.1109 0.8880
# 5 -2.9610 -20.6356 2.7108 -0.1109 55.3245 4.3970
# 6 -9.3545 -10.8688 -1.4261 0.8880 4.3970 28.3953
#
#
#
# Elastic Compliance Matrix: (Units=1/GPa)
#
#
# Indices 1 2 3 4 5 6 
#
# 1 0.011567 -0.000323 -0.002575 -0.001257 0.000341 0.003544
# 2 -0.000323 0.022166 -0.004604 -0.002428 0.007915 0.006997
# 3 -0.002575 -0.004604 0.010375 0.002838 -0.002212 -0.001836
# 4 -0.001257 -0.002428 0.002838 0.025286 -0.000914 -0.001850
# 5 0.000341 0.007915 -0.002212 -0.000914 0.021170 -0.000219
# 6 0.003544 0.006997 -0.001836 -0.001850 -0.000219 0.039063
#
#
# Mechanical properties :
#
#
# Convention : Reuss Voigt Hill
#
# Bulk Modulus (GPa) = 34.35826 43.53744 38.94785
# Shear Modulus (GPa) = 32.39756 39.14482 35.77119
#
# Velocity S-wave (km/s) = 3.75138 4.12356 3.94187
# Velocity P-wave (km/s) = 5.80417 6.44852 6.13481
#
# Compressibility (1/GPa) = 0.02910509
#
# Stress axis : x y z
#
# Youngs Moduli (GPa) = 86.45014 45.11366 96.38444
#
# Poissons Ratio (x) = 0.01457 0.24817
# Poissons Ratio (y) = 0.02793 0.44375
# Poissons Ratio (z) = 0.22259 0.20770
#
# Static dielectric constant tensor:
#      x y z
#    x 1.887750 -0.021340 -0.025120 
#    y -0.021340 1.866480 -0.000270 
#    z -0.025120 -0.000270 1.894930 
# 
# From -- ./inp_files/405567.got.cif
#   From: 2010.05.17/outbox.cif.g08.bks.cpg/sg2_203_cif.got.tgz:405567.got - 2010.06.03 11:33:40.
