data_PCOD9041458
_publ_section_title
;
Structure prediction by ZEFSAII (Michael W. Deem and Ramdas Pophale) SiO2 
 PCOD9041458
Probable space group: P -1
;
_chemical_formula_sum "Si O2"
_cell_formula_units_Z 16
_cell_length_a 12.275453
_cell_length_b 17.016902
_cell_length_c 8.446109
_cell_angle_alpha 61.929485
_cell_angle_beta 51.823860
_cell_angle_gamma 30.407564
_cell_volume 693.285096
_symmetry_space_group_name_H-M "P -1"
_symmetry_group_IT_number 2
_symmetry_cell_setting 'triclinic'
loop_
_space_group_symop_operation_xyz
x,y,z
-x,-y,-z
loop_
_atom_site_type_symbol
_atom_site_label
_atom_site_fract_x
_atom_site_fract_y
_atom_site_fract_z
Si Si1 0.623969 0.336721 0.669545
Si Si2 0.279414 0.277285 0.037700
Si Si3 0.032341 0.546830 0.572409
Si Si4 0.538397 0.247844 0.552079
Si Si5 0.117718 0.662693 0.748854
Si Si6 0.213459 0.152323 0.645700
Si Si7 0.957909 0.950423 0.221565
Si Si8 0.685160 0.942753 0.020223
O O1 0.628636 0.278678 0.556609
O O2 0.341222 0.507643 0.798613
O O3 0.753831 0.362069 0.494383
O O4 0.783741 0.199276 0.780484
O O5 0.123935 0.411928 0.179897
O O6 0.072349 0.314758 0.140063
O O7 0.513561 0.112032 0.075448
O O8 0.402698 0.254573 0.794460
O O9 0.316464 0.400988 0.499686
O O10 0.000000 0.500000 0.500000
O O11 0.920874 0.700877 0.473930
O O12 0.748814 0.091606 0.403158
O O13 0.937078 0.834749 0.813253
O O14 0.112570 0.108287 0.733476
O O15 0.216639 0.167687 0.817738
O O16 0.500000 0.000000 0.500000
O O17 0.000000 0.000000 0.000000
O O18 0.500000 0.000000 0.000000
#
# Coordination Sequence:
#
# PCOD9041458 Si02
#       8
#     2   2   2   2   2   2   2   2
#     4  11  25  46  75 101 154 198 255 304 374 466
#     4  11  23  46  77 110 149 195 261 312 366 453
#     4  12  27  45  74 120 158 186 246 325 391 433
#     4  12  28  47  78 108 149 204 260 309 375 457
#     4  10  23  43  76 111 138 195 263 301 364 443
#     4  12  27  49  75 110 154 193 247 315 385 442
#     4  12  31  52  73 111 159 200 250 319 393 450
#     4  10  24  41  78 106 143 193 259 301 371 444
#
# _framework density 23.078527999999999
#
# number of rings (size 3 to 8) (size 9 to 14) (size 15 to 20)
#    0.000    0.750    2.500    3.000   14.000    1.000 
#    0.000    1.250    0.000    0.000    0.000    0.000 
#    0.000    0.000    0.000    0.000    0.000    0.000 
#
# Total GULP energy -89363.692120 kJ/mol
# GULP energy per Si atom -5585.230757 kJ/mol
# Density = 2.302600 g / cm^3
# Si number density = 23.078528 Si / 1000 Ang^3
#
#
#
# Elastic Constant Matrix: (Units=GPa)
#
#
# Indices 1 2 3 4 5 6 
#
# 1 119.5639 45.8690 47.8606 -3.4523 -1.0793 -11.2128
# 2 45.8690 199.2086 63.4045 3.6314 -0.4491 -35.8163
# 3 47.8606 63.4045 120.7875 3.8329 -14.3037 -8.9230
# 4 -3.4523 3.6314 3.8329 50.8630 1.4495 4.6495
# 5 -1.0793 -0.4491 -14.3037 1.4495 34.3821 -4.5465
# 6 -11.2128 -35.8163 -8.9230 4.6495 -4.5465 42.1485
#
#
#
# Elastic Compliance Matrix: (Units=1/GPa)
#
#
# Indices 1 2 3 4 5 6 
#
# 1 0.010331 -0.001101 -0.003622 0.001011 -0.001132 0.000812
# 2 -0.001101 0.007170 -0.002970 -0.000827 -0.000452 0.005214
# 3 -0.003622 -0.002970 0.011845 -0.001030 0.004772 -0.000351
# 4 0.001011 -0.000827 -0.001030 0.020193 -0.001663 -0.003059
# 5 -0.001132 -0.000452 0.004772 -0.001663 0.031617 0.003919
# 6 0.000812 0.005214 -0.000351 -0.003059 0.003919 0.029058
#
#
# Mechanical properties :
#
#
# Convention : Reuss Voigt Hill
#
# Bulk Modulus (GPa) = 71.62714 83.75869 77.69291
# Shear Modulus (GPa) = 38.38711 44.30713 41.34712
#
# Velocity S-wave (km/s) = 4.08281 4.38635 4.23730
# Velocity P-wave (km/s) = 7.30270 7.87561 7.59456
#
# Compressibility (1/GPa) = 0.01396119
#
# Stress axis : x y z
#
# Youngs Moduli (GPa) = 96.79600 139.47084 84.42534
#
# Poissons Ratio (x) = 0.15355 0.30577
# Poissons Ratio (y) = 0.10657 0.25071
# Poissons Ratio (z) = 0.35057 0.41417
#
# Static dielectric constant tensor:
#      x y z
#    x 1.899880 0.084190 -0.048220 
#    y 0.084190 1.917040 -0.035760 
#    z -0.048220 -0.035760 1.788450 
# 
# From -- ./inp_files/279190.got.cif
#   From: 2010.05.17/outbox.cif.g08.bks.cpg/sg2_140_cif.got.tgz:279190.got - 2010.06.03 11:33:40.
