data_PCOD9041865
_publ_section_title
;
Structure prediction by ZEFSAII (Michael W. Deem and Ramdas Pophale) SiO2 
 PCOD9041865
Probable space group: P -1
;
_chemical_formula_sum "Si O2"
_cell_formula_units_Z 16
_cell_length_a 17.223431
_cell_length_b 13.587448
_cell_length_c 7.260389
_cell_angle_alpha 130.617221
_cell_angle_beta 134.314093
_cell_angle_gamma 36.415825
_cell_volume 705.755204
_symmetry_space_group_name_H-M "P -1"
_symmetry_group_IT_number 2
_symmetry_cell_setting 'triclinic'
loop_
_space_group_symop_operation_xyz
x,y,z
-x,-y,-z
loop_
_atom_site_type_symbol
_atom_site_label
_atom_site_fract_x
_atom_site_fract_y
_atom_site_fract_z
Si Si1 0.552904 0.715708 0.041370
Si Si2 0.693651 0.951576 0.746671
Si Si3 0.093845 0.054608 0.701061
Si Si4 0.830056 0.650457 0.890332
Si Si5 0.688662 0.255367 0.533904
Si Si6 0.197004 0.618390 0.400445
Si Si7 0.651303 0.406198 0.041804
Si Si8 0.654780 0.867485 0.187338
O O1 0.642900 0.555786 0.126210
O O2 0.653504 0.724435 0.094633
O O3 0.451495 0.892434 0.202728
O O4 0.452080 0.697190 0.733145
O O5 0.764470 0.772448 0.749587
O O6 0.672977 0.944970 0.488613
O O7 0.800157 0.987524 0.012212
O O8 0.972721 0.255091 0.741754
O O9 0.192210 0.943609 0.556126
O O10 0.000000 0.000000 0.500000
O O11 0.760003 0.562250 0.703887
O O12 0.774148 0.783161 0.127315
O O13 0.000000 0.500000 0.000000
O O14 0.733752 0.353996 0.620954
O O15 0.673257 0.294621 0.770940
O O16 0.234449 0.678363 0.711649
O O17 0.500000 0.500000 0.000000
O O18 0.500000 0.000000 0.000000
#
# Coordination Sequence:
#
# PCOD9041865 Si02
#       8
#     2   2   2   2   2   2   2   2
#     4  11  23  45  71  99 146 174 232 293 354 417
#     4  11  24  48  69 102 142 180 237 298 346 416
#     4   9  21  46  70  95 136 182 226 287 347 414
#     4  12  26  47  70 101 145 187 240 289 346 422
#     4  10  23  44  67  99 138 180 225 291 346 414
#     4  11  23  44  69  98 139 182 230 286 347 419
#     4  12  25  39  67 105 138 179 225 284 357 413
#     4  12  27  44  74 104 138 193 236 287 355 416
#
# _framework density 22.670750999999999
#
# number of rings (size 3 to 8) (size 9 to 14) (size 15 to 20)
#    0.000    1.000    3.750    2.250    3.500    1.000 
#    4.500    0.000    0.000    0.000    0.000    0.000 
#    0.000    0.000    0.000    0.000    0.000    0.000 
#
# Total GULP energy -89423.069650 kJ/mol
# GULP energy per Si atom -5588.941853 kJ/mol
# Density = 2.261915 g / cm^3
# Si number density = 22.670751 Si / 1000 Ang^3
#
#
#
# Elastic Constant Matrix: (Units=GPa)
#
#
# Indices 1 2 3 4 5 6 
#
# 1 74.7006 14.2439 46.5118 10.9577 -7.0444 -0.1536
# 2 14.2439 62.6538 24.8354 8.1324 -10.4348 -6.5726
# 3 46.5118 24.8354 179.2150 8.3696 -29.6701 -20.4191
# 4 10.9577 8.1324 8.3696 32.4890 4.8152 7.8310
# 5 -7.0444 -10.4348 -29.6701 4.8152 40.9770 14.5832
# 6 -0.1536 -6.5726 -20.4191 7.8310 14.5832 51.3939
#
#
#
# Elastic Compliance Matrix: (Units=1/GPa)
#
#
# Indices 1 2 3 4 5 6 
#
# 1 0.016846 -0.001785 -0.004011 -0.003957 0.000465 -0.001301
# 2 -0.001785 0.018135 -0.001076 -0.004562 0.003503 0.001587
# 3 -0.004011 -0.001076 0.007745 -0.001460 0.004110 0.001984
# 4 -0.003957 -0.004562 -0.001460 0.035645 -0.005269 -0.005112
# 5 0.000465 0.003503 0.004110 -0.005269 0.031083 -0.005935
# 6 -0.001301 0.001587 0.001984 -0.005112 -0.005935 0.022908
#
#
# Mechanical properties :
#
#
# Convention : Reuss Voigt Hill
#
# Bulk Modulus (GPa) = 34.50479 54.19463 44.34971
# Shear Modulus (GPa) = 32.09914 40.37053 36.23484
#
# Velocity S-wave (km/s) = 3.76690 4.22445 4.00222
# Velocity P-wave (km/s) = 5.84572 6.91025 6.40016
#
# Compressibility (1/GPa) = 0.02898148
#
# Stress axis : x y z
#
# Youngs Moduli (GPa) = 59.36011 55.14131 129.12232
#
# Poissons Ratio (x) = 0.09844 0.51793
# Poissons Ratio (y) = 0.10598 0.13892
# Poissons Ratio (z) = 0.23810 0.05933
#
# Static dielectric constant tensor:
#      x y z
#    x 1.830540 0.025140 0.058660 
#    y 0.025140 1.917200 0.055060 
#    z 0.058660 0.055060 1.796730 
# 
# From -- ./inp_files/111083.got.cif
#   From: 2010.05.17/outbox.cif.g08.bks.cpg/sg2_56_cif.got.tgz:111083.got - 2010.06.03 11:33:40.
