data_PCOD9041706
_publ_section_title
;
Structure prediction by ZEFSAII (Michael W. Deem and Ramdas Pophale) SiO2 
 PCOD9041706
Probable space group: P -1
;
_chemical_formula_sum "Si O2"
_cell_formula_units_Z 16
_cell_length_a 7.983450
_cell_length_b 13.173531
_cell_length_c 8.761168
_cell_angle_alpha 81.672061
_cell_angle_beta 49.396510
_cell_angle_gamma 59.852734
_cell_volume 581.227922
_symmetry_space_group_name_H-M "P -1"
_symmetry_group_IT_number 2
_symmetry_cell_setting 'triclinic'
loop_
_space_group_symop_operation_xyz
x,y,z
-x,-y,-z
loop_
_atom_site_type_symbol
_atom_site_label
_atom_site_fract_x
_atom_site_fract_y
_atom_site_fract_z
Si Si1 0.824628 0.566301 0.232535
Si Si2 0.585541 0.192115 0.688710
Si Si3 0.071135 0.125794 0.207027
Si Si4 0.804783 0.456708 0.565212
Si Si5 0.240433 0.263254 0.525019
Si Si6 0.645516 0.959313 0.634976
Si Si7 0.303740 0.690636 0.838302
Si Si8 0.153771 0.885815 0.145393
O O1 0.551536 0.668080 0.301228
O O2 0.811875 0.475323 0.376428
O O3 0.897864 0.655540 0.257735
O O4 0.000000 0.500000 0.000000
O O5 0.851316 0.135681 0.449340
O O6 0.614600 0.178589 0.854121
O O7 0.479989 0.106210 0.718207
O O8 0.928161 0.248685 0.163646
O O9 0.287652 0.089939 0.218419
O O10 0.137486 0.010615 0.083784
O O11 0.501077 0.543597 0.782384
O O12 0.000000 0.500000 0.500000
O O13 0.991160 0.318447 0.544745
O O14 0.429025 0.120296 0.402719
O O15 0.459276 0.296899 0.369605
O O16 0.898706 0.924763 0.388856
O O17 0.198134 0.784740 0.020741
#
# Coordination Sequence:
#
# PCOD9041706 Si02
#       8
#     2   2   2   2   2   2   2   2
#     4  10  19  32  58  81 102 139 190 223 247 321
#     4   9  17  33  55  80 102 148 179 209 267 324
#     4   9  16  35  53  77 104 148 181 207 263 330
#     4   8  18  33  51  75 104 140 178 215 265 310
#     4  10  21  37  54  81 110 142 171 230 275 301
#     4   9  20  37  54  78 118 137 169 223 280 315
#     4  10  17  33  58  78 100 142 194 213 252 324
#     4   9  19  30  58  78 107 143 181 216 257 329
#
# _framework density 27.527926000000001
#
# number of rings (size 3 to 8) (size 9 to 14) (size 15 to 20)
#    0.000    3.000    2.500    1.875    5.250    0.500 
#    0.000    5.000    0.000    0.000    0.000    0.000 
#    0.000    0.000    0.000    0.000    0.000    0.000 
#
# Total GULP energy -89169.954257 kJ/mol
# GULP energy per Si atom -5573.122141 kJ/mol
# Density = 2.746527 g / cm^3
# Si number density = 27.527926 Si / 1000 Ang^3
#
#
#
# Elastic Constant Matrix: (Units=GPa)
#
#
# Indices 1 2 3 4 5 6 
#
# 1 58.3854 33.6949 33.2131 9.6037 17.6072 -1.3491
# 2 33.6949 98.6494 40.7935 9.5031 18.1643 -18.0038
# 3 33.2131 40.7935 154.4738 27.6866 28.7442 -10.7092
# 4 9.6037 9.5031 27.6866 28.7355 3.5502 8.2367
# 5 17.6072 18.1643 28.7442 3.5502 50.2830 6.6564
# 6 -1.3491 -18.0038 -10.7092 8.2367 6.6564 45.9367
#
#
#
# Elastic Compliance Matrix: (Units=1/GPa)
#
#
# Indices 1 2 3 4 5 6 
#
# 1 0.023819 -0.006344 -0.002179 -0.002889 -0.004450 -0.001132
# 2 -0.006344 0.014768 -0.000884 -0.003367 -0.003227 0.006467
# 3 -0.002179 -0.000884 0.009964 -0.009232 -0.004521 0.004223
# 4 -0.002889 -0.003367 -0.009232 0.048828 0.005799 -0.013152
# 5 -0.004450 -0.003227 -0.004521 0.005799 0.025742 -0.007219
# 6 -0.001132 0.006467 0.004223 -0.013152 -0.007219 0.028659
#
#
# Mechanical properties :
#
#
# Convention : Reuss Voigt Hill
#
# Bulk Modulus (GPa) = 33.62602 58.54573 46.08588
# Shear Modulus (GPa) = 27.70013 38.57817 33.13915
#
# Velocity S-wave (km/s) = 3.17559 3.74761 3.47340
# Velocity P-wave (km/s) = 5.06830 6.32772 5.73270
#
# Compressibility (1/GPa) = 0.02973888
#
# Stress axis : x y z
#
# Youngs Moduli (GPa) = 41.98351 67.71487 100.36055
#
# Poissons Ratio (x) = 0.42956 0.21865
# Poissons Ratio (y) = 0.26633 0.08869
# Poissons Ratio (z) = 0.09147 0.05984
#
# Static dielectric constant tensor:
#      x y z
#    x 2.281800 0.025110 -0.013390 
#    y 0.025110 2.384490 0.026760 
#    z -0.013390 0.026760 2.260570 
# 
# From -- ./inp_files/217848.got.cif
#   From: 2010.05.17/outbox.cif.g08.bks.cpg/sg2_109_cif.got.tgz:217848.got - 2010.06.03 11:33:40.
