data_PCOD9041612
_publ_section_title
;
Structure prediction by ZEFSAII (Michael W. Deem and Ramdas Pophale) SiO2 
 PCOD9041612
Probable space group: P -1
;
_chemical_formula_sum "Si O2"
_cell_formula_units_Z 12
_cell_length_a 8.491375
_cell_length_b 10.450453
_cell_length_c 12.407081
_cell_angle_alpha 49.352876
_cell_angle_beta 89.630132
_cell_angle_gamma 128.623087
_cell_volume 468.108042
_symmetry_space_group_name_H-M "P -1"
_symmetry_group_IT_number 2
_symmetry_cell_setting 'triclinic'
loop_
_space_group_symop_operation_xyz
x,y,z
-x,-y,-z
loop_
_atom_site_type_symbol
_atom_site_label
_atom_site_fract_x
_atom_site_fract_y
_atom_site_fract_z
Si Si1 0.506285 0.148462 0.581445
Si Si2 0.107815 0.715886 0.017581
Si Si3 0.281795 0.328892 0.002199
Si Si4 0.143920 0.815860 0.572112
Si Si5 0.686301 0.793879 0.138478
Si Si6 0.800077 0.663708 0.457346
O O1 0.663169 0.137048 0.526598
O O2 0.729796 0.456332 0.481907
O O3 0.328135 0.072466 0.523900
O O4 0.287266 0.883604 0.815915
O O5 0.824866 0.577266 0.076146
O O6 0.047345 0.480651 0.193828
O O7 0.275568 0.976439 0.962067
O O8 0.500000 0.500000 0.000000
O O9 0.440603 0.373695 0.880707
O O10 0.998907 0.981796 0.231468
O O11 0.968760 0.755019 0.514481
O O12 0.500184 0.558136 0.365772
O O13 0.000000 0.000000 0.000000
#
# Coordination Sequence:
#
# PCOD9041612 Si02
#       6
#     2   2   2   2   2   2
#     4  10  24  42  69  96 139 177 225 276 341 396
#     4  10  23  44  65  96 135 178 216 283 338 395
#     4  11  26  42  68 101 135 174 230 283 339 404
#     4  11  24  42  69 100 135 179 227 275 336 406
#     4   9  22  44  69  98 136 180 221 278 346 402
#     4  11  25  45  69 102 135 180 229 279 338 409
#
# _framework density 25.635106
#
# number of rings (size 3 to 8) (size 9 to 14) (size 15 to 20)
#    0.000    1.667    0.000    2.000    7.000   13.333 
#    0.000    0.000    0.000    0.000    0.000    0.000 
#    0.000    0.000    0.000    0.000    0.000    0.000 
#
# Total GULP energy -67119.081928 kJ/mol
# GULP energy per Si atom -5593.256827 kJ/mol
# Density = 2.557676 g / cm^3
# Si number density = 25.635106 Si / 1000 Ang^3
#
#
#
# Elastic Constant Matrix: (Units=GPa)
#
#
# Indices 1 2 3 4 5 6 
#
# 1 55.5038 9.9701 27.8750 -1.2212 5.5724 14.6098
# 2 9.9701 156.2576 42.7205 19.8842 -4.5138 5.7675
# 3 27.8750 42.7205 152.1067 6.4778 -0.1542 -4.7044
# 4 -1.2212 19.8842 6.4778 44.2488 -6.5819 -3.9373
# 5 5.5724 -4.5138 -0.1542 -6.5819 44.2791 7.0451
# 6 14.6098 5.7675 -4.7044 -3.9373 7.0451 34.1181
#
#
#
# Elastic Compliance Matrix: (Units=1/GPa)
#
#
# Indices 1 2 3 4 5 6 
#
# 1 0.023143 0.000102 -0.004596 0.000164 -0.001258 -0.010283
# 2 0.000102 0.007444 -0.002039 -0.003138 0.000602 -0.002070
# 3 -0.004596 -0.002039 0.008101 -0.000114 -0.000167 0.003451
# 4 0.000164 -0.003138 -0.000114 0.024703 0.002902 0.002696
# 5 -0.001258 0.000602 -0.000167 0.002902 0.023901 -0.004187
# 6 -0.010283 -0.002070 0.003451 0.002696 -0.004187 0.035714
#
#
# Mechanical properties :
#
#
# Convention : Reuss Voigt Hill
#
# Bulk Modulus (GPa) = 39.02945 58.33325 48.68135
# Shear Modulus (GPa) = 34.57527 43.41604 38.99566
#
# Velocity S-wave (km/s) = 3.67651 4.11982 3.90446
# Velocity P-wave (km/s) = 5.76892 6.74056 6.27358
#
# Compressibility (1/GPa) = 0.02562168
#
# Stress axis : x y z
#
# Youngs Moduli (GPa) = 43.20929 134.33992 123.44485
#
# Poissons Ratio (x) = -0.01375 0.56738
# Poissons Ratio (y) = -0.00442 0.25172
# Poissons Ratio (z) = 0.19860 0.27394
#
# Static dielectric constant tensor:
#      x y z
#    x 2.175710 0.369070 0.051300 
#    y 0.369070 2.937530 0.113180 
#    z 0.051300 0.113180 2.042400 
# 
# From -- ./inp_files/425622.got.cif
#   From: 2010.05.17/outbox.cif.g08.bks.cpg/sg2_213_cif.got.tgz:425622.got - 2010.06.03 11:33:40.
