data_PCOD9041566
_publ_section_title
;
Structure prediction by ZEFSAII (Michael W. Deem and Ramdas Pophale) SiO2 
 PCOD9041566
Probable space group: P -1
;
_chemical_formula_sum "Si O2"
_cell_formula_units_Z 16
_cell_length_a 21.134194
_cell_length_b 6.177364
_cell_length_c 6.164338
_cell_angle_alpha 81.516376
_cell_angle_beta 82.959032
_cell_angle_gamma 60.654996
_cell_volume 692.654488
_symmetry_space_group_name_H-M "P -1"
_symmetry_group_IT_number 2
_symmetry_cell_setting 'triclinic'
loop_
_space_group_symop_operation_xyz
x,y,z
-x,-y,-z
loop_
_atom_site_type_symbol
_atom_site_label
_atom_site_fract_x
_atom_site_fract_y
_atom_site_fract_z
Si Si1 0.908825 0.120151 0.299759
Si Si2 0.783189 0.025263 0.266636
Si Si3 0.423813 0.224634 0.789253
Si Si4 0.659382 0.321772 0.571777
Si Si5 0.046293 0.625506 0.373946
Si Si6 0.166163 0.409547 0.030003
Si Si7 0.712235 0.490628 0.900665
Si Si8 0.555657 0.224370 0.940112
O O1 0.846892 0.039135 0.371971
O O2 0.920542 0.267530 0.473007
O O3 0.877754 0.312454 0.087904
O O4 0.984623 0.877528 0.250239
O O5 0.713467 0.091883 0.434224
O O6 0.816166 0.775638 0.150145
O O7 0.751361 0.247699 0.070763
O O8 0.393498 0.432061 0.582673
O O9 0.506534 0.155368 0.812314
O O10 0.369367 0.358149 0.994852
O O11 0.421563 0.962858 0.835018
O O12 0.708810 0.410303 0.671880
O O13 0.618082 0.236860 0.773320
O O14 0.000000 0.500000 0.500000
O O15 0.110481 0.419733 0.232233
O O16 0.241613 0.366573 0.107423
O O17 0.500000 0.500000 0.000000
#
# Coordination Sequence:
#
# PCOD9041566 Si02
#       8
#     2   2   2   2   2   2   2   2
#     4  10  23  44  64  98 136 174 224 282 334 406
#     4  10  24  43  67 100 136 177 234 278 343 410
#     4  10  24  45  65 107 136 180 232 284 349 412
#     4  11  23  46  73  99 141 188 230 286 351 409
#     4  11  24  41  68 100 133 177 227 275 344 406
#     4  11  24  43  69  95 136 178 221 286 337 400
#     4  10  23  44  65 100 136 175 228 287 334 411
#     4  11  23  45  71 100 144 179 231 288 344 415
#
# _framework density 23.099537000000002
#
# number of rings (size 3 to 8) (size 9 to 14) (size 15 to 20)
#    0.000    1.500    1.250    2.250    1.750    8.500 
#    9.000    0.000    0.000    0.000    0.000    0.000 
#    0.000    0.000    0.000    0.000    0.000    0.000 
#
# Total GULP energy -89415.201454 kJ/mol
# GULP energy per Si atom -5588.450091 kJ/mol
# Density = 2.304696 g / cm^3
# Si number density = 23.099537 Si / 1000 Ang^3
#
#
#
# Elastic Constant Matrix: (Units=GPa)
#
#
# Indices 1 2 3 4 5 6 
#
# 1 145.4604 40.4572 48.0856 5.5523 -4.4839 8.2263
# 2 40.4572 101.2272 29.4327 5.1192 -15.6361 2.9962
# 3 48.0856 29.4327 51.5713 -0.4683 -13.4458 7.2988
# 4 5.5523 5.1192 -0.4683 34.0084 -1.9570 1.6969
# 5 -4.4839 -15.6361 -13.4458 -1.9570 35.2120 -3.5897
# 6 8.2263 2.9962 7.2988 1.6969 -3.5897 29.9989
#
#
#
# Elastic Compliance Matrix: (Units=1/GPa)
#
#
# Indices 1 2 3 4 5 6 
#
# 1 0.010551 -0.001835 -0.009568 -0.001734 -0.003291 -0.000678
# 2 -0.001835 0.012572 -0.004673 -0.001496 0.003573 0.000897
# 3 -0.009568 -0.004673 0.034087 0.003493 0.009482 -0.004266
# 4 -0.001734 -0.001496 0.003493 0.030158 0.001952 -0.001697
# 5 -0.003291 0.003573 0.009482 0.001952 0.033514 0.002138
# 6 -0.000678 0.000897 -0.004266 -0.001697 0.002138 0.034821
#
#
# Mechanical properties :
#
#
# Convention : Reuss Voigt Hill
#
# Bulk Modulus (GPa) = 39.90889 59.35664 49.63277
# Shear Modulus (GPa) = 25.48315 31.86276 28.67295
#
# Velocity S-wave (km/s) = 3.32503 3.71801 3.52700
# Velocity P-wave (km/s) = 5.66176 6.64705 6.17409
#
# Compressibility (1/GPa) = 0.02505707
#
# Stress axis : x y z
#
# Youngs Moduli (GPa) = 94.77425 79.54208 29.33695
#
# Poissons Ratio (x) = 0.14600 0.28071
# Poissons Ratio (y) = 0.17396 0.13708
# Poissons Ratio (z) = 0.90684 0.37167
#
# Static dielectric constant tensor:
#      x y z
#    x 1.874730 0.026730 0.004930 
#    y 0.026730 1.918700 -0.012740 
#    z 0.004930 -0.012740 1.869940 
# 
# From -- ./inp_files/121541.got.cif
#   From: 2010.05.17/outbox.cif.g08.bks.cpg/sg2_61_cif.got.tgz:121541.got - 2010.06.03 11:33:40.
