data_PCOD9041332
_publ_section_title
;
Structure prediction by ZEFSAII (Michael W. Deem and Ramdas Pophale) SiO2 
 PCOD9041332
Probable space group: P -1
;
_chemical_formula_sum "Si O2"
_cell_formula_units_Z 12
_cell_length_a 5.101289
_cell_length_b 19.932854
_cell_length_c 7.882514
_cell_angle_alpha 130.105724
_cell_angle_beta 111.467285
_cell_angle_gamma 96.192191
_cell_volume 499.635615
_symmetry_space_group_name_H-M "P -1"
_symmetry_group_IT_number 2
_symmetry_cell_setting 'triclinic'
loop_
_space_group_symop_operation_xyz
x,y,z
-x,-y,-z
loop_
_atom_site_type_symbol
_atom_site_label
_atom_site_fract_x
_atom_site_fract_y
_atom_site_fract_z
Si Si1 0.764470 0.044154 0.486024
Si Si2 0.610217 0.431171 0.813485
Si Si3 0.178386 0.432458 0.414339
Si Si4 0.323073 0.204022 0.461154
Si Si5 0.410070 0.871786 0.904779
Si Si6 0.289545 0.789968 0.128198
O O1 0.911172 0.160740 0.751418
O O2 0.500000 0.000000 0.500000
O O3 0.000000 0.000000 0.500000
O O4 0.582022 0.990111 0.183277
O O5 0.346036 0.400658 0.551165
O O6 0.532296 0.324386 0.696150
O O7 0.500000 0.500000 0.000000
O O8 0.000000 0.500000 0.000000
O O9 0.500000 0.500000 0.500000
O O10 0.000000 0.500000 0.500000
O O11 0.918507 0.328708 0.105004
O O12 0.402989 0.157275 0.237985
O O13 0.414477 0.171816 0.607588
O O14 0.950337 0.170620 0.313912
O O15 0.373820 0.820154 0.999651
#
# Coordination Sequence:
#
# PCOD9041332 Si02
#       6
#     2   2   2   2   2   2
#     4  10  23  43  73 104 141 190 236 292 359 424
#     4  12  25  46  68 101 143 180 242 301 347 427
#     4  12  27  45  72 104 140 189 239 293 364 430
#     4  12  26  44  74 105 142 192 237 294 363 423
#     4  11  25  46  71 107 146 184 242 294 356 427
#     4  11  26  48  74 104 149 188 238 300 361 426
#
# _framework density 24.017499999999998
#
# number of rings (size 3 to 8) (size 9 to 14) (size 15 to 20)
#    0.000    0.667    1.667    6.000    2.333    8.000 
#    0.000    0.000    0.000    0.000    0.000    0.000 
#    0.000    0.000    0.000    0.000    0.000    0.000 
#
# Total GULP energy -67048.495371 kJ/mol
# GULP energy per Si atom -5587.374614 kJ/mol
# Density = 2.396284 g / cm^3
# Si number density = 24.017500 Si / 1000 Ang^3
#
#
#
# Elastic Constant Matrix: (Units=GPa)
#
#
# Indices 1 2 3 4 5 6 
#
# 1 124.9034 17.7137 12.4215 15.6781 -3.1432 -19.0030
# 2 17.7137 124.2429 38.2482 -11.9106 -6.3513 -11.3204
# 3 12.4215 38.2482 131.4670 21.3010 -2.5619 -2.3990
# 4 15.6781 -11.9106 21.3010 70.6861 -12.1785 0.9828
# 5 -3.1432 -6.3513 -2.5619 -12.1785 49.3459 -4.0758
# 6 -19.0030 -11.3204 -2.3990 0.9828 -4.0758 39.0029
#
#
#
# Elastic Compliance Matrix: (Units=1/GPa)
#
#
# Indices 1 2 3 4 5 6 
#
# 1 0.009087 -0.001076 -0.000111 -0.002180 0.000242 0.004188
# 2 -0.001076 0.009790 -0.003178 0.003158 0.001992 0.002250
# 3 -0.000111 -0.003178 0.009065 -0.003377 -0.000814 -0.000419
# 4 -0.002180 0.003158 -0.003377 0.016915 0.004239 -0.000336
# 5 0.000242 0.001992 -0.000814 0.004239 0.021773 0.002815
# 6 0.004188 0.002250 -0.000419 -0.000336 0.002815 0.028610
#
#
# Mechanical properties :
#
#
# Convention : Reuss Voigt Hill
#
# Bulk Modulus (GPa) = 52.05406 57.48667 54.77037
# Shear Modulus (GPa) = 45.29962 52.62231 48.96097
#
# Velocity S-wave (km/s) = 4.34765 4.68589 4.51993
# Velocity P-wave (km/s) = 6.85005 7.29822 7.07768
#
# Compressibility (1/GPa) = 0.01921080
#
# Stress axis : x y z
#
# Youngs Moduli (GPa) = 110.04976 102.14203 110.30996
#
# Poissons Ratio (x) = 0.10993 0.01226
# Poissons Ratio (y) = 0.11844 0.35061
# Poissons Ratio (z) = 0.01223 0.32465
#
# Static dielectric constant tensor:
#      x y z
#    x 1.887950 0.022450 -0.017340 
#    y 0.022450 1.935650 0.034650 
#    z -0.017340 0.034650 1.834880 
# 
# From -- ./inp_files/111875.got.cif
#   From: 2010.05.17/outbox.cif.g08.bks.cpg/sg2_56_cif.got.tgz:111875.got - 2010.06.03 11:33:40.
