data_PCOD9041545
_publ_section_title
;
Structure prediction by ZEFSAII (Michael W. Deem and Ramdas Pophale) SiO2 
 PCOD9041545
Probable space group: P -1
;
_chemical_formula_sum "Si O2"
_cell_formula_units_Z 14
_cell_length_a 16.850175
_cell_length_b 16.977367
_cell_length_c 11.570839
_cell_angle_alpha 35.089076
_cell_angle_beta 130.699023
_cell_angle_gamma 156.233921
_cell_volume 696.709473
_symmetry_space_group_name_H-M "P -1"
_symmetry_group_IT_number 2
_symmetry_cell_setting 'triclinic'
loop_
_space_group_symop_operation_xyz
x,y,z
-x,-y,-z
loop_
_atom_site_type_symbol
_atom_site_label
_atom_site_fract_x
_atom_site_fract_y
_atom_site_fract_z
Si Si1 0.822815 0.812249 0.216816
Si Si2 0.637517 0.298681 0.264105
Si Si3 0.444040 0.218999 0.957155
Si Si4 0.847376 0.343802 0.930184
Si Si5 0.045959 0.592800 0.296639
Si Si6 0.573624 0.305733 0.737011
Si Si7 0.696482 0.620740 0.063837
O O1 0.713335 0.832298 0.118068
O O2 0.692109 0.544208 0.478009
O O3 0.774481 0.734163 0.130562
O O4 0.082851 0.105762 0.130179
O O5 0.623199 0.379456 0.265022
O O6 0.880887 0.528125 0.199948
O O7 0.500000 0.000000 0.500000
O O8 0.563106 0.314397 0.072539
O O9 0.585322 0.391883 0.769666
O O10 0.295272 0.917410 0.151248
O O11 0.966270 0.498598 0.730479
O O12 0.706033 0.316646 0.851234
O O13 0.000000 0.500000 0.000000
O O14 0.674184 0.019215 0.142966
O O15 0.000000 0.500000 0.500000
O O16 0.500000 0.500000 0.000000
#
# Coordination Sequence:
#
# PCOD9041545 Si02
#       7
#     2   2   2   2   2   2   2
#     4  11  24  42  68  91 135 178 224 273 345 402
#     4  12  24  39  67  98 132 175 221 274 342 401
#     4  11  22  43  62  96 134 170 224 281 326 413
#     4  10  23  44  64  94 139 173 226 282 333 407
#     4  11  23  39  65  96 130 174 221 277 342 392
#     4  10  24  41  68  94 130 180 224 273 339 403
#     4  11  25  43  65  98 135 172 225 283 337 407
#
# _framework density 20.094457999999999
#
# number of rings (size 3 to 8) (size 9 to 14) (size 15 to 20)
#    0.000    1.143    4.286    1.286    2.000    4.571 
#    0.000    0.714    0.000    0.000    0.000    0.000 
#    0.000    0.000    0.000    0.000    0.000    0.000 
#
# Total GULP energy -77972.638348 kJ/mol
# GULP energy per Si atom -5569.474168 kJ/mol
# Density = 2.004872 g / cm^3
# Si number density = 20.094458 Si / 1000 Ang^3
#
#
#
# Elastic Constant Matrix: (Units=GPa)
#
#
# Indices 1 2 3 4 5 6 
#
# 1 139.0051 39.5341 22.0384 5.9361 -1.7196 0.4575
# 2 39.5341 109.2720 33.7039 16.0395 -1.7257 7.5595
# 3 22.0384 33.7039 83.8404 -5.5442 -13.5260 3.1705
# 4 5.9361 16.0395 -5.5442 18.6186 -5.3461 4.6656
# 5 -1.7196 -1.7257 -13.5260 -5.3461 32.5429 0.4184
# 6 0.4575 7.5595 3.1705 4.6656 0.4184 33.4861
#
#
#
# Elastic Compliance Matrix: (Units=1/GPa)
#
#
# Indices 1 2 3 4 5 6 
#
# 1 0.008137 -0.002397 -0.001364 -0.001259 -0.000480 0.000741
# 2 -0.002397 0.014235 -0.006795 -0.014739 -0.004612 -0.000426
# 3 -0.001364 -0.006795 0.017587 0.014780 0.009335 -0.002288
# 4 -0.001259 -0.014739 0.014780 0.078803 0.018360 -0.009264
# 5 -0.000480 -0.004612 0.009335 0.018360 0.037392 -0.002861
# 6 0.000741 -0.000426 -0.002288 -0.009264 -0.002861 0.031492
#
#
# Mechanical properties :
#
#
# Convention : Reuss Voigt Hill
#
# Bulk Modulus (GPa) = 53.05846 58.07446 55.56646
# Shear Modulus (GPa) = 23.25131 32.71892 27.98511
#
# Velocity S-wave (km/s) = 3.40531 4.03954 3.73591
# Velocity P-wave (km/s) = 6.47482 7.12185 6.80603
#
# Compressibility (1/GPa) = 0.01884714
#
# Stress axis : x y z
#
# Youngs Moduli (GPa) = 122.88849 70.25018 56.85895
#
# Poissons Ratio (x) = 0.16842 0.07756
# Poissons Ratio (y) = 0.29461 0.38635
# Poissons Ratio (z) = 0.16762 0.47734
#
# Static dielectric constant tensor:
#      x y z
#    x 1.787000 -0.050940 -0.056120 
#    y -0.050940 1.757460 -0.012630 
#    z -0.056120 -0.012630 1.740550 
# 
# From -- ./inp_files/363818.got.cif
#   From: 2010.05.17/outbox.cif.g08.bks.cpg/sg2_182_cif.got.tgz:363818.got - 2010.06.03 11:33:40.
