data_PCOD9041742
_publ_section_title
;
Structure prediction by ZEFSAII (Michael W. Deem and Ramdas Pophale) SiO2 
 PCOD9041742
Probable space group: P -1
;
_chemical_formula_sum "Si O2"
_cell_formula_units_Z 16
_cell_length_a 12.266368
_cell_length_b 8.143560
_cell_length_c 10.076558
_cell_angle_alpha 103.394341
_cell_angle_beta 131.477515
_cell_angle_gamma 92.573462
_cell_volume 705.938038
_symmetry_space_group_name_H-M "P -1"
_symmetry_group_IT_number 2
_symmetry_cell_setting 'triclinic'
loop_
_space_group_symop_operation_xyz
x,y,z
-x,-y,-z
loop_
_atom_site_type_symbol
_atom_site_label
_atom_site_fract_x
_atom_site_fract_y
_atom_site_fract_z
Si Si1 0.428389 0.751853 0.055371
Si Si2 0.061252 0.847758 0.206164
Si Si3 0.924112 0.709733 0.350588
Si Si4 0.913824 0.775203 0.808043
Si Si5 0.401546 0.320731 0.322825
Si Si6 0.381182 0.344243 0.009311
Si Si7 0.903922 0.309678 0.277120
Si Si8 0.415683 0.950480 0.562057
O O1 0.423343 0.555279 0.063896
O O2 0.535461 0.892663 0.263987
O O3 0.489330 0.742351 0.952843
O O4 0.262503 0.786139 0.930292
O O5 0.239081 0.890862 0.380243
O O6 0.988372 0.756567 0.264568
O O7 0.025048 0.031429 0.172230
O O8 0.003285 0.743045 0.005033
O O9 0.886345 0.504452 0.321107
O O10 0.048392 0.788804 0.577049
O O11 0.760594 0.743451 0.217133
O O12 0.741367 0.750536 0.708092
O O13 0.956400 0.658487 0.706364
O O14 0.500000 0.500000 0.500000
O O15 0.337022 0.325472 0.124016
O O16 0.518094 0.207060 0.371129
O O17 0.500000 0.000000 0.500000
#
# Coordination Sequence:
#
# PCOD9041742 Si02
#       8
#     2   2   2   2   2   2   2   2
#     4  10  24  45  70  99 139 179 222 289 341 403
#     4  11  25  44  65  97 134 181 221 280 337 406
#     4  10  23  44  67 100 133 177 231 274 342 408
#     4  11  25  46  67  96 140 177 228 280 342 405
#     4  12  27  44  70 101 135 181 229 285 342 407
#     4  10  23  46  70  98 136 179 231 277 343 410
#     4  10  24  42  71 100 133 178 226 284 336 405
#     4  12  25  44  66 100 138 176 229 276 344 407
#
# _framework density 22.664878000000002
#
# number of rings (size 3 to 8) (size 9 to 14) (size 15 to 20)
#    0.000    1.250    2.500    1.500    7.000    4.500 
#    0.000    0.000    0.000    0.000    0.000    0.000 
#    0.000    0.000    0.000    0.000    0.000    0.000 
#
# Total GULP energy -89286.051100 kJ/mol
# GULP energy per Si atom -5580.378194 kJ/mol
# Density = 2.261329 g / cm^3
# Si number density = 22.664878 Si / 1000 Ang^3
#
#
#
# Elastic Constant Matrix: (Units=GPa)
#
#
# Indices 1 2 3 4 5 6 
#
# 1 91.8669 13.9217 44.3333 -14.2836 -6.6433 -6.2046
# 2 13.9217 39.4996 31.7801 -4.4078 -4.5364 -5.0498
# 3 44.3333 31.7801 120.0215 -14.1817 2.2549 -0.1971
# 4 -14.2836 -4.4078 -14.1817 20.6614 2.2952 -7.5850
# 5 -6.6433 -4.5364 2.2549 2.2952 42.9956 -3.0293
# 6 -6.2046 -5.0498 -0.1971 -7.5850 -3.0293 29.4799
#
#
#
# Elastic Compliance Matrix: (Units=1/GPa)
#
#
# Indices 1 2 3 4 5 6 
#
# 1 0.015061 0.000496 -0.004647 0.009194 0.002545 0.005851
# 2 0.000496 0.034125 -0.008849 0.003738 0.004457 0.007311
# 3 -0.004647 -0.008849 0.012831 0.003331 -0.002631 -0.001821
# 4 0.009194 0.003738 0.003331 0.064963 -0.000470 0.019264
# 5 0.002545 0.004457 -0.002631 -0.000470 0.024544 0.003683
# 6 0.005851 0.007311 -0.001821 0.019264 0.003683 0.041728
#
#
# Mechanical properties :
#
#
# Convention : Reuss Voigt Hill
#
# Bulk Modulus (GPa) = 27.76337 47.93981 37.85159
# Shear Modulus (GPa) = 21.62088 29.38422 25.50255
#
# Velocity S-wave (km/s) = 3.09194 3.60455 3.35804
# Velocity P-wave (km/s) = 5.00229 6.20655 5.63667
#
# Compressibility (1/GPa) = 0.03601868
#
# Stress axis : x y z
#
# Youngs Moduli (GPa) = 66.39644 29.30379 77.93417
#
# Poissons Ratio (x) = -0.01454 0.36212
# Poissons Ratio (y) = -0.03296 0.68966
# Poissons Ratio (z) = 0.30851 0.25932
#
# Static dielectric constant tensor:
#      x y z
#    x 1.889890 -0.003740 0.046300 
#    y -0.003740 1.970810 -0.064610 
#    z 0.046300 -0.064610 1.966970 
# 
# From -- ./inp_files/244791.got.cif
#   From: 2010.05.17/outbox.cif.g08.bks.cpg/sg2_123_cif.got.tgz:244791.got - 2010.06.03 11:33:40.
