data_PCOD9041425
_publ_section_title
;
Structure prediction by ZEFSAII (Michael W. Deem and Ramdas Pophale) SiO2 
 PCOD9041425
Probable space group: P -1
;
_chemical_formula_sum "Si O2"
_cell_formula_units_Z 16
_cell_length_a 18.830055
_cell_length_b 5.138724
_cell_length_c 8.123417
_cell_angle_alpha 112.904651
_cell_angle_beta 110.569364
_cell_angle_gamma 89.421074
_cell_volume 670.556281
_symmetry_space_group_name_H-M "P -1"
_symmetry_group_IT_number 2
_symmetry_cell_setting 'triclinic'
loop_
_space_group_symop_operation_xyz
x,y,z
-x,-y,-z
loop_
_atom_site_type_symbol
_atom_site_label
_atom_site_fract_x
_atom_site_fract_y
_atom_site_fract_z
Si Si1 0.841566 0.894980 0.474685
Si Si2 0.119800 0.506789 0.003402
Si Si3 0.447764 0.692189 0.912304
Si Si4 0.325262 0.966985 0.076937
Si Si5 0.410577 0.496194 0.475278
Si Si6 0.264818 0.742089 0.319033
Si Si7 0.824561 0.245616 0.234406
Si Si8 0.982093 0.091749 0.824926
O O1 0.806900 0.567891 0.329056
O O2 0.779575 0.030473 0.568838
O O3 0.859611 0.116652 0.392009
O O4 0.923230 0.868241 0.621622
O O5 0.133596 0.699452 0.896349
O O6 0.062602 0.222404 0.842748
O O7 0.197142 0.474932 0.160645
O O8 0.071050 0.661739 0.131595
O O9 0.417173 0.511871 0.681922
O O10 0.500000 0.500000 0.000000
O O11 0.380152 0.769107 0.990363
O O12 0.500000 0.000000 0.000000
O O13 0.286217 0.830680 0.174376
O O14 0.372338 0.253150 0.258191
O O15 0.254593 0.974270 0.899935
O O16 0.500000 0.500000 0.500000
O O17 0.347145 0.711933 0.455023
O O18 0.000000 0.000000 0.000000
#
# Coordination Sequence:
#
# PCOD9041425 Si02
#       8
#     2   2   2   2   2   2   2   2
#     4  11  27  46  74 111 148 202 251 312 382 450
#     4   9  23  44  68 107 143 201 245 313 373 448
#     4  12  28  48  73 107 149 187 245 313 375 451
#     4  11  27  46  74 106 148 198 247 316 375 452
#     4  12  26  47  78 108 148 199 251 306 383 451
#     4  10  25  45  74 104 146 199 251 307 378 453
#     4  11  27  47  71 110 153 191 259 316 376 445
#     4  10  23  43  75 101 153 200 256 305 378 449
#
# _framework density 23.860786999999998
#
# number of rings (size 3 to 8) (size 9 to 14) (size 15 to 20)
#    0.000    1.250    1.250    1.500   15.750    3.000 
#    0.000    0.000    0.000    0.000    0.000    0.000 
#    0.000    0.000    0.000    0.000    0.000    0.000 
#
# Total GULP energy -89180.089855 kJ/mol
# GULP energy per Si atom -5573.755616 kJ/mol
# Density = 2.380648 g / cm^3
# Si number density = 23.860787 Si / 1000 Ang^3
#
#
#
# Elastic Constant Matrix: (Units=GPa)
#
#
# Indices 1 2 3 4 5 6 
#
# 1 98.8549 19.8325 12.3255 15.7627 -2.9643 6.2045
# 2 19.8325 81.7945 28.5733 -4.5941 3.4169 -1.9991
# 3 12.3255 28.5733 95.4174 0.7628 7.7267 5.0556
# 4 15.7627 -4.5941 0.7628 51.6473 -7.9202 -5.5916
# 5 -2.9643 3.4169 7.7267 -7.9202 59.1745 7.0593
# 6 6.2045 -1.9991 5.0556 -5.5916 7.0593 24.5746
#
#
#
# Elastic Compliance Matrix: (Units=1/GPa)
#
#
# Indices 1 2 3 4 5 6 
#
# 1 0.011748 -0.003084 -0.000394 -0.004203 0.000770 -0.004313
# 2 -0.003084 0.014686 -0.004167 0.002615 -0.000536 0.003579
# 3 -0.000394 -0.004167 0.012016 -0.000885 -0.001159 -0.002580
# 4 -0.004203 0.002615 -0.000885 0.021827 0.001977 0.005854
# 5 0.000770 -0.000536 -0.001159 0.001977 0.017946 -0.004705
# 6 -0.004313 0.003579 -0.002580 0.005854 -0.004705 0.045287
#
#
# Mechanical properties :
#
#
# Convention : Reuss Voigt Hill
#
# Bulk Modulus (GPa) = 43.17791 44.16995 43.67393
# Shear Modulus (GPa) = 34.12492 41.43498 37.77995
#
# Velocity S-wave (km/s) = 3.78586 4.17169 3.98345
# Velocity P-wave (km/s) = 6.10290 6.46187 6.28494
#
# Compressibility (1/GPa) = 0.02315999
#
# Stress axis : x y z
#
# Youngs Moduli (GPa) = 85.12270 68.09282 83.21915
#
# Poissons Ratio (x) = 0.21003 0.03280
# Poissons Ratio (y) = 0.26256 0.34673
# Poissons Ratio (z) = 0.03355 0.28371
#
# Static dielectric constant tensor:
#      x y z
#    x 2.033650 -0.094050 0.120790 
#    y -0.094050 2.051230 0.019730 
#    z 0.120790 0.019730 2.106160 
# 
# From -- ./inp_files/324169.got.cif
#   From: 2010.05.17/outbox.cif.g08.bks.cpg/sg2_163_cif.got.tgz:324169.got - 2010.06.03 11:33:40.
