data_PCOD9041678
_publ_section_title
;
Structure prediction by ZEFSAII (Michael W. Deem and Ramdas Pophale) SiO2 
 PCOD9041678
Probable space group: P -1
;
_chemical_formula_sum "Si O2"
_cell_formula_units_Z 16
_cell_length_a 8.364137
_cell_length_b 11.458255
_cell_length_c 10.545289
_cell_angle_alpha 84.065317
_cell_angle_beta 50.655245
_cell_angle_gamma 111.933820
_cell_volume 638.285925
_symmetry_space_group_name_H-M "P -1"
_symmetry_group_IT_number 2
_symmetry_cell_setting 'triclinic'
loop_
_space_group_symop_operation_xyz
x,y,z
-x,-y,-z
loop_
_atom_site_type_symbol
_atom_site_label
_atom_site_fract_x
_atom_site_fract_y
_atom_site_fract_z
Si Si1 0.878215 0.582039 0.500095
Si Si2 0.728487 0.837126 0.838568
Si Si3 0.559879 0.406210 0.170190
Si Si4 0.907273 0.893248 0.254651
Si Si5 0.768460 0.078911 0.141642
Si Si6 0.638426 0.381232 0.413832
Si Si7 0.396779 0.875238 0.170585
Si Si8 0.998025 0.308700 0.204250
O O1 0.673158 0.579129 0.692801
O O2 0.723292 0.502911 0.459394
O O3 0.000000 0.500000 0.500000
O O4 0.110177 0.743201 0.333785
O O5 0.547395 0.747779 0.822559
O O6 0.886709 0.770650 0.786149
O O7 0.559371 0.812484 0.051904
O O8 0.929553 0.008559 0.718599
O O9 0.693430 0.431814 0.235657
O O10 0.767821 0.531711 0.962199
O O11 0.653083 0.745425 0.428230
O O12 0.839842 0.990569 0.201897
O O13 0.065677 0.871387 0.075050
O O14 0.843594 0.215574 0.168520
O O15 0.488860 0.962273 0.245732
O O16 0.796139 0.317202 0.381882
O O17 0.500000 0.000000 0.000000
#
# Coordination Sequence:
#
# PCOD9041678 Si02
#       8
#     2   2   2   2   2   2   2   2
#     4  12  26  46  69  95 130 177 223 267 327 405
#     4  10  23  44  66  93 133 175 216 264 326 395
#     4  12  26  41  67  97 135 168 218 276 329 377
#     4   9  20  41  64  94 126 171 215 262 319 390
#     4   9  20  39  67  90 128 169 215 262 323 389
#     4  12  26  40  68  97 134 166 221 274 326 382
#     4  11  25  40  70  98 133 168 220 276 329 384
#     4  11  23  42  68  94 132 178 217 264 322 397
#
# _framework density 25.067136000000001
#
# number of rings (size 3 to 8) (size 9 to 14) (size 15 to 20)
#    0.000    1.250    0.000    5.625    7.000    3.500 
#    0.000    0.000    0.000    0.000    0.000    0.000 
#    0.000    0.000    0.000    0.000    0.000    0.000 
#
# Total GULP energy -89573.590220 kJ/mol
# GULP energy per Si atom -5598.349389 kJ/mol
# Density = 2.501008 g / cm^3
# Si number density = 25.067136 Si / 1000 Ang^3
#
#
#
# Elastic Constant Matrix: (Units=GPa)
#
#
# Indices 1 2 3 4 5 6 
#
# 1 80.3325 35.7907 9.2684 -5.5189 -9.4744 13.7755
# 2 35.7907 184.4288 50.8292 -11.3858 -12.5669 44.4294
# 3 9.2684 50.8292 75.8221 -31.1790 -23.1496 6.0627
# 4 -5.5189 -11.3858 -31.1790 37.5103 5.1655 -4.6263
# 5 -9.4744 -12.5669 -23.1496 5.1655 39.1425 -1.0840
# 6 13.7755 44.4294 6.0627 -4.6263 -1.0840 62.5513
#
#
#
# Elastic Compliance Matrix: (Units=1/GPa)
#
#
# Indices 1 2 3 4 5 6 
#
# 1 0.014184 -0.002706 0.002311 0.002551 0.003562 -0.001175
# 2 -0.002706 0.008944 -0.007621 -0.004426 -0.001856 -0.005377
# 3 0.002311 -0.007621 0.031132 0.022489 0.013661 0.003787
# 4 0.002551 -0.004426 0.022489 0.043912 0.006806 0.003768
# 5 0.003562 -0.001856 0.013661 0.006806 0.033003 0.000285
# 6 -0.001175 -0.005377 0.003787 0.003768 0.000285 0.019982
#
#
# Mechanical properties :
#
#
# Convention : Reuss Voigt Hill
#
# Bulk Modulus (GPa) = 26.16074 59.15112 42.65593
# Shear Modulus (GPa) = 27.78827 44.15383 35.97105
#
# Velocity S-wave (km/s) = 3.33311 4.20148 3.79223
# Velocity P-wave (km/s) = 5.02710 6.86913 6.01900
#
# Compressibility (1/GPa) = 0.03822522
#
# Stress axis : x y z
#
# Youngs Moduli (GPa) = 70.50111 111.81290 32.12162
#
# Poissons Ratio (x) = 0.30258 -0.07422
# Poissons Ratio (y) = 0.19079 0.24481
# Poissons Ratio (z) = -0.16290 0.85218
#
# Static dielectric constant tensor:
#      x y z
#    x 2.083860 -0.000700 -0.003080 
#    y -0.000700 1.954370 0.026240 
#    z -0.003080 0.026240 1.953520 
# 
# From -- ./inp_files/392570.got.cif
#   From: 2010.05.17/outbox.cif.g08.bks.cpg/sg2_197_cif.got.tgz:392570.got - 2010.06.03 11:33:40.
