data_PCOD9041001
_publ_section_title
;
Structure prediction by ZEFSAII (Michael W. Deem and Ramdas Pophale) SiO2 
 PCOD9041001
Probable space group: P -1
;
_chemical_formula_sum "Si O2"
_cell_formula_units_Z 16
_cell_length_a 8.556973
_cell_length_b 16.169059
_cell_length_c 7.101958
_cell_angle_alpha 105.763996
_cell_angle_beta 123.737589
_cell_angle_gamma 47.573825
_cell_volume 594.609665
_symmetry_space_group_name_H-M "P -1"
_symmetry_group_IT_number 2
_symmetry_cell_setting 'triclinic'
loop_
_space_group_symop_operation_xyz
x,y,z
-x,-y,-z
loop_
_atom_site_type_symbol
_atom_site_label
_atom_site_fract_x
_atom_site_fract_y
_atom_site_fract_z
Si Si1 0.870268 0.227600 0.580922
Si Si2 0.997757 0.795070 0.915465
Si Si3 0.811361 0.457203 0.138710
Si Si4 0.363856 0.559007 0.641065
Si Si5 0.510255 0.097844 0.017833
Si Si6 0.437625 0.144360 0.573229
Si Si7 0.657228 0.698033 0.682765
Si Si8 0.990623 0.060536 0.255639
O O1 0.983608 0.202452 0.846665
O O2 0.862547 0.313483 0.496944
O O3 0.577791 0.291572 0.440456
O O4 0.992206 0.113958 0.480138
O O5 0.109503 0.843799 0.913023
O O6 0.270281 0.949639 0.333556
O O7 0.129135 0.663822 0.892993
O O8 0.731987 0.491747 0.325272
O O9 0.061813 0.420456 0.193663
O O10 0.575121 0.541439 0.900020
O O11 0.500000 0.500000 0.500000
O O12 0.393944 0.204607 0.149219
O O13 0.793433 0.044324 0.139776
O O14 0.393234 0.142603 0.760471
O O15 0.500000 0.000000 0.000000
O O16 0.358040 0.260471 0.513843
O O17 0.728660 0.869113 0.677214
#
# Coordination Sequence:
#
# PCOD9041001 Si02
#       8
#     2   2   2   2   2   2   2   2
#     4  11  24  44  73 101 141 190 234 287 351 422
#     4  11  23  42  72 100 143 186 233 289 350 419
#     4  10  23  43  70 103 138 176 230 290 358 415
#     4  11  22  43  74 106 134 177 230 289 360 424
#     4  11  27  45  72  99 138 194 243 294 349 408
#     4  11  26  46  65 105 144 186 240 290 352 408
#     4  10  26  48  66 104 143 182 239 290 346 423
#     4  11  25  46  68 102 144 188 242 294 343 416
#
# _framework density 26.90841
#
# number of rings (size 3 to 8) (size 9 to 14) (size 15 to 20)
#    0.000    1.250    2.500    1.500    5.250    8.000 
#    0.000    0.625    0.000    0.000    0.000    0.000 
#    0.000    0.000    0.000    0.000    0.000    0.000 
#
# Total GULP energy -89655.292429 kJ/mol
# GULP energy per Si atom -5603.455777 kJ/mol
# Density = 2.684717 g / cm^3
# Si number density = 26.908410 Si / 1000 Ang^3
#
#
#
# Elastic Constant Matrix: (Units=GPa)
#
#
# Indices 1 2 3 4 5 6 
#
# 1 111.6225 19.8002 71.7269 -7.1456 -6.8260 -2.6093
# 2 19.8002 66.7305 52.9420 -4.4245 5.9828 -10.0187
# 3 71.7269 52.9420 201.2268 -4.4194 -29.7847 -4.3626
# 4 -7.1456 -4.4245 -4.4194 42.7641 -6.8487 -0.2710
# 5 -6.8260 5.9828 -29.7847 -6.8487 67.4165 -8.7557
# 6 -2.6093 -10.0187 -4.3626 -0.2710 -8.7557 54.7376
#
#
#
# Elastic Compliance Matrix: (Units=1/GPa)
#
#
# Indices 1 2 3 4 5 6 
#
# 1 0.011738 0.000045 -0.004238 0.001446 -0.000521 0.000154
# 2 0.000045 0.020483 -0.005919 0.000892 -0.003994 0.002645
# 3 -0.004238 -0.005919 0.008624 0.000200 0.003931 0.000032
# 4 0.001446 0.000892 0.000200 0.024179 0.002716 0.000802
# 5 -0.000521 -0.003994 0.003931 0.002716 0.017454 0.002363
# 6 0.000154 0.002645 0.000032 0.000802 0.002363 0.019145
#
#
# Mechanical properties :
#
#
# Convention : Reuss Voigt Hill
#
# Bulk Modulus (GPa) = 48.49423 74.27977 61.38700
# Shear Modulus (GPa) = 38.84353 48.65770 43.75061
#
# Velocity S-wave (km/s) = 3.80352 4.25699 4.03663
# Velocity P-wave (km/s) = 6.11148 7.19911 6.67748
#
# Compressibility (1/GPa) = 0.02062101
#
# Stress axis : x y z
#
# Youngs Moduli (GPa) = 85.19108 48.82149 115.95041
#
# Poissons Ratio (x) = -0.00219 0.49139
# Poissons Ratio (y) = -0.00383 0.68634
# Poissons Ratio (z) = 0.36103 0.28899
#
# Static dielectric constant tensor:
#      x y z
#    x 2.230930 -0.063080 0.014850 
#    y -0.063080 2.182440 0.064910 
#    z 0.014850 0.064910 2.109980 
# 
# From -- ./inp_files/212953.got.cif
#   From: 2010.05.17/outbox.cif.g08.bks.cpg/sg2_107_cif.got.tgz:212953.got - 2010.06.03 11:33:40.
