data_PCOD9041483
_publ_section_title
;
Structure prediction by ZEFSAII (Michael W. Deem and Ramdas Pophale) SiO2 
 PCOD9041483
Probable space group: P -1
;
_chemical_formula_sum "Si O2"
_cell_formula_units_Z 16
_cell_length_a 11.740496
_cell_length_b 8.770992
_cell_length_c 8.343194
_cell_angle_alpha 88.356190
_cell_angle_beta 72.041333
_cell_angle_gamma 50.357985
_cell_volume 612.569548
_symmetry_space_group_name_H-M "P -1"
_symmetry_group_IT_number 2
_symmetry_cell_setting 'triclinic'
loop_
_space_group_symop_operation_xyz
x,y,z
-x,-y,-z
loop_
_atom_site_type_symbol
_atom_site_label
_atom_site_fract_x
_atom_site_fract_y
_atom_site_fract_z
Si Si1 0.068739 0.805596 0.223089
Si Si2 0.078717 0.624092 0.889775
Si Si3 0.731471 0.258647 0.324974
Si Si4 0.697107 0.769253 0.333342
Si Si5 0.833438 0.554295 0.611764
Si Si6 0.248093 0.109290 0.167836
Si Si7 0.628208 0.270765 0.017043
Si Si8 0.369833 0.899101 0.441359
O O1 0.121762 0.653604 0.350669
O O2 0.205212 0.813158 0.129583
O O3 0.064722 0.701744 0.070311
O O4 0.899170 0.030903 0.298249
O O5 0.209792 0.621650 0.743107
O O6 0.155713 0.392856 0.840154
O O7 0.915563 0.772537 0.860034
O O8 0.622162 0.285235 0.514379
O O9 0.650219 0.270679 0.196129
O O10 0.727131 0.665039 0.496900
O O11 0.537176 0.835996 0.325474
O O12 0.680694 0.958716 0.385292
O O13 0.747323 0.716387 0.790288
O O14 0.000000 0.500000 0.500000
O O15 0.382597 0.898217 0.022583
O O16 0.249901 0.031484 0.345637
O O17 0.500000 0.500000 0.000000
#
# Coordination Sequence:
#
# PCOD9041483 Si02
#       8
#     2   2   2   2   2   2   2   2
#     4  11  23  42  67  96 128 169 213 265 320 380
#     4  11  22  40  64  93 129 166 215 269 308 389
#     4  11  23  42  63  96 129 167 219 262 319 383
#     4  10  23  44  61  91 135 167 215 265 322 379
#     4  11  23  41  68  99 128 165 217 265 318 383
#     4  11  22  43  62  96 127 167 219 261 317 386
#     4  11  25  44  64  91 133 172 214 269 324 381
#     4  10  25  41  64  92 131 174 208 271 322 379
#
# _framework density 26.119481
#
# number of rings (size 3 to 8) (size 9 to 14) (size 15 to 20)
#    0.000    1.250    3.750    2.250    5.250    3.500 
#    0.000    0.625    0.000    0.000    0.000    0.000 
#    0.000    0.000    0.000    0.000    0.000    0.000 
#
# Total GULP energy -89601.197642 kJ/mol
# GULP energy per Si atom -5600.074853 kJ/mol
# Density = 2.606003 g / cm^3
# Si number density = 26.119481 Si / 1000 Ang^3
#
#
#
# Elastic Constant Matrix: (Units=GPa)
#
#
# Indices 1 2 3 4 5 6 
#
# 1 64.7631 13.3691 30.9756 -4.3702 2.0251 -9.3945
# 2 13.3691 122.4808 21.8107 8.3020 12.9960 -6.0417
# 3 30.9756 21.8107 43.3988 -8.5813 9.0217 -2.8706
# 4 -4.3702 8.3020 -8.5813 60.6743 6.7342 3.9875
# 5 2.0251 12.9960 9.0217 6.7342 34.2114 -4.1191
# 6 -9.3945 -6.0417 -2.8706 3.9875 -4.1191 32.3787
#
#
#
# Elastic Compliance Matrix: (Units=1/GPa)
#
#
# Indices 1 2 3 4 5 6 
#
# 1 0.025142 0.000641 -0.019144 -0.001910 0.004478 0.006522
# 2 0.000641 0.009382 -0.005086 -0.001865 -0.001713 0.001497
# 3 -0.019144 -0.005086 0.042356 0.006738 -0.010015 -0.004852
# 4 -0.001910 -0.001865 0.006738 0.018310 -0.004943 -0.003189
# 5 0.004478 -0.001713 -0.010015 -0.004943 0.033832 0.005005
# 6 0.006522 0.001497 -0.004852 -0.003189 0.005005 0.033655
#
#
# Mechanical properties :
#
#
# Convention : Reuss Voigt Hill
#
# Bulk Modulus (GPa) = 33.66917 40.32817 36.99867
# Shear Modulus (GPa) = 22.75227 36.41871 29.58549
#
# Velocity S-wave (km/s) = 2.95462 3.73810 3.36921
# Velocity P-wave (km/s) = 4.95561 5.83991 5.41584
#
# Compressibility (1/GPa) = 0.02970076
#
# Stress axis : x y z
#
# Youngs Moduli (GPa) = 39.77353 106.58234 23.60959
#
# Poissons Ratio (x) = -0.06830 0.45199
# Poissons Ratio (y) = -0.02549 0.12008
# Poissons Ratio (z) = 0.76144 0.54210
#
# Static dielectric constant tensor:
#      x y z
#    x 2.022510 0.034040 -0.036060 
#    y 0.034040 2.039600 0.055270 
#    z -0.036060 0.055270 2.047270 
# 
# From -- ./inp_files/158708.got.cif
#   From: 2010.05.17/outbox.cif.g08.bks.cpg/sg2_80_cif.got.tgz:158708.got - 2010.06.03 11:33:40.
