data_PCOD9041561
_publ_section_title
;
Structure prediction by ZEFSAII (Michael W. Deem and Ramdas Pophale) SiO2 
 PCOD9041561
Probable space group: P -1
;
_chemical_formula_sum "Si O2"
_cell_formula_units_Z 13
_cell_length_a 11.955110
_cell_length_b 8.537634
_cell_length_c 9.133086
_cell_angle_alpha 93.731334
_cell_angle_beta 118.559931
_cell_angle_gamma 130.841548
_cell_volume 509.596254
_symmetry_space_group_name_H-M "P -1"
_symmetry_group_IT_number 2
_symmetry_cell_setting 'triclinic'
loop_
_space_group_symop_operation_xyz
x,y,z
-x,-y,-z
loop_
_atom_site_type_symbol
_atom_site_label
_atom_site_fract_x
_atom_site_fract_y
_atom_site_fract_z
Si Si1 0.936995 0.712797 0.213191
Si Si2 0.734693 0.341154 0.308495
Si Si3 0.055935 0.140930 0.195177
Si Si4 0.500000 0.500000 0.500000
Si Si5 0.698721 0.129853 0.550398
Si Si6 0.491596 0.340150 0.781408
Si Si7 0.301651 0.019940 0.911879
O O1 0.889142 0.605176 0.339401
O O2 0.102455 0.756238 0.243160
O O3 0.719904 0.510671 0.983448
O O4 0.030364 0.975208 0.285544
O O5 0.776572 0.335790 0.499669
O O6 0.738407 0.182164 0.208910
O O7 0.504705 0.182891 0.142137
O O8 0.293229 0.408248 0.358625
O O9 0.890416 0.111509 0.123317
O O10 0.000000 0.000000 0.000000
O O11 0.491236 0.483377 0.677343
O O12 0.500000 0.000000 0.500000
O O13 0.610642 0.898396 0.389267
O O14 0.362964 0.214311 0.844185
#
# Coordination Sequence:
#
# PCOD9041561 Si02
#       7
#     2   2   2   1   2   2   2
#     4  11  23  45  67  99 135 176 228 278 337 402
#     4   9  21  44  70 100 133 176 230 270 338 404
#     4  12  26  45  69 100 137 178 227 281 341 399
#     4  12  24  44  64  96 138 174 226 274 332 406
#     4  11  24  41  67 100 136 177 226 276 330 406
#     4  10  23  44  64  97 135 171 224 277 333 400
#     4   9  22  45  71  97 135 180 219 280 338 405
#
# _framework density 25.510392
#
# number of rings (size 3 to 8) (size 9 to 14) (size 15 to 20)
#    0.000    1.538    3.077    1.385    2.154    4.923 
#    2.769    0.000    0.000    0.000    0.000    0.000 
#    0.000    0.000    0.000    0.000    0.000    0.000 
#
# Total GULP energy -72519.815734 kJ/mol
# GULP energy per Si atom -5578.447364 kJ/mol
# Density = 2.545233 g / cm^3
# Si number density = 25.510392 Si / 1000 Ang^3
#
#
#
# Elastic Constant Matrix: (Units=GPa)
#
#
# Indices 1 2 3 4 5 6 
#
# 1 182.8000 10.3485 50.9707 11.1542 40.1464 26.0345
# 2 10.3485 86.1379 6.7944 -9.0291 1.9581 3.9894
# 3 50.9707 6.7944 96.8010 -5.8294 29.9750 16.8166
# 4 11.1542 -9.0291 -5.8294 38.9827 2.5119 8.0272
# 5 40.1464 1.9581 29.9750 2.5119 34.3985 19.8446
# 6 26.0345 3.9894 16.8166 8.0272 19.8446 31.6970
#
#
#
# Elastic Compliance Matrix: (Units=1/GPa)
#
#
# Indices 1 2 3 4 5 6 
#
# 1 0.007774 -0.000837 -0.001949 -0.002194 -0.006983 -0.000318
# 2 -0.000837 0.012180 -0.000314 0.003455 0.001880 -0.002731
# 3 -0.001949 -0.000314 0.015008 0.003520 -0.010771 -0.000470
# 4 -0.002194 0.003455 0.003520 0.029419 0.002716 -0.009651
# 5 -0.006983 0.001880 -0.010771 0.002716 0.062975 -0.028901
# 6 -0.000318 -0.002731 -0.000470 -0.009651 -0.028901 0.052941
#
#
# Mechanical properties :
#
#
# Convention : Reuss Voigt Hill
#
# Bulk Modulus (GPa) = 34.76758 55.77401 45.27079
# Shear Modulus (GPa) = 25.49914 40.85734 33.17824
#
# Velocity S-wave (km/s) = 3.16501 4.00634 3.61026
# Velocity P-wave (km/s) = 5.19757 6.58116 5.92986
#
# Compressibility (1/GPa) = 0.02876243
#
# Stress axis : x y z
#
# Youngs Moduli (GPa) = 128.63053 82.09848 66.63197
#
# Poissons Ratio (x) = 0.06870 0.12988
# Poissons Ratio (y) = 0.10763 0.02092
# Poissons Ratio (z) = 0.25073 0.02578
#
# Static dielectric constant tensor:
#      x y z
#    x 2.037060 -0.009270 -0.011870 
#    y -0.009270 2.127840 -0.033840 
#    z -0.011870 -0.033840 2.040310 
# 
# From -- ./inp_files/239357.got.cif
#   From: 2010.05.17/outbox.cif.g08.bks.cpg/sg2_120_cif.got.tgz:239357.got - 2010.06.03 11:33:40.
