data_PCOD9041580
_publ_section_title
;
Structure prediction by ZEFSAII (Michael W. Deem and Ramdas Pophale) SiO2 
 PCOD9041580
Probable space group: P -1
;
_chemical_formula_sum "Si O2"
_cell_formula_units_Z 14
_cell_length_a 19.741360
_cell_length_b 5.058045
_cell_length_c 8.535548
_cell_angle_alpha 128.201860
_cell_angle_beta 108.418456
_cell_angle_gamma 56.772083
_cell_volume 559.917164
_symmetry_space_group_name_H-M "P -1"
_symmetry_group_IT_number 2
_symmetry_cell_setting 'triclinic'
loop_
_space_group_symop_operation_xyz
x,y,z
-x,-y,-z
loop_
_atom_site_type_symbol
_atom_site_label
_atom_site_fract_x
_atom_site_fract_y
_atom_site_fract_z
Si Si1 0.206668 0.036521 0.005326
Si Si2 0.089009 0.416756 0.275025
Si Si3 0.064331 0.562154 0.894479
Si Si4 0.857035 0.951334 0.507530
Si Si5 0.408599 0.076884 0.959683
Si Si6 0.686648 0.590839 0.677483
Si Si7 0.652964 0.536702 0.280411
O O1 0.157672 0.001083 0.102206
O O2 0.273656 0.134789 0.159263
O O3 0.128126 0.412503 0.025119
O O4 0.251714 0.737742 0.792642
O O5 0.084138 0.274537 0.391496
O O6 0.998691 0.611642 0.210050
O O7 0.123424 0.718232 0.420586
O O8 0.122019 0.378092 0.722617
O O9 0.000000 0.000000 0.000000
O O10 0.762217 0.165463 0.563763
O O11 0.375295 0.214686 0.808848
O O12 0.395139 0.709977 0.842869
O O13 0.365158 0.350050 0.179560
O O14 0.500000 0.000000 0.000000
O O15 0.646256 0.686749 0.509314
#
# Coordination Sequence:
#
# PCOD9041580 Si02
#       7
#     2   2   2   2   2   2   2
#     4  10  23  44  65 102 135 183 243 288 343 425
#     4  11  24  42  66  92 135 183 240 304 357 408
#     4  12  24  42  65  99 138 183 242 311 358 401
#     4  11  24  45  66  96 134 190 241 289 356 435
#     4  11  26  46  76 114 144 176 231 286 346 429
#     4  10  23  47  71 103 144 190 234 284 354 427
#     4  11  24  46  74 103 145 192 225 282 357 420
#
# _framework density 25.003696999999999
#
# number of rings (size 3 to 8) (size 9 to 14) (size 15 to 20)
#    0.000    1.143    1.429    4.286    0.000    9.143 
#    0.000    0.000    0.000    0.000    0.000    0.000 
#    0.000    0.000    0.000    0.000    0.000    0.000 
#
# Total GULP energy -78166.132379 kJ/mol
# GULP energy per Si atom -5583.295170 kJ/mol
# Density = 2.494679 g / cm^3
# Si number density = 25.003697 Si / 1000 Ang^3
#
#
#
# Elastic Constant Matrix: (Units=GPa)
#
#
# Indices 1 2 3 4 5 6 
#
# 1 102.1128 18.0850 39.6941 -4.0321 -25.6453 -7.5707
# 2 18.0850 51.9654 12.1948 -14.3563 -7.7815 4.7290
# 3 39.6941 12.1948 143.1971 -17.8048 -21.5704 -14.7991
# 4 -4.0321 -14.3563 -17.8048 37.0514 1.9183 4.7455
# 5 -25.6453 -7.7815 -21.5704 1.9183 32.0382 -1.0209
# 6 -7.5707 4.7290 -14.7991 4.7455 -1.0209 32.8093
#
#
#
# Elastic Compliance Matrix: (Units=1/GPa)
#
#
# Indices 1 2 3 4 5 6 
#
# 1 0.013640 -0.003753 -0.002008 -0.001819 0.008870 0.003322
# 2 -0.003753 0.024008 -0.000113 0.009464 0.002003 -0.005684
# 3 -0.002008 -0.000113 0.008954 0.003404 0.004292 0.003233
# 4 -0.001819 0.009464 0.003404 0.032674 0.001020 -0.004943
# 5 0.008870 0.002003 0.004292 0.001020 0.041782 0.004847
# 6 0.003322 -0.005684 0.003233 -0.004943 0.004847 0.034389
#
#
# Mechanical properties :
#
#
# Convention : Reuss Voigt Hill
#
# Bulk Modulus (GPa) = 28.69146 48.58035 38.63591
# Shear Modulus (GPa) = 27.96202 35.53321 31.74761
#
# Velocity S-wave (km/s) = 3.34775 3.77386 3.56717
# Velocity P-wave (km/s) = 5.14228 6.20168 5.69666
#
# Compressibility (1/GPa) = 0.03485357
#
# Stress axis : x y z
#
# Youngs Moduli (GPa) = 73.31126 41.65299 111.68621
#
# Poissons Ratio (x) = 0.15630 0.22431
# Poissons Ratio (y) = 0.27510 0.01265
# Poissons Ratio (z) = 0.14724 0.00472
#
# Static dielectric constant tensor:
#      x y z
#    x 2.041660 0.091620 -0.151070 
#    y 0.091620 2.043980 -0.127000 
#    z -0.151070 -0.127000 2.375590 
# 
# From -- ./inp_files/340753.got.cif
#   From: 2010.05.17/outbox.cif.g08.bks.cpg/sg2_171_cif.got.tgz:340753.got - 2010.06.03 11:33:40.
