data_PCOD9041245
_publ_section_title
;
Structure prediction by ZEFSAII (Michael W. Deem and Ramdas Pophale) SiO2 
 PCOD9041245
Probable space group: P -1
;
_chemical_formula_sum "Si O2"
_cell_formula_units_Z 16
_cell_length_a 15.565329
_cell_length_b 8.666563
_cell_length_c 9.333169
_cell_angle_alpha 97.091923
_cell_angle_beta 141.887139
_cell_angle_gamma 76.364391
_cell_volume 751.135400
_symmetry_space_group_name_H-M "P -1"
_symmetry_group_IT_number 2
_symmetry_cell_setting 'triclinic'
loop_
_space_group_symop_operation_xyz
x,y,z
-x,-y,-z
loop_
_atom_site_type_symbol
_atom_site_label
_atom_site_fract_x
_atom_site_fract_y
_atom_site_fract_z
Si Si1 0.614225 0.605538 0.004067
Si Si2 0.061104 0.594808 0.824150
Si Si3 0.104719 0.321828 0.658425
Si Si4 0.366745 0.423858 0.287523
Si Si5 0.400927 0.123004 0.491912
Si Si6 0.108937 0.084838 0.239007
Si Si7 0.851943 0.011398 0.387898
Si Si8 0.576166 0.255845 0.974895
O O1 0.599597 0.665382 0.829944
O O2 0.576953 0.432454 0.938824
O O3 0.780420 0.591617 0.254850
O O4 0.516298 0.717928 0.999332
O O5 0.052730 0.411988 0.748913
O O6 0.019990 0.671088 0.620938
O O7 0.961030 0.723950 0.809259
O O8 0.223302 0.561696 0.088659
O O9 0.192204 0.141724 0.757766
O O10 0.500000 0.500000 0.500000
O O11 0.347761 0.294953 0.364150
O O12 0.261597 0.066598 0.359583
O O13 0.500625 0.158778 0.755372
O O14 0.500000 0.000000 0.500000
O O15 0.131705 0.012307 0.422046
O O16 0.000000 0.000000 0.000000
O O17 0.735366 0.166568 0.212404
O O18 0.000000 0.000000 0.500000
#
# Coordination Sequence:
#
# PCOD9041245 Si02
#       8
#     2   2   2   2   2   2   2   2
#     4  10  23  43  72 101 136 184 237 302 348 430
#     4   9  21  40  70  93 139 178 234 290 347 418
#     4   9  20  40  68 101 132 178 233 288 358 409
#     4  11  24  44  72 103 141 193 236 289 364 427
#     4  12  30  47  73 104 149 193 240 299 366 430
#     4  11  28  49  70 111 149 189 240 300 363 434
#     4  11  27  43  74 106 143 192 237 295 367 423
#     4  11  25  45  69 104 144 179 246 296 359 424
#
# _framework density 21.301086999999999
#
# number of rings (size 3 to 8) (size 9 to 14) (size 15 to 20)
#    0.000    1.500    1.250    1.500   17.500    1.500 
#    0.000    0.000    0.000    0.000    0.000    0.000 
#    0.000    0.000    0.000    0.000    0.000    0.000 
#
# Total GULP energy -89213.171947 kJ/mol
# GULP energy per Si atom -5575.823247 kJ/mol
# Density = 2.125261 g / cm^3
# Si number density = 21.301087 Si / 1000 Ang^3
#
#
#
# Elastic Constant Matrix: (Units=GPa)
#
#
# Indices 1 2 3 4 5 6 
#
# 1 150.3257 38.3764 64.4018 5.0562 16.3514 -17.0473
# 2 38.3764 67.5793 37.8229 21.9523 2.7311 -31.5078
# 3 64.4018 37.8229 136.2295 3.1538 11.5644 -10.0581
# 4 5.0562 21.9523 3.1538 29.9723 -1.0299 2.6913
# 5 16.3514 2.7311 11.5644 -1.0299 31.4700 -2.2307
# 6 -17.0473 -31.5078 -10.0581 2.6913 -2.2307 41.7229
#
#
#
# Elastic Compliance Matrix: (Units=1/GPa)
#
#
# Indices 1 2 3 4 5 6 
#
# 1 0.009269 -0.004210 -0.003002 0.001758 -0.003319 -0.000407
# 2 -0.004210 0.054721 -0.009472 -0.041895 0.002394 0.040151
# 3 -0.003002 -0.009472 0.010926 0.006794 -0.001856 -0.006283
# 4 0.001758 -0.041895 0.006794 0.066050 0.000010 -0.033542
# 5 -0.003319 0.002394 -0.001856 0.000010 0.034105 0.001827
# 6 -0.000407 0.040151 -0.006283 -0.033542 0.001827 0.054869
#
#
# Mechanical properties :
#
#
# Convention : Reuss Voigt Hill
#
# Bulk Modulus (GPa) = 24.06792 70.59297 47.33044
# Shear Modulus (GPa) = 18.04036 34.86860 26.45448
#
# Velocity S-wave (km/s) = 2.91335 4.05030 3.52793
# Velocity P-wave (km/s) = 4.75818 7.42198 6.23402
#
# Compressibility (1/GPa) = 0.04154908
#
# Stress axis : x y z
#
# Youngs Moduli (GPa) = 107.88910 18.27438 91.52665
#
# Poissons Ratio (x) = 0.07694 0.27475
# Poissons Ratio (y) = 0.45422 0.86690
# Poissons Ratio (z) = 0.32387 0.17309
#
# Static dielectric constant tensor:
#      x y z
#    x 1.714210 -0.001150 -0.048130 
#    y -0.001150 1.869630 -0.031500 
#    z -0.048130 -0.031500 1.767950 
# 
# From -- ./inp_files/299006.got.cif
#   From: 2010.05.17/outbox.cif.g08.bks.cpg/sg2_150_cif.got.tgz:299006.got - 2010.06.03 11:33:40.
