data_PCOD9041243
_publ_section_title
;
Structure prediction by ZEFSAII (Michael W. Deem and Ramdas Pophale) SiO2 
 PCOD9041243
Probable space group: P -1
;
_chemical_formula_sum "Si O2"
_cell_formula_units_Z 14
_cell_length_a 8.643518
_cell_length_b 11.123200
_cell_length_c 6.715904
_cell_angle_alpha 93.153974
_cell_angle_beta 69.901541
_cell_angle_gamma 72.866407
_cell_volume 570.609316
_symmetry_space_group_name_H-M "P -1"
_symmetry_group_IT_number 2
_symmetry_cell_setting 'triclinic'
loop_
_space_group_symop_operation_xyz
x,y,z
-x,-y,-z
loop_
_atom_site_type_symbol
_atom_site_label
_atom_site_fract_x
_atom_site_fract_y
_atom_site_fract_z
Si Si1 0.495870 0.530480 0.273047
Si Si2 0.844299 0.305120 0.080964
Si Si3 0.978854 0.174287 0.407996
Si Si4 0.167107 0.266798 0.692955
Si Si5 0.401397 0.236636 0.923781
Si Si6 0.778388 0.092186 0.827300
Si Si7 0.203540 0.425440 0.364531
O O1 0.500000 0.500000 0.500000
O O2 0.660648 0.409979 0.123754
O O3 0.313073 0.518050 0.283333
O O4 0.476213 0.341880 0.802891
O O5 0.886769 0.280482 0.293941
O O6 0.837448 0.174456 0.973251
O O7 0.998257 0.340680 0.906812
O O8 0.091318 0.206529 0.539652
O O9 0.835850 0.131246 0.588477
O O10 0.111856 0.056213 0.219068
O O11 0.304773 0.186557 0.787125
O O12 0.256569 0.354807 0.546336
O O13 0.569873 0.130303 0.929860
O O14 0.262994 0.316863 0.157642
O O15 0.000000 0.500000 0.500000
#
# Coordination Sequence:
#
# PCOD9041243 Si02
#       7
#     2   2   2   2   2   2   2
#     4  12  25  42  69 103 132 179 222 277 339 404
#     4  11  23  45  71  97 139 176 228 275 339 400
#     4  10  23  44  71  99 133 179 225 285 330 395
#     4  11  26  42  64 102 137 180 221 276 339 393
#     4  12  25  44  68 101 140 179 223 276 334 408
#     4  10  23  43  72 101 129 177 235 276 334 395
#     4  12  27  43  67  99 140 180 222 277 339 401
#
# _framework density 24.535174999999999
#
# number of rings (size 3 to 8) (size 9 to 14) (size 15 to 20)
#    0.000    0.857    2.857    3.429    8.000    1.714 
#    0.000    2.857    0.000    0.000    0.000    0.000 
#    0.000    0.000    0.000    0.000    0.000    0.000 
#
# Total GULP energy -78346.938979 kJ/mol
# GULP energy per Si atom -5596.209927 kJ/mol
# Density = 2.447933 g / cm^3
# Si number density = 24.535175 Si / 1000 Ang^3
#
#
#
# Elastic Constant Matrix: (Units=GPa)
#
#
# Indices 1 2 3 4 5 6 
#
# 1 129.5831 28.2001 46.5441 8.2720 -2.3214 -22.7425
# 2 28.2001 65.3495 25.6984 12.3752 -7.8460 -16.3412
# 3 46.5441 25.6984 120.4974 -8.1184 7.7638 -13.3124
# 4 8.2720 12.3752 -8.1184 42.0411 -1.7171 -10.5558
# 5 -2.3214 -7.8460 7.7638 -1.7171 34.4134 -3.0987
# 6 -22.7425 -16.3412 -13.3124 -10.5558 -3.0987 32.7257
#
#
#
# Elastic Compliance Matrix: (Units=1/GPa)
#
#
# Indices 1 2 3 4 5 6 
#
# 1 0.010135 -0.001573 -0.003200 -0.000883 0.001436 0.004807
# 2 -0.001573 0.020724 -0.003744 -0.004564 0.005849 0.006814
# 3 -0.003200 -0.003744 0.010966 0.004063 -0.003217 0.001374
# 4 -0.000883 -0.004564 0.004063 0.028054 0.000087 0.007817
# 5 0.001436 0.005849 -0.003217 0.000087 0.031727 0.005642
# 6 0.004807 0.006814 0.001374 0.007817 0.005642 0.040914
#
#
# Mechanical properties :
#
#
# Convention : Reuss Voigt Hill
#
# Bulk Modulus (GPa) = 40.33814 57.36834 48.85324
# Shear Modulus (GPa) = 29.79429 36.16852 32.98140
#
# Velocity S-wave (km/s) = 3.48853 3.84363 3.67038
# Velocity P-wave (km/s) = 5.71866 6.56741 6.15768
#
# Compressibility (1/GPa) = 0.02479044
#
# Stress axis : x y z
#
# Youngs Moduli (GPa) = 98.67236 48.25371 91.18961
#
# Poissons Ratio (x) = 0.07592 0.29181
# Poissons Ratio (y) = 0.15524 0.34138
# Poissons Ratio (z) = 0.31576 0.18064
#
# Static dielectric constant tensor:
#      x y z
#    x 1.978680 0.047390 0.008800 
#    y 0.047390 1.945040 0.013340 
#    z 0.008800 0.013340 1.961060 
# 
# From -- ./inp_files/35829.got.cif
#   From: 2010.05.17/outbox.cif.g08.bks.cpg/sg2_18_cif.got.tgz:35829.got - 2010.06.03 11:33:40.
