data_PCOD9041059
_publ_section_title
;
Structure prediction by ZEFSAII (Michael W. Deem and Ramdas Pophale) SiO2 
 PCOD9041059
Probable space group: P -1
;
_chemical_formula_sum "Si O2"
_cell_formula_units_Z 16
_cell_length_a 7.956543
_cell_length_b 14.997062
_cell_length_c 8.756960
_cell_angle_alpha 44.017260
_cell_angle_beta 75.351922
_cell_angle_gamma 96.725122
_cell_volume 629.209699
_symmetry_space_group_name_H-M "P -1"
_symmetry_group_IT_number 2
_symmetry_cell_setting 'triclinic'
loop_
_space_group_symop_operation_xyz
x,y,z
-x,-y,-z
loop_
_atom_site_type_symbol
_atom_site_label
_atom_site_fract_x
_atom_site_fract_y
_atom_site_fract_z
Si Si1 0.641727 0.418949 0.637427
Si Si2 0.741583 0.305456 0.029783
Si Si3 0.748859 0.637284 0.101500
Si Si4 0.849340 0.610170 0.777002
Si Si5 0.836061 0.137690 0.794746
Si Si6 0.948411 0.114323 0.138888
Si Si7 0.636660 0.800432 0.565858
Si Si8 0.555943 0.845342 0.186505
O O1 0.779180 0.555883 0.341499
O O2 0.484006 0.430460 0.772425
O O3 0.497147 0.306926 0.687115
O O4 0.755300 0.356186 0.789440
O O5 0.829507 0.192525 0.151701
O O6 0.520951 0.224964 0.237723
O O7 0.821013 0.455560 0.918621
O O8 0.839132 0.610077 0.962051
O O9 0.851479 0.804191 0.915548
O O10 0.689482 0.667630 0.700420
O O11 0.041520 0.732618 0.504931
O O12 0.622538 0.129989 0.869281
O O13 0.945567 0.149061 0.915055
O O14 0.764856 0.977029 0.942371
O O15 0.830099 0.943599 0.385079
O O16 0.555064 0.827796 0.390915
#
# Coordination Sequence:
#
# PCOD9041059 Si02
#       8
#     2   2   2   2   2   2   2   2
#     4  11  24  44  72  94 139 179 229 275 338 404
#     4  12  25  46  71  98 139 179 227 280 337 401
#     4  11  27  43  67 104 133 181 224 282 336 400
#     4  12  27  44  70 103 139 175 228 282 336 396
#     4  10  24  44  67 102 135 180 222 282 332 406
#     4  11  26  46  69 101 136 179 229 274 337 403
#     4  11  26  45  70 101 140 177 222 281 343 398
#     4  10  23  43  70  96 138 180 225 269 346 399
#
# _framework density 25.428723000000002
#
# number of rings (size 3 to 8) (size 9 to 14) (size 15 to 20)
#    0.000    1.000    2.500    2.250   10.500    4.000 
#    0.000    0.000    0.000    0.000    0.000    0.000 
#    0.000    0.000    0.000    0.000    0.000    0.000 
#
# Total GULP energy -89481.945286 kJ/mol
# GULP energy per Si atom -5592.621580 kJ/mol
# Density = 2.537085 g / cm^3
# Si number density = 25.428723 Si / 1000 Ang^3
#
#
#
# Elastic Constant Matrix: (Units=GPa)
#
#
# Indices 1 2 3 4 5 6 
#
# 1 66.5664 -0.8955 -0.9293 -3.2781 8.7210 -0.5776
# 2 -0.8955 153.0934 36.0244 -18.5866 -5.6315 12.5420
# 3 -0.9293 36.0244 119.2234 2.2673 -14.1774 12.2798
# 4 -3.2781 -18.5866 2.2673 32.2857 1.9872 4.8667
# 5 8.7210 -5.6315 -14.1774 1.9872 33.5343 -3.7154
# 6 -0.5776 12.5420 12.2798 4.8667 -3.7154 32.3707
#
#
#
# Elastic Compliance Matrix: (Units=1/GPa)
#
#
# Indices 1 2 3 4 5 6 
#
# 1 0.015702 0.000353 -0.000500 0.002180 -0.004420 -0.000502
# 2 0.000353 0.007929 -0.002220 0.005238 -0.000347 -0.003051
# 3 -0.000500 -0.002220 0.009758 -0.001924 0.003760 -0.002129
# 4 0.002180 0.005238 -0.001924 0.035610 -0.003387 -0.007003
# 5 -0.004420 -0.000347 0.003760 -0.003387 0.033027 0.002929
# 6 -0.000502 -0.003051 -0.002129 -0.007003 0.002929 0.034262
#
#
# Mechanical properties :
#
#
# Convention : Reuss Voigt Hill
#
# Bulk Modulus (GPa) = 34.89666 45.25357 40.07512
# Shear Modulus (GPa) = 33.20641 39.95039 36.57840
#
# Velocity S-wave (km/s) = 3.61759 3.96798 3.79683
# Velocity P-wave (km/s) = 5.58591 6.23121 5.91736
#
# Compressibility (1/GPa) = 0.02865603
#
# Stress axis : x y z
#
# Youngs Moduli (GPa) = 63.68416 126.11146 102.48467
#
# Poissons Ratio (x) = -0.04447 0.05120
# Poissons Ratio (y) = -0.02246 0.22750
# Poissons Ratio (z) = 0.03181 0.27995
#
# Static dielectric constant tensor:
#      x y z
#    x 2.067340 -0.066190 0.004600 
#    y -0.066190 2.081400 -0.023020 
#    z 0.004600 -0.023020 1.978980 
# 
# From -- ./inp_files/205533.got.cif
#   From: 2010.05.17/outbox.cif.g08.bks.cpg/sg2_103_cif.got.tgz:205533.got - 2010.06.03 11:33:40.
