data_PCOD9041423
_publ_section_title
;
Structure prediction by ZEFSAII (Michael W. Deem and Ramdas Pophale) SiO2 
 PCOD9041423
Probable space group: P -1
;
_chemical_formula_sum "Si O2"
_cell_formula_units_Z 10
_cell_length_a 8.099660
_cell_length_b 11.337569
_cell_length_c 16.876936
_cell_angle_alpha 31.680655
_cell_angle_beta 138.626047
_cell_angle_gamma 114.202875
_cell_volume 404.831246
_symmetry_space_group_name_H-M "P -1"
_symmetry_group_IT_number 2
_symmetry_cell_setting 'triclinic'
loop_
_space_group_symop_operation_xyz
x,y,z
-x,-y,-z
loop_
_atom_site_type_symbol
_atom_site_label
_atom_site_fract_x
_atom_site_fract_y
_atom_site_fract_z
Si Si1 0.795539 0.754345 0.187907
Si Si2 0.872896 0.569805 0.823813
Si Si3 0.623896 0.220467 0.094264
Si Si4 0.829985 0.241658 0.561303
Si Si5 0.408209 0.846890 0.705474
O O1 0.882584 0.449801 0.418455
O O2 0.078889 0.760286 0.313094
O O3 0.641364 0.806951 0.016375
O O4 0.500000 0.000000 0.000000
O O5 0.542281 0.621510 0.662224
O O6 0.763020 0.876482 0.573220
O O7 0.000000 0.500000 0.000000
O O8 0.211821 0.294299 0.061104
O O9 0.752150 0.071597 0.311973
O O10 0.465605 0.560789 0.856119
O O11 0.902459 0.065456 0.214308
#
# Coordination Sequence:
#
# PCOD9041423 Si02
#       5
#     2   2   2   2   2
#     4   9  20  41  71 101 132 185 240 286 330 416
#     4  12  28  46  66 105 143 186 228 295 347 417
#     4  10  24  45  73 103 143 183 232 287 343 428
#     4  10  23  43  74  99 137 186 242 279 343 413
#     4  11  28  44  70 106 147 180 227 287 364 407
#
# _framework density 24.701650999999998
#
# number of rings (size 3 to 8) (size 9 to 14) (size 15 to 20)
#    0.000    1.600    0.000    1.800   16.800    1.600 
#    3.600    2.000    0.000    0.000    0.000    0.000 
#    0.000    0.000    0.000    0.000    0.000    0.000 
#
# Total GULP energy -55918.707845 kJ/mol
# GULP energy per Si atom -5591.870785 kJ/mol
# Density = 2.464543 g / cm^3
# Si number density = 24.701651 Si / 1000 Ang^3
#
#
#
# Elastic Constant Matrix: (Units=GPa)
#
#
# Indices 1 2 3 4 5 6 
#
# 1 82.5904 61.6306 42.5708 16.2985 5.4783 6.7493
# 2 61.6306 185.3133 68.3579 52.1776 -10.4161 0.6734
# 3 42.5708 68.3579 173.1807 10.8614 -11.1358 6.0908
# 4 16.2985 52.1776 10.8614 58.6079 3.5974 6.4898
# 5 5.4783 -10.4161 -11.1358 3.5974 50.3754 13.8404
# 6 6.7493 0.6734 6.0908 6.4898 13.8404 32.5125
#
#
#
# Elastic Compliance Matrix: (Units=1/GPa)
#
#
# Indices 1 2 3 4 5 6 
#
# 1 0.017519 -0.005307 -0.002384 0.000695 -0.003052 -0.001920
# 2 -0.005307 0.010208 -0.002172 -0.007552 0.002238 0.001852
# 3 -0.002384 -0.002172 0.007319 0.001336 0.001851 -0.001886
# 4 0.000695 -0.007552 0.001336 0.023928 -0.001894 -0.004208
# 5 -0.003052 0.002238 0.001851 -0.001894 0.023804 -0.009515
# 6 -0.001920 0.001852 -0.001886 -0.004208 -0.009515 0.036361
#
#
# Mechanical properties :
#
#
# Convention : Reuss Voigt Hill
#
# Bulk Modulus (GPa) = 65.27506 87.35588 76.31547
# Shear Modulus (GPa) = 34.72868 46.20085 40.46476
#
# Velocity S-wave (km/s) = 3.75364 4.32945 4.05179
# Velocity P-wave (km/s) = 6.72823 7.77389 7.26989
#
# Compressibility (1/GPa) = 0.01531979
#
# Stress axis : x y z
#
# Youngs Moduli (GPa) = 57.07973 97.96145 136.62423
#
# Poissons Ratio (x) = 0.51991 0.32571
# Poissons Ratio (y) = 0.30294 0.29679
# Poissons Ratio (z) = 0.13608 0.21280
#
# Static dielectric constant tensor:
#      x y z
#    x 2.062130 0.037570 0.043810 
#    y 0.037570 2.088160 0.028780 
#    z 0.043810 0.028780 2.122380 
# 
# From -- ./inp_files/558314.got.cif
#   From: 2010.05.17/outbox.cif.g08.bks.cpg/sg2_280_cif.got.tgz:558314.got - 2010.06.03 11:33:40.
