data_PCOD9041152
_publ_section_title
;
Structure prediction by ZEFSAII (Michael W. Deem and Ramdas Pophale) SiO2 
 PCOD9041152
Probable space group: P -1
;
_chemical_formula_sum "Si O2"
_cell_formula_units_Z 12
_cell_length_a 13.617741
_cell_length_b 8.782446
_cell_length_c 10.385001
_cell_angle_alpha 49.030705
_cell_angle_beta 147.817457
_cell_angle_gamma 135.532256
_cell_volume 458.937140
_symmetry_space_group_name_H-M "P -1"
_symmetry_group_IT_number 2
_symmetry_cell_setting 'triclinic'
loop_
_space_group_symop_operation_xyz
x,y,z
-x,-y,-z
loop_
_atom_site_type_symbol
_atom_site_label
_atom_site_fract_x
_atom_site_fract_y
_atom_site_fract_z
Si Si1 0.125392 0.820350 0.337512
Si Si2 0.571340 0.612959 0.379090
Si Si3 0.480516 0.733912 0.862276
Si Si4 0.042021 0.480213 0.207426
Si Si5 0.784320 0.017036 0.259412
Si Si6 0.289477 0.234096 0.127981
O O1 0.257690 0.729251 0.621442
O O2 0.080937 0.687181 0.226553
O O3 0.231699 0.073879 0.275018
O O4 0.906435 0.792418 0.157947
O O5 0.500000 0.500000 0.500000
O O6 0.753771 0.560259 0.552115
O O7 0.660324 0.877504 0.321846
O O8 0.392304 0.480813 0.156886
O O9 0.564115 0.833676 0.759682
O O10 0.500000 0.500000 0.000000
O O11 0.635774 0.886490 0.052892
O O12 0.856547 0.275362 0.175646
O O13 0.000000 0.500000 0.000000
O O14 0.000000 0.000000 0.500000
#
# Coordination Sequence:
#
# PCOD9041152 Si02
#       6
#     2   2   2   2   2   2
#     4  11  25  43  71 106 139 190 236 293 359 428
#     4  11  23  44  69 101 144 186 239 298 357 429
#     4  12  22  44  73 100 143 182 235 298 356 425
#     4  11  22  42  71 103 143 189 234 295 362 428
#     4  10  23  43  71 103 140 188 235 293 367 424
#     4  11  24  45  71 104 140 183 249 285 355 435
#
# _framework density 26.147372000000001
#
# number of rings (size 3 to 8) (size 9 to 14) (size 15 to 20)
#    0.000    1.000    3.333    3.500    2.333    4.667 
#    0.000    5.000    0.000    0.000    0.000    0.000 
#    0.000    0.000    0.000    0.000    0.000    0.000 
#
# Total GULP energy -67182.535613 kJ/mol
# GULP energy per Si atom -5598.544634 kJ/mol
# Density = 2.608786 g / cm^3
# Si number density = 26.147372 Si / 1000 Ang^3
#
#
#
# Elastic Constant Matrix: (Units=GPa)
#
#
# Indices 1 2 3 4 5 6 
#
# 1 94.9867 46.9774 6.1332 2.9486 -8.2464 17.5420
# 2 46.9774 160.3193 45.2325 4.6522 9.0612 25.0608
# 3 6.1332 45.2325 156.6075 4.7606 2.4372 -3.3479
# 4 2.9486 4.6522 4.7606 34.9780 -2.5010 3.1732
# 5 -8.2464 9.0612 2.4372 -2.5010 33.5718 -1.9791
# 6 17.5420 25.0608 -3.3479 3.1732 -1.9791 53.5607
#
#
#
# Elastic Compliance Matrix: (Units=1/GPa)
#
#
# Indices 1 2 3 4 5 6 
#
# 1 0.013200 -0.003872 0.000493 -0.000161 0.004103 -0.002320
# 2 -0.003872 0.008720 -0.002366 -0.000474 -0.003348 -0.003056
# 3 0.000493 -0.002366 0.007101 -0.000805 0.000269 0.001447
# 4 -0.000161 -0.000474 -0.000805 0.029063 0.002228 -0.001416
# 5 0.004103 -0.003348 0.000269 0.002228 0.031921 0.001287
# 6 -0.002320 -0.003056 0.001447 -0.001416 0.001287 0.021082
#
#
# Mechanical properties :
#
#
# Convention : Reuss Voigt Hill
#
# Bulk Modulus (GPa) = 57.03941 67.62218 62.33080
# Shear Modulus (GPa) = 38.93458 45.32678 42.13068
#
# Velocity S-wave (km/s) = 3.86300 4.16806 4.01843
# Velocity P-wave (km/s) = 6.46212 7.00584 6.73946
#
# Compressibility (1/GPa) = 0.01753174
#
# Stress axis : x y z
#
# Youngs Moduli (GPa) = 75.75529 114.67667 140.83264
#
# Poissons Ratio (x) = 0.44399 -0.06939
# Poissons Ratio (y) = 0.29330 0.33318
# Poissons Ratio (z) = -0.03733 0.27130
#
# Static dielectric constant tensor:
#      x y z
#    x 2.100520 0.084070 -0.035170 
#    y 0.084070 2.060060 -0.033010 
#    z -0.035170 -0.033010 2.105680 
# 
# From -- ./inp_files/446881.got.cif
#   From: 2010.05.17/outbox.cif.g08.bks.cpg/sg2_224_cif.got.tgz:446881.got - 2010.06.03 11:33:40.
