data_PCOD9041582
_publ_section_title
;
Structure prediction by ZEFSAII (Michael W. Deem and Ramdas Pophale) SiO2 
 PCOD9041582
Probable space group: P -1
;
_chemical_formula_sum "Si O2"
_cell_formula_units_Z 12
_cell_length_a 11.285064
_cell_length_b 8.482597
_cell_length_c 11.214997
_cell_angle_alpha 138.576971
_cell_angle_beta 142.763854
_cell_angle_gamma 55.474068
_cell_volume 428.572749
_symmetry_space_group_name_H-M "P -1"
_symmetry_group_IT_number 2
_symmetry_cell_setting 'triclinic'
loop_
_space_group_symop_operation_xyz
x,y,z
-x,-y,-z
loop_
_atom_site_type_symbol
_atom_site_label
_atom_site_fract_x
_atom_site_fract_y
_atom_site_fract_z
Si Si1 0.648708 0.618436 0.462005
Si Si2 0.363849 0.626672 0.055188
Si Si3 0.155695 0.157521 0.633019
Si Si4 0.286757 0.733758 0.376788
Si Si5 0.088610 0.270405 0.066671
Si Si6 0.182431 0.807430 0.785236
O O1 0.484924 0.622722 0.436074
O O2 0.840303 0.744469 0.748704
O O3 0.696200 0.361271 0.298922
O O4 0.530755 0.754045 0.343897
O O5 0.250014 0.400390 0.902294
O O6 0.224489 0.753915 0.926396
O O7 0.500000 0.500000 0.000000
O O8 0.037759 0.243178 0.470931
O O9 0.312026 0.976517 0.611328
O O10 0.000000 0.000000 0.500000
O O11 0.155686 0.541645 0.240280
O O12 0.141277 0.782357 0.176639
O O13 0.199158 0.095992 0.966944
#
# Coordination Sequence:
#
# PCOD9041582 Si02
#       6
#     2   2   2   2   2   2
#     4  11  24  41  72  99 143 190 233 293 350 424
#     4  10  25  46  68 106 146 187 237 289 362 427
#     4  11  24  46  79 102 143 191 241 293 355 424
#     4  10  24  43  67 109 142 180 240 304 344 421
#     4  10  23  44  65 102 147 176 244 289 361 415
#     4  10  24  46  70 101 142 192 232 292 358 425
#
# _framework density 27.999914
#
# number of rings (size 3 to 8) (size 9 to 14) (size 15 to 20)
#    0.000    1.667    0.000    2.000   14.000    1.333 
#    3.000    1.667    0.000    0.000    0.000    0.000 
#    0.000    0.000    0.000    0.000    0.000    0.000 
#
# Total GULP energy -67101.488961 kJ/mol
# GULP energy per Si atom -5591.790747 kJ/mol
# Density = 2.793618 g / cm^3
# Si number density = 27.999914 Si / 1000 Ang^3
#
#
#
# Elastic Constant Matrix: (Units=GPa)
#
#
# Indices 1 2 3 4 5 6 
#
# 1 101.5574 45.6635 20.1067 7.5215 0.6795 -33.1902
# 2 45.6635 131.1096 69.5476 7.8530 -13.6445 -27.8056
# 3 20.1067 69.5476 133.5670 -9.9241 -28.8420 -2.9850
# 4 7.5215 7.8530 -9.9241 72.4163 -6.7353 -16.2991
# 5 0.6795 -13.6445 -28.8420 -6.7353 48.4414 7.8350
# 6 -33.1902 -27.8056 -2.9850 -16.2991 7.8350 58.6917
#
#
#
# Elastic Compliance Matrix: (Units=1/GPa)
#
#
# Indices 1 2 3 4 5 6 
#
# 1 0.013577 -0.003212 -0.000785 0.000046 -0.002604 0.006476
# 2 -0.003212 0.012953 -0.006467 -0.001192 -0.000935 0.003785
# 3 -0.000785 -0.006467 0.012474 0.002402 0.006447 -0.003067
# 4 0.000046 -0.001192 0.002402 0.015292 0.002658 0.003475
# 5 -0.002604 -0.000935 0.006447 0.002658 0.025308 -0.004228
# 6 0.006476 0.003785 -0.003067 0.003475 -0.004228 0.023867
#
#
# Mechanical properties :
#
#
# Convention : Reuss Voigt Hill
#
# Bulk Modulus (GPa) = 55.32364 70.76329 63.04346
# Shear Modulus (GPa) = 38.33560 51.30429 44.81995
#
# Velocity S-wave (km/s) = 3.70419 4.28518 4.00524
# Velocity P-wave (km/s) = 6.17221 7.05771 6.62976
#
# Compressibility (1/GPa) = 0.01807546
#
# Stress axis : x y z
#
# Youngs Moduli (GPa) = 73.65337 77.20045 80.16419
#
# Poissons Ratio (x) = 0.24800 0.06295
# Poissons Ratio (y) = 0.23660 0.51842
# Poissons Ratio (z) = 0.05784 0.49925
#
# Static dielectric constant tensor:
#      x y z
#    x 2.234070 0.053680 -0.044850 
#    y 0.053680 2.218310 -0.079470 
#    z -0.044850 -0.079470 2.179330 
# 
# From -- ./inp_files/415993.got.cif
#   From: 2010.05.17/outbox.cif.g08.bks.cpg/sg2_208_cif.got.tgz:415993.got - 2010.06.03 11:33:40.
