data_PCOD9041915
_publ_section_title
;
Structure prediction by ZEFSAII (Michael W. Deem and Ramdas Pophale) SiO2 
 PCOD9041915
Probable space group: P -1
;
_chemical_formula_sum "Si O2"
_cell_formula_units_Z 15
_cell_length_a 17.451720
_cell_length_b 5.241094
_cell_length_c 7.542925
_cell_angle_alpha 84.858328
_cell_angle_beta 116.362180
_cell_angle_gamma 65.074481
_cell_volume 527.075101
_symmetry_space_group_name_H-M "P -1"
_symmetry_group_IT_number 2
_symmetry_cell_setting 'triclinic'
loop_
_space_group_symop_operation_xyz
x,y,z
-x,-y,-z
loop_
_atom_site_type_symbol
_atom_site_label
_atom_site_fract_x
_atom_site_fract_y
_atom_site_fract_z
Si Si1 0.456476 0.130763 0.686703
Si Si2 0.976896 0.771516 0.092571
Si Si3 0.624476 0.516416 0.078040
Si Si4 0.747724 0.806553 0.515951
Si Si5 0.000000 0.500000 0.500000
Si Si6 0.792086 0.612023 0.176477
Si Si7 0.626018 0.168748 0.789780
Si Si8 0.221691 0.770163 0.246312
O O1 0.397800 0.417179 0.741867
O O2 0.368755 0.062643 0.566144
O O3 0.525187 0.189749 0.621144
O O4 0.546331 0.839538 0.894283
O O5 0.022831 0.638604 0.338887
O O6 0.000000 0.500000 0.000000
O O7 0.860044 0.016515 0.992278
O O8 0.000000 0.000000 0.000000
O O9 0.739488 0.417956 0.165045
O O10 0.602510 0.298345 0.958186
O O11 0.763089 0.787354 0.323707
O O12 0.795210 0.483942 0.677964
O O13 0.788432 0.004873 0.623645
O O14 0.909851 0.479236 0.293642
O O15 0.722383 0.833366 0.933507
O O16 0.669880 0.344299 0.719409
#
# Coordination Sequence:
#
# PCOD9041915 Si02
#       8
#     2   2   2   2   1   2   2   2
#     4   9  21  40  66 100 134 191 242 287 361 443
#     4  12  28  53  80 114 159 203 261 324 388 462
#     4   9  20  39  67  98 140 181 239 306 358 426
#     4  11  27  46  72 101 148 193 239 296 375 444
#     4  12  24  50  80 110 150 206 262 308 404 464
#     4  10  23  44  68 104 133 188 248 302 362 458
#     4  11  23  40  72  96 146 179 241 306 358 433
#     4  12  27  47  68 106 152 186 232 316 371 431
#
# _framework density 28.458940999999999
#
# number of rings (size 3 to 8) (size 9 to 14) (size 15 to 20)
#    0.000    1.333    1.333    3.600    9.333    2.667 
#    2.400    0.000    0.000    0.000    0.000    0.000 
#    0.000    0.000    0.000    0.000    0.000    0.000 
#
# Total GULP energy -83719.883832 kJ/mol
# GULP energy per Si atom -5581.325589 kJ/mol
# Density = 2.839417 g / cm^3
# Si number density = 28.458941 Si / 1000 Ang^3
#
#
#
# Elastic Constant Matrix: (Units=GPa)
#
#
# Indices 1 2 3 4 5 6 
#
# 1 140.5158 16.5776 21.9661 -19.2425 15.9792 8.0558
# 2 16.5776 121.2083 39.6212 1.3284 -12.7925 22.0180
# 3 21.9661 39.6212 128.1836 -24.0124 1.5874 3.1879
# 4 -19.2425 1.3284 -24.0124 44.9872 1.9686 -6.4331
# 5 15.9792 -12.7925 1.5874 1.9686 71.8739 2.2044
# 6 8.0558 22.0180 3.1879 -6.4331 2.2044 43.8045
#
#
#
# Elastic Compliance Matrix: (Units=1/GPa)
#
#
# Indices 1 2 3 4 5 6 
#
# 1 0.008018 -0.001191 -0.000350 0.003332 -0.002070 -0.000257
# 2 -0.001191 0.011010 -0.003800 -0.003794 0.002588 -0.005726
# 3 -0.000350 -0.003800 0.010060 0.005682 -0.001042 0.002129
# 4 0.003332 -0.003794 0.005682 0.027630 -0.002454 0.005062
# 5 -0.002070 0.002588 -0.001042 -0.002454 0.014984 -0.001959
# 6 -0.000257 -0.005726 0.002129 0.005062 -0.001959 0.026441
#
#
# Mechanical properties :
#
#
# Convention : Reuss Voigt Hill
#
# Bulk Modulus (GPa) = 54.32332 60.69306 57.50819
# Shear Modulus (GPa) = 43.49342 52.91598 48.20470
#
# Velocity S-wave (km/s) = 3.91357 4.31673 4.12009
# Velocity P-wave (km/s) = 6.28897 6.79841 6.54865
#
# Compressibility (1/GPa) = 0.01840830
#
# Stress axis : x y z
#
# Youngs Moduli (GPa) = 124.71591 90.82665 99.40270
#
# Poissons Ratio (x) = 0.10814 0.03478
# Poissons Ratio (y) = 0.14848 0.37769
# Poissons Ratio (z) = 0.04363 0.34510
#
# Static dielectric constant tensor:
#      x y z
#    x 2.098550 0.103260 0.037830 
#    y 0.103260 2.170870 0.008080 
#    z 0.037830 0.008080 2.217750 
# 
# From -- ./inp_files/322532.got.cif
#   From: 2010.05.17/outbox.cif.g08.bks.cpg/sg2_162_cif.got.tgz:322532.got - 2010.06.03 11:33:40.
