data_PCOD9041824
_publ_section_title
;
Structure prediction by ZEFSAII (Michael W. Deem and Ramdas Pophale) SiO2 
 PCOD9041824
Probable space group: P -1
;
_chemical_formula_sum "Si O2"
_cell_formula_units_Z 16
_cell_length_a 14.042726
_cell_length_b 5.046155
_cell_length_c 17.287823
_cell_angle_alpha 79.653403
_cell_angle_beta 138.886293
_cell_angle_gamma 118.017040
_cell_volume 678.320151
_symmetry_space_group_name_H-M "P -1"
_symmetry_group_IT_number 2
_symmetry_cell_setting 'triclinic'
loop_
_space_group_symop_operation_xyz
x,y,z
-x,-y,-z
loop_
_atom_site_type_symbol
_atom_site_label
_atom_site_fract_x
_atom_site_fract_y
_atom_site_fract_z
Si Si1 0.082949 0.825001 0.291762
Si Si2 0.505501 0.291346 0.175913
Si Si3 0.980959 0.743666 0.062993
Si Si4 0.943771 0.133448 0.301667
Si Si5 0.377979 0.167516 0.557557
Si Si6 0.556937 0.870269 0.111321
Si Si7 0.235594 0.477653 0.560393
Si Si8 0.712259 0.246101 0.823807
O O1 0.017352 0.859924 0.166798
O O2 0.026617 0.461113 0.286778
O O3 0.284172 0.056820 0.422272
O O4 0.988153 0.904894 0.295508
O O5 0.456055 0.494000 0.081736
O O6 0.682817 0.545793 0.310077
O O7 0.535911 0.042721 0.163336
O O8 0.381651 0.107943 0.181105
O O9 0.130017 0.675403 0.137734
O O10 0.798873 0.451080 0.943450
O O11 0.000000 0.000000 0.000000
O O12 0.041435 0.240323 0.437298
O O13 0.748483 0.986269 0.201753
O O14 0.331484 0.408492 0.553810
O O15 0.573428 0.284640 0.689305
O O16 0.279240 0.834818 0.560790
O O17 0.500000 0.000000 0.000000
#
# Coordination Sequence:
#
# PCOD9041824 Si02
#       8
#     2   2   2   2   2   2   2   2
#     4  10  23  44  70  95 132 182 211 271 340 377
#     4  11  24  43  69  93 131 177 216 275 332 377
#     4  11  27  42  67 101 131 177 226 265 337 403
#     4  10  23  44  67  95 137 167 218 279 314 395
#     4   9  19  40  67  96 129 168 222 268 327 392
#     4  12  27  42  62 102 133 179 226 257 324 400
#     4   9  19  39  67  97 122 169 222 266 331 380
#     4  10  25  44  66  99 134 169 222 283 321 400
#
# _framework density 23.587682000000001
#
# number of rings (size 3 to 8) (size 9 to 14) (size 15 to 20)
#    0.000    1.750    0.000    2.625   10.500    1.500 
#    0.000    0.625    0.000    0.000    0.000    0.000 
#    0.000    0.000    0.000    0.000    0.000    0.000 
#
# Total GULP energy -89420.277032 kJ/mol
# GULP energy per Si atom -5588.767314 kJ/mol
# Density = 2.353400 g / cm^3
# Si number density = 23.587682 Si / 1000 Ang^3
#
#
#
# Elastic Constant Matrix: (Units=GPa)
#
#
# Indices 1 2 3 4 5 6 
#
# 1 50.6681 6.1166 30.5145 8.9078 9.1963 -11.1338
# 2 6.1166 78.7286 33.0840 -13.6968 5.5390 -9.5408
# 3 30.5145 33.0840 141.7351 12.7874 2.3483 19.4404
# 4 8.9078 -13.6968 12.7874 27.0357 4.4294 -2.3727
# 5 9.1963 5.5390 2.3483 4.4294 35.6894 -2.7659
# 6 -11.1338 -9.5408 19.4404 -2.3727 -2.7659 26.8574
#
#
#
# Elastic Compliance Matrix: (Units=1/GPa)
#
#
# Indices 1 2 3 4 5 6 
#
# 1 0.031922 0.005606 -0.011258 0.000739 -0.006683 0.022750
# 2 0.005606 0.022120 -0.010354 0.016683 -0.004821 0.018654
# 3 -0.011258 -0.010354 0.015645 -0.011261 0.003301 -0.020324
# 4 0.000739 0.016683 -0.011261 0.053318 -0.007234 0.018349
# 5 -0.006683 -0.004821 0.003301 -0.007234 0.030834 -0.004336
# 6 0.022750 0.018654 -0.020324 0.018349 -0.004336 0.069177
#
#
# Mechanical properties :
#
#
# Convention : Reuss Voigt Hill
#
# Bulk Modulus (GPa) = 26.54231 45.61802 36.08017
# Shear Modulus (GPa) = 18.68563 31.34427 25.01495
#
# Velocity S-wave (km/s) = 2.81762 3.64928 3.26008
# Velocity P-wave (km/s) = 4.67572 6.09410 5.43141
#
# Compressibility (1/GPa) = 0.03767569
#
# Stress axis : x y z
#
# Youngs Moduli (GPa) = 31.32683 45.20870 63.91866
#
# Poissons Ratio (x) = -0.25346 0.71957
# Poissons Ratio (y) = -0.17563 0.66182
# Poissons Ratio (z) = 0.35266 0.46810
#
# Static dielectric constant tensor:
#      x y z
#    x 1.880620 -0.015340 0.003110 
#    y -0.015340 1.946730 0.012200 
#    z 0.003110 0.012200 1.972860 
# 
# From -- ./inp_files/434042.got.cif
#   From: 2010.05.17/outbox.cif.g08.bks.cpg/sg2_218_cif.got.tgz:434042.got - 2010.06.03 11:33:40.
