data_PCOD9041303
_publ_section_title
;
Structure prediction by ZEFSAII (Michael W. Deem and Ramdas Pophale) SiO2 
 PCOD9041303
Probable space group: P -1
;
_chemical_formula_sum "Si O2"
_cell_formula_units_Z 14
_cell_length_a 8.042032
_cell_length_b 12.319655
_cell_length_c 8.287575
_cell_angle_alpha 52.878658
_cell_angle_beta 94.756855
_cell_angle_gamma 111.039415
_cell_volume 601.110734
_symmetry_space_group_name_H-M "P -1"
_symmetry_group_IT_number 2
_symmetry_cell_setting 'triclinic'
loop_
_space_group_symop_operation_xyz
x,y,z
-x,-y,-z
loop_
_atom_site_type_symbol
_atom_site_label
_atom_site_fract_x
_atom_site_fract_y
_atom_site_fract_z
Si Si1 0.806304 0.099324 0.324093
Si Si2 0.769195 0.810573 0.699310
Si Si3 0.479567 0.546933 0.774120
Si Si4 0.297790 0.270866 0.858779
Si Si5 0.141542 0.616256 0.785279
Si Si6 0.988272 0.337603 0.595918
Si Si7 0.289438 0.962719 0.001236
O O1 0.751223 0.234944 0.239722
O O2 0.018417 0.149602 0.338394
O O3 0.717100 0.952602 0.553498
O O4 0.775648 0.061176 0.167787
O O5 0.650975 0.701310 0.647813
O O6 0.741950 0.753811 0.931342
O O7 0.476087 0.424581 0.752626
O O8 0.288250 0.567042 0.751499
O O9 0.500000 0.500000 0.000000
O O10 0.158132 0.314816 0.705793
O O11 0.276334 0.111684 0.934809
O O12 0.030441 0.657467 0.601116
O O13 0.000000 0.500000 0.000000
O O14 0.821374 0.191614 0.777782
O O15 0.000000 0.500000 0.500000
O O16 0.500000 0.000000 0.000000
#
# Coordination Sequence:
#
# PCOD9041303 Si02
#       7
#     2   2   2   2   2   2   2
#     4  11  25  43  70 104 141 185 234 293 351 430
#     4  10  23  45  71 102 139 188 239 281 362 425
#     4  10  23  43  72  99 138 187 235 289 354 420
#     4  11  23  49  71 100 142 194 231 290 358 423
#     4  12  25  44  70 104 139 183 241 293 350 425
#     4  12  25  48  74 104 146 191 236 292 364 423
#     4  12  29  47  72 109 147 185 240 297 359 425
#
# _framework density 23.290216999999998
#
# number of rings (size 3 to 8) (size 9 to 14) (size 15 to 20)
#    0.000    0.857    2.857    3.857   10.000    0.571 
#    2.571    1.429    0.000    0.000    0.000    0.000 
#    0.000    0.000    0.000    0.000    0.000    0.000 
#
# Total GULP energy -78167.202193 kJ/mol
# GULP energy per Si atom -5583.371585 kJ/mol
# Density = 2.323721 g / cm^3
# Si number density = 23.290217 Si / 1000 Ang^3
#
#
#
# Elastic Constant Matrix: (Units=GPa)
#
#
# Indices 1 2 3 4 5 6 
#
# 1 59.5381 45.6971 35.7604 -9.1589 15.0200 15.7146
# 2 45.6971 207.4582 58.1510 -17.3269 12.5215 1.3803
# 3 35.7604 58.1510 153.6667 1.2296 20.1194 8.1254
# 4 -9.1589 -17.3269 1.2296 36.8208 -11.4739 7.3937
# 5 15.0200 12.5215 20.1194 -11.4739 16.1063 -5.6658
# 6 15.7146 1.3803 8.1254 7.3937 -5.6658 41.7980
#
#
#
# Elastic Compliance Matrix: (Units=1/GPa)
#
#
# Indices 1 2 3 4 5 6 
#
# 1 0.033902 -0.005250 -0.000633 -0.001053 -0.033398 -0.016790
# 2 -0.005250 0.006471 -0.002095 0.003041 0.005483 0.002373
# 3 -0.000633 -0.002095 0.009517 -0.005453 -0.014446 -0.002536
# 4 -0.001053 0.003041 -0.005453 0.038947 0.032792 -0.001089
# 5 -0.033398 0.005483 -0.014446 0.032792 0.140370 0.028411
# 6 -0.016790 0.002373 -0.002536 -0.001089 0.028411 0.034696
#
#
# Mechanical properties :
#
#
# Convention : Reuss Voigt Hill
#
# Bulk Modulus (GPa) = 29.47038 77.76443 53.61740
# Shear Modulus (GPa) = 17.17208 37.68198 27.42703
#
# Velocity S-wave (km/s) = 2.71829 4.02672 3.43537
# Velocity P-wave (km/s) = 4.74691 7.42166 6.22953
#
# Compressibility (1/GPa) = 0.03393237
#
# Stress axis : x y z
#
# Youngs Moduli (GPa) = 29.49722 154.53121 105.07672
#
# Poissons Ratio (x) = 0.81135 0.06656
# Poissons Ratio (y) = 0.15487 0.22011
# Poissons Ratio (z) = 0.01869 0.32370
#
# Static dielectric constant tensor:
#      x y z
#    x 1.961830 0.012020 -0.021680 
#    y 0.012020 2.108680 -0.171360 
#    z -0.021680 -0.171360 1.910430 
# 
# From -- ./inp_files/184460.got.cif
#   From: 2010.05.17/outbox.cif.g08.bks.cpg/sg2_93_cif.got.tgz:184460.got - 2010.06.03 11:33:40.
