data_PCOD9041369
_publ_section_title
;
Structure prediction by ZEFSAII (Michael W. Deem and Ramdas Pophale) SiO2 
 PCOD9041369
Probable space group: P -1
;
_chemical_formula_sum "Si O2"
_cell_formula_units_Z 16
_cell_length_a 8.567787
_cell_length_b 12.049209
_cell_length_c 19.846852
_cell_angle_alpha 43.218019
_cell_angle_beta 27.089322
_cell_angle_gamma 54.411624
_cell_volume 624.057407
_symmetry_space_group_name_H-M "P -1"
_symmetry_group_IT_number 2
_symmetry_cell_setting 'triclinic'
loop_
_space_group_symop_operation_xyz
x,y,z
-x,-y,-z
loop_
_atom_site_type_symbol
_atom_site_label
_atom_site_fract_x
_atom_site_fract_y
_atom_site_fract_z
Si Si1 0.801402 0.500491 0.829462
Si Si2 0.377500 0.582280 0.287162
Si Si3 0.883736 0.246662 0.309955
Si Si4 0.283748 0.971728 0.323408
Si Si5 0.388918 0.301127 0.315053
Si Si6 0.460537 0.231751 0.996513
Si Si7 0.345914 0.002684 0.693334
Si Si8 0.670477 0.923950 0.076828
O O1 0.704080 0.597739 0.758515
O O2 0.766902 0.317137 0.893989
O O3 0.126905 0.599201 0.704178
O O4 0.500000 0.500000 0.000000
O O5 0.508066 0.423239 0.277916
O O6 0.397424 0.693375 0.162510
O O7 0.589525 0.724448 0.190990
O O8 0.000000 0.500000 0.500000
O O9 0.500991 0.123971 0.518216
O O10 0.150188 0.140154 0.288629
O O11 0.108311 0.282696 0.138518
O O12 0.632944 0.964641 0.151570
O O13 0.978622 0.827601 0.474478
O O14 0.364963 0.951007 0.378905
O O15 0.650077 0.185221 0.245399
O O16 0.390227 0.032733 0.110399
O O17 0.990939 0.998044 0.871683
#
# Coordination Sequence:
#
# PCOD9041369 Si02
#       8
#     2   2   2   2   2   2   2   2
#     4   9  15  29  55  81 108 137 194 226 265 320
#     4  11  22  40  65  78 107 149 202 235 265 337
#     4   9  16  32  58  85 110 147 185 229 271 334
#     4  10  17  33  57  85 113 146 187 220 274 337
#     4  10  18  34  60  83 103 149 195 228 268 327
#     4   9  21  36  60  82 105 148 198 228 272 335
#     4  11  20  33  59  87 122 141 180 235 290 332
#     4  11  23  37  54  87 119 151 179 232 290 328
#
# _framework density 25.638667000000002
#
# number of rings (size 3 to 8) (size 9 to 14) (size 15 to 20)
#    0.000    2.000    3.750    1.500    0.000    0.500 
#    0.000    1.250    8.250    0.000    0.000    0.000 
#    0.000    0.000    0.000    0.000    0.000    0.000 
#
# Total GULP energy -89208.336083 kJ/mol
# GULP energy per Si atom -5575.521005 kJ/mol
# Density = 2.558031 g / cm^3
# Si number density = 25.638667 Si / 1000 Ang^3
#
#
#
# Elastic Constant Matrix: (Units=GPa)
#
#
# Indices 1 2 3 4 5 6 
#
# 1 44.4313 19.4572 23.7354 3.5663 5.2587 16.2622
# 2 19.4572 137.7594 30.7869 0.4580 1.4913 17.8252
# 3 23.7354 30.7869 143.5117 12.8940 28.8225 -4.6751
# 4 3.5663 0.4580 12.8940 51.0446 3.9152 7.8940
# 5 5.2587 1.4913 28.8225 3.9152 34.2806 0.0720
# 6 16.2622 17.8252 -4.6751 7.8940 0.0720 24.8533
#
#
#
# Elastic Compliance Matrix: (Units=1/GPa)
#
#
# Indices 1 2 3 4 5 6 
#
# 1 0.035260 -0.000176 -0.006925 0.003185 0.000111 -0.025260
# 2 -0.000176 0.008755 -0.002548 0.001557 0.001626 -0.007143
# 3 -0.006925 -0.002548 0.010757 -0.003083 -0.007538 0.009384
# 4 0.003185 0.001557 -0.003083 0.021823 -0.000434 -0.010712
# 5 0.000111 0.001626 -0.007538 -0.000434 0.035477 -0.002621
# 6 -0.025260 -0.007143 0.009384 -0.010712 -0.002621 0.067062
#
#
# Mechanical properties :
#
#
# Convention : Reuss Voigt Hill
#
# Bulk Modulus (GPa) = 28.19034 52.62904 40.40969
# Shear Modulus (GPa) = 23.78058 38.81724 31.29891
#
# Velocity S-wave (km/s) = 3.04884 3.89525 3.49774
# Velocity P-wave (km/s) = 4.83870 6.38768 5.66637
#
# Compressibility (1/GPa) = 0.03547315
#
# Stress axis : x y z
#
# Youngs Moduli (GPa) = 28.36096 114.22339 92.96440
#
# Poissons Ratio (x) = 0.02007 0.64380
# Poissons Ratio (y) = 0.00498 0.23689
# Poissons Ratio (z) = 0.19641 0.29106
#
# Static dielectric constant tensor:
#      x y z
#    x 2.174010 0.034710 -0.057190 
#    y 0.034710 2.051080 -0.076220 
#    z -0.057190 -0.076220 2.073380 
# 
# From -- ./inp_files/254595.got.cif
#   From: 2010.05.17/outbox.cif.g08.bks.cpg/sg2_128_cif.got.tgz:254595.got - 2010.06.03 11:33:40.
