data_PCOD9041312
_publ_section_title
;
Structure prediction by ZEFSAII (Michael W. Deem and Ramdas Pophale) SiO2 
 PCOD9041312
Probable space group: P -1
;
_chemical_formula_sum "Si O2"
_cell_formula_units_Z 16
_cell_length_a 15.039224
_cell_length_b 9.581651
_cell_length_c 8.441225
_cell_angle_alpha 70.886201
_cell_angle_beta 140.411620
_cell_angle_gamma 96.847760
_cell_volume 714.307382
_symmetry_space_group_name_H-M "P -1"
_symmetry_group_IT_number 2
_symmetry_cell_setting 'triclinic'
loop_
_space_group_symop_operation_xyz
x,y,z
-x,-y,-z
loop_
_atom_site_type_symbol
_atom_site_label
_atom_site_fract_x
_atom_site_fract_y
_atom_site_fract_z
Si Si1 0.744832 0.304154 0.888377
Si Si2 0.409645 0.872194 0.453347
Si Si3 0.624024 0.761369 0.307569
Si Si4 0.367937 0.379307 0.281714
Si Si5 0.057538 0.358013 0.744153
Si Si6 0.672109 0.093853 0.311767
Si Si7 0.942620 0.147080 0.468702
Si Si8 0.133524 0.526759 0.277845
O O1 0.691770 0.153800 0.822783
O O2 0.636455 0.443274 0.771349
O O3 0.784706 0.375048 0.754429
O O4 0.877686 0.269326 0.200776
O O5 0.521749 0.709638 0.661082
O O6 0.332137 0.899549 0.505442
O O7 0.500000 0.000000 0.500000
O O8 0.603957 0.707242 0.479511
O O9 0.753581 0.629598 0.467974
O O10 0.667868 0.922854 0.317956
O O11 0.473856 0.795375 0.994710
O O12 0.209617 0.365024 0.020761
O O13 0.000000 0.500000 0.500000
O O14 0.060383 0.204813 0.709910
O O15 0.938079 0.377855 0.708100
O O16 0.811106 0.132013 0.407252
O O17 0.000000 0.000000 0.500000
O O18 0.000000 0.500000 0.000000
#
# Coordination Sequence:
#
# PCOD9041312 Si02
#       8
#     2   2   2   2   2   2   2   2
#     4  11  25  48  69 102 141 189 243 292 360 426
#     4  12  26  45  70 105 143 187 239 294 359 429
#     4  10  23  43  73 100 140 188 233 293 356 421
#     4  11  23  46  72  99 140 191 231 298 353 424
#     4  12  25  45  70 109 140 183 248 287 363 429
#     4  11  26  44  68 106 144 182 244 289 364 430
#     4  12  29  45  72 104 147 187 234 307 357 426
#     4  11  22  45  75 103 142 187 244 293 354 422
#
# _framework density 22.399318999999998
#
# number of rings (size 3 to 8) (size 9 to 14) (size 15 to 20)
#    0.000    0.750    5.000    1.875    8.750    1.000 
#    0.000    5.625    0.000    0.000    0.000    0.000 
#    0.000    0.000    0.000    0.000    0.000    0.000 
#
# Total GULP energy -89493.009802 kJ/mol
# GULP energy per Si atom -5593.313113 kJ/mol
# Density = 2.234834 g / cm^3
# Si number density = 22.399319 Si / 1000 Ang^3
#
#
#
# Elastic Constant Matrix: (Units=GPa)
#
#
# Indices 1 2 3 4 5 6 
#
# 1 85.5955 24.9033 11.6543 8.9296 4.7033 -19.6921
# 2 24.9033 113.1034 23.9315 22.5451 -3.0681 -11.8338
# 3 11.6543 23.9315 78.8029 8.0295 1.7105 4.6562
# 4 8.9296 22.5451 8.0295 40.6036 -0.8678 3.5713
# 5 4.7033 -3.0681 1.7105 -0.8678 29.4320 -1.4600
# 6 -19.6921 -11.8338 4.6562 3.5713 -1.4600 36.3204
#
#
#
# Elastic Compliance Matrix: (Units=1/GPa)
#
#
# Indices 1 2 3 4 5 6 
#
# 1 0.014573 -0.001512 -0.001835 -0.002735 -0.002072 0.007829
# 2 -0.001512 0.011382 -0.002915 -0.005718 0.001622 0.003890
# 3 -0.001835 -0.002915 0.014138 -0.000466 -0.001032 -0.003753
# 4 -0.002735 -0.005718 -0.000466 0.029045 0.000421 -0.006125
# 5 -0.002072 0.001622 -0.001032 0.000421 0.034593 0.000887
# 6 0.007829 0.003890 -0.003753 -0.006125 0.000887 0.034164
#
#
# Mechanical properties :
#
#
# Convention : Reuss Voigt Hill
#
# Bulk Modulus (GPa) = 36.27347 44.27555 40.27451
# Shear Modulus (GPa) = 31.32637 35.73873 33.53255
#
# Velocity S-wave (km/s) = 3.74376 3.99874 3.87335
# Velocity P-wave (km/s) = 5.90905 6.41321 6.16628
#
# Compressibility (1/GPa) = 0.02756836
#
# Stress axis : x y z
#
# Youngs Moduli (GPa) = 68.61945 87.85727 70.73037
#
# Poissons Ratio (x) = 0.13287 0.12978
# Poissons Ratio (y) = 0.10377 0.20620
# Poissons Ratio (z) = 0.12591 0.25613
#
# Static dielectric constant tensor:
#      x y z
#    x 1.822750 -0.015330 0.034640 
#    y -0.015330 1.855820 -0.003760 
#    z 0.034640 -0.003760 1.862060 
# 
# From -- ./inp_files/298032.got.cif
#   From: 2010.05.17/outbox.cif.g08.bks.cpg/sg2_150_cif.got.tgz:298032.got - 2010.06.03 11:33:40.
