data_PCOD9041499
_publ_section_title
;
Structure prediction by ZEFSAII (Michael W. Deem and Ramdas Pophale) SiO2 
 PCOD9041499
Probable space group: P -1
;
_chemical_formula_sum "Si O2"
_cell_formula_units_Z 14
_cell_length_a 8.576027
_cell_length_b 13.976319
_cell_length_c 6.960347
_cell_angle_alpha 122.561112
_cell_angle_beta 100.323984
_cell_angle_gamma 102.386513
_cell_volume 641.271587
_symmetry_space_group_name_H-M "P -1"
_symmetry_group_IT_number 2
_symmetry_cell_setting 'triclinic'
loop_
_space_group_symop_operation_xyz
x,y,z
-x,-y,-z
loop_
_atom_site_type_symbol
_atom_site_label
_atom_site_fract_x
_atom_site_fract_y
_atom_site_fract_z
Si Si1 0.208655 0.135794 0.530146
Si Si2 0.356839 0.869037 0.773736
Si Si3 0.869833 0.294810 0.114591
Si Si4 0.516827 0.320157 0.629461
Si Si5 0.154543 0.500665 0.901042
Si Si6 0.133073 0.881411 0.391241
Si Si7 0.819529 0.696617 0.573005
O O1 0.394650 0.243485 0.694636
O O2 0.147425 0.164749 0.338376
O O3 0.066090 0.140634 0.652282
O O4 0.217184 0.004552 0.418521
O O5 0.256364 0.792204 0.851086
O O6 0.429862 0.778280 0.580244
O O7 0.223911 0.894918 0.629955
O O8 0.500000 0.000000 0.000000
O O9 0.844847 0.420181 0.203528
O O10 0.060795 0.313665 0.243968
O O11 0.840021 0.227396 0.831820
O O12 0.385420 0.359468 0.514619
O O13 0.673785 0.432123 0.868309
O O14 0.135784 0.369344 0.673708
O O15 0.000000 0.500000 0.000000
#
# Coordination Sequence:
#
# PCOD9041499 Si02
#       7
#     2   2   2   2   2   2   2
#     4   9  22  41  69  95 140 175 226 273 349 391
#     4  12  25  41  68 105 139 177 227 274 339 419
#     4  12  25  44  72  97 138 177 232 276 340 404
#     4  10  23  44  67 100 140 173 226 282 336 395
#     4  12  24  45  74  95 136 184 229 281 341 394
#     4  11  22  44  68  99 138 184 217 281 343 406
#     4  10  23  44  63 102 131 176 233 275 327 404
#
# _framework density 21.831621999999999
#
# number of rings (size 3 to 8) (size 9 to 14) (size 15 to 20)
#    0.857    0.286    2.857    3.429    2.000    4.000 
#    0.000    1.429    0.000    0.000    0.000    0.000 
#    0.000    0.000    0.000    0.000    0.000    0.000 
#
# Total GULP energy -78149.299248 kJ/mol
# GULP energy per Si atom -5582.092803 kJ/mol
# Density = 2.178193 g / cm^3
# Si number density = 21.831622 Si / 1000 Ang^3
#
#
#
# Elastic Constant Matrix: (Units=GPa)
#
#
# Indices 1 2 3 4 5 6 
#
# 1 91.9784 10.9768 18.6356 -5.0339 17.3202 14.0703
# 2 10.9768 87.7075 11.9518 -1.3593 14.3780 -1.8823
# 3 18.6356 11.9518 66.3171 -1.0027 13.9328 9.0986
# 4 -5.0339 -1.3593 -1.0027 18.2392 -4.8851 2.9614
# 5 17.3202 14.3780 13.9328 -4.8851 30.6550 8.4483
# 6 14.0703 -1.8823 9.0986 2.9614 8.4483 31.4258
#
#
#
# Elastic Compliance Matrix: (Units=1/GPa)
#
#
# Indices 1 2 3 4 5 6 
#
# 1 0.013023 -0.000679 -0.001951 0.002949 -0.004475 -0.004381
# 2 -0.000679 0.012710 -0.001278 -0.001472 -0.006118 0.003219
# 3 -0.001951 -0.001278 0.017385 -0.000741 -0.005583 -0.002666
# 4 0.002949 -0.001472 -0.000741 0.060259 0.011726 -0.010025
# 5 -0.004475 -0.006118 -0.005583 0.011726 0.045181 -0.009997
# 6 -0.004381 0.003219 -0.002666 -0.010025 -0.009997 0.038379
#
#
# Mechanical properties :
#
#
# Convention : Reuss Voigt Hill
#
# Bulk Modulus (GPa) = 28.32733 36.57016 32.44875
# Shear Modulus (GPa) = 24.21068 29.69327 26.95198
#
# Velocity S-wave (km/s) = 3.33374 3.69196 3.51741
# Velocity P-wave (km/s) = 5.27465 5.91282 5.60283
#
# Compressibility (1/GPa) = 0.03530160
#
# Stress axis : x y z
#
# Youngs Moduli (GPa) = 76.78841 78.67860 57.52000
#
# Poissons Ratio (x) = 0.05339 0.11224
# Poissons Ratio (y) = 0.05211 0.07353
# Poissons Ratio (z) = 0.14983 0.10058
#
# Static dielectric constant tensor:
#      x y z
#    x 1.817590 0.009000 0.007350 
#    y 0.009000 1.795790 -0.003370 
#    z 0.007350 -0.003370 1.748960 
# 
# From -- ./inp_files/40275.got.cif
#   From: 2010.05.17/outbox.cif.g08.bks.cpg/sg2_21_cif.got.tgz:40275.got - 2010.06.03 11:33:40.
