data_PCOD9041490
_publ_section_title
;
Structure prediction by ZEFSAII (Michael W. Deem and Ramdas Pophale) SiO2 
 PCOD9041490
Probable space group: P -1
;
_chemical_formula_sum "Si O2"
_cell_formula_units_Z 14
_cell_length_a 8.719037
_cell_length_b 14.740370
_cell_length_c 9.808006
_cell_angle_alpha 62.737118
_cell_angle_beta 132.209164
_cell_angle_gamma 131.764731
_cell_volume 696.291674
_symmetry_space_group_name_H-M "P -1"
_symmetry_group_IT_number 2
_symmetry_cell_setting 'triclinic'
loop_
_space_group_symop_operation_xyz
x,y,z
-x,-y,-z
loop_
_atom_site_type_symbol
_atom_site_label
_atom_site_fract_x
_atom_site_fract_y
_atom_site_fract_z
Si Si1 0.230999 0.131543 0.082792
Si Si2 0.527808 0.125244 0.486704
Si Si3 0.281652 0.047118 0.680482
Si Si4 0.005183 0.391176 0.502581
Si Si5 0.886346 0.401696 0.115914
Si Si6 0.417428 0.851836 0.952622
Si Si7 0.392566 0.385145 0.914322
O O1 0.307643 0.130160 0.283000
O O2 0.446802 0.141203 0.111419
O O3 0.218443 0.249237 0.967977
O O4 0.000000 0.000000 0.000000
O O5 0.469174 0.111689 0.621246
O O6 0.774933 0.254090 0.500958
O O7 0.500000 0.000000 0.500000
O O8 0.321477 0.940669 0.822230
O O9 0.392897 0.128906 0.826885
O O10 0.000000 0.000000 0.500000
O O11 0.008521 0.413945 0.327301
O O12 0.000000 0.500000 0.500000
O O13 0.245789 0.398850 0.696094
O O14 0.827660 0.279507 0.094110
O O15 0.628929 0.387067 0.005914
O O16 0.000000 0.500000 0.000000
O O17 0.500000 0.500000 0.000000
#
# Coordination Sequence:
#
# PCOD9041490 Si02
#       7
#     2   2   2   2   2   2   2
#     4  11  21  40  68  99 131 171 218 275 336 393
#     4  12  22  42  70  98 132 174 221 276 337 392
#     4  11  24  42  66  98 135 173 219 269 332 402
#     4  12  24  44  70  99 134 173 227 282 330 400
#     4  11  25  47  67  96 138 175 222 280 340 396
#     4  10  23  44  61  96 138 168 215 274 331 395
#     4  11  23  44  69  98 132 173 230 276 329 405
#
# _framework density 20.106515000000002
#
# number of rings (size 3 to 8) (size 9 to 14) (size 15 to 20)
#    0.000    0.857    5.714    1.714    2.000    4.000 
#    7.714    0.000    0.000    0.000    0.000    0.000 
#    0.000    0.000    0.000    0.000    0.000    0.000 
#
# Total GULP energy -78031.119859 kJ/mol
# GULP energy per Si atom -5573.651419 kJ/mol
# Density = 2.006075 g / cm^3
# Si number density = 20.106515 Si / 1000 Ang^3
#
#
#
# Elastic Constant Matrix: (Units=GPa)
#
#
# Indices 1 2 3 4 5 6 
#
# 1 26.4960 17.0213 21.5682 -6.1440 -5.8271 0.5460
# 2 17.0213 139.2515 53.5788 -9.1514 -16.3494 3.6254
# 3 21.5682 53.5788 199.2162 1.0778 -1.3230 3.1401
# 4 -6.1440 -9.1514 1.0778 34.3239 2.8026 -0.2421
# 5 -5.8271 -16.3494 -1.3230 2.8026 35.9158 -7.1113
# 6 0.5460 3.6254 3.1401 -0.2421 -7.1113 26.0343
#
#
#
# Elastic Compliance Matrix: (Units=1/GPa)
#
#
# Indices 1 2 3 4 5 6 
#
# 1 0.045912 -0.002888 -0.004219 0.007124 0.005736 0.001581
# 2 -0.002888 0.008821 -0.002046 0.001626 0.003346 0.000008
# 3 -0.004219 -0.002046 0.006037 -0.001379 -0.001437 -0.000760
# 4 0.007124 0.001626 -0.001379 0.030933 -0.000585 -0.000082
# 5 0.005736 0.003346 -0.001437 -0.000585 0.031934 0.008304
# 6 0.001581 0.000008 -0.000760 -0.000082 0.008304 0.040736
#
#
# Mechanical properties :
#
#
# Convention : Reuss Voigt Hill
#
# Bulk Modulus (GPa) = 23.55023 61.03337 42.29180
# Shear Modulus (GPa) = 25.40195 37.44115 31.42155
#
# Velocity S-wave (km/s) = 3.55825 4.31993 3.95746
# Velocity P-wave (km/s) = 5.34973 7.43662 6.47777
#
# Compressibility (1/GPa) = 0.04246242
#
# Stress axis : x y z
#
# Youngs Moduli (GPa) = 21.78063 113.36294 165.65155
#
# Poissons Ratio (x) = 0.32741 0.69894
# Poissons Ratio (y) = 0.06291 0.33900
# Poissons Ratio (z) = 0.09190 0.23199
#
# Static dielectric constant tensor:
#      x y z
#    x 1.683170 -0.011540 0.009120 
#    y -0.011540 1.974980 -0.004860 
#    z 0.009120 -0.004860 1.685430 
# 
# From -- ./inp_files/186335.got.cif
#   From: 2010.05.17/outbox.cif.g08.bks.cpg/sg2_94_cif.got.tgz:186335.got - 2010.06.03 11:33:40.
