data_PCOD9041795
_publ_section_title
;
Structure prediction by ZEFSAII (Michael W. Deem and Ramdas Pophale) SiO2 
 PCOD9041795
Probable space group: P -1
;
_chemical_formula_sum "Si O2"
_cell_formula_units_Z 14
_cell_length_a 9.348220
_cell_length_b 5.594005
_cell_length_c 14.383134
_cell_angle_alpha 103.629187
_cell_angle_beta 59.135507
_cell_angle_gamma 125.967480
_cell_volume 520.204722
_symmetry_space_group_name_H-M "P -1"
_symmetry_group_IT_number 2
_symmetry_cell_setting 'triclinic'
loop_
_space_group_symop_operation_xyz
x,y,z
-x,-y,-z
loop_
_atom_site_type_symbol
_atom_site_label
_atom_site_fract_x
_atom_site_fract_y
_atom_site_fract_z
Si Si1 0.179568 0.403717 0.334167
Si Si2 0.355719 0.768350 0.129200
Si Si3 0.205176 0.949501 0.035828
Si Si4 0.151741 0.978546 0.854658
Si Si5 0.218622 0.833004 0.509178
Si Si6 0.549046 0.393628 0.229146
Si Si7 0.325604 0.710841 0.641034
O O1 0.246212 0.509327 0.217008
O O2 0.184818 0.669166 0.408821
O O3 0.350828 0.381077 0.319594
O O4 0.956290 0.122817 0.401527
O O5 0.198574 0.749471 0.104865
O O6 0.459753 0.078577 0.181094
O O7 0.552907 0.808288 0.021639
O O8 0.054625 0.055596 0.105626
O O9 0.145876 0.819547 0.938258
O O10 0.309272 0.328000 0.858267
O O11 0.257875 0.910553 0.732025
O O12 0.207394 0.620563 0.576324
O O13 0.443177 0.116068 0.453469
O O14 0.681333 0.470733 0.284987
#
# Coordination Sequence:
#
# PCOD9041795 Si02
#       7
#     2   2   2   2   2   2   2
#     4  11  23  45  62  98 131 162 214 266 304 386
#     4  11  23  45  62  98 131 162 214 266 304 386
#     4  10  23  44  67  88 134 169 205 264 322 364
#     4  11  23  45  62  98 131 162 214 266 304 386
#     4  10  23  44  67  88 134 169 205 264 322 364
#     4  12  22  40  66  90 132 172 198 268 312 366
#     4  11  23  45  62  98 131 162 214 266 304 386
#
# _framework density 26.912479999999999
#
# number of rings (size 3 to 8) (size 9 to 14) (size 15 to 20)
#    0.000    1.143    5.714    0.000    4.000    2.286 
#    0.000    0.000    0.000    0.000    0.000    0.000 
#    0.000    0.000    0.000    0.000    0.000    0.000 
#
# Total GULP energy -78301.976131 kJ/mol
# GULP energy per Si atom -5592.998295 kJ/mol
# Density = 2.685123 g / cm^3
# Si number density = 26.912480 Si / 1000 Ang^3
#
#
#
# Elastic Constant Matrix: (Units=GPa)
#
#
# Indices 1 2 3 4 5 6 
#
# 1 202.3910 10.9794 54.9871 2.5138 -9.6278 -9.0874
# 2 10.9794 40.9502 17.8741 3.4940 0.4251 5.3268
# 3 54.9871 17.8741 97.7717 -2.8445 -14.8985 2.4562
# 4 2.5138 3.4940 -2.8445 9.5542 -2.6885 9.3809
# 5 -9.6278 0.4251 -14.8985 -2.6885 75.4580 2.1942
# 6 -9.0874 5.3268 2.4562 9.3809 2.1942 33.3579
#
#
#
# Elastic Compliance Matrix: (Units=1/GPa)
#
#
# Indices 1 2 3 4 5 6 
#
# 1 0.006227 0.000087 -0.003860 -0.006715 -0.000320 0.003876
# 2 0.000087 0.028018 -0.005761 -0.011903 -0.001692 -0.000567
# 3 -0.003860 -0.005761 0.014427 0.013305 0.003012 -0.005134
# 4 -0.006715 -0.011903 0.013305 0.164083 0.009069 -0.047648
# 5 -0.000320 -0.001692 0.003012 0.009069 0.014241 -0.003526
# 6 0.003876 -0.000567 -0.005134 -0.047648 -0.003526 0.045134
#
#
# Mechanical properties :
#
#
# Convention : Reuss Voigt Hill
#
# Bulk Modulus (GPa) = 33.77793 56.53267 45.15530
# Shear Modulus (GPa) = 16.60772 40.82552 28.71662
#
# Velocity S-wave (km/s) = 2.48685 3.89906 3.27010
# Velocity P-wave (km/s) = 4.56335 6.42821 5.57432
#
# Compressibility (1/GPa) = 0.02960513
#
# Stress axis : x y z
#
# Youngs Moduli (GPa) = 160.59072 35.69118 69.31591
#
# Poissons Ratio (x) = -0.00311 0.26753
# Poissons Ratio (y) = -0.01399 0.39933
# Poissons Ratio (z) = 0.61980 0.20562
#
# Static dielectric constant tensor:
#      x y z
#    x 2.143730 -0.009610 -0.025810 
#    y -0.009610 2.108640 -0.025030 
#    z -0.025810 -0.025030 2.114180 
# 
# From -- ./inp_files/48915.got.cif
#   From: 2010.05.17/outbox.cif.g08.bks.cpg/sg2_25_cif.got.tgz:48915.got - 2010.06.03 11:33:40.
