data_PCOD9041302
_publ_section_title
;
Structure prediction by ZEFSAII (Michael W. Deem and Ramdas Pophale) SiO2 
 PCOD9041302
Probable space group: P -1
;
_chemical_formula_sum "Si O2"
_cell_formula_units_Z 14
_cell_length_a 5.464510
_cell_length_b 26.663890
_cell_length_c 15.746371
_cell_angle_alpha 18.205768
_cell_angle_beta 49.880485
_cell_angle_gamma 44.850490
_cell_volume 501.121593
_symmetry_space_group_name_H-M "P -1"
_symmetry_group_IT_number 2
_symmetry_cell_setting 'triclinic'
loop_
_space_group_symop_operation_xyz
x,y,z
-x,-y,-z
loop_
_atom_site_type_symbol
_atom_site_label
_atom_site_fract_x
_atom_site_fract_y
_atom_site_fract_z
Si Si1 0.879679 0.005925 0.396715
Si Si2 0.898650 0.051848 0.747018
Si Si3 0.164114 0.445650 0.254047
Si Si4 0.033799 0.655986 0.792143
Si Si5 0.962181 0.270273 0.052939
Si Si6 0.741578 0.201815 0.714443
Si Si7 0.440670 0.693664 0.234489
O O1 0.811615 0.206317 0.109949
O O2 0.500000 0.000000 0.500000
O O3 0.115028 0.962180 0.329619
O O4 0.085363 0.855522 0.662013
O O5 0.151844 0.160197 0.510462
O O6 0.643842 0.165205 0.698464
O O7 0.054313 0.848823 0.065344
O O8 0.561941 0.369064 0.256925
O O9 0.972122 0.318217 0.483475
O O10 0.953835 0.618772 0.964787
O O11 0.178918 0.530358 0.205585
O O12 0.000000 0.500000 0.000000
O O13 0.348418 0.235384 0.991103
O O14 0.472675 0.287877 0.714613
O O15 0.000000 0.000000 0.000000
O O16 0.500000 0.500000 0.500000
#
# Coordination Sequence:
#
# PCOD9041302 Si02
#       7
#     2   2   2   2   2   2   2
#     4  11  24  41  69 104 137 175 228 289 352 409
#     4  11  23  43  70 102 137 183 228 285 351 406
#     4  11  23  41  69 103 139 179 225 282 353 402
#     4  11  24  39  69 106 140 172 225 290 350 411
#     4  11  24  41  71 101 138 180 225 286 351 405
#     4  10  23  43  72  99 138 187 230 281 340 407
#     4  11  23  45  73  98 141 186 232 285 341 409
#
# _framework density 27.937331
#
# number of rings (size 3 to 8) (size 9 to 14) (size 15 to 20)
#    0.000    1.143    5.714    0.000    2.000    2.286 
#    2.571    7.143    0.000    0.000    0.000    0.000 
#    0.000    0.000    0.000    0.000    0.000    0.000 
#
# Total GULP energy -77992.391436 kJ/mol
# GULP energy per Si atom -5570.885103 kJ/mol
# Density = 2.787374 g / cm^3
# Si number density = 27.937331 Si / 1000 Ang^3
#
#
#
# Elastic Constant Matrix: (Units=GPa)
#
#
# Indices 1 2 3 4 5 6 
#
# 1 44.3967 46.3497 22.8457 -4.7133 -24.0388 0.0245
# 2 46.3497 220.6771 74.8175 -36.5836 -3.0410 26.6366
# 3 22.8457 74.8175 166.1242 -29.0340 -16.8080 3.3026
# 4 -4.7133 -36.5836 -29.0340 75.8582 13.0486 -3.8831
# 5 -24.0388 -3.0410 -16.8080 13.0486 43.1529 1.2097
# 6 0.0245 26.6366 3.3026 -3.8831 1.2097 41.9311
#
#
#
# Elastic Compliance Matrix: (Units=1/GPa)
#
#
# Indices 1 2 3 4 5 6 
#
# 1 0.050160 -0.012138 0.000106 -0.007404 0.029194 0.006145
# 2 -0.012138 0.009028 -0.002453 0.003799 -0.008091 -0.004950
# 3 0.000106 -0.002453 0.007570 0.001361 0.002395 0.001019
# 4 -0.007404 0.003799 0.001361 0.016462 -0.008283 -0.000753
# 5 0.029194 -0.008091 0.002395 -0.008283 0.042221 0.002949
# 6 0.006145 -0.004950 0.001019 -0.000753 0.002949 0.026754
#
#
# Mechanical properties :
#
#
# Convention : Reuss Voigt Hill
#
# Bulk Modulus (GPa) = 26.46347 79.91377 53.18862
# Shear Modulus (GPa) = 25.80503 51.33412 38.56957
#
# Velocity S-wave (km/s) = 3.04250 4.29123 3.71964
# Velocity P-wave (km/s) = 4.67284 7.29518 6.12597
#
# Compressibility (1/GPa) = 0.03778793
#
# Stress axis : x y z
#
# Youngs Moduli (GPa) = 19.93635 110.76144 132.10626
#
# Poissons Ratio (x) = 1.34443 -0.01404
# Poissons Ratio (y) = 0.24199 0.32407
# Poissons Ratio (z) = -0.00212 0.27171
#
# Static dielectric constant tensor:
#      x y z
#    x 2.515190 0.094410 0.324770 
#    y 0.094410 2.330660 -0.062310 
#    z 0.324770 -0.062310 2.469870 
# 
# From -- ./inp_files/485881.got.cif
#   From: 2010.05.17/outbox.cif.g08.bks.cpg/sg2_243_cif.got.tgz:485881.got - 2010.06.03 11:33:40.
