data_PCOD9041951
_publ_section_title
;
Structure prediction by ZEFSAII (Michael W. Deem and Ramdas Pophale) SiO2 
 PCOD9041951
Probable space group: P -1
;
_chemical_formula_sum "Si O2"
_cell_formula_units_Z 12
_cell_length_a 15.349603
_cell_length_b 10.404003
_cell_length_c 19.403096
_cell_angle_alpha 38.692969
_cell_angle_beta 20.260805
_cell_angle_gamma 51.469250
_cell_volume 579.065886
_symmetry_space_group_name_H-M "P -1"
_symmetry_group_IT_number 2
_symmetry_cell_setting 'triclinic'
loop_
_space_group_symop_operation_xyz
x,y,z
-x,-y,-z
loop_
_atom_site_type_symbol
_atom_site_label
_atom_site_fract_x
_atom_site_fract_y
_atom_site_fract_z
Si Si1 0.296899 0.894055 0.261876
Si Si2 0.592968 0.368066 0.430974
Si Si3 0.745455 0.907613 0.650390
Si Si4 0.237601 0.822228 0.966447
Si Si5 0.885706 0.549646 0.904503
Si Si6 0.628655 0.550027 0.581129
O O1 0.346818 0.686172 0.339742
O O2 0.957557 0.799081 0.535940
O O3 0.357521 0.080157 0.200911
O O4 0.500000 0.000000 0.000000
O O5 0.500000 0.500000 0.500000
O O6 0.535519 0.433993 0.371006
O O7 0.919549 0.440737 0.179152
O O8 0.392935 0.085818 0.709811
O O9 0.474099 0.798302 0.846404
O O10 0.953855 0.184147 0.356814
O O11 0.123251 0.631610 0.069754
O O12 0.958588 0.768380 0.241848
O O13 0.561581 0.465793 0.205430
#
# Coordination Sequence:
#
# PCOD9041951 Si02
#       6
#     2   2   2   2   2   2
#     4  11  22  43  71  92 130 176 218 263 320 383
#     4  11  23  45  69  92 135 173 209 267 330 382
#     4  10  23  44  68  94 132 172 213 270 323 374
#     4  11  24  44  66  99 131 166 214 272 321 387
#     4  11  23  43  67  97 132 170 212 267 327 384
#     4  12  23  41  67  99 130 172 219 263 322 384
#
# _framework density 20.723030000000001
#
# number of rings (size 3 to 8) (size 9 to 14) (size 15 to 20)
#    0.000    1.000    5.000    2.000    0.000    2.667 
#    6.000    1.667    0.000    0.000    0.000    0.000 
#    0.000    0.000    0.000    0.000    0.000    0.000 
#
# Total GULP energy -67098.203498 kJ/mol
# GULP energy per Si atom -5591.516958 kJ/mol
# Density = 2.067586 g / cm^3
# Si number density = 20.723030 Si / 1000 Ang^3
#
#
#
# Elastic Constant Matrix: (Units=GPa)
#
#
# Indices 1 2 3 4 5 6 
#
# 1 49.2741 -47.8731 72.5588 11.8635 -8.1424 -0.9539
# 2 -47.8731 -1.4190 69.4288 23.3259 -5.7171 5.9981
# 3 72.5588 69.4288 112.6196 17.7453 3.0018 -5.8565
# 4 11.8635 23.3259 17.7453 33.8450 8.5837 -4.4833
# 5 -8.1424 -5.7171 3.0018 8.5837 30.3746 10.9707
# 6 -0.9539 5.9981 -5.8565 -4.4833 10.9707 22.1601
#
#
#
# Elastic Compliance Matrix: (Units=1/GPa)
#
#
# Indices 1 2 3 4 5 6 
#
# 1 0.006546 -0.009926 0.001455 0.005747 -0.004277 0.006633
# 2 -0.009926 0.000419 0.006203 0.001773 -0.005142 0.004003
# 3 0.001455 0.006203 0.005224 -0.009573 0.005518 -0.004904
# 4 0.005747 0.001773 -0.009573 0.035307 -0.010643 0.009649
# 5 -0.004277 -0.005142 0.005518 -0.010643 0.040289 -0.019433
# 6 0.006633 0.004003 -0.004904 0.009649 -0.019433 0.054605
#
#
# Mechanical properties :
#
#
# Convention : Reuss Voigt Hill
#
# Bulk Modulus (GPa) = 130.66429 38.74487 84.70458
# Shear Modulus (GPa) = 33.44973 21.69995 27.57484
#
# Velocity S-wave (km/s) = 4.02199 3.23947 3.65175
# Velocity P-wave (km/s) = 9.20642 5.72095 7.66444
#
# Compressibility (1/GPa) = 0.00765320
#
# Stress axis : x y z
#
# Youngs Moduli (GPa) = 152.75800 2387.55203 191.41003
#
# Poissons Ratio (x) = 23.69879 -0.27850
# Poissons Ratio (y) = 1.51627 -1.18728
# Poissons Ratio (z) = -0.22227 -14.80951
#
# Static dielectric constant tensor:
#      x y z
#    x 1.738270 -0.034040 -0.004200 
#    y -0.034040 1.716090 0.004360 
#    z -0.004200 0.004360 1.749370 
# 
# From -- ./inp_files/28643.got.cif
#   From: 2010.05.17/outbox.cif.g08.bks.cpg/sg2_15_cif.got.tgz:28643.got - 2010.06.03 11:33:40.
