data_PCOD9041114
_publ_section_title
;
Structure prediction by ZEFSAII (Michael W. Deem and Ramdas Pophale) SiO2 
 PCOD9041114
Probable space group: P -1
;
_chemical_formula_sum "Si O2"
_cell_formula_units_Z 14
_cell_length_a 9.106128
_cell_length_b 22.147519
_cell_length_c 8.801687
_cell_angle_alpha 46.334530
_cell_angle_beta 131.651602
_cell_angle_gamma 149.374516
_cell_volume 642.074846
_symmetry_space_group_name_H-M "P -1"
_symmetry_group_IT_number 2
_symmetry_cell_setting 'triclinic'
loop_
_space_group_symop_operation_xyz
x,y,z
-x,-y,-z
loop_
_atom_site_type_symbol
_atom_site_label
_atom_site_fract_x
_atom_site_fract_y
_atom_site_fract_z
Si Si1 0.283253 0.011859 0.010226
Si Si2 0.729324 0.813393 0.152290
Si Si3 0.156766 0.192293 0.438148
Si Si4 0.151751 0.372249 0.985179
Si Si5 0.902495 0.448063 0.855426
Si Si6 0.773403 0.316074 0.539789
Si Si7 0.387361 0.051724 0.651784
O O1 0.352933 0.119247 0.961587
O O2 0.351848 0.041208 0.828585
O O3 0.461001 0.986759 0.227798
O O4 0.941254 0.888122 0.024908
O O5 0.897047 0.824534 0.390160
O O6 0.446380 0.669071 0.181360
O O7 0.498711 0.276131 0.501291
O O8 0.103288 0.262241 0.195181
O O9 0.933565 0.053365 0.459519
O O10 0.021916 0.396424 0.973799
O O11 0.980643 0.336944 0.771035
O O12 0.500000 0.500000 0.000000
O O13 0.033089 0.556810 0.639639
O O14 0.000000 0.500000 0.000000
O O15 0.609273 0.198084 0.522111
#
# Coordination Sequence:
#
# PCOD9041114 Si02
#       7
#     2   2   2   2   2   2   2
#     4  10  23  43  71 100 145 175 233 282 339 415
#     4  11  24  44  67 103 142 184 221 290 349 405
#     4  12  24  42  76 103 137 183 232 279 350 408
#     4  12  24  45  74  97 136 189 233 276 341 415
#     4  12  27  45  69 102 141 179 230 291 348 400
#     4  12  25  46  71 105 142 178 231 288 334 423
#     4  11  23  42  71 107 132 184 232 280 339 410
#
# _framework density 21.804311999999999
#
# number of rings (size 3 to 8) (size 9 to 14) (size 15 to 20)
#    0.000    0.571    4.286    4.286    2.000    4.000 
#    0.000    2.143    0.000    0.000    0.000    0.000 
#    0.000    0.000    0.000    0.000    0.000    0.000 
#
# Total GULP energy -78346.014666 kJ/mol
# GULP energy per Si atom -5596.143905 kJ/mol
# Density = 2.175468 g / cm^3
# Si number density = 21.804312 Si / 1000 Ang^3
#
#
#
# Elastic Constant Matrix: (Units=GPa)
#
#
# Indices 1 2 3 4 5 6 
#
# 1 56.2104 30.6690 29.9018 -7.8057 2.5817 12.2363
# 2 30.6690 174.7944 33.2055 -5.6940 0.8517 11.5927
# 3 29.9018 33.2055 86.5188 -9.7254 28.4773 -4.0651
# 4 -7.8057 -5.6940 -9.7254 34.1107 -2.4499 -7.5934
# 5 2.5817 0.8517 28.4773 -2.4499 23.8426 -0.9759
# 6 12.2363 11.5927 -4.0651 -7.5934 -0.9759 25.6106
#
#
#
# Elastic Compliance Matrix: (Units=1/GPa)
#
#
# Indices 1 2 3 4 5 6 
#
# 1 0.029073 -0.001341 -0.014889 -0.000183 0.014043 -0.015166
# 2 -0.001341 0.006832 -0.003753 -0.000619 0.004195 -0.003071
# 3 -0.014889 -0.003753 0.030413 0.005339 -0.033459 0.013948
# 4 -0.000183 -0.000619 0.005339 0.032937 -0.002505 0.010885
# 5 0.014043 0.004195 -0.033459 -0.002505 0.079501 -0.011632
# 6 -0.015166 -0.003071 0.013948 0.010885 -0.011632 0.052681
#
#
# Mechanical properties :
#
#
# Convention : Reuss Voigt Hill
#
# Bulk Modulus (GPa) = 37.94772 56.11959 47.03366
# Shear Modulus (GPa) = 17.84526 31.62927 24.73726
#
# Velocity S-wave (km/s) = 2.86392 3.81280 3.37191
# Velocity P-wave (km/s) = 5.32706 6.72138 6.06443
#
# Compressibility (1/GPa) = 0.02635204
#
# Stress axis : x y z
#
# Youngs Moduli (GPa) = 34.39578 146.36070 32.88104
#
# Poissons Ratio (x) = 0.19632 0.48955
# Poissons Ratio (y) = 0.04614 0.12341
# Poissons Ratio (z) = 0.51211 0.54932
#
# Static dielectric constant tensor:
#      x y z
#    x 1.786200 0.000780 0.030590 
#    y 0.000780 1.809350 0.000300 
#    z 0.030590 0.000300 1.801940 
# 
# From -- ./inp_files/223294.got.cif
#   From: 2010.05.17/outbox.cif.g08.bks.cpg/sg2_112_cif.got.tgz:223294.got - 2010.06.03 11:33:40.
