data_PCOD9041061
_publ_section_title
;
Structure prediction by ZEFSAII (Michael W. Deem and Ramdas Pophale) SiO2 
 PCOD9041061
Probable space group: P -1
;
_chemical_formula_sum "Si O2"
_cell_formula_units_Z 16
_cell_length_a 22.999337
_cell_length_b 13.489382
_cell_length_c 14.331744
_cell_angle_alpha 149.285972
_cell_angle_beta 17.964456
_cell_angle_gamma 149.686656
_cell_volume 670.633348
_symmetry_space_group_name_H-M "P -1"
_symmetry_group_IT_number 2
_symmetry_cell_setting 'triclinic'
loop_
_space_group_symop_operation_xyz
x,y,z
-x,-y,-z
loop_
_atom_site_type_symbol
_atom_site_label
_atom_site_fract_x
_atom_site_fract_y
_atom_site_fract_z
Si Si1 0.279416 0.039071 0.776170
Si Si2 0.893897 0.284176 0.066520
Si Si3 0.095782 0.629005 0.278064
Si Si4 0.885885 0.073570 0.352408
Si Si5 0.699180 0.294089 0.662101
Si Si6 0.553999 0.453857 0.774375
Si Si7 0.365908 0.366122 0.676878
Si Si8 0.758826 0.357829 0.142761
O O1 0.162617 0.902774 0.929140
O O2 0.363464 0.883869 0.463270
O O3 0.426728 0.233405 0.754515
O O4 0.117089 0.095700 0.004622
O O5 0.773144 0.440802 0.412672
O O6 0.824154 0.235530 0.027391
O O7 0.121227 0.409329 0.828931
O O8 0.125495 0.834998 0.454788
O O9 0.872470 0.484444 0.510693
O O10 0.223722 0.499339 0.029038
O O11 0.170470 0.674730 0.095376
O O12 0.797854 0.203602 0.521181
O O13 0.765949 0.841407 0.334284
O O14 0.518838 0.377675 0.033504
O O15 0.500000 0.500000 0.000000
O O16 0.500000 0.500000 0.500000
O O17 0.525013 0.324567 0.471324
#
# Coordination Sequence:
#
# PCOD9041061 Si02
#       8
#     2   2   2   2   2   2   2   2
#     4  12  24  44  72 101 144 176 222 291 356 411
#     4  11  24  45  71  97 134 188 234 278 340 407
#     4  11  22  45  69 103 144 177 227 292 345 417
#     4  12  26  39  75 107 138 179 230 285 362 412
#     4  12  25  43  71 109 142 177 224 291 357 420
#     4  12  26  43  71 103 143 181 228 285 348 412
#     4  10  23  43  70  96 141 182 226 286 344 406
#     4  10  23  44  71  92 134 189 233 278 336 401
#
# _framework density 23.858045000000001
#
# number of rings (size 3 to 8) (size 9 to 14) (size 15 to 20)
#    0.000    0.750    5.000    1.875    3.500    2.000 
#    0.000    0.625    5.500    0.000    0.000    0.000 
#    0.000    0.000    0.000    0.000    0.000    0.000 
#
# Total GULP energy -89589.392134 kJ/mol
# GULP energy per Si atom -5599.337008 kJ/mol
# Density = 2.380374 g / cm^3
# Si number density = 23.858045 Si / 1000 Ang^3
#
#
#
# Elastic Constant Matrix: (Units=GPa)
#
#
# Indices 1 2 3 4 5 6 
#
# 1 113.1164 29.3370 23.6303 11.1626 7.8034 10.1065
# 2 29.3370 95.8613 39.8453 5.6447 4.9580 32.3896
# 3 23.6303 39.8453 99.0776 15.4763 -8.6215 21.7692
# 4 11.1626 5.6447 15.4763 35.2427 5.1556 -4.0891
# 5 7.8034 4.9580 -8.6215 5.1556 45.3157 -1.5719
# 6 10.1065 32.3896 21.7692 -4.0891 -1.5719 47.6886
#
#
#
# Elastic Compliance Matrix: (Units=1/GPa)
#
#
# Indices 1 2 3 4 5 6 
#
# 1 0.010015 -0.002274 -0.001223 -0.002083 -0.001480 -0.000247
# 2 -0.002274 0.015874 -0.004048 -0.000700 -0.002334 -0.008589
# 3 -0.001223 -0.004048 0.014174 -0.006210 0.003923 -0.003864
# 4 -0.002083 -0.000700 -0.006210 0.033253 -0.004306 0.006461
# 5 -0.001480 -0.002334 0.003923 -0.004306 0.023832 0.000524
# 6 -0.000247 -0.008589 -0.003864 0.006461 0.000524 0.029190
#
#
# Mechanical properties :
#
#
# Convention : Reuss Voigt Hill
#
# Bulk Modulus (GPa) = 40.04526 54.85341 47.44933
# Shear Modulus (GPa) = 33.38808 39.99889 36.69348
#
# Velocity S-wave (km/s) = 3.74498 4.09900 3.92598
# Velocity P-wave (km/s) = 5.95995 6.74120 6.36258
#
# Compressibility (1/GPa) = 0.02497175
#
# Stress axis : x y z
#
# Youngs Moduli (GPa) = 99.84526 62.99538 70.55420
#
# Poissons Ratio (x) = 0.14324 0.08632
# Poissons Ratio (y) = 0.22704 0.28563
# Poissons Ratio (z) = 0.12215 0.25503
#
# Static dielectric constant tensor:
#      x y z
#    x 1.994480 -0.024550 -0.035750 
#    y -0.024550 1.856410 -0.012760 
#    z -0.035750 -0.012760 1.924310 
# 
# From -- ./inp_files/543045.got.cif
#   From: 2010.05.17/outbox.cif.g08.bks.cpg/sg2_272_cif.got.tgz:543045.got - 2010.06.03 11:33:40.
