data_PCOD9041479
_publ_section_title
;
Structure prediction by ZEFSAII (Michael W. Deem and Ramdas Pophale) SiO2 
 PCOD9041479
Probable space group: P -1
;
_chemical_formula_sum "Si O2"
_cell_formula_units_Z 16
_cell_length_a 11.716440
_cell_length_b 7.283499
_cell_length_c 14.568148
_cell_angle_alpha 58.554367
_cell_angle_beta 138.318907
_cell_angle_gamma 122.024995
_cell_volume 683.270094
_symmetry_space_group_name_H-M "P -1"
_symmetry_group_IT_number 2
_symmetry_cell_setting 'triclinic'
loop_
_space_group_symop_operation_xyz
x,y,z
-x,-y,-z
loop_
_atom_site_type_symbol
_atom_site_label
_atom_site_fract_x
_atom_site_fract_y
_atom_site_fract_z
Si Si1 0.692115 0.891069 0.494514
Si Si2 0.621222 0.838917 0.141596
Si Si3 0.180008 0.096663 0.943370
Si Si4 0.975838 0.596025 0.752196
Si Si5 0.679895 0.190755 0.759679
Si Si6 0.760165 0.885303 0.739441
Si Si7 0.276873 0.482999 0.056234
Si Si8 0.846938 0.125092 0.362458
O O1 0.851407 0.766676 0.627773
O O2 0.509230 0.750617 0.375867
O O3 0.673695 0.924843 0.582027
O O4 0.751456 0.106442 0.408304
O O5 0.743314 0.826321 0.130592
O O6 0.481091 0.608140 0.137542
O O7 0.723506 0.961405 0.258739
O O8 0.500000 0.000000 0.000000
O O9 0.224207 0.296302 0.992683
O O10 0.968540 0.006338 0.835002
O O11 0.266648 0.905043 0.087879
O O12 0.839487 0.373860 0.762671
O O13 0.074168 0.638198 0.700852
O O14 0.138805 0.632769 0.911966
O O15 0.660415 0.982990 0.733417
O O16 0.752237 0.633849 0.831575
O O17 0.000000 0.000000 0.500000
#
# Coordination Sequence:
#
# PCOD9041479 Si02
#       8
#     2   2   2   2   2   2   2   2
#     4  11  25  41  65  92 132 174 213 262 321 375
#     4  12  24  39  67  97 126 167 216 266 312 380
#     4  11  22  43  69  94 131 170 207 266 327 379
#     4  11  21  42  66  92 131 167 210 269 318 374
#     4  11  22  42  65  97 129 167 215 266 320 380
#     4  11  23  43  67  95 130 171 211 263 319 389
#     4  11  23  42  66 101 130 161 218 267 319 378
#     4  10  23  44  61  90 132 168 210 261 316 375
#
# _framework density 23.416801
#
# number of rings (size 3 to 8) (size 9 to 14) (size 15 to 20)
#    0.000    1.000    3.750    4.125    0.000    4.500 
#    0.000    0.625    0.000    0.000    0.000    0.000 
#    0.000    0.000    0.000    0.000    0.000    0.000 
#
# Total GULP energy -89368.551538 kJ/mol
# GULP energy per Si atom -5585.534471 kJ/mol
# Density = 2.336350 g / cm^3
# Si number density = 23.416801 Si / 1000 Ang^3
#
#
#
# Elastic Constant Matrix: (Units=GPa)
#
#
# Indices 1 2 3 4 5 6 
#
# 1 89.1732 18.2857 37.5209 -9.7939 -15.0614 24.5199
# 2 18.2857 76.0000 25.5662 -3.2436 -4.5336 31.5519
# 3 37.5209 25.5662 145.7032 9.1876 -11.1619 6.5988
# 4 -9.7939 -3.2436 9.1876 22.3201 9.4677 -3.6269
# 5 -15.0614 -4.5336 -11.1619 9.4677 37.8073 -4.0966
# 6 24.5199 31.5519 6.5988 -3.6269 -4.0966 38.6186
#
#
#
# Elastic Compliance Matrix: (Units=1/GPa)
#
#
# Indices 1 2 3 4 5 6 
#
# 1 0.016817 0.002483 -0.004465 0.006584 0.002836 -0.011024
# 2 0.002483 0.021532 -0.003794 0.002921 -0.000261 -0.018273
# 3 -0.004465 -0.003794 0.009116 -0.006700 0.002571 0.004021
# 4 0.006584 0.002921 -0.006700 0.056247 -0.013258 -0.001546
# 5 0.002836 -0.000261 0.002571 -0.013258 0.031637 0.000084
# 6 -0.011024 -0.018273 0.004021 -0.001546 0.000084 0.047000
#
#
# Mechanical properties :
#
#
# Convention : Reuss Voigt Hill
#
# Bulk Modulus (GPa) = 27.84541 52.62466 40.23503
# Shear Modulus (GPa) = 24.28686 35.04944 29.66815
#
# Velocity S-wave (km/s) = 3.22398 3.87300 3.56330
# Velocity P-wave (km/s) = 5.07699 6.52089 5.84371
#
# Compressibility (1/GPa) = 0.03591257
#
# Stress axis : x y z
#
# Youngs Moduli (GPa) = 59.46363 46.44166 109.69488
#
# Poissons Ratio (x) = -0.11529 0.48978
# Poissons Ratio (y) = -0.14762 0.41620
# Poissons Ratio (z) = 0.26550 0.17621
#
# Static dielectric constant tensor:
#      x y z
#    x 1.974430 -0.012290 -0.004550 
#    y -0.012290 1.932280 -0.053070 
#    z -0.004550 -0.053070 1.865450 
# 
# From -- ./inp_files/217668.got.cif
#   From: 2010.05.17/outbox.cif.g08.bks.cpg/sg2_109_cif.got.tgz:217668.got - 2010.06.03 11:33:40.
