data_PCOD9041363
_publ_section_title
;
Structure prediction by ZEFSAII (Michael W. Deem and Ramdas Pophale) SiO2 
 PCOD9041363
Probable space group: P -1
;
_chemical_formula_sum "Si O2"
_cell_formula_units_Z 12
_cell_length_a 11.129782
_cell_length_b 11.909674
_cell_length_c 8.994517
_cell_angle_alpha 74.871832
_cell_angle_beta 114.096814
_cell_angle_gamma 155.707310
_cell_volume 427.683779
_symmetry_space_group_name_H-M "P -1"
_symmetry_group_IT_number 2
_symmetry_cell_setting 'triclinic'
loop_
_space_group_symop_operation_xyz
x,y,z
-x,-y,-z
loop_
_atom_site_type_symbol
_atom_site_label
_atom_site_fract_x
_atom_site_fract_y
_atom_site_fract_z
Si Si1 0.966814 0.838072 0.590994
Si Si2 0.701854 0.462002 0.016467
Si Si3 0.718030 0.288841 0.547707
Si Si4 0.293624 0.086013 0.204487
Si Si5 0.506115 0.516598 0.745361
Si Si6 0.137415 0.744842 0.858173
O O1 0.278356 0.350607 0.329996
O O2 0.183589 0.905668 0.735168
O O3 0.000000 0.000000 0.500000
O O4 0.199513 0.334843 0.586591
O O5 0.958277 0.749874 0.133327
O O6 0.087711 0.518902 0.270899
O O7 0.914459 0.580924 0.949516
O O8 0.446176 0.348188 0.858581
O O9 0.469955 0.188630 0.408012
O O10 0.486431 0.767291 0.880026
O O11 0.500000 0.000000 0.500000
O O12 0.293062 0.224495 0.157632
O O13 0.000000 0.500000 0.500000
O O14 0.500000 0.000000 0.000000
#
# Coordination Sequence:
#
# PCOD9041363 Si02
#       6
#     2   2   2   2   2   2
#     4  10  23  44  79 121 160 209 272 338 413 483
#     4  11  27  45  79 119 159 205 270 327 412 483
#     4  12  28  52  79 112 157 218 275 334 404 487
#     4  12  25  48  74 117 160 209 262 338 402 481
#     4  10  23  43  73 114 159 206 265 324 412 479
#     4  11  26  54  84 118 165 222 276 341 411 495
#
# _framework density 28.058114
#
# number of rings (size 3 to 8) (size 9 to 14) (size 15 to 20)
#    0.000    1.000    1.667    3.000    7.000    2.667 
#    0.000    5.833    0.000    0.000    0.000    0.000 
#    0.000    0.000    0.000    0.000    0.000    0.000 
#
# Total GULP energy -67137.957043 kJ/mol
# GULP energy per Si atom -5594.829754 kJ/mol
# Density = 2.799425 g / cm^3
# Si number density = 28.058114 Si / 1000 Ang^3
#
#
#
# Elastic Constant Matrix: (Units=GPa)
#
#
# Indices 1 2 3 4 5 6 
#
# 1 130.3152 29.6458 48.5690 17.7339 -24.4689 -10.7911
# 2 29.6458 165.7148 51.7354 5.2026 -0.2403 -14.2262
# 3 48.5690 51.7354 251.5792 0.3501 3.9963 -1.3615
# 4 17.7339 5.2026 0.3501 37.0711 -3.9123 8.8637
# 5 -24.4689 -0.2403 3.9963 -3.9123 42.8481 0.0517
# 6 -10.7911 -14.2262 -1.3615 8.8637 0.0517 62.4131
#
#
#
# Elastic Compliance Matrix: (Units=1/GPa)
#
#
# Indices 1 2 3 4 5 6 
#
# 1 0.010516 -0.000933 -0.001911 -0.004812 0.005736 0.002242
# 2 -0.000933 0.006725 -0.001186 -0.000888 -0.000467 0.001472
# 3 -0.001911 -0.001186 0.004605 0.001041 -0.001431 -0.000647
# 4 -0.004812 -0.000888 0.001041 0.030671 -0.000043 -0.005367
# 5 0.005736 -0.000467 -0.001431 -0.000043 0.026740 0.000838
# 6 0.002242 0.001472 -0.000647 -0.005367 0.000838 0.017493
#
#
# Mechanical properties :
#
#
# Convention : Reuss Voigt Hill
#
# Bulk Modulus (GPa) = 72.53216 89.72329 81.12772
# Shear Modulus (GPa) = 45.70183 56.31041 51.00612
#
# Velocity S-wave (km/s) = 4.04025 4.48473 4.26828
# Velocity P-wave (km/s) = 6.90447 7.67230 7.29849
#
# Compressibility (1/GPa) = 0.01378699
#
# Stress axis : x y z
#
# Youngs Moduli (GPa) = 95.09721 148.69278 217.13275
#
# Poissons Ratio (x) = 0.13870 0.41484
# Poissons Ratio (y) = 0.08871 0.25758
# Poissons Ratio (z) = 0.18169 0.17639
#
# Static dielectric constant tensor:
#      x y z
#    x 2.228640 -0.139550 -0.002720 
#    y -0.139550 2.289610 0.040480 
#    z -0.002720 0.040480 2.312430 
# 
# From -- ./inp_files/480066.got.cif
#   From: 2010.05.17/outbox.cif.g08.bks.cpg/sg2_241_cif.got.tgz:480066.got - 2010.06.03 11:33:40.
