data_PCOD9041952
_publ_section_title
;
Structure prediction by ZEFSAII (Michael W. Deem and Ramdas Pophale) SiO2 
 PCOD9041952
Probable space group: P -1
;
_chemical_formula_sum "Si O2"
_cell_formula_units_Z 16
_cell_length_a 9.475380
_cell_length_b 5.267652
_cell_length_c 18.313078
_cell_angle_alpha 117.766125
_cell_angle_beta 56.464418
_cell_angle_gamma 90.142130
_cell_volume 632.643367
_symmetry_space_group_name_H-M "P -1"
_symmetry_group_IT_number 2
_symmetry_cell_setting 'triclinic'
loop_
_space_group_symop_operation_xyz
x,y,z
-x,-y,-z
loop_
_atom_site_type_symbol
_atom_site_label
_atom_site_fract_x
_atom_site_fract_y
_atom_site_fract_z
Si Si1 0.081430 0.226279 0.310344
Si Si2 0.310472 0.297466 0.374059
Si Si3 0.417403 0.709702 0.822339
Si Si4 0.620986 0.853782 0.308868
Si Si5 0.170088 0.162340 0.061051
Si Si6 0.282048 0.525366 0.183358
Si Si7 0.039556 0.270292 0.888306
Si Si8 0.316759 0.730995 0.547650
O O1 0.128363 0.288879 0.388970
O O2 0.144507 0.445730 0.268351
O O3 0.870519 0.283617 0.369046
O O4 0.194505 0.864276 0.221509
O O5 0.439757 0.204260 0.254457
O O6 0.308901 0.617517 0.451976
O O7 0.414930 0.052260 0.372383
O O8 0.351272 0.492993 0.761747
O O9 0.534138 0.518170 0.831419
O O10 0.259145 0.985468 0.938922
O O11 0.756043 0.918270 0.218970
O O12 0.671403 0.946024 0.386236
O O13 0.313748 0.258116 0.079267
O O14 0.028651 0.490808 0.126013
O O15 0.075767 0.949805 0.098353
O O16 0.000000 0.500000 0.000000
O O17 0.500000 0.500000 0.500000
#
# Coordination Sequence:
#
# PCOD9041952 Si02
#       8
#     2   2   2   2   2   2   2   2
#     4  11  23  49  70 102 134 180 220 283 336 406
#     4  10  23  44  68  94 134 177 230 277 343 396
#     4  11  24  41  66  96 136 181 223 281 336 402
#     4  11  22  42  65  96 138 175 227 280 341 397
#     4  12  25  42  67 100 138 181 230 275 335 400
#     4  11  24  44  71 101 136 176 230 274 338 398
#     4  12  25  42  67  99 137 184 224 276 338 404
#     4  10  23  45  70 101 133 173 228 281 340 403
#
# _framework density 25.290710000000001
#
# number of rings (size 3 to 8) (size 9 to 14) (size 15 to 20)
#    0.000    1.000    2.500    4.125    1.750    0.500 
#    9.000    5.000    0.000    0.000    0.000    0.000 
#    0.000    0.000    0.000    0.000    0.000    0.000 
#
# Total GULP energy -89462.897858 kJ/mol
# GULP energy per Si atom -5591.431116 kJ/mol
# Density = 2.523315 g / cm^3
# Si number density = 25.290710 Si / 1000 Ang^3
#
#
#
# Elastic Constant Matrix: (Units=GPa)
#
#
# Indices 1 2 3 4 5 6 
#
# 1 119.5458 22.2649 26.7879 28.8259 19.3043 16.8563
# 2 22.2649 105.2826 30.6173 16.3707 13.5628 11.2970
# 3 26.7879 30.6173 86.5740 29.5924 17.2207 12.3023
# 4 28.8259 16.3707 29.5924 27.5196 16.5907 9.2480
# 5 19.3043 13.5628 17.2207 16.5907 39.4641 12.7708
# 6 16.8563 11.2970 12.3023 9.2480 12.7708 33.5343
#
#
#
# Elastic Compliance Matrix: (Units=1/GPa)
#
#
# Indices 1 2 3 4 5 6 
#
# 1 0.011496 -0.000609 0.001144 -0.012010 0.000004 -0.002682
# 2 -0.000609 0.010985 -0.002604 -0.001973 -0.001025 -0.001505
# 3 0.001144 -0.002604 0.019047 -0.020242 0.001016 -0.001490
# 4 -0.012010 -0.001973 -0.020242 0.084145 -0.019448 -0.001671
# 5 0.000004 -0.001025 0.001016 -0.019448 0.036151 -0.008434
# 6 -0.002682 -0.001505 -0.001490 -0.001671 -0.008434 0.035895
#
#
# Mechanical properties :
#
#
# Convention : Reuss Voigt Hill
#
# Bulk Modulus (GPa) = 26.74643 52.30473 39.52558
# Shear Modulus (GPa) = 23.32975 35.55242 29.44108
#
# Velocity S-wave (km/s) = 3.04050 3.75340 3.41560
# Velocity P-wave (km/s) = 4.78798 6.28572 5.58727
#
# Compressibility (1/GPa) = 0.03738817
#
# Stress axis : x y z
#
# Youngs Moduli (GPa) = 86.98952 91.03656 52.50285
#
# Poissons Ratio (x) = 0.05544 -0.06007
# Poissons Ratio (y) = 0.05297 0.13674
# Poissons Ratio (z) = -0.09952 0.23710
#
# Static dielectric constant tensor:
#      x y z
#    x 2.112380 -0.004020 0.012090 
#    y -0.004020 1.968590 -0.016040 
#    z 0.012090 -0.016040 2.016510 
# 
# From -- ./inp_files/138735.got.cif
#   From: 2010.05.17/outbox.cif.g08.bks.cpg/sg2_70_cif.got.tgz:138735.got - 2010.06.03 11:33:40.
