data_PCOD9041616
_publ_section_title
;
Structure prediction by ZEFSAII (Michael W. Deem and Ramdas Pophale) SiO2 
 PCOD9041616
Probable space group: P -1
;
_chemical_formula_sum "Si O2"
_cell_formula_units_Z 16
_cell_length_a 10.543453
_cell_length_b 13.853075
_cell_length_c 8.870318
_cell_angle_alpha 128.181441
_cell_angle_beta 102.781160
_cell_angle_gamma 42.462882
_cell_volume 616.584851
_symmetry_space_group_name_H-M "P -1"
_symmetry_group_IT_number 2
_symmetry_cell_setting 'triclinic'
loop_
_space_group_symop_operation_xyz
x,y,z
-x,-y,-z
loop_
_atom_site_type_symbol
_atom_site_label
_atom_site_fract_x
_atom_site_fract_y
_atom_site_fract_z
Si Si1 0.411707 0.701393 0.822610
Si Si2 0.243226 0.369533 0.134845
Si Si3 0.767562 0.969447 0.677691
Si Si4 0.488108 0.593443 0.236164
Si Si5 0.177256 0.243809 0.747783
Si Si6 0.157211 0.274266 0.281045
Si Si7 0.916023 0.312577 0.011983
Si Si8 0.114369 0.906929 0.651053
O O1 0.639845 0.592292 0.755315
O O2 0.432071 0.549317 0.741565
O O3 0.261494 0.816863 0.750554
O O4 0.333947 0.843645 0.077516
O O5 0.299464 0.235615 0.155955
O O6 0.994884 0.576480 0.242597
O O7 0.297743 0.260415 0.886567
O O8 0.694832 0.959051 0.493887
O O9 0.758150 0.863169 0.689575
O O10 0.990884 0.869582 0.596939
O O11 0.265287 0.802235 0.442042
O O12 0.500000 0.500000 0.000000
O O13 0.681658 0.537357 0.192466
O O14 0.029966 0.290700 0.880984
O O15 0.000000 0.500000 0.500000
O O16 0.036251 0.260089 0.142726
O O17 0.952183 0.140522 0.834080
#
# Coordination Sequence:
#
# PCOD9041616 Si02
#       8
#     2   2   2   2   2   2   2   2
#     4  12  25  44  68 102 141 176 234 291 339 419
#     4  10  23  44  65  97 137 181 234 279 342 412
#     4  12  23  43  71  99 137 181 229 286 350 401
#     4  12  27  43  70 105 137 185 231 283 349 421
#     4  10  23  44  69  95 140 185 223 286 344 412
#     4  11  23  41  70  97 132 185 228 281 341 409
#     4  11  24  47  69 104 140 180 234 280 351 410
#     4  12  26  46  73 103 143 181 228 296 347 406
#
# _framework density 25.949389
#
# number of rings (size 3 to 8) (size 9 to 14) (size 15 to 20)
#    0.000    0.750    3.750    3.750    3.500    2.000 
#    0.000    0.000    0.000    0.000    0.000    0.000 
#    0.000    0.000    0.000    0.000    0.000    0.000 
#
# Total GULP energy -89435.853064 kJ/mol
# GULP energy per Si atom -5589.740817 kJ/mol
# Density = 2.589033 g / cm^3
# Si number density = 25.949389 Si / 1000 Ang^3
#
#
#
# Elastic Constant Matrix: (Units=GPa)
#
#
# Indices 1 2 3 4 5 6 
#
# 1 64.7605 26.4513 9.7465 -5.4960 -7.8891 10.2524
# 2 26.4513 86.7920 18.4247 0.4619 -2.5962 17.0439
# 3 9.7465 18.4247 133.0638 9.3951 -0.6366 -4.8327
# 4 -5.4960 0.4619 9.3951 46.4711 -5.3319 7.0418
# 5 -7.8891 -2.5962 -0.6366 -5.3319 34.6192 2.9773
# 6 10.2524 17.0439 -4.8327 7.0418 2.9773 30.7695
#
#
#
# Elastic Compliance Matrix: (Units=1/GPa)
#
#
# Indices 1 2 3 4 5 6 
#
# 1 0.019275 -0.004368 -0.001270 0.004022 0.005144 -0.005620
# 2 -0.004368 0.014751 -0.002053 0.000962 0.000852 -0.007340
# 3 -0.001270 -0.002053 0.008186 -0.002425 -0.000967 0.003495
# 4 0.004022 0.000962 -0.002425 0.024362 0.005415 -0.008353
# 5 0.005144 0.000852 -0.000967 0.005415 0.031508 -0.006626
# 6 -0.005620 -0.007340 0.003495 -0.008353 -0.006626 0.041540
#
#
# Mechanical properties :
#
#
# Convention : Reuss Voigt Hill
#
# Bulk Modulus (GPa) = 37.27448 43.76237 40.51843
# Shear Modulus (GPa) = 30.49752 37.70487 34.10119
#
# Velocity S-wave (km/s) = 3.43194 3.81598 3.62904
# Velocity P-wave (km/s) = 5.48632 6.02634 5.76266
#
# Compressibility (1/GPa) = 0.02682801
#
# Stress axis : x y z
#
# Youngs Moduli (GPa) = 51.88145 67.79298 122.15913
#
# Poissons Ratio (x) = 0.29615 0.15519
# Poissons Ratio (y) = 0.22664 0.25078
# Poissons Ratio (z) = 0.06591 0.13917
#
# Static dielectric constant tensor:
#      x y z
#    x 2.124210 -0.048940 -0.051590 
#    y -0.048940 2.154630 0.062630 
#    z -0.051590 0.062630 2.102220 
# 
# From -- ./inp_files/274423.got.cif
#   From: 2010.05.17/outbox.cif.g08.bks.cpg/sg2_138_cif.got.tgz:274423.got - 2010.06.03 11:33:40.
