data_PCOD9041654
_publ_section_title
;
Structure prediction by ZEFSAII (Michael W. Deem and Ramdas Pophale) SiO2 
 PCOD9041654
Probable space group: P -1
;
_chemical_formula_sum "Si O2"
_cell_formula_units_Z 16
_cell_length_a 14.905605
_cell_length_b 8.618987
_cell_length_c 8.158952
_cell_angle_alpha 106.777368
_cell_angle_beta 44.879311
_cell_angle_gamma 97.626675
_cell_volume 704.123812
_symmetry_space_group_name_H-M "P -1"
_symmetry_group_IT_number 2
_symmetry_cell_setting 'triclinic'
loop_
_space_group_symop_operation_xyz
x,y,z
-x,-y,-z
loop_
_atom_site_type_symbol
_atom_site_label
_atom_site_fract_x
_atom_site_fract_y
_atom_site_fract_z
Si Si1 0.958000 0.816927 0.012322
Si Si2 0.193779 0.549531 0.546006
Si Si3 0.277514 0.062082 0.824854
Si Si4 0.089095 0.214859 0.555088
Si Si5 0.183976 0.873572 0.156446
Si Si6 0.379578 0.693055 0.085956
Si Si7 0.433788 0.550077 0.429398
Si Si8 0.476372 0.877287 0.300923
O O1 0.071988 0.678198 0.782087
O O2 0.839245 0.809938 0.038866
O O3 0.910307 0.800329 0.253848
O O4 0.000000 0.000000 0.000000
O O5 0.151699 0.378675 0.486218
O O6 0.278948 0.626536 0.321225
O O7 0.286657 0.522687 0.577109
O O8 0.378130 0.097851 0.845165
O O9 0.369848 0.021119 0.537326
O O10 0.211373 0.912472 0.943800
O O11 0.940706 0.221576 0.696270
O O12 0.152731 0.048368 0.339987
O O13 0.303291 0.774554 0.056892
O O14 0.450229 0.822371 0.136431
O O15 0.483113 0.553672 0.846195
O O16 0.500000 0.500000 0.500000
O O17 0.448664 0.735543 0.421152
#
# Coordination Sequence:
#
# PCOD9041654 Si02
#       8
#     2   2   2   2   2   2   2   2
#     4  12  23  45  72  97 142 183 223 291 345 401
#     4  11  26  45  70 101 137 183 229 286 343 413
#     4  11  24  41  72  99 136 179 229 284 340 416
#     4  11  26  43  66 102 141 176 235 277 347 409
#     4  11  25  44  68 100 138 183 229 285 337 413
#     4  11  25  45  71  97 138 184 221 291 344 405
#     4  11  25  44  70  98 137 179 228 288 344 408
#     4  10  23  44  66 103 133 177 232 276 350 408
#
# _framework density 22.723277
#
# number of rings (size 3 to 8) (size 9 to 14) (size 15 to 20)
#    0.000    1.000    1.250    5.625    8.750    2.000 
#    0.000    0.000    0.000    0.000    0.000    0.000 
#    0.000    0.000    0.000    0.000    0.000    0.000 
#
# Total GULP energy -89529.109523 kJ/mol
# GULP energy per Si atom -5595.569345 kJ/mol
# Density = 2.267156 g / cm^3
# Si number density = 22.723277 Si / 1000 Ang^3
#
#
#
# Elastic Constant Matrix: (Units=GPa)
#
#
# Indices 1 2 3 4 5 6 
#
# 1 120.4882 25.9212 45.6362 11.3120 -29.8754 -10.3270
# 2 25.9212 52.1458 3.4034 9.4933 -18.7634 14.6360
# 3 45.6362 3.4034 103.6225 12.4960 -22.2713 -3.3275
# 4 11.3120 9.4933 12.4960 19.7046 -10.5271 -5.2929
# 5 -29.8754 -18.7634 -22.2713 -10.5271 42.5890 -2.0362
# 6 -10.3270 14.6360 -3.3275 -5.2929 -2.0362 40.2156
#
#
#
# Elastic Compliance Matrix: (Units=1/GPa)
#
#
# Indices 1 2 3 4 5 6 
#
# 1 0.012861 -0.006572 -0.004584 0.002793 0.004702 0.005921
# 2 -0.006572 0.031407 0.004730 -0.014156 0.007522 -0.014209
# 3 -0.004584 0.004730 0.013072 -0.006470 0.003987 -0.002467
# 4 0.002793 -0.014156 -0.006470 0.069580 0.010256 0.015011
# 5 0.004702 0.007522 0.003987 0.010256 0.034804 0.001912
# 6 0.005921 -0.014209 -0.002467 0.015011 0.001912 0.033426
#
#
# Mechanical properties :
#
#
# Convention : Reuss Voigt Hill
#
# Bulk Modulus (GPa) = 22.47791 47.35312 34.91552
# Shear Modulus (GPa) = 22.43847 33.92154 28.18000
#
# Velocity S-wave (km/s) = 3.14581 3.86788 3.52538
# Velocity P-wave (km/s) = 4.80711 6.38996 5.65420
#
# Compressibility (1/GPa) = 0.04448812
#
# Stress axis : x y z
#
# Youngs Moduli (GPa) = 77.75421 31.83997 76.50023
#
# Poissons Ratio (x) = 0.20926 0.35069
# Poissons Ratio (y) = 0.51101 -0.36188
# Poissons Ratio (z) = 0.35644 -0.15062
#
# Static dielectric constant tensor:
#      x y z
#    x 1.859020 0.018590 -0.012010 
#    y 0.018590 1.852130 0.000940 
#    z -0.012010 0.000940 1.832960 
# 
# From -- ./inp_files/299058.got.cif
#   From: 2010.05.17/outbox.cif.g08.bks.cpg/sg2_150_cif.got.tgz:299058.got - 2010.06.03 11:33:40.
