data_PCOD9041880
_publ_section_title
;
Structure prediction by ZEFSAII (Michael W. Deem and Ramdas Pophale) SiO2 
 PCOD9041880
Probable space group: P -1
;
_chemical_formula_sum "Si O2"
_cell_formula_units_Z 16
_cell_length_a 6.223076
_cell_length_b 19.098460
_cell_length_c 14.897880
_cell_angle_alpha 23.454960
_cell_angle_beta 91.080199
_cell_angle_gamma 100.472487
_cell_volume 641.642695
_symmetry_space_group_name_H-M "P -1"
_symmetry_group_IT_number 2
_symmetry_cell_setting 'triclinic'
loop_
_space_group_symop_operation_xyz
x,y,z
-x,-y,-z
loop_
_atom_site_type_symbol
_atom_site_label
_atom_site_fract_x
_atom_site_fract_y
_atom_site_fract_z
Si Si1 0.547324 0.410088 0.428121
Si Si2 0.395090 0.191976 0.962032
Si Si3 0.119225 0.051228 0.812669
Si Si4 0.177045 0.486496 0.091983
Si Si5 0.189149 0.705696 0.297426
Si Si6 0.697404 0.789855 0.690424
Si Si7 0.708435 0.070108 0.218342
Si Si8 0.891023 0.632798 0.035725
O O1 0.602113 0.599065 0.266187
O O2 0.275014 0.262357 0.604126
O O3 0.716001 0.314746 0.580293
O O4 0.636147 0.485042 0.240723
O O5 0.579738 0.226855 0.842779
O O6 0.505438 0.140229 0.112673
O O7 0.146845 0.019467 0.139986
O O8 0.273509 0.044761 0.734073
O O9 0.109387 0.879788 0.080666
O O10 0.207706 0.293021 0.296113
O O11 0.051979 0.523067 0.134836
O O12 0.433891 0.651508 0.880633
O O13 0.000000 0.500000 0.000000
O O14 0.000000 0.500000 0.500000
O O15 0.677621 0.973202 0.429635
O O16 0.854320 0.771643 0.796290
O O17 0.966411 0.243333 0.024738
#
# Coordination Sequence:
#
# PCOD9041880 Si02
#       8
#     2   2   2   2   2   2   2   2
#     4  12  25  47  74 104 148 186 237 292 352 431
#     4  11  25  49  70 106 143 192 232 290 362 414
#     4  11  26  46  72 107 141 188 239 290 353 427
#     4   9  22  41  66  98 135 177 241 292 359 414
#     4  11  23  50  76 105 148 182 232 298 353 422
#     4  10  23  44  68 100 137 187 244 293 354 427
#     4  11  25  45  68 101 147 181 243 304 345 423
#     4  11  24  45  68 103 139 188 237 297 363 413
#
# _framework density 24.935998000000001
#
# number of rings (size 3 to 8) (size 9 to 14) (size 15 to 20)
#    0.000    1.250    2.500    1.875    7.000    3.000 
#   11.250    0.000    0.000    0.000    0.000    0.000 
#    0.000    0.000    0.000    0.000    0.000    0.000 
#
# Total GULP energy -89487.385330 kJ/mol
# GULP energy per Si atom -5592.961583 kJ/mol
# Density = 2.487924 g / cm^3
# Si number density = 24.935998 Si / 1000 Ang^3
#
#
#
# Elastic Constant Matrix: (Units=GPa)
#
#
# Indices 1 2 3 4 5 6 
#
# 1 82.3472 16.5406 31.7866 4.1987 2.3046 27.3115
# 2 16.5406 68.0888 34.8208 5.0247 3.7308 24.9001
# 3 31.7866 34.8208 110.2580 14.2163 1.3850 32.3515
# 4 4.1987 5.0247 14.2163 43.2798 14.4679 -3.4854
# 5 2.3046 3.7308 1.3850 14.4679 28.3718 3.2804
# 6 27.3115 24.9001 32.3515 -3.4854 3.2804 57.1705
#
#
#
# Elastic Compliance Matrix: (Units=1/GPa)
#
#
# Indices 1 2 3 4 5 6 
#
# 1 0.015114 -0.000221 -0.002426 -0.001179 0.000196 -0.005834
# 2 -0.000221 0.019130 -0.004113 -0.000944 -0.001135 -0.005891
# 3 -0.002426 -0.004113 0.013149 -0.005103 0.003275 -0.004989
# 4 -0.001179 -0.000944 -0.005103 0.030913 -0.016066 0.006668
# 5 0.000196 -0.001135 0.003275 -0.016066 0.043985 -0.004956
# 6 -0.005834 -0.005891 -0.004989 0.006668 -0.004956 0.026359
#
#
# Mechanical properties :
#
#
# Convention : Reuss Voigt Hill
#
# Bulk Modulus (GPa) = 29.52265 47.44332 38.48299
# Shear Modulus (GPa) = 28.82474 37.60080 33.21277
#
# Velocity S-wave (km/s) = 3.40361 3.88737 3.65351
# Velocity P-wave (km/s) = 5.22601 6.26229 5.76747
#
# Compressibility (1/GPa) = 0.03387230
#
# Stress axis : x y z
#
# Youngs Moduli (GPa) = 66.16268 52.27342 76.05281
#
# Poissons Ratio (x) = 0.01156 0.18451
# Poissons Ratio (y) = 0.01463 0.31283
# Poissons Ratio (z) = 0.16052 0.21502
#
# Static dielectric constant tensor:
#      x y z
#    x 1.966730 -0.055710 0.068930 
#    y -0.055710 2.024730 -0.030020 
#    z 0.068930 -0.030020 2.001190 
# 
# From -- ./inp_files/488291.got.cif
#   From: 2010.05.17/outbox.cif.g08.bks.cpg/sg2_245_cif.got.tgz:488291.got - 2010.06.03 11:33:40.
