data_PCOD9041990
_publ_section_title
;
Structure prediction by ZEFSAII (Michael W. Deem and Ramdas Pophale) SiO2 
 PCOD9041990
Probable space group: P -1
;
_chemical_formula_sum "Si O2"
_cell_formula_units_Z 14
_cell_length_a 11.168006
_cell_length_b 9.101097
_cell_length_c 11.211459
_cell_angle_alpha 40.136448
_cell_angle_beta 52.366828
_cell_angle_gamma 66.095051
_cell_volume 577.476714
_symmetry_space_group_name_H-M "P -1"
_symmetry_group_IT_number 2
_symmetry_cell_setting 'triclinic'
loop_
_space_group_symop_operation_xyz
x,y,z
-x,-y,-z
loop_
_atom_site_type_symbol
_atom_site_label
_atom_site_fract_x
_atom_site_fract_y
_atom_site_fract_z
Si Si1 0.632340 0.724799 0.665019
Si Si2 0.670908 0.937435 0.940898
Si Si3 0.806225 0.808896 0.160710
Si Si4 0.168658 0.561963 0.415941
Si Si5 0.337756 0.883122 0.774068
Si Si6 0.145757 0.181179 0.322642
Si Si7 0.931091 0.374488 0.001968
O O1 0.701943 0.502495 0.715173
O O2 0.471807 0.737719 0.819684
O O3 0.764137 0.848009 0.593297
O O4 0.605500 0.871426 0.471531
O O5 0.785837 0.173250 0.742074
O O6 0.733534 0.824125 0.855406
O O7 0.500000 0.000000 0.000000
O O8 0.684017 0.776918 0.148170
O O9 0.811585 0.605697 0.378986
O O10 0.963550 0.811093 0.991777
O O11 0.772065 0.041871 0.102049
O O12 0.000000 0.500000 0.500000
O O13 0.239648 0.744744 0.817199
O O14 0.081376 0.425035 0.210386
O O15 0.000000 0.000000 0.500000
O O16 0.000000 0.500000 0.000000
#
# Coordination Sequence:
#
# PCOD9041990 Si02
#       7
#     2   2   2   2   2   2   2
#     4  10  23  44  68  97 135 181 226 287 344 417
#     4  12  28  46  71 107 143 187 238 297 358 420
#     4  11  25  46  70 102 141 182 234 294 346 423
#     4  11  26  45  74 105 139 187 239 288 356 428
#     4  10  24  42  68  99 134 176 229 283 351 411
#     4  12  25  45  67  99 143 181 232 288 352 423
#     4  12  24  40  67  98 131 178 223 281 345 415
#
# _framework density 24.243400999999999
#
# number of rings (size 3 to 8) (size 9 to 14) (size 15 to 20)
#    0.000    0.857    1.429    4.714   10.000    1.143 
#    0.000    0.000    0.000    0.000    0.000    0.000 
#    0.000    0.000    0.000    0.000    0.000    0.000 
#
# Total GULP energy -78251.847966 kJ/mol
# GULP energy per Si atom -5589.417712 kJ/mol
# Density = 2.418822 g / cm^3
# Si number density = 24.243401 Si / 1000 Ang^3
#
#
#
# Elastic Constant Matrix: (Units=GPa)
#
#
# Indices 1 2 3 4 5 6 
#
# 1 125.6404 34.9522 26.2767 13.8919 12.7410 -34.2330
# 2 34.9522 153.7439 8.8010 8.3677 -6.4417 -30.6624
# 3 26.2767 8.8010 57.0786 -4.6585 15.2357 -12.4790
# 4 13.8919 8.3677 -4.6585 32.4036 -5.4702 3.2840
# 5 12.7410 -6.4417 15.2357 -5.4702 41.3594 1.0809
# 6 -34.2330 -30.6624 -12.4790 3.2840 1.0809 45.5591
#
#
#
# Elastic Compliance Matrix: (Units=1/GPa)
#
#
# Indices 1 2 3 4 5 6 
#
# 1 0.012327 -0.000696 -0.003254 -0.007087 -0.003867 0.008505
# 2 -0.000696 0.007788 -0.000315 -0.002046 0.001149 0.004752
# 3 -0.003254 -0.000315 0.021840 0.003145 -0.006761 0.003259
# 4 -0.007087 -0.002046 0.003145 0.036731 0.005790 -0.008626
# 5 -0.003867 0.001149 -0.006761 0.005790 0.028938 -0.005088
# 6 0.008505 0.004752 0.003259 -0.008626 -0.005088 0.033174
#
#
# Mechanical properties :
#
#
# Convention : Reuss Voigt Hill
#
# Bulk Modulus (GPa) = 29.91856 52.94696 41.43276
# Shear Modulus (GPa) = 31.15867 41.62663 36.39265
#
# Velocity S-wave (km/s) = 3.58892 4.14820 3.87865
# Velocity P-wave (km/s) = 5.43521 6.69556 6.09803
#
# Compressibility (1/GPa) = 0.03342406
#
# Stress axis : x y z
#
# Youngs Moduli (GPa) = 81.12589 128.40495 45.78702
#
# Poissons Ratio (x) = 0.08938 0.14900
# Poissons Ratio (y) = 0.05647 0.01442
# Poissons Ratio (z) = 0.26400 0.04044
#
# Static dielectric constant tensor:
#      x y z
#    x 1.929740 -0.010630 0.001590 
#    y -0.010630 1.964110 0.066670 
#    z 0.001590 0.066670 2.038880 
# 
# From -- ./inp_files/262858.got.cif
#   From: 2010.05.17/outbox.cif.g08.bks.cpg/sg2_132_cif.got.tgz:262858.got - 2010.06.03 11:33:40.
