data_PCOD9041177
_publ_section_title
;
Structure prediction by ZEFSAII (Michael W. Deem and Ramdas Pophale) SiO2 
 PCOD9041177
Probable space group: P -1
;
_chemical_formula_sum "Si O2"
_cell_formula_units_Z 14
_cell_length_a 9.057595
_cell_length_b 8.344309
_cell_length_c 12.723160
_cell_angle_alpha 90.404741
_cell_angle_beta 131.584733
_cell_angle_gamma 118.003251
_cell_volume 556.208235
_symmetry_space_group_name_H-M "P -1"
_symmetry_group_IT_number 2
_symmetry_cell_setting 'triclinic'
loop_
_space_group_symop_operation_xyz
x,y,z
-x,-y,-z
loop_
_atom_site_type_symbol
_atom_site_label
_atom_site_fract_x
_atom_site_fract_y
_atom_site_fract_z
Si Si1 0.034005 0.449641 0.653905
Si Si2 0.873395 0.755970 0.128886
Si Si3 0.777032 0.974124 0.963950
Si Si4 0.860122 0.585836 0.900471
Si Si5 0.634769 0.823853 0.407184
Si Si6 0.534788 0.916195 0.632134
Si Si7 0.937955 0.196695 0.396412
O O1 0.151776 0.386771 0.793025
O O2 0.135056 0.684340 0.705400
O O3 0.052367 0.354773 0.553310
O O4 0.724841 0.307874 0.522431
O O5 0.176054 0.958018 0.270643
O O6 0.721447 0.843417 0.041034
O O7 0.800178 0.634880 0.984145
O O8 0.930670 0.211576 0.066209
O O9 0.569750 0.899711 0.775074
O O10 0.000000 0.000000 0.000000
O O11 0.602371 0.413981 0.720536
O O12 0.000000 0.500000 0.000000
O O13 0.531535 0.930198 0.415784
O O14 0.855401 0.820582 0.553218
O O15 0.738213 0.965080 0.350215
#
# Coordination Sequence:
#
# PCOD9041177 Si02
#       7
#     2   2   2   2   2   2   2
#     4  10  20  38  55  76 109 141 193 219 256 315
#     4  10  20  33  54  89 109 132 177 232 272 314
#     4   8  17  30  51  86 105 134 170 205 289 320
#     4  10  17  33  57  82 111 141 166 220 284 328
#     4  10  18  36  58  76 105 141 191 209 260 338
#     4   9  17  33  58  81 107 139 171 227 275 320
#     4   9  22  36  58  73 102 160 183 213 258 316
#
# _framework density 25.170427
#
# number of rings (size 3 to 8) (size 9 to 14) (size 15 to 20)
#    0.000    2.857    2.857    0.429    6.000    0.000 
#    0.000    6.429    0.000    0.000    0.000    0.000 
#    0.000    0.000    0.000    0.000    0.000    0.000 
#
# Total GULP energy -77977.713871 kJ/mol
# GULP energy per Si atom -5569.836705 kJ/mol
# Density = 2.511314 g / cm^3
# Si number density = 25.170427 Si / 1000 Ang^3
#
#
#
# Elastic Constant Matrix: (Units=GPa)
#
#
# Indices 1 2 3 4 5 6 
#
# 1 50.0771 6.2008 -3.9708 -1.6964 9.9182 -5.5754
# 2 6.2008 170.5352 38.4191 -41.3424 4.1251 -1.4009
# 3 -3.9708 38.4191 66.6472 -22.8612 -1.9293 5.1059
# 4 -1.6964 -41.3424 -22.8612 54.1278 0.4939 10.0944
# 5 9.9182 4.1251 -1.9293 0.4939 25.6806 -2.7535
# 6 -5.5754 -1.4009 5.1059 10.0944 -2.7535 27.1170
#
#
#
# Elastic Compliance Matrix: (Units=1/GPa)
#
#
# Indices 1 2 3 4 5 6 
#
# 1 0.022141 -0.000883 0.001340 0.000016 -0.007940 0.003442
# 2 -0.000883 0.007743 -0.002755 0.004968 -0.001339 -0.001248
# 3 0.001340 -0.002755 0.019721 0.007434 0.000590 -0.006288
# 4 0.000016 0.004968 0.007434 0.027595 -0.002022 -0.011617
# 5 -0.007940 -0.001339 0.000590 -0.002022 0.042656 0.003271
# 6 0.003442 -0.001248 -0.006288 -0.011617 0.003271 0.043361
#
#
# Mechanical properties :
#
#
# Convention : Reuss Voigt Hill
#
# Bulk Modulus (GPa) = 22.21744 40.95083 31.58413
# Shear Modulus (GPa) = 27.34988 37.82577 32.58783
#
# Velocity S-wave (km/s) = 3.29992 3.88078 3.60208
# Velocity P-wave (km/s) = 4.83376 6.03203 5.46583
#
# Compressibility (1/GPa) = 0.04500969
#
# Stress axis : x y z
#
# Youngs Moduli (GPa) = 45.16476 129.14594 50.70638
#
# Poissons Ratio (x) = 0.11400 -0.06795
# Poissons Ratio (y) = 0.03987 0.13971
# Poissons Ratio (z) = -0.06052 0.35584
#
# Static dielectric constant tensor:
#      x y z
#    x 2.182480 -0.010450 -0.151510 
#    y -0.010450 2.077150 -0.010790 
#    z -0.151510 -0.010790 2.192550 
# 
# From -- ./inp_files/163236.got.cif
#   From: 2010.05.17/outbox.cif.g08.bks.cpg/sg2_82_cif.got.tgz:163236.got - 2010.06.03 11:33:40.
