data_PCOD9041256
_publ_section_title
;
Structure prediction by ZEFSAII (Michael W. Deem and Ramdas Pophale) SiO2 
 PCOD9041256
Probable space group: P -1
;
_chemical_formula_sum "Si O2"
_cell_formula_units_Z 16
_cell_length_a 8.806380
_cell_length_b 5.649361
_cell_length_c 14.982910
_cell_angle_alpha 117.884364
_cell_angle_beta 96.914586
_cell_angle_gamma 98.294647
_cell_volume 636.751403
_symmetry_space_group_name_H-M "P -1"
_symmetry_group_IT_number 2
_symmetry_cell_setting 'triclinic'
loop_
_space_group_symop_operation_xyz
x,y,z
-x,-y,-z
loop_
_atom_site_type_symbol
_atom_site_label
_atom_site_fract_x
_atom_site_fract_y
_atom_site_fract_z
Si Si1 0.381656 0.340637 0.889540
Si Si2 0.032863 0.598317 0.623032
Si Si3 0.390252 0.763995 0.700557
Si Si4 0.974561 0.837314 0.115450
Si Si5 0.589991 0.519829 0.785246
Si Si6 0.571896 0.950851 0.589607
Si Si7 0.929044 0.637534 0.882385
Si Si8 0.077357 0.955435 0.401443
O O1 0.204896 0.304150 0.900683
O O2 0.436521 0.509320 0.833086
O O3 0.400629 0.040380 0.807851
O O4 0.500000 0.500000 0.000000
O O5 0.210420 0.601160 0.666641
O O6 0.000000 0.500000 0.500000
O O7 0.927230 0.371022 0.641525
O O8 0.014217 0.914472 0.660355
O O9 0.547238 0.669708 0.723014
O O10 0.422260 0.772244 0.598777
O O11 0.069872 0.684538 0.163002
O O12 0.011241 0.756404 0.001967
O O13 0.995595 0.165298 0.159552
O O14 0.603548 0.222120 0.701869
O O15 0.747976 0.656888 0.870648
O O16 0.741279 0.888839 0.572685
O O17 0.500000 0.000000 0.500000
O O18 0.000000 0.000000 0.500000
#
# Coordination Sequence:
#
# PCOD9041256 Si02
#       8
#     2   2   2   2   2   2   2   2
#     4  11  25  47  73 106 147 197 242 306 368 443
#     4  10  23  44  72 101 145 187 242 302 362 437
#     4  11  28  45  72 109 146 195 249 307 375 449
#     4  10  23  43  74 102 142 193 241 294 368 433
#     4  11  27  45  71 107 149 187 250 304 372 444
#     4  11  26  46  72 102 145 195 241 304 372 445
#     4  10  23  44  69 105 144 188 242 301 360 438
#     4  10  23  43  72 103 136 190 240 299 361 435
#
# _framework density 25.127544
#
# number of rings (size 3 to 8) (size 9 to 14) (size 15 to 20)
#    0.000    1.500    1.250    1.500   14.000    4.000 
#    0.000    0.000    0.000    0.000    0.000    0.000 
#    0.000    0.000    0.000    0.000    0.000    0.000 
#
# Total GULP energy -89210.021378 kJ/mol
# GULP energy per Si atom -5575.626336 kJ/mol
# Density = 2.507035 g / cm^3
# Si number density = 25.127544 Si / 1000 Ang^3
#
#
#
# Elastic Constant Matrix: (Units=GPa)
#
#
# Indices 1 2 3 4 5 6 
#
# 1 131.4648 26.1656 11.4495 -8.3914 7.0254 9.6620
# 2 26.1656 127.2166 22.2111 -24.2257 8.2028 1.1218
# 3 11.4495 22.2111 75.6861 4.6741 4.6730 -1.0113
# 4 -8.3914 -24.2257 4.6741 43.6242 -1.9308 2.8248
# 5 7.0254 8.2028 4.6730 -1.9308 44.4089 -8.5357
# 6 9.6620 1.1218 -1.0113 2.8248 -8.5357 38.6276
#
#
#
# Elastic Compliance Matrix: (Units=1/GPa)
#
#
# Indices 1 2 3 4 5 6 
#
# 1 0.008253 -0.001217 -0.000905 0.001105 -0.001407 -0.002445
# 2 -0.001217 0.009757 -0.002954 0.005494 -0.001199 -0.000723
# 3 -0.000905 -0.002954 0.014492 -0.003454 -0.000840 0.000759
# 4 0.001105 0.005494 -0.003454 0.026713 -0.000148 -0.002513
# 5 -0.001407 -0.001199 -0.000840 -0.000148 0.024142 0.005710
# 6 -0.002445 -0.000723 0.000759 -0.002513 0.005710 0.027986
#
#
# Mechanical properties :
#
#
# Convention : Reuss Voigt Hill
#
# Bulk Modulus (GPa) = 44.74502 50.44665 47.59583
# Shear Modulus (GPa) = 38.77650 43.63489 41.20569
#
# Velocity S-wave (km/s) = 3.93260 4.17170 4.05391
# Velocity P-wave (km/s) = 6.20212 6.58209 6.39493
#
# Compressibility (1/GPa) = 0.02234886
#
# Stress axis : x y z
#
# Youngs Moduli (GPa) = 121.16792 102.49490 69.00513
#
# Poissons Ratio (x) = 0.12470 0.06248
# Poissons Ratio (y) = 0.14742 0.20385
# Poissons Ratio (z) = 0.10971 0.30278
#
# Static dielectric constant tensor:
#      x y z
#    x 1.910250 -0.115200 -0.027040 
#    y -0.115200 2.010440 0.172520 
#    z -0.027040 0.172520 1.959030 
# 
# From -- ./inp_files/488705.got.cif
#   From: 2010.05.17/outbox.cif.g08.bks.cpg/sg2_245_cif.got.tgz:488705.got - 2010.06.03 11:33:40.
