data_PCOD9041009
_publ_section_title
;
Structure prediction by ZEFSAII (Michael W. Deem and Ramdas Pophale) SiO2 
 PCOD9041009
Probable space group: P -1
;
_chemical_formula_sum "Si O2"
_cell_formula_units_Z 15
_cell_length_a 22.158606
_cell_length_b 6.095907
_cell_length_c 8.412682
_cell_angle_alpha 108.099948
_cell_angle_beta 41.192012
_cell_angle_gamma 87.324902
_cell_volume 635.968201
_symmetry_space_group_name_H-M "P -1"
_symmetry_group_IT_number 2
_symmetry_cell_setting 'triclinic'
loop_
_space_group_symop_operation_xyz
x,y,z
-x,-y,-z
loop_
_atom_site_type_symbol
_atom_site_label
_atom_site_fract_x
_atom_site_fract_y
_atom_site_fract_z
Si Si1 0.275214 0.694753 0.951474
Si Si2 0.235030 0.283884 0.742806
Si Si3 0.000000 0.500000 0.000000
Si Si4 0.431791 0.273656 0.781474
Si Si5 0.113099 0.919021 0.584534
Si Si6 0.271099 0.476532 0.399555
Si Si7 0.027443 0.338775 0.249817
Si Si8 0.374002 0.764078 0.466047
O O1 0.230945 0.520775 0.907151
O O2 0.369212 0.489991 0.824138
O O3 0.315992 0.817592 0.762632
O O4 0.191750 0.889122 0.280482
O O5 0.219784 0.366455 0.606614
O O6 0.342080 0.032789 0.498177
O O7 0.149758 0.206203 0.957582
O O8 0.984386 0.536184 0.232668
O O9 0.943182 0.810854 0.157613
O O10 0.507724 0.354323 0.747804
O O11 0.500000 0.000000 0.500000
O O12 0.348083 0.275087 0.074630
O O13 0.183051 0.702127 0.525198
O O14 0.025830 0.847292 0.678703
O O15 0.335744 0.589621 0.400187
O O16 0.000000 0.500000 0.500000
#
# Coordination Sequence:
#
# PCOD9041009 Si02
#       8
#     2   2   1   2   2   2   2   2
#     4  10  23  43  70 104 144 183 237 303 362 432
#     4  11  23  45  69 106 139 190 241 301 362 437
#     4  12  28  46  72 106 146 198 248 310 364 444
#     4  11  22  45  71 105 139 185 238 297 368 442
#     4  11  25  49  71 107 147 195 245 304 370 435
#     4  10  25  46  71 101 148 185 238 302 368 438
#     4  12  26  45  75 106 148 195 255 304 370 441
#     4  11  23  43  71 102 141 187 239 290 367 441
#
# _framework density 23.586082000000001
#
# number of rings (size 3 to 8) (size 9 to 14) (size 15 to 20)
#    0.000    1.067    2.667    2.800    1.867    3.200 
#    9.600    0.000    0.000    0.000    0.000    0.000 
#    0.000    0.000    0.000    0.000    0.000    0.000 
#
# Total GULP energy -83796.499122 kJ/mol
# GULP energy per Si atom -5586.433275 kJ/mol
# Density = 2.353240 g / cm^3
# Si number density = 23.586082 Si / 1000 Ang^3
#
#
#
# Elastic Constant Matrix: (Units=GPa)
#
#
# Indices 1 2 3 4 5 6 
#
# 1 94.6062 18.8732 38.8887 1.4458 11.5597 12.2919
# 2 18.8732 52.2188 51.4189 1.3220 4.5012 -3.3451
# 3 38.8887 51.4189 148.4854 3.7075 12.4329 -7.2663
# 4 1.4458 1.3220 3.7075 36.7611 -1.8132 3.7983
# 5 11.5597 4.5012 12.4329 -1.8132 38.3433 -13.2133
# 6 12.2919 -3.3451 -7.2663 3.7983 -13.2133 42.5409
#
#
#
# Elastic Compliance Matrix: (Units=1/GPa)
#
#
# Indices 1 2 3 4 5 6 
#
# 1 0.013514 -0.002242 -0.002644 0.000199 -0.005053 -0.006120
# 2 -0.002242 0.029445 -0.009601 -0.000125 0.000881 0.001608
# 3 -0.002644 -0.009601 0.010946 -0.000876 -0.001111 0.001612
# 4 0.000199 -0.000125 -0.000876 0.027576 0.000694 -0.002464
# 5 -0.005053 0.000881 -0.001111 0.000694 0.031730 0.011133
# 6 -0.006120 0.001608 0.001612 -0.002464 0.011133 0.029355
#
#
# Mechanical properties :
#
#
# Convention : Reuss Voigt Hill
#
# Bulk Modulus (GPa) = 40.11302 57.07469 48.59385
# Shear Modulus (GPa) = 27.80090 35.93770 31.86930
#
# Velocity S-wave (km/s) = 3.43694 3.90767 3.67984
# Velocity P-wave (km/s) = 5.72661 6.67914 6.22113
#
# Compressibility (1/GPa) = 0.02492956
#
# Stress axis : x y z
#
# Youngs Moduli (GPa) = 73.99791 33.96178 91.35941
#
# Poissons Ratio (x) = 0.07614 0.24158
# Poissons Ratio (y) = 0.16590 0.87716
# Poissons Ratio (z) = 0.19567 0.32607
#
# Static dielectric constant tensor:
#      x y z
#    x 1.962250 0.012510 -0.058400 
#    y 0.012510 1.839110 -0.039120 
#    z -0.058400 -0.039120 1.890000 
# 
# From -- ./inp_files/350801.got.cif
#   From: 2010.05.17/outbox.cif.g08.bks.cpg/sg2_176_cif.got.tgz:350801.got - 2010.06.03 11:33:40.
