data_PCOD9041986
_publ_section_title
;
Structure prediction by ZEFSAII (Michael W. Deem and Ramdas Pophale) SiO2 
 PCOD9041986
Probable space group: P -1
;
_chemical_formula_sum "Si O2"
_cell_formula_units_Z 14
_cell_length_a 8.783071
_cell_length_b 9.341348
_cell_length_c 18.584258
_cell_angle_alpha 128.009121
_cell_angle_beta 131.013760
_cell_angle_gamma 33.181806
_cell_volume 621.440014
_symmetry_space_group_name_H-M "P -1"
_symmetry_group_IT_number 2
_symmetry_cell_setting 'triclinic'
loop_
_space_group_symop_operation_xyz
x,y,z
-x,-y,-z
loop_
_atom_site_type_symbol
_atom_site_label
_atom_site_fract_x
_atom_site_fract_y
_atom_site_fract_z
Si Si1 0.295144 0.844195 0.337794
Si Si2 0.046200 0.400869 0.713475
Si Si3 0.951582 0.431321 0.387125
Si Si4 0.484931 0.504582 0.412653
Si Si5 0.378636 0.064621 0.062733
Si Si6 0.747772 0.490980 0.065758
Si Si7 0.266666 0.942255 0.730425
O O1 0.609521 0.595443 0.322993
O O2 0.383373 0.757012 0.422722
O O3 0.177592 0.114916 0.358955
O O4 0.033468 0.869661 0.256460
O O5 0.013139 0.461178 0.637587
O O6 0.125867 0.526810 0.822877
O O7 0.743114 0.508532 0.677158
O O8 0.261533 0.098189 0.714149
O O9 0.000000 0.500000 0.500000
O O10 0.500000 0.500000 0.500000
O O11 0.754371 0.240443 0.371753
O O12 0.571876 0.777513 0.068471
O O13 0.478876 0.178822 0.172243
O O14 0.032045 0.260820 0.032533
O O15 0.500000 0.000000 0.000000
O O16 0.500000 0.500000 0.000000
#
# Coordination Sequence:
#
# PCOD9041986 Si02
#       7
#     2   2   2   2   2   2   2
#     4  11  25  42  62  93 130 171 225 271 330 392
#     4  10  25  40  68  96 136 179 221 278 332 400
#     4  12  26  42  62  95 138 175 223 279 334 393
#     4  11  22  42  70  94 132 179 227 273 328 396
#     4  11  24  44  72 102 135 173 224 291 342 400
#     4  11  24  45  69 102 138 179 224 275 347 422
#     4  10  23  44  68  97 134 172 231 273 334 401
#
# _framework density 22.528320000000001
#
# number of rings (size 3 to 8) (size 9 to 14) (size 15 to 20)
#    0.000    1.143    2.857    2.143    4.000    3.429 
#    0.000    0.000    0.000    0.000    0.000    0.000 
#    0.000    0.000    0.000    0.000    0.000    0.000 
#
# Total GULP energy -78031.397265 kJ/mol
# GULP energy per Si atom -5573.671233 kJ/mol
# Density = 2.247704 g / cm^3
# Si number density = 22.528320 Si / 1000 Ang^3
#
#
#
# Elastic Constant Matrix: (Units=GPa)
#
#
# Indices 1 2 3 4 5 6 
#
# 1 98.9008 34.5477 28.6302 -4.8148 -4.3327 -5.6399
# 2 34.5477 130.1081 25.4250 3.1949 -14.5108 -1.9262
# 3 28.6302 25.4250 101.6886 3.5374 -5.3812 1.3362
# 4 -4.8148 3.1949 3.5374 15.4075 -7.3085 0.3005
# 5 -4.3327 -14.5108 -5.3812 -7.3085 28.8247 -8.5822
# 6 -5.6399 -1.9262 1.3362 0.3005 -8.5822 46.4554
#
#
#
# Elastic Compliance Matrix: (Units=1/GPa)
#
#
# Indices 1 2 3 4 5 6 
#
# 1 0.012361 -0.002595 -0.002955 0.006026 0.002070 0.001822
# 2 -0.002595 0.009114 -0.001327 -0.000475 0.004086 0.000859
# 3 -0.002955 -0.001327 0.011116 -0.003219 -0.000069 -0.000726
# 4 0.006026 -0.000475 -0.003219 0.077482 0.020954 0.004174
# 5 0.002070 0.004086 -0.000069 0.020954 0.044917 0.008585
# 6 0.001822 0.000859 -0.000726 0.004174 0.008585 0.023363
#
#
# Mechanical properties :
#
#
# Convention : Reuss Voigt Hill
#
# Bulk Modulus (GPa) = 53.08760 56.43372 54.76066
# Shear Modulus (GPa) = 25.20348 34.27717 29.74032
#
# Velocity S-wave (km/s) = 3.34840 3.90489 3.63730
# Velocity P-wave (km/s) = 6.21007 6.74058 6.48076
#
# Compressibility (1/GPa) = 0.01883679
#
# Stress axis : x y z
#
# Youngs Moduli (GPa) = 80.89937 109.71810 89.96336
#
# Poissons Ratio (x) = 0.28470 0.26588
# Poissons Ratio (y) = 0.20992 0.11936
# Poissons Ratio (z) = 0.23909 0.14557
#
# Static dielectric constant tensor:
#      x y z
#    x 2.112120 -0.132180 0.064440 
#    y -0.132180 2.111820 0.068320 
#    z 0.064440 0.068320 1.881520 
# 
# From -- ./inp_files/37840.got.cif
#   From: 2010.05.17/outbox.cif.g08.bks.cpg/sg2_19_cif.got.tgz:37840.got - 2010.06.03 11:33:40.
