data_PCOD9041012
_publ_section_title
;
Structure prediction by ZEFSAII (Michael W. Deem and Ramdas Pophale) SiO2 
 PCOD9041012
Probable space group: P -1
;
_chemical_formula_sum "Si O2"
_cell_formula_units_Z 14
_cell_length_a 14.706908
_cell_length_b 6.288710
_cell_length_c 6.954412
_cell_angle_alpha 109.179657
_cell_angle_beta 112.235786
_cell_angle_gamma 73.682299
_cell_volume 553.218142
_symmetry_space_group_name_H-M "P -1"
_symmetry_group_IT_number 2
_symmetry_cell_setting 'triclinic'
loop_
_space_group_symop_operation_xyz
x,y,z
-x,-y,-z
loop_
_atom_site_type_symbol
_atom_site_label
_atom_site_fract_x
_atom_site_fract_y
_atom_site_fract_z
Si Si1 0.405660 0.369223 0.352966
Si Si2 0.116570 0.210364 0.629645
Si Si3 0.351786 0.505283 0.913855
Si Si4 0.778541 0.745088 0.650465
Si Si5 0.510889 0.117158 0.841204
Si Si6 0.997891 0.291738 0.200456
Si Si7 0.182553 0.888634 0.948377
O O1 0.500000 0.500000 0.500000
O O2 0.367312 0.419876 0.119880
O O3 0.299938 0.413122 0.397318
O O4 0.452304 0.100473 0.326503
O O5 0.207608 0.216713 0.554260
O O6 0.064549 0.455601 0.740812
O O7 0.032482 0.166683 0.395578
O O8 0.152922 0.044097 0.783797
O O9 0.413378 0.711570 0.009174
O O10 0.408941 0.294514 0.770293
O O11 0.240746 0.645796 0.848043
O O12 0.895744 0.669285 0.788372
O O13 0.753065 0.983365 0.818121
O O14 0.500000 0.000000 0.000000
O O15 0.913827 0.153940 0.019519
#
# Coordination Sequence:
#
# PCOD9041012 Si02
#       7
#     2   2   2   2   2   2   2
#     4  11  24  48  71 100 146 192 243 310 353 425
#     4   9  23  46  66 105 156 182 242 288 356 444
#     4  10  23  43  70 105 137 187 248 291 370 434
#     4  10  23  47  69 111 139 188 249 293 353 440
#     4   9  20  46  67  95 136 180 248 295 348 430
#     4   9  22  47  67 108 149 188 239 292 359 443
#     4  12  22  43  76 105 147 187 230 306 363 431
#
# _framework density 25.306473
#
# number of rings (size 3 to 8) (size 9 to 14) (size 15 to 20)
#    0.857    1.143    1.429    0.857    2.000    1.143 
#   15.429    0.000    0.000    0.000    0.000    0.000 
#    0.000    0.000    0.000    0.000    0.000    0.000 
#
# Total GULP energy -78062.367866 kJ/mol
# GULP energy per Si atom -5575.883419 kJ/mol
# Density = 2.524887 g / cm^3
# Si number density = 25.306473 Si / 1000 Ang^3
#
#
#
# Elastic Constant Matrix: (Units=GPa)
#
#
# Indices 1 2 3 4 5 6 
#
# 1 203.0177 68.2507 25.1513 10.3206 9.9323 -0.2055
# 2 68.2507 142.2317 42.2026 -3.1750 -3.0473 -24.9029
# 3 25.1513 42.2026 64.0293 -8.2521 -7.5352 3.0851
# 4 10.3206 -3.1750 -8.2521 35.5860 5.1239 -1.8952
# 5 9.9323 -3.0473 -7.5352 5.1239 38.6971 4.2275
# 6 -0.2055 -24.9029 3.0851 -1.8952 4.2275 41.6309
#
#
#
# Elastic Compliance Matrix: (Units=1/GPa)
#
#
# Indices 1 2 3 4 5 6 
#
# 1 0.006267 -0.003176 -0.000740 -0.002146 -0.001527 -0.001757
# 2 -0.003176 0.011997 -0.006990 0.000866 -0.000565 0.007776
# 3 -0.000740 -0.006990 0.021764 0.003734 0.004043 -0.006038
# 4 -0.002146 0.000866 0.003734 0.030179 -0.002857 0.001895
# 5 -0.001527 -0.000565 0.004043 -0.002857 0.027747 -0.003593
# 6 -0.001757 0.007776 -0.006038 0.001895 -0.003593 0.029562
#
#
# Mechanical properties :
#
#
# Convention : Reuss Voigt Hill
#
# Bulk Modulus (GPa) = 54.89508 75.60977 65.25242
# Shear Modulus (GPa) = 32.17521 41.42775 36.80148
#
# Velocity S-wave (km/s) = 3.56957 4.05043 3.81758
# Velocity P-wave (km/s) = 6.22321 7.19841 6.72850
#
# Compressibility (1/GPa) = 0.01821657
#
# Stress axis : x y z
#
# Youngs Moduli (GPa) = 159.56470 83.35180 45.94846
#
# Poissons Ratio (x) = 0.26471 0.03401
# Poissons Ratio (y) = 0.50675 0.32116
# Poissons Ratio (z) = 0.11810 0.58260
#
# Static dielectric constant tensor:
#      x y z
#    x 2.098500 -0.010970 -0.064000 
#    y -0.010970 1.946690 0.168170 
#    z -0.064000 0.168170 1.743290 
# 
# From -- ./inp_files/288023.got.cif
#   From: 2010.05.17/outbox.cif.g08.bks.cpg/sg2_145_cif.got.tgz:288023.got - 2010.06.03 11:33:40.
