data_PCOD9042539
_publ_section_title
;
Structure prediction by ZEFSAII (Michael W. Deem and Ramdas Pophale) SiO2 
 PCOD9042539
Probable space group: P -1
;
_chemical_formula_sum "Si O2"
_cell_formula_units_Z 10
_cell_length_a 9.918368
_cell_length_b 4.796505
_cell_length_c 12.896318
_cell_angle_alpha 81.094953
_cell_angle_beta 37.402912
_cell_angle_gamma 75.635820
_cell_volume 360.080792
_symmetry_space_group_name_H-M "P -1"
_symmetry_group_IT_number 2
_symmetry_cell_setting 'triclinic'
loop_
_space_group_symop_operation_xyz
x,y,z
-x,-y,-z
loop_
_atom_site_type_symbol
_atom_site_label
_atom_site_fract_x
_atom_site_fract_y
_atom_site_fract_z
Si Si1 0.784801 0.353472 0.150709
Si Si2 0.365819 0.267414 0.500028
Si Si3 0.679288 0.314561 0.824184
Si Si4 0.950224 0.190787 0.853882
Si Si5 0.228444 0.124775 0.363818
O O1 0.545006 0.465575 0.347936
O O2 0.750134 0.304162 0.052048
O O3 0.894197 0.065296 0.162859
O O4 0.000000 0.500000 0.000000
O O5 0.304806 0.145475 0.433594
O O6 0.128933 0.388263 0.697543
O O7 0.500000 0.000000 0.500000
O O8 0.848003 0.112909 0.813198
O O9 0.793863 0.557866 0.688300
O O10 0.603435 0.109127 0.796751
O O11 0.500000 0.500000 0.000000
O O12 0.000000 0.000000 0.500000
#
# Coordination Sequence:
#
# PCOD9042539 Si02
#       5
#     2   2   2   2   2
#     4  10  23  44  72 107 147 193 259 314 375 457
#     4  10  23  48  73 108 147 199 255 311 385 448
#     4  12  27  48  77 110 156 202 254 315 385 451
#     4  10  23  45  69 107 148 198 254 309 383 450
#     4  12  26  50  76 110 154 200 257 313 379 463
#
# _framework density 27.771546000000001
#
# number of rings (size 3 to 8) (size 9 to 14) (size 15 to 20)
#    0.000    1.200    2.000    2.400    2.800    0.800 
#   21.600    0.000    0.000    0.000    0.000    0.000 
#    0.000    0.000    0.000    0.000    0.000    0.000 
#
# Total GULP energy -55950.823804 kJ/mol
# GULP energy per Si atom -5595.082380 kJ/mol
# Density = 2.770834 g / cm^3
# Si number density = 27.771546 Si / 1000 Ang^3
#
#
#
# Elastic Constant Matrix: (Units=GPa)
#
#
# Indices 1 2 3 4 5 6 
#
# 1 172.9928 43.6374 21.6643 -23.9171 40.8617 -5.6943
# 2 43.6374 111.3022 43.7357 -10.2772 19.2194 9.0768
# 3 21.6643 43.7357 228.3568 -30.2579 9.3505 -1.0968
# 4 -23.9171 -10.2772 -30.2579 46.5969 4.2706 -3.4013
# 5 40.8617 19.2194 9.3505 4.2706 47.0119 -10.9289
# 6 -5.6943 9.0768 -1.0968 -3.4013 -10.9289 40.2881
#
#
#
# Elastic Compliance Matrix: (Units=1/GPa)
#
#
# Indices 1 2 3 4 5 6 
#
# 1 0.008590 -0.001863 0.000500 0.004994 -0.007233 0.000107
# 2 -0.001863 0.011406 -0.001822 0.000428 -0.003609 -0.003826
# 3 0.000500 -0.001822 0.005161 0.003334 -0.000864 0.000669
# 4 0.004994 0.000428 0.003334 0.027033 -0.007408 0.000973
# 5 -0.007233 -0.003609 -0.000864 -0.007408 0.031677 0.007735
# 6 0.000107 -0.003826 0.000669 0.000973 0.007735 0.027897
#
#
# Mechanical properties :
#
#
# Convention : Reuss Voigt Hill
#
# Bulk Modulus (GPa) = 53.22570 81.19186 67.20878
# Shear Modulus (GPa) = 40.19455 53.68702 46.94079
#
# Velocity S-wave (km/s) = 3.80850 4.40155 4.11572
# Velocity P-wave (km/s) = 6.20860 7.42500 6.84388
#
# Compressibility (1/GPa) = 0.01878791
#
# Stress axis : x y z
#
# Youngs Moduli (GPa) = 116.40958 87.67690 193.76413
#
# Poissons Ratio (x) = 0.16335 -0.09693
# Poissons Ratio (y) = 0.21689 0.35295
# Poissons Ratio (z) = -0.05823 0.15971
#
# Static dielectric constant tensor:
#      x y z
#    x 2.214690 0.093460 -0.067380 
#    y 0.093460 2.138320 0.050340 
#    z -0.067380 0.050340 2.423580 
# 
# From -- ./inp_files/17987.got.cif
#   From: 2010.05.17/outbox.cif.g08.bks.cpg/sg2_9_cif.got.tgz:17987.got - 2010.06.03 11:33:40.
