data_PCOD9042473
_publ_section_title
;
Structure prediction by ZEFSAII (Michael W. Deem and Ramdas Pophale) SiO2 
 PCOD9042473
Probable space group: P -1
;
_chemical_formula_sum "Si O2"
_cell_formula_units_Z 14
_cell_length_a 9.776511
_cell_length_b 11.553620
_cell_length_c 7.503025
_cell_angle_alpha 118.664518
_cell_angle_beta 132.596772
_cell_angle_gamma 69.378093
_cell_volume 546.915315
_symmetry_space_group_name_H-M "P -1"
_symmetry_group_IT_number 2
_symmetry_cell_setting 'triclinic'
loop_
_space_group_symop_operation_xyz
x,y,z
-x,-y,-z
loop_
_atom_site_type_symbol
_atom_site_label
_atom_site_fract_x
_atom_site_fract_y
_atom_site_fract_z
Si Si1 0.221219 0.965783 0.369555
Si Si2 0.202595 0.076430 0.031118
Si Si3 0.975973 0.352027 0.307190
Si Si4 0.298936 0.245147 0.707433
Si Si5 0.511113 0.264828 0.412739
Si Si6 0.363245 0.522363 0.070511
Si Si7 0.314416 0.799036 0.844592
O O1 0.241192 0.017251 0.221448
O O2 0.228678 0.101712 0.589476
O O3 0.377136 0.856976 0.479162
O O4 0.019066 0.906200 0.163409
O O5 0.310395 0.204145 0.167208
O O6 0.274229 0.952182 0.883809
O O7 0.867446 0.264478 0.287682
O O8 0.000000 0.500000 0.500000
O O9 0.183784 0.287419 0.458223
O O10 0.819629 0.378569 0.039020
O O11 0.282870 0.376288 0.913265
O O12 0.520452 0.217982 0.877308
O O13 0.519397 0.402915 0.624516
O O14 0.613499 0.274352 0.321485
O O15 0.500000 0.500000 0.000000
#
# Coordination Sequence:
#
# PCOD9042473 Si02
#       7
#     2   2   2   2   2   2   2
#     4  11  24  42  73  99 136 184 241 283 329 411
#     4  11  24  42  69 103 138 182 234 282 340 403
#     4  10  23  44  71  99 133 181 235 282 336 409
#     4  11  23  42  72  97 134 182 228 285 339 405
#     4  12  27  43  68 107 144 180 226 286 354 413
#     4  11  23  45  72  98 133 178 236 286 336 406
#     4  12  24  44  69 103 145 180 224 287 355 408
#
# _framework density 25.598113999999999
#
# number of rings (size 3 to 8) (size 9 to 14) (size 15 to 20)
#    0.000    0.857    4.286    2.571    2.000    2.286 
#    2.571    2.857    0.000    0.000    0.000    0.000 
#    0.000    0.000    0.000    0.000    0.000    0.000 
#
# Total GULP energy -78242.695037 kJ/mol
# GULP energy per Si atom -5588.763931 kJ/mol
# Density = 2.553985 g / cm^3
# Si number density = 25.598114 Si / 1000 Ang^3
#
#
#
# Elastic Constant Matrix: (Units=GPa)
#
#
# Indices 1 2 3 4 5 6 
#
# 1 64.4702 14.0264 48.2123 6.6410 -2.9626 -8.8600
# 2 14.0264 123.6626 39.6792 18.9258 -8.1295 -9.3541
# 3 48.2123 39.6792 121.2042 37.8829 16.2622 5.7488
# 4 6.6410 18.9258 37.8829 49.0392 -7.6156 3.7859
# 5 -2.9626 -8.1295 16.2622 -7.6156 38.5579 8.5564
# 6 -8.8600 -9.3541 5.7488 3.7859 8.5564 29.2432
#
#
#
# Elastic Compliance Matrix: (Units=1/GPa)
#
#
# Indices 1 2 3 4 5 6 
#
# 1 0.027703 0.001887 -0.015943 0.008604 0.009096 0.008356
# 2 0.001887 0.009856 -0.004454 -0.000409 0.003196 0.003718
# 3 -0.015943 -0.004454 0.023070 -0.015753 -0.013971 -0.004663
# 4 0.008604 -0.000409 -0.015753 0.034069 0.014641 -0.003122
# 5 0.009096 0.003196 -0.013971 0.014641 0.037499 -0.006343
# 6 0.008356 0.003718 -0.004663 -0.003122 -0.006343 0.041094
#
#
# Mechanical properties :
#
#
# Convention : Reuss Voigt Hill
#
# Bulk Modulus (GPa) = 42.36006 57.01919 49.68962
# Shear Modulus (GPa) = 22.91666 37.19599 30.05632
#
# Velocity S-wave (km/s) = 2.99532 3.81606 3.43032
# Velocity P-wave (km/s) = 5.34290 6.46061 5.92816
#
# Compressibility (1/GPa) = 0.02360715
#
# Stress axis : x y z
#
# Youngs Moduli (GPa) = 36.09655 101.46476 43.34606
#
# Poissons Ratio (x) = -0.19143 0.69109
# Poissons Ratio (y) = -0.06810 0.19308
# Poissons Ratio (z) = 0.57550 0.45195
#
# Static dielectric constant tensor:
#      x y z
#    x 1.992120 0.009700 -0.067040 
#    y 0.009700 2.037770 -0.042530 
#    z -0.067040 -0.042530 2.110800 
# 
# From -- ./inp_files/263664.got.cif
#   From: 2010.05.17/outbox.cif.g08.bks.cpg/sg2_132_cif.got.tgz:263664.got - 2010.06.03 11:33:40.
