data_PCOD9042929
_publ_section_title
;
Structure prediction by ZEFSAII (Michael W. Deem and Ramdas Pophale) SiO2 
 PCOD9042929
Probable space group: P -1
;
_chemical_formula_sum "Si O2"
_cell_formula_units_Z 14
_cell_length_a 8.887112
_cell_length_b 9.246349
_cell_length_c 9.428256
_cell_angle_alpha 110.470334
_cell_angle_beta 102.812311
_cell_angle_gamma 80.282267
_cell_volume 704.217533
_symmetry_space_group_name_H-M "P -1"
_symmetry_group_IT_number 2
_symmetry_cell_setting 'triclinic'
loop_
_space_group_symop_operation_xyz
x,y,z
-x,-y,-z
loop_
_atom_site_type_symbol
_atom_site_label
_atom_site_fract_x
_atom_site_fract_y
_atom_site_fract_z
Si Si1 0.402788 0.378281 0.357922
Si Si2 0.075593 0.340895 0.397023
Si Si3 0.518688 0.522760 0.177555
Si Si4 0.407119 0.937001 0.737615
Si Si5 0.776501 0.262467 0.152136
Si Si6 0.163571 0.038466 0.480892
Si Si7 0.345441 0.841332 0.199842
O O1 0.500000 0.500000 0.500000
O O2 0.226383 0.382456 0.361910
O O3 0.411621 0.417942 0.207898
O O4 0.490690 0.212602 0.353520
O O5 0.133774 0.214339 0.482698
O O6 0.000000 0.500000 0.500000
O O7 0.949625 0.265872 0.247014
O O8 0.687738 0.435868 0.220686
O O9 0.455220 0.701349 0.250270
O O10 0.500000 0.500000 0.000000
O O11 0.311328 0.863866 0.819707
O O12 0.287107 0.010440 0.622421
O O13 0.534942 0.057880 0.824112
O O14 0.757914 0.225106 0.969241
O O15 0.237466 0.936519 0.327069
O O16 0.000000 0.000000 0.500000
#
# Coordination Sequence:
#
# PCOD9042929 Si02
#       7
#     2   2   2   2   2   2   2
#     4  11  23  41  67  92 124 173 218 262 320 390
#     4  12  26  43  66  95 135 173 219 269 332 390
#     4   9  21  41  65  94 126 167 213 260 319 386
#     4  11  22  42  68  97 127 168 225 267 323 386
#     4  10  23  45  66  99 134 172 210 271 337 390
#     4  12  26  43  63 100 131 172 222 274 326 378
#     4  11  23  42  70  96 134 170 221 272 321 390
#
# _framework density 19.880220000000001
#
# number of rings (size 3 to 8) (size 9 to 14) (size 15 to 20)
#    0.000    1.143    2.857    3.429    6.000    0.571 
#    0.000    2.857    0.000    0.000    0.000    0.000 
#    0.000    0.000    0.000    0.000    0.000    0.000 
#
# Total GULP energy -78100.687360 kJ/mol
# GULP energy per Si atom -5578.620526 kJ/mol
# Density = 1.983497 g / cm^3
# Si number density = 19.880220 Si / 1000 Ang^3
#
#
#
# Elastic Constant Matrix: (Units=GPa)
#
#
# Indices 1 2 3 4 5 6 
#
# 1 146.3965 39.7723 46.2739 -7.6031 1.3900 7.6730
# 2 39.7723 137.8526 34.5410 -9.7002 1.6080 -21.1680
# 3 46.2739 34.5410 90.2269 -14.8617 2.4015 -0.9988
# 4 -7.6031 -9.7002 -14.8617 29.2905 0.7946 1.4624
# 5 1.3900 1.6080 2.4015 0.7946 31.8750 1.2897
# 6 7.6730 -21.1680 -0.9988 1.4624 1.2897 31.4073
#
#
#
# Elastic Compliance Matrix: (Units=1/GPa)
#
#
# Indices 1 2 3 4 5 6 
#
# 1 0.008795 -0.002186 -0.003746 -0.000159 0.000164 -0.003741
# 2 -0.002186 0.009601 -0.002278 0.001126 -0.000525 0.006902
# 3 -0.003746 -0.002278 0.014863 0.005860 -0.000972 -0.000381
# 4 -0.000159 0.001126 0.005860 0.037519 -0.001398 -0.000706
# 5 0.000164 -0.000525 -0.000972 -0.001398 0.031567 -0.001656
# 6 -0.003741 0.006902 -0.000381 -0.000706 -0.001656 0.037494
#
#
# Mechanical properties :
#
#
# Convention : Reuss Voigt Hill
#
# Bulk Modulus (GPa) = 59.38826 68.40559 63.89693
# Shear Modulus (GPa) = 30.88854 35.44047 33.16451
#
# Velocity S-wave (km/s) = 3.94602 4.22678 4.08881
# Velocity P-wave (km/s) = 7.12034 7.63574 7.38254
#
# Compressibility (1/GPa) = 0.01683834
#
# Stress axis : x y z
#
# Youngs Moduli (GPa) = 113.70192 104.15632 67.28022
#
# Poissons Ratio (x) = 0.22774 0.25200
# Poissons Ratio (y) = 0.24861 0.15329
# Poissons Ratio (z) = 0.42588 0.23730
#
# Static dielectric constant tensor:
#      x y z
#    x 1.741180 0.009890 -0.011590 
#    y 0.009890 1.718930 0.018680 
#    z -0.011590 0.018680 1.705680 
# 
# From -- ./inp_files/154326.got.cif
#   From: 2010.05.17/outbox.cif.g08.bks.cpg/sg2_78_cif.got.tgz:154326.got - 2010.06.03 11:33:40.
