data_PCOD9042021
_publ_section_title
;
Structure prediction by ZEFSAII (Michael W. Deem and Ramdas Pophale) SiO2 
 PCOD9042021
Probable space group: P -1
;
_chemical_formula_sum "Si O2"
_cell_formula_units_Z 14
_cell_length_a 16.457418
_cell_length_b 9.477004
_cell_length_c 11.060708
_cell_angle_alpha 128.419105
_cell_angle_beta 148.459370
_cell_angle_gamma 44.739024
_cell_volume 634.583905
_symmetry_space_group_name_H-M "P -1"
_symmetry_group_IT_number 2
_symmetry_cell_setting 'triclinic'
loop_
_space_group_symop_operation_xyz
x,y,z
-x,-y,-z
loop_
_atom_site_type_symbol
_atom_site_label
_atom_site_fract_x
_atom_site_fract_y
_atom_site_fract_z
Si Si1 0.107642 0.070835 0.468868
Si Si2 0.450436 0.378092 0.970712
Si Si3 0.104306 0.511708 0.482090
Si Si4 0.250241 0.639935 0.504789
Si Si5 0.937787 0.210424 0.099540
Si Si6 0.515076 0.035618 0.180172
Si Si7 0.675506 0.517526 0.747427
O O1 0.061908 0.277066 0.591275
O O2 0.945538 0.136761 0.208065
O O3 0.136237 0.880292 0.484046
O O4 0.286693 0.994076 0.578079
O O5 0.243191 0.464071 0.742454
O O6 0.511532 0.145562 0.890173
O O7 0.500000 0.500000 0.000000
O O8 0.555382 0.389332 0.228502
O O9 0.188634 0.542037 0.481891
O O10 0.058747 0.326424 0.314927
O O11 0.235988 0.553816 0.309870
O O12 0.777180 0.369715 0.906088
O O13 0.000000 0.000000 0.000000
O O14 0.378995 0.251171 0.167678
O O15 0.500000 0.000000 0.000000
O O16 0.500000 0.500000 0.500000
#
# Coordination Sequence:
#
# PCOD9042021 Si02
#       7
#     2   2   2   2   2   2   2
#     4  12  23  42  70 100 133 175 233 282 329 403
#     4  10  23  44  68  99 135 176 228 276 332 403
#     4  11  26  43  70 101 138 177 229 282 342 397
#     4  11  24  47  67 101 139 180 220 282 346 407
#     4  12  25  44  68 102 137 178 228 285 336 400
#     4  12  22  41  72  99 131 179 233 270 333 408
#     4  12  25  44  72  97 139 178 227 281 341 407
#
# _framework density 22.061699000000001
#
# number of rings (size 3 to 8) (size 9 to 14) (size 15 to 20)
#    0.000    0.571    5.714    1.714    4.000    0.571 
#    0.000    2.857    0.000    0.000    0.000    0.000 
#    0.000    0.000    0.000    0.000    0.000    0.000 
#
# Total GULP energy -78139.551181 kJ/mol
# GULP energy per Si atom -5581.396513 kJ/mol
# Density = 2.201149 g / cm^3
# Si number density = 22.061699 Si / 1000 Ang^3
#
#
#
# Elastic Constant Matrix: (Units=GPa)
#
#
# Indices 1 2 3 4 5 6 
#
# 1 54.5938 28.5058 12.5363 -5.4507 -7.2491 5.1573
# 2 28.5058 195.8559 38.6292 -1.9778 -6.5662 -5.5972
# 3 12.5363 38.6292 120.1033 -23.4164 -17.2004 0.9272
# 4 -5.4507 -1.9778 -23.4164 41.1174 8.4970 -6.3199
# 5 -7.2491 -6.5662 -17.2004 8.4970 28.2587 0.9133
# 6 5.1573 -5.5972 0.9272 -6.3199 0.9133 40.9917
#
#
#
# Elastic Compliance Matrix: (Units=1/GPa)
#
#
# Indices 1 2 3 4 5 6 
#
# 1 0.020862 -0.002887 -0.000416 0.001070 0.004201 -0.002938
# 2 -0.002887 0.005898 -0.001817 -0.000920 -0.000234 0.001073
# 3 -0.000416 -0.001817 0.010555 0.004999 0.004385 0.000239
# 4 0.001070 -0.000920 0.004999 0.029113 -0.005788 0.004244
# 5 0.004201 -0.000234 0.004385 -0.005788 0.040899 -0.002463
# 6 -0.002938 0.001073 0.000239 0.004244 -0.002463 0.025615
#
#
# Mechanical properties :
#
#
# Convention : Reuss Voigt Hill
#
# Bulk Modulus (GPa) = 36.93417 58.87729 47.90573
# Shear Modulus (GPa) = 32.84998 41.46566 37.15782
#
# Velocity S-wave (km/s) = 3.86295 4.34006 4.10844
# Velocity P-wave (km/s) = 6.05592 7.20141 6.65336
#
# Compressibility (1/GPa) = 0.02707520
#
# Stress axis : x y z
#
# Youngs Moduli (GPa) = 47.93388 169.55499 94.74452
#
# Poissons Ratio (x) = 0.48944 0.03944
# Poissons Ratio (y) = 0.13837 0.17214
# Poissons Ratio (z) = 0.01995 0.30806
#
# Static dielectric constant tensor:
#      x y z
#    x 1.852450 -0.024240 -0.017100 
#    y -0.024240 1.816330 -0.028120 
#    z -0.017100 -0.028120 1.892070 
# 
# From -- ./inp_files/208340.got.cif
#   From: 2010.05.17/outbox.cif.g08.bks.cpg/sg2_105_cif.got.tgz:208340.got - 2010.06.03 11:33:40.
