data_PCOD9042527
_publ_section_title
;
Structure prediction by ZEFSAII (Michael W. Deem and Ramdas Pophale) SiO2 
 PCOD9042527
Probable space group: P -1
;
_chemical_formula_sum "Si O2"
_cell_formula_units_Z 14
_cell_length_a 5.266152
_cell_length_b 12.561294
_cell_length_c 19.945084
_cell_angle_alpha 151.732082
_cell_angle_beta 108.326900
_cell_angle_gamma 74.375039
_cell_volume 593.064868
_symmetry_space_group_name_H-M "P -1"
_symmetry_group_IT_number 2
_symmetry_cell_setting 'triclinic'
loop_
_space_group_symop_operation_xyz
x,y,z
-x,-y,-z
loop_
_atom_site_type_symbol
_atom_site_label
_atom_site_fract_x
_atom_site_fract_y
_atom_site_fract_z
Si Si1 0.486703 0.752105 0.163640
Si Si2 0.083179 0.622792 0.337590
Si Si3 0.279698 0.226899 0.041283
Si Si4 0.769168 0.267191 0.196969
Si Si5 0.708967 0.386243 0.404365
Si Si6 0.642568 0.935188 0.408163
Si Si7 0.897245 0.893755 0.177965
O O1 0.470586 0.790239 0.262175
O O2 0.778382 0.835677 0.208444
O O3 0.215304 0.870887 0.181691
O O4 0.500000 0.500000 0.000000
O O5 0.178759 0.439298 0.190961
O O6 0.967775 0.468003 0.302062
O O7 0.874273 0.773138 0.362560
O O8 0.285931 0.823965 0.486977
O O9 0.580985 0.216407 0.088907
O O10 0.241061 0.254944 0.974731
O O11 0.137975 0.984661 0.914438
O O12 0.628164 0.363944 0.306342
O O13 0.500000 0.500000 0.500000
O O14 0.000000 0.500000 0.500000
O O15 0.770682 0.134027 0.289733
O O16 0.500000 0.000000 0.500000
#
# Coordination Sequence:
#
# PCOD9042527 Si02
#       7
#     2   2   2   2   2   2   2
#     4  12  28  49  76 105 147 195 249 303 374 430
#     4  11  24  43  73  99 144 184 246 301 363 432
#     4  10  23  44  72 105 140 186 243 296 371 436
#     4  10  24  43  72 105 141 188 242 300 365 440
#     4  11  26  46  71 106 150 188 237 298 376 445
#     4  11  28  45  70 105 142 191 249 302 366 435
#     4  11  27  46  74 106 144 191 244 306 365 445
#
# _framework density 23.606186999999998
#
# number of rings (size 3 to 8) (size 9 to 14) (size 15 to 20)
#    0.000    1.143    0.000    3.429   14.000    2.286 
#    0.000    0.000    0.000    0.000    0.000    0.000 
#    0.000    0.000    0.000    0.000    0.000    0.000 
#
# Total GULP energy -78141.124134 kJ/mol
# GULP energy per Si atom -5581.508867 kJ/mol
# Density = 2.355246 g / cm^3
# Si number density = 23.606187 Si / 1000 Ang^3
#
#
#
# Elastic Constant Matrix: (Units=GPa)
#
#
# Indices 1 2 3 4 5 6 
#
# 1 84.4270 12.1134 33.9892 8.0200 -18.8523 1.5043
# 2 12.1134 37.9748 34.8815 1.9245 -6.1987 6.1626
# 3 33.9892 34.8815 155.3371 -0.3034 -24.8829 7.1130
# 4 8.0200 1.9245 -0.3034 55.9303 -1.0402 6.7501
# 5 -18.8523 -6.1987 -24.8829 -1.0402 42.4419 9.9086
# 6 1.5043 6.1626 7.1130 6.7501 9.9086 35.4643
#
#
#
# Elastic Compliance Matrix: (Units=1/GPa)
#
#
# Indices 1 2 3 4 5 6 
#
# 1 0.014173 -0.001729 -0.001842 -0.001761 0.005162 -0.001038
# 2 -0.001729 0.034209 -0.006876 -0.000364 0.001306 -0.004788
# 3 -0.001842 -0.006876 0.009104 0.000843 0.003961 -0.001820
# 4 -0.001761 -0.000364 0.000843 0.018634 0.001017 -0.003862
# 5 0.005162 0.001306 0.003961 0.001017 0.030732 -0.010020
# 6 -0.001038 -0.004788 -0.001820 -0.003862 -0.010020 0.032973
#
#
# Mechanical properties :
#
#
# Convention : Reuss Voigt Hill
#
# Bulk Modulus (GPa) = 27.32748 48.85634 38.09191
# Shear Modulus (GPa) = 28.91592 39.88429 34.40011
#
# Velocity S-wave (km/s) = 3.50370 4.11490 3.82154
# Velocity P-wave (km/s) = 5.28861 6.58163 5.97023
#
# Compressibility (1/GPa) = 0.03659320
#
# Stress axis : x y z
#
# Youngs Moduli (GPa) = 70.55855 29.23204 109.84072
#
# Poissons Ratio (x) = 0.05053 0.20232
# Poissons Ratio (y) = 0.12196 0.75524
# Poissons Ratio (z) = 0.12996 0.20099
#
# Static dielectric constant tensor:
#      x y z
#    x 2.163230 -0.846510 -0.105930 
#    y -0.846510 5.041420 0.497150 
#    z -0.105930 0.497150 1.953690 
# 
# From -- ./inp_files/69459.got.cif
#   From: 2010.05.17/outbox.cif.g08.bks.cpg/sg2_35_cif.got.tgz:69459.got - 2010.06.03 11:33:40.
