data_PCOD9042107
_publ_section_title
;
Structure prediction by ZEFSAII (Michael W. Deem and Ramdas Pophale) SiO2 
 PCOD9042107
Probable space group: P -1
;
_chemical_formula_sum "Si O2"
_cell_formula_units_Z 16
_cell_length_a 27.383274
_cell_length_b 4.919575
_cell_length_c 5.387798
_cell_angle_alpha 93.139869
_cell_angle_beta 76.481103
_cell_angle_gamma 56.543663
_cell_volume 573.484487
_symmetry_space_group_name_H-M "P -1"
_symmetry_group_IT_number 2
_symmetry_cell_setting 'triclinic'
loop_
_space_group_symop_operation_xyz
x,y,z
-x,-y,-z
loop_
_atom_site_type_symbol
_atom_site_label
_atom_site_fract_x
_atom_site_fract_y
_atom_site_fract_z
Si Si1 0.460165 0.442776 0.730859
Si Si2 0.897912 0.874129 0.549062
Si Si3 0.012336 0.696729 0.193770
Si Si4 0.413685 0.148734 0.371813
Si Si5 0.872565 0.472304 0.179259
Si Si6 0.691250 0.887452 0.308466
Si Si7 0.807353 0.175740 0.078907
Si Si8 0.658080 0.234499 0.857955
O O1 0.500000 0.500000 0.500000
O O2 0.426159 0.332205 0.585211
O O3 0.517066 0.140790 0.803686
O O4 0.407268 0.710256 0.995231
O O5 0.943458 0.588908 0.678033
O O6 0.880408 0.671632 0.391980
O O7 0.944737 0.960972 0.398787
O O8 0.838419 0.160924 0.781221
O O9 0.059003 0.773601 0.035069
O O10 0.000000 0.500000 0.000000
O O11 0.375555 0.034543 0.552785
O O12 0.370317 0.402163 0.215001
O O13 0.842741 0.270132 0.233073
O O14 0.825168 0.805417 0.082909
O O15 0.737826 0.492608 0.191074
O O16 0.701571 0.996390 0.569395
O O17 0.691702 0.077152 0.073417
#
# Coordination Sequence:
#
# PCOD9042107 Si02
#       8
#     2   2   2   2   2   2   2   2
#     4  11  23  47  75 112 149 186 242 311 385 467
#     4   9  19  41  71 102 145 192 244 314 389 452
#     4   8  16  37  68 105 144 186 242 310 384 465
#     4  11  25  46  77 108 147 196 241 312 387 460
#     4  10  23  44  69 105 142 191 254 315 389 455
#     4  12  30  49  73 106 149 198 259 312 380 465
#     4  11  27  47  69 104 145 199 259 319 378 463
#     4  12  26  50  72 108 145 189 247 308 378 458
#
# _framework density 27.899619000000001
#
# number of rings (size 3 to 8) (size 9 to 14) (size 15 to 20)
#    0.000    1.500    2.500    0.375    5.250    4.500 
#    2.250   21.250    0.000    0.000    0.000    0.000 
#    0.000    0.000    0.000    0.000    0.000    0.000 
#
# Total GULP energy -89465.600449 kJ/mol
# GULP energy per Si atom -5591.600028 kJ/mol
# Density = 2.783612 g / cm^3
# Si number density = 27.899619 Si / 1000 Ang^3
#
#
#
# Elastic Constant Matrix: (Units=GPa)
#
#
# Indices 1 2 3 4 5 6 
#
# 1 77.7590 20.7413 9.0487 -3.3302 10.9582 -0.3311
# 2 20.7413 107.6381 45.9941 9.5042 -2.5751 14.1787
# 3 9.0487 45.9941 166.6248 1.1173 -3.1906 -5.9070
# 4 -3.3302 9.5042 1.1173 69.9572 -7.4998 -13.2733
# 5 10.9582 -2.5751 -3.1906 -7.4998 30.6518 1.8223
# 6 -0.3311 14.1787 -5.9070 -13.2733 1.8223 43.7518
#
#
#
# Elastic Compliance Matrix: (Units=1/GPa)
#
#
# Indices 1 2 3 4 5 6 
#
# 1 0.014516 -0.003245 0.000058 0.000873 -0.005341 0.001657
# 2 -0.003245 0.012326 -0.003368 -0.002624 0.001520 -0.005333
# 3 0.000058 -0.003368 0.007013 0.000832 0.000495 0.002271
# 4 0.000873 -0.002624 0.000832 0.016103 0.003154 0.005723
# 5 -0.005341 0.001520 0.000495 0.003154 0.035544 -0.000990
# 6 0.001657 -0.005333 0.002271 0.005723 -0.000990 0.026681
#
#
# Mechanical properties :
#
#
# Convention : Reuss Voigt Hill
#
# Bulk Modulus (GPa) = 48.20788 55.95447 52.08118
# Shear Modulus (GPa) = 37.81922 47.28803 42.55362
#
# Velocity S-wave (km/s) = 3.68577 4.12142 3.90967
# Velocity P-wave (km/s) = 5.95229 6.53815 6.25208
#
# Compressibility (1/GPa) = 0.02074349
#
# Stress axis : x y z
#
# Youngs Moduli (GPa) = 68.88847 81.13186 142.60150
#
# Poissons Ratio (x) = 0.26328 -0.00827
# Poissons Ratio (y) = 0.22355 0.48034
# Poissons Ratio (z) = -0.00400 0.27329
#
# Static dielectric constant tensor:
#      x y z
#    x 2.189270 -0.021460 0.047800 
#    y -0.021460 2.305430 -0.156150 
#    z 0.047800 -0.156150 2.310090 
# 
# From -- ./inp_files/127985.got.cif
#   From: 2010.05.17/outbox.cif.g08.bks.cpg/sg2_64_cif.got.tgz:127985.got - 2010.06.03 11:33:40.
