data_PCOD9042346
_publ_section_title
;
Structure prediction by ZEFSAII (Michael W. Deem and Ramdas Pophale) SiO2 
 PCOD9042346
Probable space group: P -1
;
_chemical_formula_sum "Si O2"
_cell_formula_units_Z 14
_cell_length_a 8.764434
_cell_length_b 13.473936
_cell_length_c 12.312972
_cell_angle_alpha 144.299492
_cell_angle_beta 49.446305
_cell_angle_gamma 121.001078
_cell_volume 644.423022
_symmetry_space_group_name_H-M "P -1"
_symmetry_group_IT_number 2
_symmetry_cell_setting 'triclinic'
loop_
_space_group_symop_operation_xyz
x,y,z
-x,-y,-z
loop_
_atom_site_type_symbol
_atom_site_label
_atom_site_fract_x
_atom_site_fract_y
_atom_site_fract_z
Si Si1 0.704315 0.188991 0.102294
Si Si2 0.368907 0.866096 0.503842
Si Si3 0.482530 0.318089 0.524934
Si Si4 0.911189 0.543093 0.286270
Si Si5 0.658003 0.385684 0.893554
Si Si6 0.415417 0.310870 0.152701
Si Si7 0.069818 0.159927 0.275980
O O1 0.581250 0.200154 0.281745
O O2 0.844439 0.354185 0.181620
O O3 0.545577 0.219553 0.105756
O O4 0.822998 0.010564 0.877540
O O5 0.509488 0.767162 0.437153
O O6 0.293086 0.763750 0.344786
O O7 0.157991 0.892562 0.688488
O O8 0.500000 0.000000 0.500000
O O9 0.262000 0.379717 0.643599
O O10 0.608109 0.490409 0.628234
O O11 0.916247 0.676295 0.503683
O O12 0.127728 0.530115 0.115891
O O13 0.500000 0.500000 0.000000
O O14 0.547470 0.316495 0.988313
O O15 0.202791 0.221179 0.166858
#
# Coordination Sequence:
#
# PCOD9042346 Si02
#       7
#     2   2   2   2   2   2   2
#     4  11  23  40  73 101 132 171 228 276 324 390
#     4  11  28  45  62 100 139 172 221 276 331 396
#     4  11  22  44  70  96 137 172 222 280 322 395
#     4  10  23  44  70  99 131 176 224 268 335 388
#     4  11  25  44  67  96 133 176 218 271 332 397
#     4  11  22  43  69 100 129 173 228 273 325 395
#     4  11  24  43  70  98 133 177 222 269 335 392
#
# _framework density 21.724858999999999
#
# number of rings (size 3 to 8) (size 9 to 14) (size 15 to 20)
#    0.000    1.143    4.286    1.286    4.000    5.714 
#    0.000    2.857    0.000    0.000    0.000    0.000 
#    0.000    0.000    0.000    0.000    0.000    0.000 
#
# Total GULP energy -78144.556285 kJ/mol
# GULP energy per Si atom -5581.754020 kJ/mol
# Density = 2.167541 g / cm^3
# Si number density = 21.724859 Si / 1000 Ang^3
#
#
#
# Elastic Constant Matrix: (Units=GPa)
#
#
# Indices 1 2 3 4 5 6 
#
# 1 59.9205 65.4271 11.6037 -9.6520 -5.0635 20.1959
# 2 65.4271 147.4523 32.3729 -16.5034 -14.4791 30.0010
# 3 11.6037 32.3729 54.8617 -9.8770 -3.2341 13.0342
# 4 -9.6520 -16.5034 -9.8770 41.9527 -3.1038 -1.9154
# 5 -5.0635 -14.4791 -3.2341 -3.1038 25.9733 -14.9085
# 6 20.1959 30.0010 13.0342 -1.9154 -14.9085 35.2519
#
#
#
# Elastic Compliance Matrix: (Units=1/GPa)
#
#
# Indices 1 2 3 4 5 6 
#
# 1 0.036088 -0.014829 0.004093 0.002279 -0.007752 -0.012723
# 2 -0.014829 0.015255 -0.005172 0.001720 0.004953 -0.000387
# 3 0.004093 -0.005172 0.022658 0.003674 -0.003088 -0.007428
# 4 0.002279 0.001720 0.003674 0.026203 0.004542 -0.000783
# 5 -0.007752 0.004953 -0.003088 0.004542 0.053927 0.024421
# 6 -0.012723 -0.000387 -0.007428 -0.000783 0.024421 0.049017
#
#
# Mechanical properties :
#
#
# Convention : Reuss Voigt Hill
#
# Bulk Modulus (GPa) = 23.70449 53.44910 38.57679
# Shear Modulus (GPa) = 20.07838 30.82431 25.45135
#
# Velocity S-wave (km/s) = 3.04338 3.77085 3.42648
# Velocity P-wave (km/s) = 4.82540 6.60418 5.78358
#
# Compressibility (1/GPa) = 0.04218611
#
# Stress axis : x y z
#
# Youngs Moduli (GPa) = 27.70985 65.55318 44.13521
#
# Poissons Ratio (x) = 0.97210 -0.18067
# Poissons Ratio (y) = 0.41092 0.22825
# Poissons Ratio (z) = -0.11343 0.33901
#
# Static dielectric constant tensor:
#      x y z
#    x 1.829650 0.111360 -0.037360 
#    y 0.111360 1.868110 -0.038540 
#    z -0.037360 -0.038540 1.870170 
# 
# From -- ./inp_files/154007.got.cif
#   From: 2010.05.17/outbox.cif.g08.bks.cpg/sg2_78_cif.got.tgz:154007.got - 2010.06.03 11:33:40.
