data_PCOD9042083
_publ_section_title
;
Structure prediction by ZEFSAII (Michael W. Deem and Ramdas Pophale) SiO2 
 PCOD9042083
Probable space group: P -1
;
_chemical_formula_sum "Si O2"
_cell_formula_units_Z 13
_cell_length_a 11.274574
_cell_length_b 11.946823
_cell_length_c 7.103580
_cell_angle_alpha 118.651219
_cell_angle_beta 88.856846
_cell_angle_gamma 45.766669
_cell_volume 496.936238
_symmetry_space_group_name_H-M "P -1"
_symmetry_group_IT_number 2
_symmetry_cell_setting 'triclinic'
loop_
_space_group_symop_operation_xyz
x,y,z
-x,-y,-z
loop_
_atom_site_type_symbol
_atom_site_label
_atom_site_fract_x
_atom_site_fract_y
_atom_site_fract_z
Si Si1 0.170825 0.258647 0.156144
Si Si2 0.839011 0.453557 0.062910
Si Si3 0.663976 0.614650 0.786812
Si Si4 0.136050 0.843824 0.044473
Si Si5 0.500000 0.500000 0.500000
Si Si6 0.216075 0.039043 0.314510
Si Si7 0.432160 0.934290 0.562070
O O1 0.252721 0.326937 0.262619
O O2 0.120608 0.216225 0.305924
O O3 0.989012 0.418998 0.139944
O O4 0.349158 0.036554 0.852180
O O5 0.915766 0.247225 0.948208
O O6 0.616086 0.677409 0.334536
O O7 0.802902 0.484281 0.864711
O O8 0.642057 0.505960 0.574549
O O9 0.443262 0.832410 0.057521
O O10 0.361648 0.637520 0.796749
O O11 0.123061 0.979589 0.281136
O O12 0.000000 0.000000 0.000000
O O13 0.244871 0.056403 0.539749
O O14 0.500000 0.000000 0.500000
#
# Coordination Sequence:
#
# PCOD9042083 Si02
#       7
#     2   2   2   2   1   2   2
#     4  12  23  47  73 103 151 178 234 306 354 417
#     4  11  25  44  72 105 142 183 240 298 347 436
#     4  10  23  44  70 103 138 183 236 290 355 423
#     4  11  24  47  65 100 142 180 241 289 349 420
#     4  10  26  44  70  98 138 188 232 280 360 422
#     4  10  23  44  69 103 141 186 236 295 341 430
#     4  11  25  43  70 107 140 190 235 284 371 417
#
# _framework density 26.160298999999998
#
# number of rings (size 3 to 8) (size 9 to 14) (size 15 to 20)
#    0.000    1.231    4.615    0.923    4.308    6.769 
#    0.000    3.077    0.000    0.000    0.000    0.000 
#    0.000    0.000    0.000    0.000    0.000    0.000 
#
# Total GULP energy -72531.540962 kJ/mol
# GULP energy per Si atom -5579.349305 kJ/mol
# Density = 2.610076 g / cm^3
# Si number density = 26.160299 Si / 1000 Ang^3
#
#
#
# Elastic Constant Matrix: (Units=GPa)
#
#
# Indices 1 2 3 4 5 6 
#
# 1 126.9439 37.5172 55.8815 -13.1412 35.1495 8.9726
# 2 37.5172 136.0820 42.7830 -14.9407 18.0402 4.4776
# 3 55.8815 42.7830 143.8713 -21.3007 24.2966 4.4233
# 4 -13.1412 -14.9407 -21.3007 36.9728 -14.5230 7.6436
# 5 35.1495 18.0402 24.2966 -14.5230 57.2055 -7.8320
# 6 8.9726 4.4776 4.4233 7.6436 -7.8320 43.8015
#
#
#
# Elastic Compliance Matrix: (Units=1/GPa)
#
#
# Indices 1 2 3 4 5 6 
#
# 1 0.011364 -0.001340 -0.002941 0.000185 -0.005666 -0.002939
# 2 -0.001340 0.008567 -0.001568 0.001943 -0.000847 -0.000933
# 3 -0.002941 -0.001568 0.009253 0.003506 -0.000867 -0.000939
# 4 0.000185 0.001943 0.003506 0.033183 0.005469 -0.005403
# 5 -0.005666 -0.000847 -0.000867 0.005469 0.023617 0.004603
# 6 -0.002939 -0.000933 -0.000939 -0.005403 0.004603 0.025389
#
#
# Mechanical properties :
#
#
# Convention : Reuss Voigt Hill
#
# Bulk Modulus (GPa) = 57.18419 75.47340 66.32879
# Shear Modulus (GPa) = 38.79010 45.64366 42.21688
#
# Velocity S-wave (km/s) = 3.85487 4.18157 4.02154
# Velocity P-wave (km/s) = 6.45910 7.22683 6.85372
#
# Compressibility (1/GPa) = 0.01748735
#
# Stress axis : x y z
#
# Youngs Moduli (GPa) = 87.99747 116.72471 108.06827
#
# Poissons Ratio (x) = 0.15644 0.31779
# Poissons Ratio (y) = 0.11794 0.16942
# Poissons Ratio (z) = 0.25877 0.18299
#
# Static dielectric constant tensor:
#      x y z
#    x 2.218040 -0.158650 0.019160 
#    y -0.158650 2.146100 0.031810 
#    z 0.019160 0.031810 2.024450 
# 
# From -- ./inp_files/269302.got.cif
#   From: 2010.05.17/outbox.cif.g08.bks.cpg/sg2_135_cif.got.tgz:269302.got - 2010.06.03 11:33:40.
