data_PCOD9042113
_publ_section_title
;
Structure prediction by ZEFSAII (Michael W. Deem and Ramdas Pophale) SiO2 
 PCOD9042113
Probable space group: P -1
;
_chemical_formula_sum "Si O2"
_cell_formula_units_Z 16
_cell_length_a 8.781388
_cell_length_b 9.470736
_cell_length_c 11.340632
_cell_angle_alpha 96.709158
_cell_angle_beta 134.063970
_cell_angle_gamma 81.523649
_cell_volume 670.179809
_symmetry_space_group_name_H-M "P -1"
_symmetry_group_IT_number 2
_symmetry_cell_setting 'triclinic'
loop_
_space_group_symop_operation_xyz
x,y,z
-x,-y,-z
loop_
_atom_site_type_symbol
_atom_site_label
_atom_site_fract_x
_atom_site_fract_y
_atom_site_fract_z
Si Si1 0.279636 0.687304 0.656062
Si Si2 0.661529 0.558265 0.501881
Si Si3 0.197833 0.954573 0.025272
Si Si4 0.350297 0.413856 0.991592
Si Si5 0.200841 0.926720 0.446231
Si Si6 0.280009 0.107367 0.880064
Si Si7 0.064580 0.675906 0.795423
Si Si8 0.500895 0.835869 0.372661
O O1 0.216515 0.571375 0.515469
O O2 0.264301 0.835474 0.589604
O O3 0.141928 0.679354 0.700356
O O4 0.518622 0.637247 0.825961
O O5 0.500000 0.500000 0.500000
O O6 0.541306 0.668163 0.357273
O O7 0.814643 0.659812 0.659674
O O8 0.392576 0.908560 0.207734
O O9 0.145454 0.818955 0.906337
O O10 0.220937 0.099592 0.983361
O O11 0.000000 0.000000 0.000000
O O12 0.313359 0.269238 0.886508
O O13 0.152261 0.532992 0.901303
O O14 0.500000 0.500000 0.000000
O O15 0.339430 0.856680 0.401194
O O16 0.057859 0.066942 0.698907
O O17 0.284740 0.082764 0.498755
O O18 0.500000 0.000000 0.000000
#
# Coordination Sequence:
#
# PCOD9042113 Si02
#       8
#     2   2   2   2   2   2   2   2
#     4  11  23  47  74 107 149 191 251 304 376 436
#     4  12  25  43  72 109 148 199 248 301 370 444
#     4  12  26  48  76 108 147 196 249 309 376 445
#     4  10  23  44  69 105 149 191 239 299 366 441
#     4  11  24  46  76 107 151 197 244 315 373 442
#     4  12  25  45  76 112 148 191 254 305 375 446
#     4  11  26  47  74 108 151 197 248 309 374 446
#     4  11  25  46  74 108 150 193 254 303 376 446
#
# _framework density 23.874191
#
# number of rings (size 3 to 8) (size 9 to 14) (size 15 to 20)
#    0.000    0.750    2.500    4.875    1.750    4.000 
#    0.000    5.625    0.000    0.000    0.000    0.000 
#    0.000    0.000    0.000    0.000    0.000    0.000 
#
# Total GULP energy -89282.473597 kJ/mol
# GULP energy per Si atom -5580.154600 kJ/mol
# Density = 2.381985 g / cm^3
# Si number density = 23.874191 Si / 1000 Ang^3
#
#
#
# Elastic Constant Matrix: (Units=GPa)
#
#
# Indices 1 2 3 4 5 6 
#
# 1 89.2145 45.4038 32.7439 13.8335 4.8469 19.7390
# 2 45.4038 156.5414 43.9281 -5.2726 12.2767 24.3408
# 3 32.7439 43.9281 104.3436 -15.6530 19.3398 23.1461
# 4 13.8335 -5.2726 -15.6530 49.9821 10.4062 -4.3235
# 5 4.8469 12.2767 19.3398 10.4062 34.4674 0.1538
# 6 19.7390 24.3408 23.1461 -4.3235 0.1538 33.5965
#
#
#
# Elastic Compliance Matrix: (Units=1/GPa)
#
#
# Indices 1 2 3 4 5 6 
#
# 1 0.016690 -0.003297 -0.004487 -0.007595 0.003662 -0.005319
# 2 -0.003297 0.008389 -0.001100 0.001680 -0.002400 -0.003155
# 3 -0.004487 -0.001100 0.015947 0.007683 -0.010215 -0.006517
# 4 -0.007595 0.001680 0.007683 0.027345 -0.012104 0.001526
# 5 0.003662 -0.002400 -0.010215 -0.012104 0.038717 0.004890
# 6 -0.005319 -0.003155 -0.006517 0.001526 0.004890 0.039841
#
#
# Mechanical properties :
#
#
# Convention : Reuss Voigt Hill
#
# Bulk Modulus (GPa) = 43.00077 66.02790 54.51433
# Shear Modulus (GPa) = 28.99414 38.81076 33.90245
#
# Velocity S-wave (km/s) = 3.48868 4.03629 3.77244
# Velocity P-wave (km/s) = 5.85478 7.03128 6.46982
#
# Compressibility (1/GPa) = 0.02325540
#
# Stress axis : x y z
#
# Youngs Moduli (GPa) = 59.91727 119.20972 62.70882
#
# Poissons Ratio (x) = 0.39308 0.28139
# Poissons Ratio (y) = 0.19757 0.06898
# Poissons Ratio (z) = 0.26887 0.13114
#
# Static dielectric constant tensor:
#      x y z
#    x 1.872270 -0.094600 0.021670 
#    y -0.094600 1.903200 -0.020980 
#    z 0.021670 -0.020980 2.062800 
# 
# From -- ./inp_files/382773.got.cif
#   From: 2010.05.17/outbox.cif.g08.bks.cpg/sg2_192_cif.got.tgz:382773.got - 2010.06.03 11:33:40.
