data_PCOD9042946
_publ_section_title
;
Structure prediction by ZEFSAII (Michael W. Deem and Ramdas Pophale) SiO2 
 PCOD9042946
Probable space group: P -1
;
_chemical_formula_sum "Si O2"
_cell_formula_units_Z 10
_cell_length_a 4.943794
_cell_length_b 13.925060
_cell_length_c 12.127341
_cell_angle_alpha 151.097988
_cell_angle_beta 101.694753
_cell_angle_gamma 71.534870
_cell_volume 377.634690
_symmetry_space_group_name_H-M "P -1"
_symmetry_group_IT_number 2
_symmetry_cell_setting 'triclinic'
loop_
_space_group_symop_operation_xyz
x,y,z
-x,-y,-z
loop_
_atom_site_type_symbol
_atom_site_label
_atom_site_fract_x
_atom_site_fract_y
_atom_site_fract_z
Si Si1 0.815693 0.321389 0.354023
Si Si2 0.249182 0.807265 0.026760
Si Si3 0.361286 0.415193 0.798224
Si Si4 0.532497 0.891137 0.772903
Si Si5 0.954364 0.129832 0.513511
O O1 0.500000 0.500000 0.500000
O O2 0.727173 0.205875 0.334421
O O3 0.153830 0.289672 0.383572
O O4 0.865204 0.224824 0.137557
O O5 0.490851 0.916316 0.117175
O O6 0.090521 0.965550 0.266380
O O7 0.300440 0.591931 0.878134
O O8 0.106761 0.316401 0.711226
O O9 0.613116 0.229912 0.581081
O O10 0.500000 0.500000 0.000000
O O11 0.500000 0.000000 0.000000
O O12 0.000000 0.000000 0.500000
#
# Coordination Sequence:
#
# PCOD9042946 Si02
#       5
#     2   2   2   2   2
#     4  11  25  45  71 107 145 190 247 299 357 439
#     4  11  27  45  79 101 151 192 240 299 370 426
#     4  12  28  49  74 109 145 191 249 299 362 440
#     4  10  23  45  67 101 144 186 237 300 355 428
#     4  12  28  48  74 107 149 192 242 304 365 431
#
# _framework density 26.480615
#
# number of rings (size 3 to 8) (size 9 to 14) (size 15 to 20)
#    0.000    0.800    2.000    4.200    5.600    8.000 
#    0.000    0.000    0.000    0.000    0.000    0.000 
#    0.000    0.000    0.000    0.000    0.000    0.000 
#
# Total GULP energy -55792.948185 kJ/mol
# GULP energy per Si atom -5579.294818 kJ/mol
# Density = 2.642034 g / cm^3
# Si number density = 26.480615 Si / 1000 Ang^3
#
#
#
# Elastic Constant Matrix: (Units=GPa)
#
#
# Indices 1 2 3 4 5 6 
#
# 1 176.7881 55.2213 29.7952 17.1883 8.0882 31.3319
# 2 55.2213 228.6944 42.4638 20.5225 11.5934 43.1523
# 3 29.7952 42.4638 101.8739 3.7518 -9.7171 4.2026
# 4 17.1883 20.5225 3.7518 50.2874 8.5553 -3.8175
# 5 8.0882 11.5934 -9.7171 8.5553 47.1057 -2.6193
# 6 31.3319 43.1523 4.2026 -3.8175 -2.6193 43.8058
#
#
#
# Elastic Compliance Matrix: (Units=1/GPa)
#
#
# Indices 1 2 3 4 5 6 
#
# 1 0.007233 -0.000129 -0.001898 -0.002423 -0.001449 -0.005162
# 2 -0.000129 0.006369 -0.002450 -0.002518 -0.001943 -0.006282
# 3 -0.001898 -0.002450 0.011582 0.000426 0.003402 0.002900
# 4 -0.002423 -0.002518 0.000426 0.022615 -0.002651 0.005986
# 5 -0.001449 -0.001943 0.003402 -0.002651 0.023349 0.003788
# 6 -0.005162 -0.006282 0.002900 0.005986 0.003788 0.033178
#
#
# Mechanical properties :
#
#
# Convention : Reuss Voigt Hill
#
# Bulk Modulus (GPa) = 61.61705 84.70188 73.15947
# Shear Modulus (GPa) = 42.12638 53.56486 47.84562
#
# Velocity S-wave (km/s) = 3.99286 4.50243 4.25528
# Velocity P-wave (km/s) = 6.67656 7.68667 7.19936
#
# Compressibility (1/GPa) = 0.01622927
#
# Stress axis : x y z
#
# Youngs Moduli (GPa) = 138.24625 157.02114 86.34456
#
# Poissons Ratio (x) = 0.02031 0.16385
# Poissons Ratio (y) = 0.01788 0.21156
# Poissons Ratio (z) = 0.26234 0.38473
#
# Static dielectric constant tensor:
#      x y z
#    x 2.206220 -0.177100 0.371440 
#    y -0.177100 2.375060 -0.461210 
#    z 0.371440 -0.461210 3.802690 
# 
# From -- ./inp_files/362516.got.cif
#   From: 2010.05.17/outbox.cif.g08.bks.cpg/sg2_182_cif.got.tgz:362516.got - 2010.06.03 11:33:40.
