data_PCOD9042505
_publ_section_title
;
Structure prediction by ZEFSAII (Michael W. Deem and Ramdas Pophale) SiO2 
 PCOD9042505
Probable space group: P -1
;
_chemical_formula_sum "Si O2"
_cell_formula_units_Z 15
_cell_length_a 10.643026
_cell_length_b 12.568276
_cell_length_c 11.612711
_cell_angle_alpha 75.487016
_cell_angle_beta 73.097029
_cell_angle_gamma 138.293446
_cell_volume 670.860991
_symmetry_space_group_name_H-M "P -1"
_symmetry_group_IT_number 2
_symmetry_cell_setting 'triclinic'
loop_
_space_group_symop_operation_xyz
x,y,z
-x,-y,-z
loop_
_atom_site_type_symbol
_atom_site_label
_atom_site_fract_x
_atom_site_fract_y
_atom_site_fract_z
Si Si1 0.000000 0.500000 0.500000
Si Si2 0.112272 0.930674 0.473329
Si Si3 0.010114 0.376332 0.024679
Si Si4 0.221603 0.433860 0.525915
Si Si5 0.412212 0.562128 0.700857
Si Si6 0.569980 0.051135 0.601679
Si Si7 0.333112 0.479456 0.103707
Si Si8 0.672914 0.751297 0.137481
O O1 0.979587 0.609674 0.415082
O O2 0.834165 0.322860 0.483643
O O3 0.352187 0.015943 0.372178
O O4 0.933419 0.782366 0.442053
O O5 0.910373 0.741763 0.683279
O O6 0.291852 0.168233 0.404706
O O7 0.198927 0.458528 0.050373
O O8 0.691471 0.102114 0.210052
O O9 0.000000 0.500000 0.000000
O O10 0.154021 0.442456 0.851770
O O11 0.353947 0.509000 0.594590
O O12 0.484880 0.662816 0.312045
O O13 0.388035 0.423592 0.797308
O O14 0.500000 0.000000 0.500000
O O15 0.558525 0.711626 0.058541
O O16 0.500000 0.500000 0.000000
O O17 0.000000 0.000000 0.000000
#
# Coordination Sequence:
#
# PCOD9042505 Si02
#       8
#     1   2   2   2   2   2   2   2
#     4  10  24  40  72 102 132 186 240 274 362 416
#     4  10  23  44  72 102 139 189 240 288 357 435
#     4  12  26  43  73 111 142 185 247 295 361 432
#     4  10  25  44  68 106 138 184 239 287 356 433
#     4  12  25  45  71 102 143 188 226 304 361 415
#     4  11  21  43  71  98 140 184 234 294 348 427
#     4  11  24  45  72 104 139 192 238 291 360 430
#     4  11  27  47  70 102 142 186 244 295 356 436
#
# _framework density 22.359325999999999
#
# number of rings (size 3 to 8) (size 9 to 14) (size 15 to 20)
#    0.000    1.067    4.000    1.200    3.733    3.200 
#    0.000    4.000    0.000    0.000    0.000    0.000 
#    0.000    0.000    0.000    0.000    0.000    0.000 
#
# Total GULP energy -83551.124697 kJ/mol
# GULP energy per Si atom -5570.074980 kJ/mol
# Density = 2.230844 g / cm^3
# Si number density = 22.359326 Si / 1000 Ang^3
#
#
#
# Elastic Constant Matrix: (Units=GPa)
#
#
# Indices 1 2 3 4 5 6 
#
# 1 95.8626 35.4330 8.7215 0.9866 1.8581 8.3601
# 2 35.4330 168.3528 38.7770 -4.5853 19.1172 22.8649
# 3 8.7215 38.7770 63.8775 9.6253 -13.9768 15.9522
# 4 0.9866 -4.5853 9.6253 41.7120 -3.6535 5.1046
# 5 1.8581 19.1172 -13.9768 -3.6535 31.9809 -2.7008
# 6 8.3601 22.8649 15.9522 5.1046 -2.7008 46.5403
#
#
#
# Elastic Compliance Matrix: (Units=1/GPa)
#
#
# Indices 1 2 3 4 5 6 
#
# 1 0.011376 -0.002493 0.000442 -0.000460 0.000896 -0.000868
# 2 -0.002493 0.009438 -0.006953 0.002269 -0.008491 -0.002548
# 3 0.000442 -0.006953 0.024526 -0.004751 0.013991 -0.003737
# 4 -0.000460 0.002269 -0.004751 0.025546 -0.000677 -0.002245
# 5 0.000896 -0.008491 0.013991 -0.000677 0.042478 0.001755
# 6 -0.000868 -0.002548 -0.003737 -0.002245 0.001755 0.024523
#
#
# Mechanical properties :
#
#
# Convention : Reuss Voigt Hill
#
# Bulk Modulus (GPa) = 36.58544 54.88400 45.73472
# Shear Modulus (GPa) = 30.30241 40.39072 35.34657
#
# Velocity S-wave (km/s) = 3.68536 4.25483 3.98029
# Velocity P-wave (km/s) = 5.87428 6.98124 6.45155
#
# Compressibility (1/GPa) = 0.02733328
#
# Stress axis : x y z
#
# Youngs Moduli (GPa) = 87.90651 105.95508 40.77367
#
# Poissons Ratio (x) = 0.26410 -0.01803
# Poissons Ratio (y) = 0.21911 0.28348
# Poissons Ratio (z) = -0.03887 0.73667
#
# Static dielectric constant tensor:
#      x y z
#    x 1.897210 0.031280 -0.015020 
#    y 0.031280 1.913210 -0.004210 
#    z -0.015020 -0.004210 1.894880 
# 
# From -- ./inp_files/277388.got.cif
#   From: 2010.05.17/outbox.cif.g08.bks.cpg/sg2_139_cif.got.tgz:277388.got - 2010.06.03 11:33:40.
