data_PCOD9042355
_publ_section_title
;
Structure prediction by ZEFSAII (Michael W. Deem and Ramdas Pophale) SiO2 
 PCOD9042355
Probable space group: P -1
;
_chemical_formula_sum "Si O2"
_cell_formula_units_Z 16
_cell_length_a 6.898696
_cell_length_b 15.045158
_cell_length_c 9.469572
_cell_angle_alpha 117.514263
_cell_angle_beta 132.121081
_cell_angle_gamma 73.823776
_cell_volume 645.834864
_symmetry_space_group_name_H-M "P -1"
_symmetry_group_IT_number 2
_symmetry_cell_setting 'triclinic'
loop_
_space_group_symop_operation_xyz
x,y,z
-x,-y,-z
loop_
_atom_site_type_symbol
_atom_site_label
_atom_site_fract_x
_atom_site_fract_y
_atom_site_fract_z
Si Si1 0.885596 0.669131 0.333212
Si Si2 0.643277 0.241814 0.832120
Si Si3 0.707985 0.493804 0.291750
Si Si4 0.354763 0.104632 0.038310
Si Si5 0.799158 0.405322 0.818460
Si Si6 0.621775 0.901293 0.624729
Si Si7 0.122786 0.991541 0.400742
Si Si8 0.270212 0.734547 0.814969
O O1 0.650127 0.739585 0.239771
O O2 0.751091 0.558236 0.216724
O O3 0.098029 0.659366 0.308489
O O4 0.025309 0.709619 0.574140
O O5 0.786734 0.340231 0.907174
O O6 0.568309 0.177319 0.609570
O O7 0.789423 0.213959 0.026120
O O8 0.491048 0.554134 0.313966
O O9 0.631802 0.376159 0.176974
O O10 0.000000 0.500000 0.500000
O O11 0.337459 0.120523 0.209237
O O12 0.522968 0.195577 0.117278
O O13 0.064657 0.095619 0.824229
O O14 0.500000 0.000000 0.000000
O O15 0.000000 0.500000 0.000000
O O16 0.429962 0.994311 0.595524
O O17 0.869023 0.928813 0.666387
O O18 0.000000 0.000000 0.500000
#
# Coordination Sequence:
#
# PCOD9042355 Si02
#       8
#     2   2   2   2   2   2   2   2
#     4  10  23  44  70  99 141 182 226 288 343 408
#     4  11  25  43  67 102 139 179 231 282 346 416
#     4   9  21  42  65  99 140 182 228 281 345 407
#     4  12  26  44  72 101 136 180 228 286 349 406
#     4  11  22  40  71 101 138 183 231 286 346 413
#     4  11  26  45  71 100 132 183 228 278 353 413
#     4  11  24  46  72  96 132 174 228 288 341 409
#     4  11  24  41  68  98 135 183 227 279 345 406
#
# _framework density 24.774135000000001
#
# number of rings (size 3 to 8) (size 9 to 14) (size 15 to 20)
#    0.000    1.250    1.250    3.375    3.500    9.000 
#    0.000    8.750    0.000    0.000    0.000    0.000 
#    0.000    0.000    0.000    0.000    0.000    0.000 
#
# Total GULP energy -89348.414231 kJ/mol
# GULP energy per Si atom -5584.275889 kJ/mol
# Density = 2.471775 g / cm^3
# Si number density = 24.774135 Si / 1000 Ang^3
#
#
#
# Elastic Constant Matrix: (Units=GPa)
#
#
# Indices 1 2 3 4 5 6 
#
# 1 163.9592 50.4435 59.1578 -12.1761 -17.8776 25.6394
# 2 50.4435 75.4152 23.5267 1.7959 -2.2888 30.7073
# 3 59.1578 23.5267 176.9943 -8.8357 -21.0142 27.9078
# 4 -12.1761 1.7959 -8.8357 36.1067 10.0827 11.5052
# 5 -17.8776 -2.2888 -21.0142 10.0827 50.9535 -1.1345
# 6 25.6394 30.7073 27.9078 11.5052 -1.1345 56.2771
#
#
#
# Elastic Compliance Matrix: (Units=1/GPa)
#
#
# Indices 1 2 3 4 5 6 
#
# 1 0.008787 -0.004959 -0.001819 0.002611 0.001573 -0.000898
# 2 -0.004959 0.020098 0.000311 0.000555 -0.001019 -0.008996
# 3 -0.001819 0.000311 0.007006 0.001543 0.001891 -0.003092
# 4 0.002611 0.000555 0.001543 0.033306 -0.005217 -0.009172
# 5 0.001573 -0.001019 0.001891 -0.005217 0.021953 0.000411
# 6 -0.000898 -0.008996 -0.003092 -0.009172 0.000411 0.026503
#
#
# Mechanical properties :
#
#
# Convention : Reuss Voigt Hill
#
# Bulk Modulus (GPa) = 43.55941 75.84719 59.70330
# Shear Modulus (GPa) = 36.16910 47.55018 41.85964
#
# Velocity S-wave (km/s) = 3.82508 4.38579 4.11500
# Velocity P-wave (km/s) = 6.09337 7.50525 6.83586
#
# Compressibility (1/GPa) = 0.02295715
#
# Stress axis : x y z
#
# Youngs Moduli (GPa) = 113.80623 49.75519 142.74174
#
# Poissons Ratio (x) = 0.24673 0.25966
# Poissons Ratio (y) = 0.56435 -0.04439
# Poissons Ratio (z) = 0.20702 -0.01547
#
# Static dielectric constant tensor:
#      x y z
#    x 2.023330 -0.370040 -0.093660 
#    y -0.370040 -47.952380 -15.378120 
#    z -0.093660 -15.378120 -2.766170 
# 
# From -- ./inp_files/139437.got.cif
#   From: 2010.05.17/outbox.cif.g08.bks.cpg/sg2_70_cif.got.tgz:139437.got - 2010.06.03 11:33:40.
