data_PCOD9042445
_publ_section_title
;
Structure prediction by ZEFSAII (Michael W. Deem and Ramdas Pophale) SiO2 
 PCOD9042445
Probable space group: P -1
;
_chemical_formula_sum "Si O2"
_cell_formula_units_Z 16
_cell_length_a 14.177703
_cell_length_b 12.033696
_cell_length_c 12.622120
_cell_angle_alpha 52.969752
_cell_angle_beta 148.538125
_cell_angle_gamma 138.222562
_cell_volume 745.264577
_symmetry_space_group_name_H-M "P -1"
_symmetry_group_IT_number 2
_symmetry_cell_setting 'triclinic'
loop_
_space_group_symop_operation_xyz
x,y,z
-x,-y,-z
loop_
_atom_site_type_symbol
_atom_site_label
_atom_site_fract_x
_atom_site_fract_y
_atom_site_fract_z
Si Si1 0.730208 0.050565 0.734765
Si Si2 0.527267 0.384929 0.878950
Si Si3 0.414411 0.908249 0.856934
Si Si4 0.968449 0.878861 0.439397
Si Si5 0.794678 0.222551 0.913347
Si Si6 0.567278 0.378399 0.675298
Si Si7 0.795681 0.770491 0.943386
Si Si8 0.132826 0.152248 0.285609
O O1 0.786839 0.180104 0.808099
O O2 0.500000 0.000000 0.500000
O O3 0.712233 0.880211 0.848194
O O4 0.955392 0.148546 0.827535
O O5 0.267126 0.291882 0.677737
O O6 0.603992 0.401790 0.821177
O O7 0.648602 0.572155 0.933307
O O8 0.575107 0.254258 0.049250
O O9 0.168330 0.857512 0.640962
O O10 0.590390 0.052419 0.864905
O O11 0.500000 0.000000 0.000000
O O12 0.000000 0.000000 0.500000
O O13 0.969491 0.965503 0.280142
O O14 0.756009 0.367492 0.812034
O O15 0.016927 0.247572 0.152577
O O16 0.500000 0.500000 0.500000
O O17 0.344720 0.206511 0.525781
O O18 0.808460 0.808450 0.805040
#
# Coordination Sequence:
#
# PCOD9042445 Si02
#       8
#     2   2   2   2   2   2   2   2
#     4  10  23  44  71  87 118 164 224 263 322 370
#     4  12  24  38  61  95 137 161 208 258 312 374
#     4  12  21  37  59  91 133 168 206 243 305 388
#     4  12  21  35  61  89 127 179 201 239 303 388
#     4  11  22  39  65  93 119 169 213 255 313 373
#     4  12  23  36  59  95 136 164 203 259 308 379
#     4  10  24  44  64  95 121 161 209 281 313 358
#     4  11  20  38  62  89 126 166 211 243 316 375
#
# _framework density 21.468886000000001
#
# number of rings (size 3 to 8) (size 9 to 14) (size 15 to 20)
#    0.000    0.750    7.500    0.750    0.000    1.500 
#    2.250    0.625    0.000    1.500    0.000    0.000 
#    0.000    0.000    0.000    0.000    0.000    0.000 
#
# Total GULP energy -89291.881970 kJ/mol
# GULP energy per Si atom -5580.742623 kJ/mol
# Density = 2.142002 g / cm^3
# Si number density = 21.468886 Si / 1000 Ang^3
#
#
#
# Elastic Constant Matrix: (Units=GPa)
#
#
# Indices 1 2 3 4 5 6 
#
# 1 32.7489 -1.1854 9.0626 -10.8399 16.6132 1.2838
# 2 -1.1854 124.9542 36.6614 -1.0185 14.1198 -4.2454
# 3 9.0626 36.6614 150.8954 -2.4626 40.5204 -12.5025
# 4 -10.8399 -1.0185 -2.4626 38.6806 -0.7316 0.1172
# 5 16.6132 14.1198 40.5204 -0.7316 30.3741 -6.6513
# 6 1.2838 -4.2454 -12.5025 0.1172 -6.6513 16.3193
#
#
#
# Elastic Compliance Matrix: (Units=1/GPa)
#
#
# Indices 1 2 3 4 5 6 
#
# 1 0.057869 0.003250 0.006830 0.015926 -0.045656 -0.017197
# 2 0.003250 0.008871 -0.001204 0.000986 -0.004421 -0.000679
# 3 0.006830 -0.001204 0.011524 0.002267 -0.018393 0.000466
# 4 0.015926 0.000986 0.002267 0.030264 -0.012462 -0.004556
# 5 -0.045656 -0.004421 -0.018393 -0.012462 0.089657 0.024981
# 6 -0.017197 -0.000679 0.000466 -0.004556 0.024981 0.073024
#
#
# Mechanical properties :
#
#
# Convention : Reuss Voigt Hill
#
# Bulk Modulus (GPa) = 10.41478 44.18620 27.30049
# Shear Modulus (GPa) = 17.51535 34.67880 26.09708
#
# Velocity S-wave (km/s) = 2.85940 4.02345 3.49029
# Velocity P-wave (km/s) = 3.97029 6.49695 5.38394
#
# Compressibility (1/GPa) = 0.09601735
#
# Stress axis : x y z
#
# Youngs Moduli (GPa) = 17.28028 112.72173 86.77464
#
# Poissons Ratio (x) = -0.36631 -0.59268
# Poissons Ratio (y) = -0.05616 0.10444
# Poissons Ratio (z) = -0.11803 0.13568
#
# Static dielectric constant tensor:
#      x y z
#    x 1.843810 0.038000 0.047590 
#    y 0.038000 1.841350 0.008780 
#    z 0.047590 0.008780 1.802120 
# 
# From -- ./inp_files/455920.got.cif
#   From: 2010.05.17/outbox.cif.g08.bks.cpg/sg2_228_cif.got.tgz:455920.got - 2010.06.03 11:33:40.
