data_PCOD9042253
_publ_section_title
;
Structure prediction by ZEFSAII (Michael W. Deem and Ramdas Pophale) SiO2 
 PCOD9042253
Probable space group: P -1
;
_chemical_formula_sum "Si O2"
_cell_formula_units_Z 16
_cell_length_a 20.329185
_cell_length_b 15.318855
_cell_length_c 5.158219
_cell_angle_alpha 77.707799
_cell_angle_beta 84.488603
_cell_angle_gamma 26.913899
_cell_volume 694.296012
_symmetry_space_group_name_H-M "P -1"
_symmetry_group_IT_number 2
_symmetry_cell_setting 'triclinic'
loop_
_space_group_symop_operation_xyz
x,y,z
-x,-y,-z
loop_
_atom_site_type_symbol
_atom_site_label
_atom_site_fract_x
_atom_site_fract_y
_atom_site_fract_z
Si Si1 0.198778 0.901681 0.686065
Si Si2 0.252466 0.435549 0.860862
Si Si3 0.882248 0.723153 0.371377
Si Si4 0.128310 0.681033 0.258241
Si Si5 0.747645 0.276449 0.718127
Si Si6 0.555348 0.257882 0.497421
Si Si7 0.006021 0.599849 0.904928
Si Si8 0.439578 0.871549 0.917813
O O1 0.180114 0.859890 0.469775
O O2 0.310767 0.841699 0.582813
O O3 0.265587 0.770141 0.995205
O O4 0.039561 0.127981 0.702212
O O5 0.229254 0.509130 0.544515
O O6 0.166776 0.445018 0.885546
O O7 0.169024 0.594857 0.013480
O O8 0.425339 0.226474 0.002469
O O9 0.000000 0.500000 0.500000
O O10 0.892491 0.758412 0.619394
O O11 0.717995 0.893565 0.246100
O O12 0.946181 0.707169 0.131340
O O13 0.160882 0.746932 0.218005
O O14 0.586316 0.507480 0.547519
O O15 0.518832 0.237742 0.280039
O O16 0.582657 0.166255 0.802349
O O17 0.000000 0.500000 0.000000
#
# Coordination Sequence:
#
# PCOD9042253 Si02
#       8
#     2   2   2   2   2   2   2   2
#     4  12  26  40  66  98 132 189 227 294 344 402
#     4  12  24  44  68 100 139 180 225 286 339 407
#     4  10  23  44  70 103 136 173 216 276 343 410
#     4  12  25  42  67 100 135 179 239 280 342 403
#     4  12  22  46  62  94 144 177 233 288 348 400
#     4  12  25  42  67 100 135 179 239 280 342 403
#     4  10  23  44  70 103 136 173 216 276 343 410
#     4  12  24  44  68 100 139 180 225 286 339 407
#
# _framework density 23.044926
#
# number of rings (size 3 to 8) (size 9 to 14) (size 15 to 20)
#    0.000    0.500    2.500    6.000    5.250    0.000 
#    0.000    5.000    0.000    0.000    0.000    0.000 
#    0.000    0.000    0.000    0.000    0.000    0.000 
#
# Total GULP energy -89545.944518 kJ/mol
# GULP energy per Si atom -5596.621532 kJ/mol
# Density = 2.299247 g / cm^3
# Si number density = 23.044926 Si / 1000 Ang^3
#
#
#
# Elastic Constant Matrix: (Units=GPa)
#
#
# Indices 1 2 3 4 5 6 
#
# 1 114.6887 41.4012 32.1781 -17.7305 -8.7259 -19.5258
# 2 41.4012 91.8724 30.1539 -9.4868 -11.0177 -19.4532
# 3 32.1781 30.1539 157.7051 16.1884 3.5949 2.3076
# 4 -17.7305 -9.4868 16.1884 43.7940 -7.1787 11.2191
# 5 -8.7259 -11.0177 3.5949 -7.1787 13.1623 4.8584
# 6 -19.5258 -19.4532 2.3076 11.2191 4.8584 41.8113
#
#
#
# Elastic Compliance Matrix: (Units=1/GPa)
#
#
# Indices 1 2 3 4 5 6 
#
# 1 0.012617 -0.002288 -0.003118 0.006978 0.010398 0.001919
# 2 -0.002288 0.016127 -0.003553 0.005379 0.014598 0.003491
# 3 -0.003118 -0.003553 0.008623 -0.006905 -0.010994 -0.000455
# 4 0.006978 0.005379 -0.006905 0.036928 0.034003 -0.007718
# 5 0.010398 0.014598 -0.010994 0.034003 0.120655 -0.010890
# 6 0.001919 0.003491 -0.000455 -0.007718 -0.010890 0.029799
#
#
# Mechanical properties :
#
#
# Convention : Reuss Voigt Hill
#
# Bulk Modulus (GPa) = 51.41885 63.52584 57.47234
# Shear Modulus (GPa) = 20.06832 37.12239 28.59535
#
# Velocity S-wave (km/s) = 2.95419 4.01792 3.52640
# Velocity P-wave (km/s) = 5.83071 7.01077 6.44779
#
# Compressibility (1/GPa) = 0.01944812
#
# Stress axis : x y z
#
# Youngs Moduli (GPa) = 79.26007 62.00699 115.97550
#
# Poissons Ratio (x) = 0.14190 0.36162
# Poissons Ratio (y) = 0.18138 0.41202
# Poissons Ratio (z) = 0.24714 0.22029
#
# Static dielectric constant tensor:
#      x y z
#    x 1.561110 -0.311550 -0.013090 
#    y -0.311550 1.546190 -0.038700 
#    z -0.013090 -0.038700 1.880920 
# 
# From -- ./inp_files/110729.got.cif
#   From: 2010.05.17/outbox.cif.g08.bks.cpg/sg2_56_cif.got.tgz:110729.got - 2010.06.03 11:33:40.
