data_PCOD9042954
_publ_section_title
;
Structure prediction by ZEFSAII (Michael W. Deem and Ramdas Pophale) SiO2 
 PCOD9042954
Probable space group: P -1
;
_chemical_formula_sum "Si O2"
_cell_formula_units_Z 16
_cell_length_a 7.341976
_cell_length_b 10.700006
_cell_length_c 10.004156
_cell_angle_alpha 90.373844
_cell_angle_beta 74.251525
_cell_angle_gamma 128.415089
_cell_volume 578.817630
_symmetry_space_group_name_H-M "P -1"
_symmetry_group_IT_number 2
_symmetry_cell_setting 'triclinic'
loop_
_space_group_symop_operation_xyz
x,y,z
-x,-y,-z
loop_
_atom_site_type_symbol
_atom_site_label
_atom_site_fract_x
_atom_site_fract_y
_atom_site_fract_z
Si Si1 0.301644 0.971191 0.741137
Si Si2 0.059111 0.858324 0.054764
Si Si3 0.465359 0.664288 0.377151
Si Si4 0.016202 0.239172 0.657114
Si Si5 0.897823 0.843454 0.615873
Si Si6 0.364588 0.715691 0.676912
Si Si7 0.910925 0.394942 0.866148
Si Si8 0.520277 0.636435 0.077173
O O1 0.409954 0.884520 0.669648
O O2 0.274660 0.960669 0.906197
O O3 0.031110 0.873128 0.727724
O O4 0.432533 0.152677 0.669919
O O5 0.995130 0.683112 0.069906
O O6 0.105528 0.904382 0.203905
O O7 0.799281 0.801439 0.052824
O O8 0.696390 0.671483 0.370389
O O9 0.318220 0.629969 0.541380
O O10 0.388142 0.572571 0.250059
O O11 0.010964 0.228165 0.500240
O O12 0.897456 0.317677 0.726201
O O13 0.608448 0.748041 0.681605
O O14 0.000000 0.000000 0.500000
O O15 0.121909 0.586440 0.810684
O O16 0.648085 0.333042 0.960918
O O17 0.500000 0.500000 0.000000
#
# Coordination Sequence:
#
# PCOD9042954 Si02
#       8
#     2   2   2   2   2   2   2   2
#     4  12  24  44  75 104 142 180 232 287 352 408
#     4   9  24  46  68  99 141 185 223 290 344 408
#     4  10  23  45  67 102 144 176 231 295 344 404
#     4   8  20  45  66  96 139 183 221 283 342 409
#     4  11  23  43  70 104 139 183 232 281 345 418
#     4  11  25  42  71 107 138 188 223 293 342 418
#     4  10  24  46  70  95 144 181 234 277 350 409
#     4  11  24  44  68 101 137 186 235 283 342 417
#
# _framework density 27.642557
#
# number of rings (size 3 to 8) (size 9 to 14) (size 15 to 20)
#    0.750    1.000    2.500    1.125    1.750    9.500 
#    2.250    0.625    0.000    0.000    0.000    0.000 
#    0.000    0.000    0.000    0.000    0.000    0.000 
#
# Total GULP energy -89428.987806 kJ/mol
# GULP energy per Si atom -5589.311738 kJ/mol
# Density = 2.757964 g / cm^3
# Si number density = 27.642557 Si / 1000 Ang^3
#
#
#
# Elastic Constant Matrix: (Units=GPa)
#
#
# Indices 1 2 3 4 5 6 
#
# 1 111.7002 21.3889 26.5044 16.9673 -24.8522 -0.7863
# 2 21.3889 51.8691 8.8596 16.3709 -11.2801 -12.1350
# 3 26.5044 8.8596 127.7436 20.4337 -7.4592 -7.8130
# 4 16.9673 16.3709 20.4337 48.9138 -8.7216 -11.0397
# 5 -24.8522 -11.2801 -7.4592 -8.7216 46.6614 15.1162
# 6 -0.7863 -12.1350 -7.8130 -11.0397 15.1162 34.2069
#
#
#
# Elastic Compliance Matrix: (Units=1/GPa)
#
#
# Indices 1 2 3 4 5 6 
#
# 1 0.011758 -0.003661 -0.001783 -0.002091 0.006285 -0.004888
# 2 -0.003661 0.024106 0.000388 -0.005352 0.000849 0.006454
# 3 -0.001783 0.000388 0.008694 -0.002921 -0.000445 0.001336
# 4 -0.002091 -0.005352 -0.002921 0.025451 0.000080 0.005565
# 5 0.006285 0.000849 -0.000445 0.000080 0.028952 -0.012425
# 6 -0.004888 0.006454 0.001336 0.005565 -0.012425 0.039003
#
#
# Mechanical properties :
#
#
# Convention : Reuss Voigt Hill
#
# Bulk Modulus (GPa) = 29.02998 44.97984 37.00491
# Shear Modulus (GPa) = 31.33626 41.59376 36.46501
#
# Velocity S-wave (km/s) = 3.37059 3.88325 3.63597
# Velocity P-wave (km/s) = 5.06680 6.03436 5.57163
#
# Compressibility (1/GPa) = 0.03444715
#
# Stress axis : x y z
#
# Youngs Moduli (GPa) = 85.04665 41.48273 115.01859
#
# Poissons Ratio (x) = 0.15186 0.20510
# Poissons Ratio (y) = 0.31134 -0.04464
# Poissons Ratio (z) = 0.15165 -0.01610
#
# Static dielectric constant tensor:
#      x y z
#    x 2.084790 0.016210 0.047390 
#    y 0.016210 2.343440 0.122060 
#    z 0.047390 0.122060 2.192040 
# 
# From -- ./inp_files/392734.got.cif
#   From: 2010.05.17/outbox.cif.g08.bks.cpg/sg2_197_cif.got.tgz:392734.got - 2010.06.03 11:33:40.
