data_PCOD9042337
_publ_section_title
;
Structure prediction by ZEFSAII (Michael W. Deem and Ramdas Pophale) SiO2 
 PCOD9042337
Probable space group: P -1
;
_chemical_formula_sum "Si O2"
_cell_formula_units_Z 16
_cell_length_a 11.560602
_cell_length_b 6.949230
_cell_length_c 11.204572
_cell_angle_alpha 78.657516
_cell_angle_beta 79.045580
_cell_angle_gamma 57.895773
_cell_volume 743.632528
_symmetry_space_group_name_H-M "P -1"
_symmetry_group_IT_number 2
_symmetry_cell_setting 'triclinic'
loop_
_space_group_symop_operation_xyz
x,y,z
-x,-y,-z
loop_
_atom_site_type_symbol
_atom_site_label
_atom_site_fract_x
_atom_site_fract_y
_atom_site_fract_z
Si Si1 0.200570 0.941204 0.137400
Si Si2 0.725233 0.941999 0.641063
Si Si3 0.018769 0.515945 0.353968
Si Si4 0.898541 0.319918 0.210854
Si Si5 0.704330 0.762455 0.055201
Si Si6 0.397183 0.442451 0.095565
Si Si7 0.800517 0.009999 0.362682
Si Si8 0.454054 0.965351 0.718414
O O1 0.264532 0.943417 0.253579
O O2 0.038017 0.105027 0.160808
O O3 0.259953 0.681605 0.120018
O O4 0.249507 0.063530 0.018695
O O5 0.821623 0.667124 0.678339
O O6 0.572034 0.001312 0.636328
O O7 0.789223 0.004945 0.509097
O O8 0.000000 0.500000 0.500000
O O9 0.940710 0.420119 0.302242
O O10 0.941437 0.786883 0.316605
O O11 0.829293 0.518984 0.103096
O O12 0.800230 0.229855 0.285908
O O13 0.607252 0.870586 0.174863
O O14 0.632712 0.713799 0.966148
O O15 0.471012 0.293699 0.215596
O O16 0.500000 0.500000 0.000000
O O17 0.674041 0.989849 0.341361
#
# Coordination Sequence:
#
# PCOD9042337 Si02
#       8
#     2   2   2   2   2   2   2   2
#     4  11  25  44  67 102 134 176 226 278 333 406
#     4  10  23  44  70  98 134 180 224 276 336 399
#     4   9  21  43  69  93 134 177 220 274 334 385
#     4  11  25  42  70 102 134 175 226 278 336 395
#     4  12  24  45  67  98 141 174 222 280 335 398
#     4  12  24  41  67  98 134 182 223 267 339 400
#     4  11  24  45  68 100 138 175 228 279 330 397
#     4  12  23  44  69  98 140 177 222 276 340 396
#
# _framework density 21.516005
#
# number of rings (size 3 to 8) (size 9 to 14) (size 15 to 20)
#    0.000    1.000    3.750    2.625    1.750    5.000 
#    2.250    1.250    0.000    0.000    0.000    0.000 
#    0.000    0.000    0.000    0.000    0.000    0.000 
#
# Total GULP energy -89470.903054 kJ/mol
# GULP energy per Si atom -5591.931441 kJ/mol
# Density = 2.146703 g / cm^3
# Si number density = 21.516005 Si / 1000 Ang^3
#
#
#
# Elastic Constant Matrix: (Units=GPa)
#
#
# Indices 1 2 3 4 5 6 
#
# 1 41.3418 -7.2114 -0.5378 3.1715 -1.3478 -12.4935
# 2 -7.2114 79.9030 12.5811 -0.9985 -2.8472 -7.3758
# 3 -0.5378 12.5811 45.2024 8.9011 1.8438 0.0098
# 4 3.1715 -0.9985 8.9011 29.4396 -5.5788 -1.2327
# 5 -1.3478 -2.8472 1.8438 -5.5788 32.5402 -8.5677
# 6 -12.4935 -7.3758 0.0098 -1.2327 -8.5677 21.7044
#
#
#
# Elastic Compliance Matrix: (Units=1/GPa)
#
#
# Indices 1 2 3 4 5 6 
#
# 1 0.032695 0.005681 -0.001466 -0.000331 0.008187 0.023964
# 2 0.005681 0.014978 -0.004854 0.002764 0.005064 0.010519
# 3 -0.001466 -0.004854 0.025378 -0.008775 -0.004708 -0.004862
# 4 -0.000331 0.002764 -0.008775 0.038747 0.009091 0.006542
# 5 0.008187 0.005064 -0.004708 0.009091 0.039249 0.022446
# 6 0.023964 0.010519 -0.004862 0.006542 0.022446 0.072677
#
#
# Mechanical properties :
#
#
# Convention : Reuss Voigt Hill
#
# Bulk Modulus (GPa) = 13.93300 19.56790 16.75045
# Shear Modulus (GPa) = 20.08633 27.51119 23.79876
#
# Velocity S-wave (km/s) = 3.05872 3.57968 3.32941
# Velocity P-wave (km/s) = 4.35478 5.11858 4.75205
#
# Compressibility (1/GPa) = 0.07177204
#
# Stress axis : x y z
#
# Youngs Moduli (GPa) = 30.58586 66.76335 39.40495
#
# Poissons Ratio (x) = -0.37931 0.05778
# Poissons Ratio (y) = -0.17377 0.19129
# Poissons Ratio (z) = 0.04485 0.32410
#
# Static dielectric constant tensor:
#      x y z
#    x 1.781010 -0.042020 0.005650 
#    y -0.042020 1.787680 -0.014540 
#    z 0.005650 -0.014540 1.773480 
# 
# From -- ./inp_files/68458.got.cif
#   From: 2010.05.17/outbox.cif.g08.bks.cpg/sg2_35_cif.got.tgz:68458.got - 2010.06.03 11:33:40.
