data_PCOD9042058
_publ_section_title
;
Structure prediction by ZEFSAII (Michael W. Deem and Ramdas Pophale) SiO2 
 PCOD9042058
Probable space group: P -1
;
_chemical_formula_sum "Si O2"
_cell_formula_units_Z 12
_cell_length_a 8.863836
_cell_length_b 19.568413
_cell_length_c 20.399081
_cell_angle_alpha 21.001799
_cell_angle_beta 150.741137
_cell_angle_gamma 138.818056
_cell_volume 579.880073
_symmetry_space_group_name_H-M "P -1"
_symmetry_group_IT_number 2
_symmetry_cell_setting 'triclinic'
loop_
_space_group_symop_operation_xyz
x,y,z
-x,-y,-z
loop_
_atom_site_type_symbol
_atom_site_label
_atom_site_fract_x
_atom_site_fract_y
_atom_site_fract_z
Si Si1 0.219800 0.883452 0.747099
Si Si2 0.105512 0.381260 0.076611
Si Si3 0.360315 0.958036 0.147028
Si Si4 0.730661 0.479187 0.238119
Si Si5 0.784412 0.503575 0.705225
Si Si6 0.635359 0.787885 0.202666
O O1 0.393088 0.023370 0.720674
O O2 0.988854 0.817862 0.768884
O O3 0.504749 0.682846 0.007096
O O4 0.000000 0.000000 0.500000
O O5 0.485287 0.360440 0.231318
O O6 0.000000 0.500000 0.000000
O O7 0.905430 0.489462 0.839342
O O8 0.521533 0.727793 0.388102
O O9 0.333446 0.137529 0.925313
O O10 0.000000 0.000000 0.000000
O O11 0.908955 0.530348 0.196745
O O12 0.016001 0.347154 0.513318
O O13 0.391023 0.661019 0.225238
O O14 0.500000 0.000000 0.000000
#
# Coordination Sequence:
#
# PCOD9042058 Si02
#       6
#     2   2   2   2   2   2
#     4  11  25  46  69 106 142 184 238 291 349 415
#     4  10  23  44  69 101 139 181 232 291 340 409
#     4  12  27  43  74 105 140 189 235 287 354 418
#     4  11  25  44  74 100 146 188 230 293 348 418
#     4  12  25  49  71 105 143 184 239 288 351 422
#     4  12  27  47  70 107 145 181 237 291 354 417
#
# _framework density 20.693935
#
# number of rings (size 3 to 8) (size 9 to 14) (size 15 to 20)
#    0.000    0.667    3.333    4.000    9.333    1.333 
#    0.000    2.500    0.000    0.000    0.000    0.000 
#    0.000    0.000    0.000    0.000    0.000    0.000 
#
# Total GULP energy -67097.893581 kJ/mol
# GULP energy per Si atom -5591.491132 kJ/mol
# Density = 2.064683 g / cm^3
# Si number density = 20.693935 Si / 1000 Ang^3
#
#
#
# Elastic Constant Matrix: (Units=GPa)
#
#
# Indices 1 2 3 4 5 6 
#
# 1 103.9075 59.5333 49.2870 -0.0453 -12.3782 34.1515
# 2 59.5333 168.8217 56.8463 6.9762 0.9727 31.8857
# 3 49.2870 56.8463 133.5457 12.6940 -17.0552 6.6362
# 4 -0.0453 6.9762 12.6940 37.8835 -8.8157 -4.3900
# 5 -12.3782 0.9727 -17.0552 -8.8157 38.3398 3.3618
# 6 34.1515 31.8857 6.6362 -4.3900 3.3618 46.6979
#
#
#
# Elastic Compliance Matrix: (Units=1/GPa)
#
#
# Indices 1 2 3 4 5 6 
#
# 1 0.017199 -0.002841 -0.004161 0.001943 0.005118 -0.010233
# 2 -0.002841 0.008496 -0.002545 -0.001650 -0.002351 -0.003348
# 3 -0.004161 -0.002545 0.010502 -0.002101 0.002655 0.002900
# 4 0.001943 -0.001650 -0.002101 0.029123 0.006230 0.002294
# 5 0.005118 -0.002351 0.002655 0.006230 0.030772 -0.004145
# 6 -0.010233 -0.003348 0.002900 0.002294 -0.004145 0.031286
#
#
# Mechanical properties :
#
#
# Convention : Reuss Voigt Hill
#
# Bulk Modulus (GPa) = 58.46842 81.95645 70.21243
# Shear Modulus (GPa) = 32.85747 40.62478 36.74113
#
# Velocity S-wave (km/s) = 3.98902 4.43552 4.21818
# Velocity P-wave (km/s) = 7.03787 8.11923 7.59781
#
# Compressibility (1/GPa) = 0.01710325
#
# Stress axis : x y z
#
# Youngs Moduli (GPa) = 58.14230 117.69768 95.22160
#
# Poissons Ratio (x) = 0.33440 0.39620
# Poissons Ratio (y) = 0.16519 0.24235
# Poissons Ratio (z) = 0.24192 0.29955
#
# Static dielectric constant tensor:
#      x y z
#    x 1.757640 -0.022440 -0.017850 
#    y -0.022440 1.769310 -0.025370 
#    z -0.017850 -0.025370 1.713640 
# 
# From -- ./inp_files/183144.got.cif
#   From: 2010.05.17/outbox.cif.g08.bks.cpg/sg2_92_cif.got.tgz:183144.got - 2010.06.03 11:33:40.
