data_PCOD9042744
_publ_section_title
;
Structure prediction by ZEFSAII (Michael W. Deem and Ramdas Pophale) SiO2 
 PCOD9042744
Probable space group: P -1
;
_chemical_formula_sum "Si O2"
_cell_formula_units_Z 16
_cell_length_a 8.210231
_cell_length_b 14.054091
_cell_length_c 5.416465
_cell_angle_alpha 100.391616
_cell_angle_beta 101.000327
_cell_angle_gamma 75.526505
_cell_volume 588.220544
_symmetry_space_group_name_H-M "P -1"
_symmetry_group_IT_number 2
_symmetry_cell_setting 'triclinic'
loop_
_space_group_symop_operation_xyz
x,y,z
-x,-y,-z
loop_
_atom_site_type_symbol
_atom_site_label
_atom_site_fract_x
_atom_site_fract_y
_atom_site_fract_z
Si Si1 0.140977 0.306207 0.773833
Si Si2 0.838577 0.303745 0.385183
Si Si3 0.279943 0.816962 0.107392
Si Si4 0.433138 0.616378 0.293516
Si Si5 0.780854 0.492392 0.167780
Si Si6 0.705515 0.796446 0.728287
Si Si7 0.630847 0.058904 0.429719
Si Si8 0.181726 0.017859 0.987284
O O1 0.120534 0.424270 0.836749
O O2 0.240791 0.264606 0.533323
O O3 0.958429 0.280735 0.649281
O O4 0.234152 0.262180 0.029720
O O5 0.647808 0.343872 0.450939
O O6 0.884291 0.397286 0.299498
O O7 0.841624 0.220177 0.141430
O O8 0.411800 0.714739 0.161710
O O9 0.240972 0.876245 0.382686
O O10 0.319419 0.915768 0.042070
O O11 0.622394 0.551533 0.315902
O O12 0.312422 0.550319 0.104838
O O13 0.508719 0.848738 0.678853
O O14 0.793296 0.889453 0.811137
O O15 0.500000 0.000000 0.500000
O O16 0.760320 0.974826 0.272782
O O17 0.000000 0.000000 0.000000
#
# Coordination Sequence:
#
# PCOD9042744 Si02
#       8
#     2   2   2   2   2   2   2   2
#     4  12  29  49  79 115 163 208 270 330 408 486
#     4  11  25  47  76 113 155 206 263 332 407 488
#     4  11  25  46  77 112 155 204 266 326 411 472
#     4  10  23  44  75 109 154 199 271 324 404 483
#     4  10  24  46  74 110 151 208 263 331 404 484
#     4  12  29  51  79 117 161 213 273 331 404 489
#     4  12  26  52  81 113 160 215 273 338 402 485
#     4  12  28  48  79 113 161 210 266 331 408 480
#
# _framework density 27.200680999999999
#
# number of rings (size 3 to 8) (size 9 to 14) (size 15 to 20)
#    0.000    0.750    1.250    4.125   10.500    1.000 
#    2.250    0.000    0.000    0.000    0.000    0.000 
#    0.000    0.000    0.000    0.000    0.000    0.000 
#
# Total GULP energy -89401.221614 kJ/mol
# GULP energy per Si atom -5587.576351 kJ/mol
# Density = 2.713877 g / cm^3
# Si number density = 27.200681 Si / 1000 Ang^3
#
#
#
# Elastic Constant Matrix: (Units=GPa)
#
#
# Indices 1 2 3 4 5 6 
#
# 1 97.2751 15.6429 62.5487 22.1646 -6.0425 3.7835
# 2 15.6429 146.8736 76.1353 21.0876 11.4814 20.0834
# 3 62.5487 76.1353 141.4445 13.9040 4.1829 2.3717
# 4 22.1646 21.0876 13.9040 50.9375 2.2455 8.3156
# 5 -6.0425 11.4814 4.1829 2.2455 42.8817 13.6281
# 6 3.7835 20.0834 2.3717 8.3156 13.6281 45.1922
#
#
#
# Elastic Compliance Matrix: (Units=1/GPa)
#
#
# Indices 1 2 3 4 5 6 
#
# 1 0.017344 0.003931 -0.009216 -0.006390 0.003445 -0.002578
# 2 0.003931 0.011359 -0.007412 -0.003687 -0.000223 -0.004242
# 3 -0.009216 -0.007412 0.014887 0.002546 -0.001985 0.003414
# 4 -0.006390 -0.003687 0.002546 0.023617 -0.000736 -0.002084
# 5 0.003445 -0.000223 -0.001985 -0.000736 0.026634 -0.007981
# 6 -0.002578 -0.004242 0.003414 -0.002084 -0.007981 0.026840
#
#
# Mechanical properties :
#
#
# Convention : Reuss Voigt Hill
#
# Bulk Modulus (GPa) = 54.96172 77.13857 66.05014
# Shear Modulus (GPa) = 32.86426 43.22003 38.04215
#
# Velocity S-wave (km/s) = 3.47971 3.99047 3.74381
# Velocity P-wave (km/s) = 6.03278 7.04644 6.55922
#
# Compressibility (1/GPa) = 0.01819448
#
# Stress axis : x y z
#
# Youngs Moduli (GPa) = 57.65572 88.03364 67.17446
#
# Poissons Ratio (x) = -0.34605 0.61910
# Poissons Ratio (y) = -0.22664 0.49793
# Poissons Ratio (z) = 0.53137 0.65255
#
# Static dielectric constant tensor:
#      x y z
#    x 2.191400 0.055480 -0.074600 
#    y 0.055480 2.169460 -0.288450 
#    z -0.074600 -0.288450 2.793350 
# 
# From -- ./inp_files/39953.got.cif
#   From: 2010.05.17/outbox.cif.g08.bks.cpg/sg2_20_cif.got.tgz:39953.got - 2010.06.03 11:33:40.
