data_PCOD9042721
_publ_section_title
;
Structure prediction by ZEFSAII (Michael W. Deem and Ramdas Pophale) SiO2 
 PCOD9042721
Probable space group: P -1
;
_chemical_formula_sum "Si O2"
_cell_formula_units_Z 14
_cell_length_a 12.960629
_cell_length_b 8.147212
_cell_length_c 10.290965
_cell_angle_alpha 69.154598
_cell_angle_beta 145.438751
_cell_angle_gamma 116.646181
_cell_volume 550.778893
_symmetry_space_group_name_H-M "P -1"
_symmetry_group_IT_number 2
_symmetry_cell_setting 'triclinic'
loop_
_space_group_symop_operation_xyz
x,y,z
-x,-y,-z
loop_
_atom_site_type_symbol
_atom_site_label
_atom_site_fract_x
_atom_site_fract_y
_atom_site_fract_z
Si Si1 0.268782 0.897888 0.632979
Si Si2 0.712655 0.700929 0.897122
Si Si3 0.789774 0.064880 0.983389
Si Si4 0.874361 0.637936 0.342692
Si Si5 0.309405 0.771376 0.433475
Si Si6 0.597595 0.804089 0.102161
Si Si7 0.058226 0.533263 0.904847
O O1 0.302924 0.903947 0.511729
O O2 0.047421 0.829378 0.460514
O O3 0.366563 0.085116 0.757518
O O4 0.377348 0.758535 0.846204
O O5 0.504298 0.718281 0.656377
O O6 0.850302 0.911053 0.001561
O O7 0.742147 0.611235 0.087464
O O8 0.774487 0.563254 0.905699
O O9 0.701064 0.149856 0.744900
O O10 0.900119 0.248729 0.126229
O O11 0.681680 0.937900 0.026603
O O12 0.719670 0.661073 0.279350
O O13 0.000000 0.500000 0.500000
O O14 0.123717 0.599204 0.319754
O O15 0.000000 0.500000 0.000000
#
# Coordination Sequence:
#
# PCOD9042721 Si02
#       7
#     2   2   2   2   2   2   2
#     4  11  22  42  71  99 136 172 239 286 336 417
#     4  11  23  45  69  99 138 179 233 287 339 411
#     4  10  23  44  74  97 142 183 221 282 354 401
#     4  11  24  43  67  92 139 185 224 283 350 403
#     4  11  22  44  71 104 138 180 227 284 347 414
#     4  10  24  45  65 106 135 173 239 288 337 418
#     4  10  24  43  65 104 139 177 233 278 338 422
#
# _framework density 25.418548000000001
#
# number of rings (size 3 to 8) (size 9 to 14) (size 15 to 20)
#    0.000    1.429    4.286    0.857    2.000    5.143 
#    0.000    4.286    0.000    0.000    0.000    0.000 
#    0.000    0.000    0.000    0.000    0.000    0.000 
#
# Total GULP energy -77984.691468 kJ/mol
# GULP energy per Si atom -5570.335105 kJ/mol
# Density = 2.536069 g / cm^3
# Si number density = 25.418548 Si / 1000 Ang^3
#
#
#
# Elastic Constant Matrix: (Units=GPa)
#
#
# Indices 1 2 3 4 5 6 
#
# 1 70.1990 25.7471 13.0090 11.8793 -16.4166 -22.3973
# 2 25.7471 107.6014 11.7639 -14.8803 -10.7034 -4.3357
# 3 13.0090 11.7639 119.6668 -6.8528 -6.9638 10.3311
# 4 11.8793 -14.8803 -6.8528 33.1277 -3.7469 -3.1354
# 5 -16.4166 -10.7034 -6.9638 -3.7469 37.6930 9.5919
# 6 -22.3973 -4.3357 10.3311 -3.1354 9.5919 35.3133
#
#
#
# Elastic Compliance Matrix: (Units=1/GPa)
#
#
# Indices 1 2 3 4 5 6 
#
# 1 0.024007 -0.005862 -0.003590 -0.010281 0.003630 0.013658
# 2 -0.005862 0.011833 0.000224 0.007495 0.002167 -0.002254
# 3 -0.003590 0.000224 0.009464 0.003062 0.001891 -0.005260
# 4 -0.010281 0.007495 0.003062 0.037837 0.002982 -0.003947
# 5 0.003630 0.002167 0.001891 0.002982 0.030930 -0.006121
# 6 0.013658 -0.002254 -0.005260 -0.003947 -0.006121 0.039555
#
#
# Mechanical properties :
#
#
# Convention : Reuss Voigt Hill
#
# Bulk Modulus (GPa) = 37.24738 44.27858 40.76298
# Shear Modulus (GPa) = 27.61928 37.68994 32.65461
#
# Velocity S-wave (km/s) = 3.29991 3.85486 3.58813
# Velocity P-wave (km/s) = 5.40413 6.10498 5.76522
#
# Compressibility (1/GPa) = 0.02684753
#
# Stress axis : x y z
#
# Youngs Moduli (GPa) = 41.65424 84.50856 105.65971
#
# Poissons Ratio (x) = 0.49542 0.37933
# Poissons Ratio (y) = 0.24419 -0.02366
# Poissons Ratio (z) = 0.14955 -0.01893
#
# Static dielectric constant tensor:
#      x y z
#    x 1.955890 0.107330 -0.023590 
#    y 0.107330 2.043990 0.111210 
#    z -0.023590 0.111210 2.013390 
# 
# From -- ./inp_files/444524.got.cif
#   From: 2010.05.17/outbox.cif.g08.bks.cpg/sg2_223_cif.got.tgz:444524.got - 2010.06.03 11:33:40.
