data_PCOD9042185
_publ_section_title
;
Structure prediction by ZEFSAII (Michael W. Deem and Ramdas Pophale) SiO2 
 PCOD9042185
Probable space group: P -1
;
_chemical_formula_sum "Si O2"
_cell_formula_units_Z 16
_cell_length_a 6.688288
_cell_length_b 7.959618
_cell_length_c 15.556791
_cell_angle_alpha 81.474606
_cell_angle_beta 114.203282
_cell_angle_gamma 96.329366
_cell_volume 745.913543
_symmetry_space_group_name_H-M "P -1"
_symmetry_group_IT_number 2
_symmetry_cell_setting 'triclinic'
loop_
_space_group_symop_operation_xyz
x,y,z
-x,-y,-z
loop_
_atom_site_type_symbol
_atom_site_label
_atom_site_fract_x
_atom_site_fract_y
_atom_site_fract_z
Si Si1 0.028228 0.570615 0.595023
Si Si2 0.190424 0.086639 0.470682
Si Si3 0.490100 0.347522 0.077500
Si Si4 0.969899 0.781965 0.067221
Si Si5 0.366106 0.961231 0.341356
Si Si6 0.739510 0.095404 0.043408
Si Si7 0.517596 0.664305 0.725182
Si Si8 0.835418 0.388357 0.734754
O O1 0.275791 0.646409 0.643719
O O2 0.000000 0.500000 0.500000
O O3 0.861363 0.718809 0.566490
O O4 0.972411 0.433336 0.669778
O O5 0.411688 0.071779 0.564947
O O6 0.199957 0.996573 0.386941
O O7 0.000000 0.000000 0.500000
O O8 0.691881 0.230365 0.098324
O O9 0.499900 0.394018 0.174775
O O10 0.500000 0.500000 0.000000
O O11 0.249182 0.256392 0.024497
O O12 0.012928 0.635854 0.153509
O O13 0.915635 0.952619 0.097509
O O14 0.173787 0.813826 0.035971
O O15 0.295423 0.793720 0.288198
O O16 0.399044 0.137598 0.281401
O O17 0.500000 0.000000 0.000000
O O18 0.674541 0.538079 0.714456
#
# Coordination Sequence:
#
# PCOD9042185 Si02
#       8
#     2   2   2   2   2   2   2   2
#     4  12  26  46  72 103 141 183 228 287 351 415
#     4  11  22  46  70  97 137 178 229 284 348 411
#     4  11  24  44  69 101 139 181 226 287 344 405
#     4  10  23  44  69  99 138 184 226 278 348 402
#     4  11  26  43  72 102 136 182 231 287 344 407
#     4   9  21  41  67  95 133 178 229 277 331 404
#     4  12  27  46  70 105 140 180 237 285 342 415
#     4  12  27  45  69 105 142 181 234 285 342 413
#
# _framework density 21.450206000000001
#
# number of rings (size 3 to 8) (size 9 to 14) (size 15 to 20)
#    0.000    1.000    2.500    3.000    7.000    6.000 
#    2.250    0.000    0.000    0.000    0.000    0.000 
#    0.000    0.000    0.000    0.000    0.000    0.000 
#
# Total GULP energy -89458.379771 kJ/mol
# GULP energy per Si atom -5591.148736 kJ/mol
# Density = 2.140138 g / cm^3
# Si number density = 21.450206 Si / 1000 Ang^3
#
#
#
# Elastic Constant Matrix: (Units=GPa)
#
#
# Indices 1 2 3 4 5 6 
#
# 1 107.7335 24.9575 31.3639 0.6401 -24.4059 -2.9036
# 2 24.9575 86.4467 13.0589 -3.3357 2.6471 -2.0379
# 3 31.3639 13.0589 80.5384 -7.4609 -10.3412 -1.0928
# 4 0.6401 -3.3357 -7.4609 34.6338 2.1792 -5.7823
# 5 -24.4059 2.6471 -10.3412 2.1792 28.9246 -5.7366
# 6 -2.9036 -2.0379 -1.0928 -5.7823 -5.7366 38.0524
#
#
#
# Elastic Compliance Matrix: (Units=1/GPa)
#
#
# Indices 1 2 3 4 5 6 
#
# 1 0.013805 -0.003829 -0.003428 -0.001709 0.011338 0.002200
# 2 -0.003829 0.013046 -0.001138 0.001367 -0.004968 -0.000167
# 3 -0.003428 -0.001138 0.014537 0.003091 0.002359 0.000920
# 4 -0.001709 0.001367 0.003091 0.030555 -0.001893 0.004389
# 5 0.011338 -0.004968 0.002359 -0.001893 0.047063 0.007474
# 6 0.002200 -0.000167 0.000920 0.004389 0.007474 0.028259
#
#
# Mechanical properties :
#
#
# Convention : Reuss Voigt Hill
#
# Bulk Modulus (GPa) = 40.65124 45.94215 43.29670
# Shear Modulus (GPa) = 29.02697 34.01136 31.51917
#
# Velocity S-wave (km/s) = 3.68261 3.98627 3.83745
# Velocity P-wave (km/s) = 6.08891 6.53083 6.31373
#
# Compressibility (1/GPa) = 0.02459949
#
# Stress axis : x y z
#
# Youngs Moduli (GPa) = 72.43673 76.65151 68.78764
#
# Poissons Ratio (x) = 0.29350 0.23579
# Poissons Ratio (y) = 0.27736 0.07826
# Poissons Ratio (z) = 0.24830 0.08721
#
# Static dielectric constant tensor:
#      x y z
#    x 1.793610 0.027850 -0.019240 
#    y 0.027850 1.843370 -0.022500 
#    z -0.019240 -0.022500 1.771760 
# 
# From -- ./inp_files/480453.got.cif
#   From: 2010.05.17/outbox.cif.g08.bks.cpg/sg2_241_cif.got.tgz:480453.got - 2010.06.03 11:33:40.
