data_PCOD9042349
_publ_section_title
;
Structure prediction by ZEFSAII (Michael W. Deem and Ramdas Pophale) SiO2 
 PCOD9042349
Probable space group: P -1
;
_chemical_formula_sum "Si O2"
_cell_formula_units_Z 16
_cell_length_a 20.317141
_cell_length_b 17.465031
_cell_length_c 8.923507
_cell_angle_alpha 142.245195
_cell_angle_beta 136.105324
_cell_angle_gamma 18.781691
_cell_volume 617.910155
_symmetry_space_group_name_H-M "P -1"
_symmetry_group_IT_number 2
_symmetry_cell_setting 'triclinic'
loop_
_space_group_symop_operation_xyz
x,y,z
-x,-y,-z
loop_
_atom_site_type_symbol
_atom_site_label
_atom_site_fract_x
_atom_site_fract_y
_atom_site_fract_z
Si Si1 0.865068 0.286296 0.192280
Si Si2 0.784990 0.010002 0.539903
Si Si3 0.710653 0.822746 0.029125
Si Si4 0.828679 0.604935 0.322598
Si Si5 0.238346 0.715668 0.494982
Si Si6 0.544513 0.511556 0.819088
Si Si7 0.091148 0.636573 0.207115
Si Si8 0.385078 0.205005 0.429584
O O1 0.711049 0.563857 0.458888
O O2 0.066749 0.142543 0.310527
O O3 0.683298 0.450365 0.038562
O O4 0.000000 0.000000 0.000000
O O5 0.909148 0.904069 0.426378
O O6 0.599957 0.322684 0.713899
O O7 0.722933 0.942292 0.305007
O O8 0.876709 0.534126 0.922188
O O9 0.701117 0.820151 0.830221
O O10 0.500000 0.000000 0.000000
O O11 0.720320 0.666155 0.381364
O O12 0.000000 0.500000 0.500000
O O13 0.631132 0.906147 0.387940
O O14 0.921813 0.395323 0.035073
O O15 0.305648 0.754546 0.768654
O O16 0.370265 0.566915 0.330363
O O17 0.257974 0.553705 0.347061
O O18 0.000000 0.000000 0.500000
#
# Coordination Sequence:
#
# PCOD9042349 Si02
#       8
#     2   2   2   2   2   2   2   2
#     4  10  23  44  70  99 136 186 234 294 356 421
#     4  11  23  42  73 101 143 185 233 300 361 422
#     4  12  24  42  70 107 140 181 236 292 358 432
#     4  11  26  43  65 103 140 184 230 287 359 423
#     4  11  23  43  69  99 137 187 242 295 347 426
#     4  10  23  45  69  99 139 187 239 294 356 418
#     4  12  23  42  70 103 139 180 242 292 353 432
#     4  11  24  45  70  99 143 182 233 290 357 423
#
# _framework density 25.893732
#
# number of rings (size 3 to 8) (size 9 to 14) (size 15 to 20)
#    0.000    1.000    3.750    2.625    1.750    1.000 
#    2.250    1.875    0.000    0.000    0.000    0.000 
#    0.000    0.000    0.000    0.000    0.000    0.000 
#
# Total GULP energy -89075.999110 kJ/mol
# GULP energy per Si atom -5567.249944 kJ/mol
# Density = 2.583480 g / cm^3
# Si number density = 25.893732 Si / 1000 Ang^3
#
#
#
# Elastic Constant Matrix: (Units=GPa)
#
#
# Indices 1 2 3 4 5 6 
#
# 1 84.9712 16.4193 39.4847 -15.4819 18.8585 6.2507
# 2 16.4193 134.8760 41.8325 -28.5517 22.2481 -2.9127
# 3 39.4847 41.8325 162.8659 -49.4371 28.9134 -8.5952
# 4 -15.4819 -28.5517 -49.4371 53.7232 -7.6267 14.1697
# 5 18.8585 22.2481 28.9134 -7.6267 55.0753 1.0135
# 6 6.2507 -2.9127 -8.5952 14.1697 1.0135 29.4982
#
#
#
# Elastic Compliance Matrix: (Units=1/GPa)
#
#
# Indices 1 2 3 4 5 6 
#
# 1 0.014462 -0.000002 -0.002314 0.002901 -0.003242 -0.005021
# 2 -0.000002 0.008888 -0.000635 0.004068 -0.002671 -0.001169
# 3 -0.002314 -0.000635 0.009667 0.007542 -0.002977 -0.000276
# 4 0.002901 0.004068 0.007542 0.031756 -0.001955 -0.013203
# 5 -0.003242 -0.002671 -0.002977 -0.001955 0.021643 -0.000249
# 6 -0.005021 -0.001169 -0.000276 -0.013203 -0.000249 0.041119
#
#
# Mechanical properties :
#
#
# Convention : Reuss Voigt Hill
#
# Bulk Modulus (GPa) = 36.88186 64.24291 50.56239
# Shear Modulus (GPa) = 35.09326 46.65777 40.87552
#
# Velocity S-wave (km/s) = 3.68541 4.24948 3.97745
# Velocity P-wave (km/s) = 5.69070 6.99582 6.37674
#
# Compressibility (1/GPa) = 0.02711360
#
# Stress axis : x y z
#
# Youngs Moduli (GPa) = 69.14654 112.51195 103.44019
#
# Poissons Ratio (x) = 0.00026 0.23941
# Poissons Ratio (y) = 0.00016 0.06569
# Poissons Ratio (z) = 0.16004 0.07145
#
# Static dielectric constant tensor:
#      x y z
#    x 2.224970 0.115430 -0.030420 
#    y 0.115430 2.221900 -0.003890 
#    z -0.030420 -0.003890 2.137070 
# 
# From -- ./inp_files/348953.got.cif
#   From: 2010.05.17/outbox.cif.g08.bks.cpg/sg2_175_cif.got.tgz:348953.got - 2010.06.03 11:33:40.
