data_PCOD9042949
_publ_section_title
;
Structure prediction by ZEFSAII (Michael W. Deem and Ramdas Pophale) SiO2 
 PCOD9042949
Probable space group: P -1
;
_chemical_formula_sum "Si O2"
_cell_formula_units_Z 14
_cell_length_a 9.141606
_cell_length_b 13.767933
_cell_length_c 11.347386
_cell_angle_alpha 127.874864
_cell_angle_beta 138.436499
_cell_angle_gamma 39.384079
_cell_volume 599.068111
_symmetry_space_group_name_H-M "P -1"
_symmetry_group_IT_number 2
_symmetry_cell_setting 'triclinic'
loop_
_space_group_symop_operation_xyz
x,y,z
-x,-y,-z
loop_
_atom_site_type_symbol
_atom_site_label
_atom_site_fract_x
_atom_site_fract_y
_atom_site_fract_z
Si Si1 0.789428 0.249195 0.333362
Si Si2 0.449222 0.873218 0.348174
Si Si3 0.768878 0.024544 0.465213
Si Si4 0.875923 0.415407 0.070938
Si Si5 0.043414 0.555496 0.445848
Si Si6 0.409499 0.154273 0.125148
Si Si7 0.698612 0.260076 0.028909
O O1 0.052346 0.146926 0.501174
O O2 0.570135 0.221402 0.223685
O O3 0.729316 0.414699 0.410341
O O4 0.860666 0.193129 0.198750
O O5 0.315303 0.872472 0.390808
O O6 0.746142 0.717388 0.387292
O O7 0.300233 0.866071 0.138769
O O8 0.500000 0.000000 0.500000
O O9 0.503400 0.098794 0.276978
O O10 0.000000 0.000000 0.500000
O O11 0.068040 0.449044 0.279063
O O12 0.604752 0.584278 0.000363
O O13 0.084217 0.284805 0.007685
O O14 0.798802 0.334120 0.056658
O O15 0.000000 0.500000 0.500000
O O16 0.500000 0.000000 0.000000
#
# Coordination Sequence:
#
# PCOD9042949 Si02
#       7
#     2   2   2   2   2   2   2
#     4  11  24  44  67 105 139 183 236 284 348 422
#     4  11  23  40  70 100 133 187 231 290 341 411
#     4  10  24  44  61 101 139 181 225 280 352 406
#     4  10  23  45  67 102 137 187 230 286 349 416
#     4  11  21  41  68  99 139 177 238 284 348 409
#     4  11  27  45  71 100 144 187 232 289 355 418
#     4  10  24  43  71 102 139 180 238 288 346 407
#
# _framework density 23.369630000000001
#
# number of rings (size 3 to 8) (size 9 to 14) (size 15 to 20)
#    0.000    1.429    2.857    0.857    6.000    1.714 
#    0.000    0.000    0.000    0.000    0.000    0.000 
#    0.000    0.000    0.000    0.000    0.000    0.000 
#
# Total GULP energy -78004.476733 kJ/mol
# GULP energy per Si atom -5571.748338 kJ/mol
# Density = 2.331644 g / cm^3
# Si number density = 23.369630 Si / 1000 Ang^3
#
#
#
# Elastic Constant Matrix: (Units=GPa)
#
#
# Indices 1 2 3 4 5 6 
#
# 1 85.2815 24.4245 0.9001 1.8869 14.6362 7.5269
# 2 24.4245 90.2254 23.9221 12.7419 6.3565 -9.7260
# 3 0.9001 23.9221 100.3198 12.3698 2.2894 18.2155
# 4 1.8869 12.7419 12.3698 33.3300 5.7593 -8.0986
# 5 14.6362 6.3565 2.2894 5.7593 35.8152 0.8520
# 6 7.5269 -9.7260 18.2155 -8.0986 0.8520 46.0728
#
#
#
# Elastic Compliance Matrix: (Units=1/GPa)
#
#
# Indices 1 2 3 4 5 6 
#
# 1 0.014153 -0.004356 0.001688 0.000196 -0.005060 -0.003771
# 2 -0.004356 0.014186 -0.003901 -0.002527 -0.000196 0.004808
# 3 0.001688 -0.003901 0.012788 -0.005094 0.000172 -0.007054
# 4 0.000196 -0.002527 -0.005094 0.035649 -0.005224 0.007812
# 5 -0.005060 -0.000196 0.000172 -0.005224 0.030871 -0.000772
# 6 -0.003771 0.004808 -0.007054 0.007812 -0.000772 0.027512
#
#
# Mechanical properties :
#
#
# Convention : Reuss Voigt Hill
#
# Bulk Modulus (GPa) = 35.72922 41.59112 38.66017
# Shear Modulus (GPa) = 31.72053 38.14894 34.93474
#
# Velocity S-wave (km/s) = 3.68821 4.04470 3.87056
# Velocity P-wave (km/s) = 5.78438 6.29671 6.04597
#
# Compressibility (1/GPa) = 0.02798830
#
# Stress axis : x y z
#
# Youngs Moduli (GPa) = 70.65818 70.49316 78.19791
#
# Poissons Ratio (x) = 0.30710 -0.13199
# Poissons Ratio (y) = 0.30781 0.30502
# Poissons Ratio (z) = -0.11926 0.27496
#
# Static dielectric constant tensor:
#      x y z
#    x 2.020670 0.062270 0.063060 
#    y 0.062270 1.983910 -0.000790 
#    z 0.063060 -0.000790 1.913400 
# 
# From -- ./inp_files/399660.got.cif
#   From: 2010.05.17/outbox.cif.g08.bks.cpg/sg2_200_cif.got.tgz:399660.got - 2010.06.03 11:33:40.
