data_PCOD9042291
_publ_section_title
;
Structure prediction by ZEFSAII (Michael W. Deem and Ramdas Pophale) SiO2 
 PCOD9042291
Probable space group: P -1
;
_chemical_formula_sum "Si O2"
_cell_formula_units_Z 14
_cell_length_a 5.369545
_cell_length_b 10.621632
_cell_length_c 13.245399
_cell_angle_alpha 75.051897
_cell_angle_beta 83.124739
_cell_angle_gamma 53.074103
_cell_volume 582.855709
_symmetry_space_group_name_H-M "P -1"
_symmetry_group_IT_number 2
_symmetry_cell_setting 'triclinic'
loop_
_space_group_symop_operation_xyz
x,y,z
-x,-y,-z
loop_
_atom_site_type_symbol
_atom_site_label
_atom_site_fract_x
_atom_site_fract_y
_atom_site_fract_z
Si Si1 0.292923 0.672902 0.031221
Si Si2 0.368023 0.373365 0.480394
Si Si3 0.390058 0.150115 0.361808
Si Si4 0.270087 0.583447 0.687202
Si Si5 0.754003 0.192642 0.200718
Si Si6 0.262112 0.312092 0.837379
Si Si7 0.393307 0.891981 0.323321
O O1 0.494406 0.700476 0.091825
O O2 0.016791 0.679348 0.098152
O O3 0.500000 0.500000 0.000000
O O4 0.175238 0.802513 0.919522
O O5 0.480112 0.231198 0.420656
O O6 0.461651 0.475435 0.394951
O O7 0.551349 0.260455 0.591110
O O8 0.000000 0.500000 0.500000
O O9 0.458962 0.192139 0.239467
O O10 0.026210 0.254288 0.380043
O O11 0.513765 0.966945 0.379162
O O12 0.324067 0.645946 0.774738
O O13 0.169828 0.469079 0.744694
O O14 0.041413 0.035368 0.277712
O O15 0.418419 0.169773 0.777191
#
# Coordination Sequence:
#
# PCOD9042291 Si02
#       7
#     2   2   2   2   2   2   2
#     4  12  26  47  78 109 143 195 246 304 364 428
#     4  11  25  44  74 105 141 190 244 300 361 432
#     4  10  23  44  71 100 148 189 238 294 368 431
#     4  10  23  44  70 107 138 187 244 298 358 434
#     4  10  24  44  72  99 146 186 239 297 365 429
#     4  12  28  44  76 110 148 187 252 299 365 429
#     4  11  27  44  67 105 148 189 239 299 365 438
#
# _framework density 24.019667999999999
#
# number of rings (size 3 to 8) (size 9 to 14) (size 15 to 20)
#    0.000    1.143    1.429    2.571   10.000    9.714 
#    0.000    0.000    0.000    0.000    0.000    0.000 
#    0.000    0.000    0.000    0.000    0.000    0.000 
#
# Total GULP energy -78157.662258 kJ/mol
# GULP energy per Si atom -5582.690161 kJ/mol
# Density = 2.396500 g / cm^3
# Si number density = 24.019668 Si / 1000 Ang^3
#
#
#
# Elastic Constant Matrix: (Units=GPa)
#
#
# Indices 1 2 3 4 5 6 
#
# 1 115.0894 47.1117 61.1615 11.9395 -29.6612 0.9769
# 2 47.1117 117.3827 56.5374 12.1586 -6.5208 12.1156
# 3 61.1615 56.5374 159.9346 8.4033 -20.1792 -11.3023
# 4 11.9395 12.1586 8.4033 43.5958 -6.4266 1.8974
# 5 -29.6612 -6.5208 -20.1792 -6.4266 48.1881 10.5323
# 6 0.9769 12.1156 -11.3023 1.8974 10.5323 44.2930
#
#
#
# Elastic Compliance Matrix: (Units=1/GPa)
#
#
# Indices 1 2 3 4 5 6 
#
# 1 0.013646 -0.003204 -0.003294 -0.001120 0.006840 -0.001844
# 2 -0.003204 0.011891 -0.003291 -0.001820 -0.001183 -0.003662
# 3 -0.003294 -0.003291 0.008970 0.000045 0.000609 0.003115
# 4 -0.001120 -0.001820 0.000045 0.024167 0.002548 -0.001107
# 5 0.006840 -0.001183 0.000609 0.002548 0.026739 -0.006139
# 6 -0.001844 -0.003662 0.003115 -0.001107 -0.006139 0.025921
#
#
# Mechanical properties :
#
#
# Convention : Reuss Voigt Hill
#
# Bulk Modulus (GPa) = 66.98329 80.22533 73.60431
# Shear Modulus (GPa) = 36.79514 42.38846 39.59180
#
# Velocity S-wave (km/s) = 3.91816 4.20544 4.06434
# Velocity P-wave (km/s) = 6.95821 7.55336 7.26189
#
# Compressibility (1/GPa) = 0.01492910
#
# Stress axis : x y z
#
# Youngs Moduli (GPa) = 73.28360 84.09941 111.48102
#
# Poissons Ratio (x) = 0.26943 0.36724
# Poissons Ratio (y) = 0.23478 0.36685
# Poissons Ratio (z) = 0.24141 0.27675
#
# Static dielectric constant tensor:
#      x y z
#    x 1.997840 0.024180 0.037270 
#    y 0.024180 1.949540 -0.022010 
#    z 0.037270 -0.022010 1.940520 
# 
# From -- ./inp_files/90275.got.cif
#   From: 2010.05.17/outbox.cif.g08.bks.cpg/sg2_46_cif.got.tgz:90275.got - 2010.06.03 11:33:40.
