data_PCOD9042304
_publ_section_title
;
Structure prediction by ZEFSAII (Michael W. Deem and Ramdas Pophale) SiO2 
 PCOD9042304
Probable space group: P -1
;
_chemical_formula_sum "Si O2"
_cell_formula_units_Z 12
_cell_length_a 9.255678
_cell_length_b 7.234197
_cell_length_c 9.740723
_cell_angle_alpha 112.066896
_cell_angle_beta 120.368256
_cell_angle_gamma 90.150139
_cell_volume 506.156694
_symmetry_space_group_name_H-M "P -1"
_symmetry_group_IT_number 2
_symmetry_cell_setting 'triclinic'
loop_
_space_group_symop_operation_xyz
x,y,z
-x,-y,-z
loop_
_atom_site_type_symbol
_atom_site_label
_atom_site_fract_x
_atom_site_fract_y
_atom_site_fract_z
Si Si1 0.883232 0.239130 0.973846
Si Si2 0.918640 0.715359 0.179764
Si Si3 0.446427 0.803412 0.511605
Si Si4 0.154422 0.718011 0.543627
Si Si5 0.234440 0.381289 0.324992
Si Si6 0.299686 0.977064 0.928046
O O1 0.864933 0.472665 0.052689
O O2 0.740312 0.086205 0.950726
O O3 0.068084 0.248109 0.135932
O O4 0.078993 0.806062 0.178141
O O5 0.995114 0.743571 0.379223
O O6 0.768838 0.826873 0.100238
O O7 0.329808 0.850219 0.593109
O O8 0.322344 0.587427 0.337222
O O9 0.617550 0.732675 0.611742
O O10 0.500000 0.000000 0.500000
O O11 0.176826 0.487179 0.463337
O O12 0.177110 0.792557 0.729662
O O13 0.500000 0.000000 0.000000
#
# Coordination Sequence:
#
# PCOD9042304 Si02
#       6
#     2   2   2   2   2   2
#     4  10  23  44  70  89 126 173 217 260 313 375
#     4  10  23  45  68  93 123 169 224 255 311 388
#     4   9  18  34  60  96 127 162 209 260 310 373
#     4   9  21  42  60  95 125 163 209 258 316 375
#     4   8  19  36  60  95 121 160 215 257 303 384
#     4  12  27  42  63  97 135 167 207 267 328 371
#
# _framework density 23.708072000000001
#
# number of rings (size 3 to 8) (size 9 to 14) (size 15 to 20)
#    1.000    1.333    0.000    1.000    4.667    4.667 
#    3.000    0.000    0.000    0.000    0.000    0.000 
#    0.000    0.000    0.000    0.000    0.000    0.000 
#
# Total GULP energy -67015.930170 kJ/mol
# GULP energy per Si atom -5584.660847 kJ/mol
# Density = 2.365411 g / cm^3
# Si number density = 23.708072 Si / 1000 Ang^3
#
#
#
# Elastic Constant Matrix: (Units=GPa)
#
#
# Indices 1 2 3 4 5 6 
#
# 1 103.0372 60.3740 33.2099 -17.4116 29.9879 1.1570
# 2 60.3740 114.0242 25.5523 -19.4498 19.6629 -2.8815
# 3 33.2099 25.5523 99.3827 -1.0769 2.3977 -8.1192
# 4 -17.4116 -19.4498 -1.0769 36.8081 -12.2936 7.4517
# 5 29.9879 19.6629 2.3977 -12.2936 46.3889 -5.0042
# 6 1.1570 -2.8815 -8.1192 7.4517 -5.0042 43.5391
#
#
#
# Elastic Compliance Matrix: (Units=1/GPa)
#
#
# Indices 1 2 3 4 5 6 
#
# 1 0.017873 -0.006727 -0.004272 0.002698 -0.008102 -0.003110
# 2 -0.006727 0.013246 -0.001097 0.003674 -0.000214 0.000198
# 3 -0.004272 -0.001097 0.011928 -0.002041 0.002381 0.002888
# 4 0.002698 0.003674 -0.002041 0.033066 0.004996 -0.005294
# 5 -0.008102 -0.000214 0.002381 0.004996 0.028416 0.003056
# 6 -0.003110 0.000198 0.002888 -0.005294 0.003056 0.024860
#
#
# Mechanical properties :
#
#
# Convention : Reuss Voigt Hill
#
# Bulk Modulus (GPa) = 53.03568 61.63517 57.33543
# Shear Modulus (GPa) = 31.27624 38.50109 34.88867
#
# Velocity S-wave (km/s) = 3.63605 4.03422 3.84030
# Velocity P-wave (km/s) = 6.32825 6.91042 6.62573
#
# Compressibility (1/GPa) = 0.01885523
#
# Stress axis : x y z
#
# Youngs Moduli (GPa) = 55.95103 75.49241 83.83586
#
# Poissons Ratio (x) = 0.50785 0.35816
# Poissons Ratio (y) = 0.37639 0.09194
# Poissons Ratio (z) = 0.23903 0.08279
#
# Static dielectric constant tensor:
#      x y z
#    x 1.924690 0.009470 -0.069290 
#    y 0.009470 1.942310 -0.003390 
#    z -0.069290 -0.003390 1.998900 
# 
# From -- ./inp_files/408558.got.cif
#   From: 2010.05.17/outbox.cif.g08.bks.cpg/sg2_205_cif.got.tgz:408558.got - 2010.06.03 11:33:40.
