data_PCOD9042556
_publ_section_title
;
Structure prediction by ZEFSAII (Michael W. Deem and Ramdas Pophale) SiO2 
 PCOD9042556
Probable space group: P -1
;
_chemical_formula_sum "Si O2"
_cell_formula_units_Z 16
_cell_length_a 9.466953
_cell_length_b 8.926469
_cell_length_c 22.971094
_cell_angle_alpha 118.897187
_cell_angle_beta 154.177675
_cell_angle_gamma 62.306722
_cell_volume 738.016482
_symmetry_space_group_name_H-M "P -1"
_symmetry_group_IT_number 2
_symmetry_cell_setting 'triclinic'
loop_
_space_group_symop_operation_xyz
x,y,z
-x,-y,-z
loop_
_atom_site_type_symbol
_atom_site_label
_atom_site_fract_x
_atom_site_fract_y
_atom_site_fract_z
Si Si1 0.433164 0.621418 0.171977
Si Si2 0.448238 0.301971 0.961663
Si Si3 0.085824 0.664609 0.761780
Si Si4 0.271883 0.697987 0.256530
Si Si5 0.616271 0.602907 0.677479
Si Si6 0.958231 0.171990 0.553374
Si Si7 0.080437 0.805089 0.974284
Si Si8 0.550165 0.940811 0.572657
O O1 0.660388 0.454991 0.204294
O O2 0.298390 0.621390 0.187278
O O3 0.154770 0.679971 0.033320
O O4 0.692838 0.763963 0.294271
O O5 0.578875 0.198537 0.935013
O O6 0.089686 0.289516 0.848926
O O7 0.500000 0.500000 0.000000
O O8 0.687562 0.243484 0.091849
O O9 0.848507 0.567808 0.699943
O O10 0.852480 0.800111 0.665781
O O11 0.454710 0.565629 0.344612
O O12 0.391909 0.887903 0.337154
O O13 0.282800 0.695777 0.547852
O O14 0.816709 0.724088 0.818109
O O15 0.766007 0.139164 0.534735
O O16 0.000000 0.000000 0.500000
O O17 0.000000 0.000000 0.000000
O O18 0.500000 0.000000 0.500000
#
# Coordination Sequence:
#
# PCOD9042556 Si02
#       8
#     2   2   2   2   2   2   2   2
#     4  12  25  41  71 101 135 177 231 280 338 402
#     4  11  21  46  70  96 136 178 221 271 345 411
#     4  10  23  46  69  98 132 183 220 279 345 406
#     4  12  25  44  68 102 138 174 224 288 333 400
#     4  10  23  44  72  93 138 182 225 270 346 414
#     4  11  24  46  67  95 138 181 223 280 342 399
#     4  11  23  43  72 102 132 179 228 272 340 410
#     4  11  28  44  67  99 138 173 236 282 335 403
#
# _framework density 21.679732999999999
#
# number of rings (size 3 to 8) (size 9 to 14) (size 15 to 20)
#    0.000    1.000    5.000    0.750    8.750    5.000 
#    2.250    0.000    0.000    0.000    0.000    0.000 
#    0.000    0.000    0.000    0.000    0.000    0.000 
#
# Total GULP energy -89459.218067 kJ/mol
# GULP energy per Si atom -5591.201129 kJ/mol
# Density = 2.163039 g / cm^3
# Si number density = 21.679733 Si / 1000 Ang^3
#
#
#
# Elastic Constant Matrix: (Units=GPa)
#
#
# Indices 1 2 3 4 5 6 
#
# 1 125.9664 58.1146 24.0714 -13.2447 -18.8576 -8.7461
# 2 58.1146 104.6995 9.8392 -5.0297 -8.3209 -14.4348
# 3 24.0714 9.8392 61.7172 0.5846 -4.0699 12.0347
# 4 -13.2447 -5.0297 0.5846 28.7693 10.9445 -2.7053
# 5 -18.8576 -8.3209 -4.0699 10.9445 35.8656 0.8298
# 6 -8.7461 -14.4348 12.0347 -2.7053 0.8298 40.2313
#
#
#
# Elastic Compliance Matrix: (Units=1/GPa)
#
#
# Indices 1 2 3 4 5 6 
#
# 1 0.012458 -0.005786 -0.004132 0.003637 0.003582 0.002039
# 2 -0.005786 0.013324 -0.000600 0.000075 -0.000128 0.003710
# 3 -0.004132 -0.000600 0.019418 -0.003506 0.001128 -0.007181
# 4 0.003637 0.000075 -0.003506 0.041221 -0.011160 0.004869
# 5 0.003582 -0.000128 0.001128 -0.011160 0.033293 -0.001042
# 6 0.002039 0.003710 -0.007181 0.004869 -0.001042 0.029128
#
#
# Mechanical properties :
#
#
# Convention : Reuss Voigt Hill
#
# Bulk Modulus (GPa) = 41.38492 52.93702 47.16097
# Shear Modulus (GPa) = 28.10037 34.33043 31.21540
#
# Velocity S-wave (km/s) = 3.60413 3.98367 3.79864
# Velocity P-wave (km/s) = 6.03741 6.75502 6.40627
#
# Compressibility (1/GPa) = 0.02416339
#
# Stress axis : x y z
#
# Youngs Moduli (GPa) = 80.27056 75.05208 51.49786
#
# Poissons Ratio (x) = 0.43425 0.21281
# Poissons Ratio (y) = 0.46445 0.03090
# Poissons Ratio (z) = 0.33171 0.04504
#
# Static dielectric constant tensor:
#      x y z
#    x 1.817520 0.021710 -0.035290 
#    y 0.021710 1.839860 -0.003420 
#    z -0.035290 -0.003420 1.825970 
# 
# From -- ./inp_files/588087.got.cif
#   From: 2010.05.17/outbox.cif.g08.bks.cpg/sg2_295_cif.got.tgz:588087.got - 2010.06.03 11:33:40.
