data_PCOD9042257
_publ_section_title
;
Structure prediction by ZEFSAII (Michael W. Deem and Ramdas Pophale) SiO2 
 PCOD9042257
Probable space group: P -1
;
_chemical_formula_sum "Si O2"
_cell_formula_units_Z 12
_cell_length_a 11.459322
_cell_length_b 18.634168
_cell_length_c 4.994188
_cell_angle_alpha 97.641299
_cell_angle_beta 77.929275
_cell_angle_gamma 33.610910
_cell_volume 475.359149
_symmetry_space_group_name_H-M "P -1"
_symmetry_group_IT_number 2
_symmetry_cell_setting 'triclinic'
loop_
_space_group_symop_operation_xyz
x,y,z
-x,-y,-z
loop_
_atom_site_type_symbol
_atom_site_label
_atom_site_fract_x
_atom_site_fract_y
_atom_site_fract_z
Si Si1 0.232646 0.328207 0.431037
Si Si2 0.031284 0.282869 0.522068
Si Si3 0.003401 0.916234 0.220323
Si Si4 0.407901 0.748563 0.552438
Si Si5 0.247116 0.020882 0.145159
Si Si6 0.313657 0.540925 0.740151
O O1 0.371421 0.310197 0.550660
O O2 0.000000 0.500000 0.500000
O O3 0.132352 0.306142 0.586833
O O4 0.473983 0.168520 0.053813
O O5 0.869897 0.384672 0.379457
O O6 0.240852 0.109416 0.253111
O O7 0.854540 0.344098 0.870195
O O8 0.955791 0.903239 0.512955
O O9 0.828800 0.082599 0.385101
O O10 0.868796 0.937244 0.068518
O O11 0.285519 0.786638 0.913021
O O12 0.525190 0.613909 0.305512
O O13 0.500000 0.500000 0.500000
#
# Coordination Sequence:
#
# PCOD9042257 Si02
#       6
#     2   2   2   2   2   2
#     4  11  25  46  71 103 144 188 227 282 347 418
#     4  12  26  45  70 103 141 183 230 281 349 414
#     4  10  24  43  75 101 134 184 230 297 340 396
#     4  10  23  44  70 103 140 179 238 282 346 409
#     4  11  24  47  72 102 140 177 240 280 348 404
#     4  12  26  44  73 100 141 180 234 289 345 406
#
# _framework density 25.244071000000002
#
# number of rings (size 3 to 8) (size 9 to 14) (size 15 to 20)
#    0.000    1.000    1.667    4.000    2.333   10.667 
#    0.000    5.833    0.000    0.000    0.000    0.000 
#    0.000    0.000    0.000    0.000    0.000    0.000 
#
# Total GULP energy -67204.212767 kJ/mol
# GULP energy per Si atom -5600.351064 kJ/mol
# Density = 2.518661 g / cm^3
# Si number density = 25.244071 Si / 1000 Ang^3
#
#
#
# Elastic Constant Matrix: (Units=GPa)
#
#
# Indices 1 2 3 4 5 6 
#
# 1 124.3679 57.7414 44.2199 23.7443 -5.3059 36.7091
# 2 57.7414 102.0301 38.5886 21.7381 11.7021 15.6158
# 3 44.2199 38.5886 94.4313 8.4917 9.5065 3.0392
# 4 23.7443 21.7381 8.4917 36.1358 9.4235 13.9954
# 5 -5.3059 11.7021 9.5065 9.4235 30.4283 3.6789
# 6 36.7091 15.6158 3.0392 13.9954 3.6789 51.9012
#
#
#
# Elastic Compliance Matrix: (Units=1/GPa)
#
#
# Indices 1 2 3 4 5 6 
#
# 1 0.017003 -0.006084 -0.005702 -0.005180 0.009798 -0.009159
# 2 -0.006084 0.015463 -0.002648 -0.003803 -0.005147 0.001196
# 3 -0.005702 -0.002648 0.014612 0.001865 -0.005586 0.003867
# 4 -0.005180 -0.003803 0.001865 0.037630 -0.011114 -0.004660
# 5 0.009798 -0.005147 -0.005586 -0.011114 0.042351 -0.005059
# 6 -0.009159 0.001196 0.003867 -0.004660 -0.005059 0.026775
#
#
# Mechanical properties :
#
#
# Convention : Reuss Voigt Hill
#
# Bulk Modulus (GPa) = 54.91388 66.88102 60.89745
# Shear Modulus (GPa) = 26.48686 35.71168 31.09927
#
# Velocity S-wave (km/s) = 3.24270 3.76527 3.51371
# Velocity P-wave (km/s) = 5.98502 6.74198 6.37475
#
# Compressibility (1/GPa) = 0.01821033
#
# Stress axis : x y z
#
# Youngs Moduli (GPa) = 58.81192 64.66875 68.43693
#
# Poissons Ratio (x) = 0.39347 0.39020
# Poissons Ratio (y) = 0.35784 0.18123
# Poissons Ratio (z) = 0.33533 0.17125
#
# Static dielectric constant tensor:
#      x y z
#    x 2.036550 -0.022530 0.011920 
#    y -0.022530 1.956730 0.002520 
#    z 0.011920 0.002520 1.996600 
# 
# From -- ./inp_files/41782.got.cif
#   From: 2010.05.17/outbox.cif.g08.bks.cpg/sg2_21_cif.got.tgz:41782.got - 2010.06.03 11:33:40.
