data_PCOD9042008
_publ_section_title
;
Structure prediction by ZEFSAII (Michael W. Deem and Ramdas Pophale) SiO2 
 PCOD9042008
Probable space group: P -1
;
_chemical_formula_sum "Si O2"
_cell_formula_units_Z 15
_cell_length_a 7.411819
_cell_length_b 6.989288
_cell_length_c 15.544742
_cell_angle_alpha 126.754549
_cell_angle_beta 78.224693
_cell_angle_gamma 81.418940
_cell_volume 592.615311
_symmetry_space_group_name_H-M "P -1"
_symmetry_group_IT_number 2
_symmetry_cell_setting 'triclinic'
loop_
_space_group_symop_operation_xyz
x,y,z
-x,-y,-z
loop_
_atom_site_type_symbol
_atom_site_label
_atom_site_fract_x
_atom_site_fract_y
_atom_site_fract_z
Si Si1 0.675299 0.632633 0.926541
Si Si2 0.500000 0.500000 0.500000
Si Si3 0.810137 0.286281 0.676277
Si Si4 0.374733 0.399295 0.677268
Si Si5 0.050450 0.748304 0.086931
Si Si6 0.256199 0.855971 0.937469
Si Si7 0.710546 0.032805 0.328723
Si Si8 0.950977 0.262981 0.470059
O O1 0.806066 0.519357 0.798941
O O2 0.747787 0.389903 0.916767
O O3 0.455824 0.714400 0.935164
O O4 0.715316 0.881591 0.022234
O O5 0.390713 0.415481 0.578238
O O6 0.496660 0.773110 0.629248
O O7 0.594512 0.318973 0.673145
O O8 0.934529 0.275574 0.576700
O O9 0.902360 0.016605 0.642201
O O10 0.259199 0.663580 0.808461
O O11 0.293101 0.185184 0.664720
O O12 0.874907 0.919784 0.210945
O O13 0.092284 0.880802 0.033067
O O14 0.000000 0.500000 0.000000
O O15 0.747225 0.264166 0.444592
O O16 0.000000 0.500000 0.500000
#
# Coordination Sequence:
#
# PCOD9042008 Si02
#       8
#     2   1   2   2   2   2   2   2
#     4  10  23  44  71 100 140 182 230 291 345 419
#     4  12  28  44  72 100 138 192 238 284 362 410
#     4  10  23  44  68  98 138 181 235 294 343 412
#     4  11  25  47  71 101 142 187 235 295 345 422
#     4  12  25  45  69 108 142 184 228 289 359 414
#     4  10  24  45  73 104 137 184 235 281 355 419
#     4  12  27  47  69 105 143 187 235 296 351 420
#     4  11  25  43  68 103 134 184 236 287 356 416
#
# _framework density 25.311530999999999
#
# number of rings (size 3 to 8) (size 9 to 14) (size 15 to 20)
#    0.000    1.067    4.000    0.800    5.600    2.667 
#    0.000    0.000    0.000    0.000    0.000    0.000 
#    0.000    0.000    0.000    0.000    0.000    0.000 
#
# Total GULP energy -83792.754983 kJ/mol
# GULP energy per Si atom -5586.183666 kJ/mol
# Density = 2.525392 g / cm^3
# Si number density = 25.311531 Si / 1000 Ang^3
#
#
#
# Elastic Constant Matrix: (Units=GPa)
#
#
# Indices 1 2 3 4 5 6 
#
# 1 50.2993 25.9297 23.9745 6.9275 -9.7712 -7.9035
# 2 25.9297 192.4050 85.5324 -1.5427 -18.1670 5.0690
# 3 23.9745 85.5324 188.8026 16.1733 -31.5020 12.6562
# 4 6.9275 -1.5427 16.1733 43.4945 -1.3231 -1.7627
# 5 -9.7712 -18.1670 -31.5020 -1.3231 40.6761 5.3585
# 6 -7.9035 5.0690 12.6562 -1.7627 5.3585 45.8750
#
#
#
# Elastic Compliance Matrix: (Units=1/GPa)
#
#
# Indices 1 2 3 4 5 6 
#
# 1 0.023429 -0.002383 -0.001460 -0.003016 0.002773 0.004263
# 2 -0.002383 0.006847 -0.002857 0.001682 0.000375 -0.000358
# 3 -0.001460 -0.002857 0.008018 -0.002817 0.004864 -0.002824
# 4 -0.003016 0.001682 -0.002817 0.024581 -0.001513 0.001193
# 5 0.002773 0.000375 0.004864 -0.001513 0.029720 -0.004435
# 6 0.004263 -0.000358 -0.002824 0.001193 -0.004435 0.023915
#
#
# Mechanical properties :
#
#
# Convention : Reuss Voigt Hill
#
# Bulk Modulus (GPa) = 40.16916 78.04225 59.10570
# Shear Modulus (GPa) = 36.17720 45.74714 40.96217
#
# Velocity S-wave (km/s) = 3.78468 4.25592 4.02720
# Velocity P-wave (km/s) = 5.91631 7.41958 6.71017
#
# Compressibility (1/GPa) = 0.02489472
#
# Stress axis : x y z
#
# Youngs Moduli (GPa) = 42.68145 146.05504 124.71642
#
# Poissons Ratio (x) = 0.34805 0.18211
# Poissons Ratio (y) = 0.10171 0.35627
# Poissons Ratio (z) = 0.06232 0.41722
#
# Static dielectric constant tensor:
#      x y z
#    x 2.177710 -0.105900 -0.033320 
#    y -0.105900 2.023670 0.020650 
#    z -0.033320 0.020650 1.983580 
# 
# From -- ./inp_files/80302.got.cif
#   From: 2010.05.17/outbox.cif.g08.bks.cpg/sg2_41_cif.got.tgz:80302.got - 2010.06.03 11:33:40.
