data_PCOD9042198
_publ_section_title
;
Structure prediction by ZEFSAII (Michael W. Deem and Ramdas Pophale) SiO2 
 PCOD9042198
Probable space group: P -1
;
_chemical_formula_sum "Si O2"
_cell_formula_units_Z 15
_cell_length_a 11.451665
_cell_length_b 8.461079
_cell_length_c 11.232122
_cell_angle_alpha 54.653481
_cell_angle_beta 56.186736
_cell_angle_gamma 41.438196
_cell_volume 572.094854
_symmetry_space_group_name_H-M "P -1"
_symmetry_group_IT_number 2
_symmetry_cell_setting 'triclinic'
loop_
_space_group_symop_operation_xyz
x,y,z
-x,-y,-z
loop_
_atom_site_type_symbol
_atom_site_label
_atom_site_fract_x
_atom_site_fract_y
_atom_site_fract_z
Si Si1 0.500000 0.500000 0.000000
Si Si2 0.859510 0.527752 0.240968
Si Si3 0.614557 0.972661 0.335614
Si Si4 0.188618 0.070573 0.377872
Si Si5 0.932516 0.896983 0.317611
Si Si6 0.381282 0.904259 0.105240
Si Si7 0.725007 0.563986 0.760436
Si Si8 0.013778 0.735208 0.945357
O O1 0.454099 0.679904 0.071117
O O2 0.286837 0.602635 0.070745
O O3 0.672056 0.756925 0.305215
O O4 0.840182 0.464889 0.146585
O O5 0.984703 0.271782 0.354699
O O6 0.987442 0.609931 0.121792
O O7 0.801217 0.875068 0.328240
O O8 0.500000 0.000000 0.500000
O O9 0.497052 0.249435 0.221800
O O10 0.164559 0.981463 0.554436
O O11 0.250393 0.235865 0.306161
O O12 0.326748 0.881351 0.280019
O O13 0.126950 0.621301 0.340411
O O14 0.955584 0.067054 0.153427
O O15 0.181245 0.121708 0.071490
O O16 0.500000 0.000000 0.000000
#
# Coordination Sequence:
#
# PCOD9042198 Si02
#       8
#     1   2   2   2   2   2   2   2
#     4  12  24  44  70 114 142 186 258 298 366 456
#     4  10  23  44  70 100 135 189 243 303 369 439
#     4  12  25  43  72 103 145 195 240 303 376 441
#     4  11  23  44  72 103 145 197 243 300 378 438
#     4  12  25  47  72 107 149 196 247 305 374 447
#     4  11  23  42  71 105 148 191 240 315 365 437
#     4  12  24  44  72 108 148 192 250 304 371 449
#     4  10  24  46  70 100 142 192 249 304 373 448
#
# _framework density 26.219428000000001
#
# number of rings (size 3 to 8) (size 9 to 14) (size 15 to 20)
#    0.000    0.800    5.333    2.000    0.000    3.733 
#    4.800    0.667    0.000    0.000    0.000    0.000 
#    0.000    0.000    0.000    0.000    0.000    0.000 
#
# Total GULP energy -83665.383205 kJ/mol
# GULP energy per Si atom -5577.692214 kJ/mol
# Density = 2.615975 g / cm^3
# Si number density = 26.219428 Si / 1000 Ang^3
#
#
#
# Elastic Constant Matrix: (Units=GPa)
#
#
# Indices 1 2 3 4 5 6 
#
# 1 50.4110 27.5809 25.2058 7.1561 -8.7184 11.1807
# 2 27.5809 127.5109 67.4822 50.6659 19.5627 26.3774
# 3 25.2058 67.4822 109.4165 37.4682 18.8338 10.1971
# 4 7.1561 50.6659 37.4682 57.0969 8.6711 9.5854
# 5 -8.7184 19.5627 18.8338 8.6711 46.3100 -1.6539
# 6 11.1807 26.3774 10.1971 9.5854 -1.6539 42.9416
#
#
#
# Elastic Compliance Matrix: (Units=1/GPa)
#
#
# Indices 1 2 3 4 5 6 
#
# 1 0.027132 -0.005210 -0.005666 0.004137 0.008728 -0.003106
# 2 -0.005210 0.017456 -0.004759 -0.009948 -0.004778 -0.006200
# 3 -0.005666 -0.004759 0.015695 -0.004960 -0.004453 0.001607
# 4 0.004137 -0.009948 -0.004960 0.028865 0.001587 -0.000171
# 5 0.008728 -0.004778 -0.004453 0.001587 0.026855 0.002400
# 6 -0.003106 -0.006200 0.001607 -0.000171 0.002400 0.027653
#
#
# Mechanical properties :
#
#
# Convention : Reuss Voigt Hill
#
# Bulk Modulus (GPa) = 34.46936 58.65291 46.56113
# Shear Modulus (GPa) = 27.08580 40.40767 33.74674
#
# Velocity S-wave (km/s) = 3.21759 3.92999 3.59149
# Velocity P-wave (km/s) = 5.19412 6.55833 5.91568
#
# Compressibility (1/GPa) = 0.02901128
#
# Stress axis : x y z
#
# Youngs Moduli (GPa) = 36.85717 57.28558 63.71444
#
# Poissons Ratio (x) = 0.29848 0.36103
# Poissons Ratio (y) = 0.19204 0.30323
# Poissons Ratio (z) = 0.20885 0.27263
#
# Static dielectric constant tensor:
#      x y z
#    x 2.154430 -0.095030 0.082410 
#    y -0.095030 1.991920 0.140150 
#    z 0.082410 0.140150 1.805330 
# 
# From -- ./inp_files/419082.got.cif
#   From: 2010.05.17/outbox.cif.g08.bks.cpg/sg2_210_cif.got.tgz:419082.got - 2010.06.03 11:33:40.
