data_PCOD9042000
_publ_section_title
;
Structure prediction by ZEFSAII (Michael W. Deem and Ramdas Pophale) SiO2 
 PCOD9042000
Probable space group: P -1
;
_chemical_formula_sum "Si O2"
_cell_formula_units_Z 16
_cell_length_a 6.478622
_cell_length_b 14.853539
_cell_length_c 7.949191
_cell_angle_alpha 89.706992
_cell_angle_beta 65.875943
_cell_angle_gamma 77.640416
_cell_volume 679.047646
_symmetry_space_group_name_H-M "P -1"
_symmetry_group_IT_number 2
_symmetry_cell_setting 'triclinic'
loop_
_space_group_symop_operation_xyz
x,y,z
-x,-y,-z
loop_
_atom_site_type_symbol
_atom_site_label
_atom_site_fract_x
_atom_site_fract_y
_atom_site_fract_z
Si Si1 0.165044 0.224870 0.422734
Si Si2 0.295069 0.427898 0.875050
Si Si3 0.795258 0.157667 0.716295
Si Si4 0.755274 0.474139 0.772833
Si Si5 0.271867 0.242571 0.019102
Si Si6 0.123641 0.080320 0.913932
Si Si7 0.262362 0.391471 0.511466
Si Si8 0.615605 0.991767 0.643950
O O1 0.205842 0.269420 0.231583
O O2 0.307552 0.279340 0.498260
O O3 0.271175 0.115277 0.365156
O O4 0.900928 0.227498 0.565943
O O5 0.560129 0.416642 0.852870
O O6 0.317853 0.437647 0.666354
O O7 0.175274 0.498696 0.062678
O O8 0.209201 0.334345 0.928485
O O9 0.003600 0.121758 0.779922
O O10 0.765463 0.067568 0.622883
O O11 0.547113 0.199408 0.888761
O O12 0.655827 0.562207 0.682012
O O13 0.981626 0.418679 0.602959
O O14 0.118897 0.169548 0.026728
O O15 0.392069 0.027455 0.832967
O O16 0.000000 0.000000 0.000000
O O17 0.500000 0.000000 0.500000
#
# Coordination Sequence:
#
# PCOD9042000 Si02
#       8
#     2   2   2   2   2   2   2   2
#     4  12  23  43  67  96 134 173 222 279 327 395
#     4  11  22  43  69  94 136 171 213 277 332 395
#     4  11  24  43  63  90 133 176 219 276 330 385
#     4  10  23  44  68  98 129 173 215 268 346 391
#     4  11  25  42  64 102 131 171 227 274 328 397
#     4  11  23  42  65  90 130 176 218 275 333 387
#     4  11  23  42  69  99 130 170 221 270 331 405
#     4  11  24  40  64  93 127 177 224 269 330 390
#
# _framework density 23.562411999999998
#
# number of rings (size 3 to 8) (size 9 to 14) (size 15 to 20)
#    0.000    1.000    2.500    4.125    3.500    2.000 
#    0.000    0.000    0.000    0.000    0.000    0.000 
#    0.000    0.000    0.000    0.000    0.000    0.000 
#
# Total GULP energy -89251.344952 kJ/mol
# GULP energy per Si atom -5578.209059 kJ/mol
# Density = 2.350878 g / cm^3
# Si number density = 23.562412 Si / 1000 Ang^3
#
#
#
# Elastic Constant Matrix: (Units=GPa)
#
#
# Indices 1 2 3 4 5 6 
#
# 1 54.5754 19.9461 23.6743 3.5242 10.7117 23.5695
# 2 19.9461 95.7842 18.9010 -0.8454 4.3755 27.9800
# 3 23.6743 18.9010 107.3784 -10.3555 11.6191 10.7768
# 4 3.5242 -0.8454 -10.3555 29.0241 3.1518 5.8279
# 5 10.7117 4.3755 11.6191 3.1518 42.9529 5.3237
# 6 23.5695 27.9800 10.7768 5.8279 5.3237 38.3748
#
#
#
# Elastic Compliance Matrix: (Units=1/GPa)
#
#
# Indices 1 2 3 4 5 6 
#
# 1 0.027470 -0.000462 -0.004255 -0.001532 -0.003732 -0.014590
# 2 -0.000462 0.013582 -0.001145 0.001963 0.000088 -0.009608
# 3 -0.004255 -0.001145 0.011153 0.004718 -0.002173 -0.000099
# 4 -0.001532 0.001963 0.004718 0.038151 -0.003002 -0.007193
# 5 -0.003732 0.000088 -0.002173 -0.003002 0.025033 -0.000179
# 6 -0.014590 -0.009608 -0.000099 -0.007193 -0.000179 0.043170
#
#
# Mechanical properties :
#
#
# Convention : Reuss Voigt Hill
#
# Bulk Modulus (GPa) = 24.70252 42.53119 33.61685
# Shear Modulus (GPa) = 27.20692 35.08479 31.14585
#
# Velocity S-wave (km/s) = 3.40174 3.86296 3.63966
# Velocity P-wave (km/s) = 5.09271 6.16330 5.65340
#
# Compressibility (1/GPa) = 0.04048170
#
# Stress axis : x y z
#
# Youngs Moduli (GPa) = 36.40315 73.62552 89.66532
#
# Poissons Ratio (x) = 0.03401 0.38151
# Poissons Ratio (y) = 0.01682 0.10265
# Poissons Ratio (z) = 0.15489 0.08429
#
# Static dielectric constant tensor:
#      x y z
#    x 1.998110 0.004910 -0.068210 
#    y 0.004910 2.304000 -0.035270 
#    z -0.068210 -0.035270 2.080460 
# 
# From -- ./inp_files/135265.got.cif
#   From: 2010.05.17/outbox.cif.g08.bks.cpg/sg2_68_cif.got.tgz:135265.got - 2010.06.03 11:33:40.
