data_PCOD9042099
_publ_section_title
;
Structure prediction by ZEFSAII (Michael W. Deem and Ramdas Pophale) SiO2 
 PCOD9042099
Probable space group: P -1
;
_chemical_formula_sum "Si O2"
_cell_formula_units_Z 14
_cell_length_a 11.132282
_cell_length_b 12.275898
_cell_length_c 4.996709
_cell_angle_alpha 86.303507
_cell_angle_beta 73.794742
_cell_angle_gamma 118.786887
_cell_volume 558.404497
_symmetry_space_group_name_H-M "P -1"
_symmetry_group_IT_number 2
_symmetry_cell_setting 'triclinic'
loop_
_space_group_symop_operation_xyz
x,y,z
-x,-y,-z
loop_
_atom_site_type_symbol
_atom_site_label
_atom_site_fract_x
_atom_site_fract_y
_atom_site_fract_z
Si Si1 0.613132 0.723413 0.947191
Si Si2 0.604225 0.487317 0.228344
Si Si3 0.901145 0.525552 0.262385
Si Si4 0.177480 0.713597 0.305330
Si Si5 0.880601 0.988839 0.866271
Si Si6 0.485171 0.869286 0.929665
Si Si7 0.223047 0.943511 0.573766
O O1 0.632980 0.603087 0.999792
O O2 0.775439 0.841313 0.872675
O O3 0.496506 0.657502 0.787584
O O4 0.527115 0.789087 0.120675
O O5 0.500000 0.500000 0.500000
O O6 0.759894 0.516776 0.225732
O O7 0.841378 0.415923 0.541956
O O8 0.017618 0.663884 0.289459
O O9 0.000000 0.500000 0.000000
O O10 0.216301 0.816074 0.499915
O O11 0.312447 0.776348 0.005205
O O12 0.803652 0.043249 0.102244
O O13 0.895552 0.053585 0.557281
O O14 0.000000 0.000000 0.000000
O O15 0.619745 0.931318 0.624231
O O16 0.500000 0.000000 0.000000
#
# Coordination Sequence:
#
# PCOD9042099 Si02
#       7
#     2   2   2   2   2   2   2
#     4  10  24  43  66 103 144 186 256 299 376 450
#     4  11  25  43  71 100 142 202 245 314 368 454
#     4  11  25  43  72 106 146 197 257 319 384 444
#     4  10  23  44  69 104 147 188 248 319 380 456
#     4  11  25  44  71 106 147 194 243 310 384 457
#     4   9  19  44  70 102 142 191 245 309 379 450
#     4  10  24  43  71 109 142 193 246 307 387 451
#
# _framework density 25.071428000000001
#
# number of rings (size 3 to 8) (size 9 to 14) (size 15 to 20)
#    0.000    1.714    0.000    2.143    8.000    4.571 
#    7.714    6.429    0.000    0.000    0.000    0.000 
#    0.000    0.000    0.000    0.000    0.000    0.000 
#
# Total GULP energy -77961.335466 kJ/mol
# GULP energy per Si atom -5568.666819 kJ/mol
# Density = 2.501436 g / cm^3
# Si number density = 25.071428 Si / 1000 Ang^3
#
#
#
# Elastic Constant Matrix: (Units=GPa)
#
#
# Indices 1 2 3 4 5 6 
#
# 1 182.8089 58.8797 26.0959 -6.9741 -3.3185 26.1349
# 2 58.8797 187.1762 27.8138 3.8140 -1.5486 31.1034
# 3 26.0959 27.8138 71.4534 14.8542 0.6337 19.4349
# 4 -6.9741 3.8140 14.8542 30.3542 2.5639 -8.5834
# 5 -3.3185 -1.5486 0.6337 2.5639 30.6830 -4.4012
# 6 26.1349 31.1034 19.4349 -8.5834 -4.4012 42.5464
#
#
#
# Elastic Compliance Matrix: (Units=1/GPa)
#
#
# Indices 1 2 3 4 5 6 
#
# 1 0.006544 -0.001567 -0.001779 0.002093 0.000259 -0.001613
# 2 -0.001567 0.006630 -0.000438 -0.002128 -0.000242 -0.004138
# 3 -0.001779 -0.000438 0.020531 -0.013356 -0.001067 -0.010770
# 4 0.002093 -0.002128 -0.013356 0.044640 -0.001147 0.015258
# 5 0.000259 -0.000242 -0.001067 -0.001147 0.033258 0.003714
# 6 -0.001613 -0.004138 -0.010770 0.015258 0.003714 0.035902
#
#
# Mechanical properties :
#
#
# Convention : Reuss Voigt Hill
#
# Bulk Modulus (GPa) = 38.26024 74.11303 56.18663
# Shear Modulus (GPa) = 30.52810 42.62668 36.57739
#
# Velocity S-wave (km/s) = 3.49326 4.12783 3.82373
# Velocity P-wave (km/s) = 5.61820 7.23489 6.47718
#
# Compressibility (1/GPa) = 0.02613680
#
# Stress axis : x y z
#
# Youngs Moduli (GPa) = 152.81582 150.83989 48.70736
#
# Poissons Ratio (x) = 0.23631 0.08664
# Poissons Ratio (y) = 0.23941 0.02135
# Poissons Ratio (z) = 0.27182 0.06611
#
# Static dielectric constant tensor:
#      x y z
#    x 2.554800 -0.217100 0.074470 
#    y -0.217100 2.076060 -0.034610 
#    z 0.074470 -0.034610 2.097000 
# 
# From -- ./inp_files/71144.got.cif
#   From: 2010.05.17/outbox.cif.g08.bks.cpg/sg2_36_cif.got.tgz:71144.got - 2010.06.03 11:33:40.
