data_PCOD9042898
_publ_section_title
;
Structure prediction by ZEFSAII (Michael W. Deem and Ramdas Pophale) SiO2 
 PCOD9042898
Probable space group: P -1
;
_chemical_formula_sum "Si O2"
_cell_formula_units_Z 16
_cell_length_a 9.195588
_cell_length_b 11.449473
_cell_length_c 11.514221
_cell_angle_alpha 128.746369
_cell_angle_beta 91.770508
_cell_angle_gamma 59.732415
_cell_volume 740.145631
_symmetry_space_group_name_H-M "P -1"
_symmetry_group_IT_number 2
_symmetry_cell_setting 'triclinic'
loop_
_space_group_symop_operation_xyz
x,y,z
-x,-y,-z
loop_
_atom_site_type_symbol
_atom_site_label
_atom_site_fract_x
_atom_site_fract_y
_atom_site_fract_z
Si Si1 0.582748 0.478311 0.616357
Si Si2 0.930378 0.215549 0.622057
Si Si3 0.678119 0.085742 0.839421
Si Si4 0.283194 0.468826 0.715889
Si Si5 0.283302 0.617803 0.039609
Si Si6 0.306833 0.114658 0.502115
Si Si7 0.394273 0.219066 0.099849
Si Si8 0.060440 0.334905 0.304288
O O1 0.500000 0.500000 0.500000
O O2 0.796015 0.320466 0.570081
O O3 0.466976 0.443108 0.675307
O O4 0.541521 0.679161 0.761482
O O5 0.820768 0.325627 0.805583
O O6 0.112698 0.202169 0.612633
O O7 0.000000 0.000000 0.500000
O O8 0.763539 0.196279 0.912940
O O9 0.667188 0.040175 0.679668
O O10 0.808700 0.875204 0.767519
O O11 0.473781 0.207410 0.967738
O O12 0.292403 0.291806 0.563528
O O13 0.114561 0.636073 0.738102
O O14 0.249372 0.509041 0.877396
O O15 0.500000 0.500000 0.000000
O O16 0.500000 0.000000 0.500000
O O17 0.180519 0.331593 0.199943
O O18 0.500000 0.000000 0.000000
O O19 0.000000 0.500000 0.500000
#
# Coordination Sequence:
#
# PCOD9042898 Si02
#       8
#     2   2   2   2   2   2   2   2
#     4  12  26  44  74 106 142 184 240 292 357 428
#     4  12  26  49  75 104 144 193 236 297 364 422
#     4  11  23  45  70  95 146 187 227 299 355 416
#     4  12  25  42  71 106 138 184 235 294 355 424
#     4  12  24  47  70 101 145 185 235 297 351 426
#     4  12  26  44  71 103 139 186 244 290 354 429
#     4  10  23  45  66 100 140 190 228 290 360 418
#     4  11  23  43  70 103 144 182 238 294 356 420
#
# _framework density 21.617369
#
# number of rings (size 3 to 8) (size 9 to 14) (size 15 to 20)
#    0.000    0.500    5.000    3.000    3.500    2.000 
#    4.500    0.000    0.000    0.000    0.000    0.000 
#    0.000    0.000    0.000    0.000    0.000    0.000 
#
# Total GULP energy -89308.310112 kJ/mol
# GULP energy per Si atom -5581.769382 kJ/mol
# Density = 2.156817 g / cm^3
# Si number density = 21.617369 Si / 1000 Ang^3
#
#
#
# Elastic Constant Matrix: (Units=GPa)
#
#
# Indices 1 2 3 4 5 6 
#
# 1 118.2320 21.7431 18.0456 9.0913 -16.4436 -6.5910
# 2 21.7431 86.5917 22.4178 8.9384 -4.0061 -16.1705
# 3 18.0456 22.4178 97.8992 0.3187 -10.4183 -7.6218
# 4 9.0913 8.9384 0.3187 34.6154 10.4080 8.0369
# 5 -16.4436 -4.0061 -10.4183 10.4080 44.4198 6.7490
# 6 -6.5910 -16.1705 -7.6218 8.0369 6.7490 40.8214
#
#
#
# Elastic Compliance Matrix: (Units=1/GPa)
#
#
# Indices 1 2 3 4 5 6 
#
# 1 0.009749 -0.001492 -0.000957 -0.003552 0.003953 0.000850
# 2 -0.001492 0.014136 -0.002459 -0.004684 0.000368 0.005761
# 3 -0.000957 -0.002459 0.011210 0.000051 0.001945 0.000633
# 4 -0.003552 -0.004684 0.000051 0.035537 -0.008843 -0.007954
# 5 0.003953 0.000368 0.001945 -0.008843 0.026771 -0.001538
# 6 0.000850 0.005761 0.000633 -0.007954 -0.001538 0.028855
#
#
# Mechanical properties :
#
#
# Convention : Reuss Voigt Hill
#
# Bulk Modulus (GPa) = 39.55810 47.45955 43.50882
# Shear Modulus (GPa) = 34.60229 40.00574 37.30401
#
# Velocity S-wave (km/s) = 4.00518 4.30656 4.15860
# Velocity P-wave (km/s) = 6.30298 6.83598 6.57488
#
# Compressibility (1/GPa) = 0.02527927
#
# Stress axis : x y z
#
# Youngs Moduli (GPa) = 102.57805 70.74113 89.20478
#
# Poissons Ratio (x) = 0.10553 0.08536
# Poissons Ratio (y) = 0.15303 0.21936
# Poissons Ratio (z) = 0.09816 0.17396
#
# Static dielectric constant tensor:
#      x y z
#    x 1.790440 0.046210 -0.041090 
#    y 0.046210 1.773200 -0.013840 
#    z -0.041090 -0.013840 1.811290 
# 
# From -- ./inp_files/207600.got.cif
#   From: 2010.05.17/outbox.cif.g08.bks.cpg/sg2_104_cif.got.tgz:207600.got - 2010.06.03 11:33:40.
