data_PCOD9042784
_publ_section_title
;
Structure prediction by ZEFSAII (Michael W. Deem and Ramdas Pophale) SiO2 
 PCOD9042784
Probable space group: P -1
;
_chemical_formula_sum "Si O2"
_cell_formula_units_Z 16
_cell_length_a 9.275518
_cell_length_b 26.236777
_cell_length_c 14.416811
_cell_angle_alpha 19.462340
_cell_angle_beta 133.600580
_cell_angle_gamma 145.012113
_cell_volume 604.016807
_symmetry_space_group_name_H-M "P -1"
_symmetry_group_IT_number 2
_symmetry_cell_setting 'triclinic'
loop_
_space_group_symop_operation_xyz
x,y,z
-x,-y,-z
loop_
_atom_site_type_symbol
_atom_site_label
_atom_site_fract_x
_atom_site_fract_y
_atom_site_fract_z
Si Si1 0.501310 0.021493 0.788251
Si Si2 0.316853 0.126021 0.361994
Si Si3 0.853627 0.630832 0.462958
Si Si4 0.669641 0.806798 0.162833
Si Si5 0.113578 0.639658 0.401769
Si Si6 0.823907 0.373509 0.044158
Si Si7 0.828709 0.699693 0.773638
Si Si8 0.492832 0.577144 0.673933
O O1 0.408295 0.110432 0.529965
O O2 0.807482 0.185247 0.687912
O O3 0.528949 0.896042 0.942747
O O4 0.295101 0.874131 0.035047
O O5 0.528265 0.166814 0.309860
O O6 0.983881 0.097859 0.421318
O O7 0.369991 0.338621 0.021708
O O8 0.858533 0.551940 0.502327
O O9 0.699312 0.709528 0.256380
O O10 0.766825 0.492252 0.753353
O O11 0.554636 0.668982 0.441753
O O12 0.000000 0.000000 0.000000
O O13 0.290308 0.595033 0.599949
O O14 0.000000 0.500000 0.500000
O O15 0.997572 0.358212 0.078321
O O16 0.000000 0.500000 0.000000
O O17 0.776740 0.741006 0.577417
O O18 0.500000 0.500000 0.000000
#
# Coordination Sequence:
#
# PCOD9042784 Si02
#       8
#     2   2   2   2   2   2   2   2
#     4  10  23  44  76 111 155 200 262 322 396 477
#     4  12  26  49  85 117 156 209 267 328 405 468
#     4  11  20  44  80 106 153 210 254 321 404 463
#     4   9  20  42  78 109 146 205 252 320 396 473
#     4  11  27  49  72 106 157 207 265 324 389 481
#     4  12  22  47  80 118 159 202 260 334 397 477
#     4  12  28  47  75 116 160 209 260 325 405 480
#     4  11  24  52  73 111 159 198 267 333 389 471
#
# _framework density 26.489328
#
# number of rings (size 3 to 8) (size 9 to 14) (size 15 to 20)
#    0.000    1.000    3.750    1.500    5.250    0.500 
#   11.250    2.500    2.750    0.000    0.000    0.000 
#    0.000    0.000    0.000    0.000    0.000    0.000 
#
# Total GULP energy -89517.591110 kJ/mol
# GULP energy per Si atom -5594.849444 kJ/mol
# Density = 2.642904 g / cm^3
# Si number density = 26.489328 Si / 1000 Ang^3
#
#
#
# Elastic Constant Matrix: (Units=GPa)
#
#
# Indices 1 2 3 4 5 6 
#
# 1 181.9159 -10.5738 40.7156 8.9027 3.4661 17.3331
# 2 -10.5738 72.8113 20.9087 -6.2487 -22.5238 -1.2507
# 3 40.7156 20.9087 114.0952 13.0179 -9.9969 12.1707
# 4 8.9027 -6.2487 13.0179 42.4278 3.3497 2.1372
# 5 3.4661 -22.5238 -9.9969 3.3497 43.9669 -1.2777
# 6 17.3331 -1.2507 12.1707 2.1372 -1.2777 44.6427
#
#
#
# Elastic Compliance Matrix: (Units=1/GPa)
#
#
# Indices 1 2 3 4 5 6 
#
# 1 0.006285 0.001422 -0.002311 -0.000286 -0.000322 -0.001766
# 2 0.001422 0.017643 -0.003454 0.002681 0.007966 0.000983
# 3 -0.002311 -0.003454 0.010912 -0.003358 0.001092 -0.001983
# 4 -0.000286 0.002681 -0.003358 0.025164 -0.001289 -0.000140
# 5 -0.000322 0.007966 0.001092 -0.001289 0.027223 0.000891
# 6 -0.001766 0.000983 -0.001983 -0.000140 0.000891 0.023686
#
#
# Mechanical properties :
#
#
# Convention : Reuss Voigt Hill
#
# Bulk Modulus (GPa) = 38.23174 52.32482 45.27828
# Shear Modulus (GPa) = 38.96588 47.39225 43.17906
#
# Velocity S-wave (km/s) = 3.83953 4.23437 4.04177
# Velocity P-wave (km/s) = 5.84125 6.61079 6.23790
#
# Compressibility (1/GPa) = 0.02615627
#
# Stress axis : x y z
#
# Youngs Moduli (GPa) = 159.10238 56.67824 91.63840
#
# Poissons Ratio (x) = -0.08058 0.21175
# Poissons Ratio (y) = -0.22621 0.31648
# Poissons Ratio (z) = 0.36763 0.19574
#
# Static dielectric constant tensor:
#      x y z
#    x 2.223390 -0.060650 0.042860 
#    y -0.060650 1.793830 -0.363570 
#    z 0.042860 -0.363570 2.031470 
# 
# From -- ./inp_files/508973.got.cif
#   From: 2010.05.17/outbox.cif.g08.bks.cpg/sg2_255_cif.got.tgz:508973.got - 2010.06.03 11:33:40.
