data_PCOD9042714
_publ_section_title
;
Structure prediction by ZEFSAII (Michael W. Deem and Ramdas Pophale) SiO2 
 PCOD9042714
Probable space group: P -1
;
_chemical_formula_sum "Si O2"
_cell_formula_units_Z 13
_cell_length_a 11.953917
_cell_length_b 8.589843
_cell_length_c 9.400459
_cell_angle_alpha 86.961318
_cell_angle_beta 119.454424
_cell_angle_gamma 136.144460
_cell_volume 504.355810
_symmetry_space_group_name_H-M "P -1"
_symmetry_group_IT_number 2
_symmetry_cell_setting 'triclinic'
loop_
_space_group_symop_operation_xyz
x,y,z
-x,-y,-z
loop_
_atom_site_type_symbol
_atom_site_label
_atom_site_fract_x
_atom_site_fract_y
_atom_site_fract_z
Si Si1 0.336235 0.646132 0.565466
Si Si2 0.720195 0.641696 0.075418
Si Si3 0.050345 0.440178 0.168061
Si Si4 0.269095 0.238581 0.448550
Si Si5 0.274774 0.710499 0.827867
Si Si6 0.000000 0.000000 0.500000
Si Si7 0.207012 0.054329 0.125007
O O1 0.220927 0.361365 0.496436
O O2 0.255708 0.664067 0.649126
O O3 0.582826 0.850480 0.744265
O O4 0.283637 0.661892 0.375491
O O5 0.729383 0.465541 0.097510
O O6 0.886418 0.867736 0.283243
O O7 0.500000 0.500000 0.000000
O O8 0.739535 0.732156 0.927184
O O9 0.904757 0.356869 0.210651
O O10 0.000000 0.500000 0.000000
O O11 0.972300 0.199393 0.071118
O O12 0.500000 0.500000 0.500000
O O13 0.159025 0.043116 0.257814
O O14 0.210743 0.088224 0.561421
O O15 0.500000 0.000000 0.000000
#
# Coordination Sequence:
#
# PCOD9042714 Si02
#       7
#     2   2   2   2   2   1   2
#     4  11  23  50  72 103 151 194 249 314 379 450
#     4  12  24  46  78 116 146 196 267 314 391 457
#     4  12  29  47  71 108 149 200 250 304 388 472
#     4  10  23  44  74 111 151 192 255 326 379 449
#     4  12  25  51  75 108 157 200 247 320 384 464
#     4  12  24  42  74 114 146 200 252 316 386 452
#     4  11  25  47  74 110 150 196 247 325 378 449
#
# _framework density 25.775455000000001
#
# number of rings (size 3 to 8) (size 9 to 14) (size 15 to 20)
#    0.000    0.615    4.615    2.308    4.308    1.846 
#    2.769    0.000    0.000    0.000    0.000    0.000 
#    0.000    0.000    0.000    0.000    0.000    0.000 
#
# Total GULP energy -72456.501808 kJ/mol
# GULP energy per Si atom -5573.577062 kJ/mol
# Density = 2.571679 g / cm^3
# Si number density = 25.775455 Si / 1000 Ang^3
#
#
#
# Elastic Constant Matrix: (Units=GPa)
#
#
# Indices 1 2 3 4 5 6 
#
# 1 162.8009 18.1576 49.8131 2.4496 -56.0575 25.0937
# 2 18.1576 66.3793 36.3141 0.5345 -24.3868 -6.8097
# 3 49.8131 36.3141 178.9394 0.7273 -30.9931 8.8413
# 4 2.4496 0.5345 0.7273 47.2203 5.2862 -4.9565
# 5 -56.0575 -24.3868 -30.9931 5.2862 64.0817 -3.1972
# 6 25.0937 -6.8097 8.8413 -4.9565 -3.1972 30.6222
#
#
#
# Elastic Compliance Matrix: (Units=1/GPa)
#
#
# Indices 1 2 3 4 5 6 
#
# 1 0.010708 0.000055 -0.001091 -0.002340 0.008658 -0.007922
# 2 0.000055 0.019737 -0.003216 -0.000266 0.006320 0.005890
# 3 -0.001091 -0.003216 0.006815 -0.000312 0.001057 -0.001728
# 4 -0.002340 -0.000266 -0.000312 0.022281 -0.003880 0.005150
# 5 0.008658 0.006320 0.001057 -0.003880 0.026221 -0.003885
# 6 -0.007922 0.005890 -0.001728 0.005150 -0.003885 0.041384
#
#
# Mechanical properties :
#
#
# Convention : Reuss Voigt Hill
#
# Bulk Modulus (GPa) = 34.77714 68.52101 51.64907
# Shear Modulus (GPa) = 34.42651 48.64050 41.53351
#
# Velocity S-wave (km/s) = 3.65859 4.34877 4.01853
# Velocity P-wave (km/s) = 5.60078 7.20120 6.45081
#
# Compressibility (1/GPa) = 0.02875452
#
# Stress axis : x y z
#
# Youngs Moduli (GPa) = 93.39059 50.66512 146.74140
#
# Poissons Ratio (x) = -0.00278 0.16016
# Poissons Ratio (y) = -0.00513 0.47194
# Poissons Ratio (z) = 0.10193 0.16295
#
# Static dielectric constant tensor:
#      x y z
#    x 2.284560 0.233350 0.303860 
#    y 0.233350 1.882970 0.383390 
#    z 0.303860 0.383390 2.104410 
# 
# From -- ./inp_files/239358.got.cif
#   From: 2010.05.17/outbox.cif.g08.bks.cpg/sg2_120_cif.got.tgz:239358.got - 2010.06.03 11:33:40.
