data_PCOD9042340
_publ_section_title
;
Structure prediction by ZEFSAII (Michael W. Deem and Ramdas Pophale) SiO2 
 PCOD9042340
Probable space group: P -1
;
_chemical_formula_sum "Si O2"
_cell_formula_units_Z 14
_cell_length_a 5.133938
_cell_length_b 18.946494
_cell_length_c 6.686779
_cell_angle_alpha 89.524404
_cell_angle_beta 85.940181
_cell_angle_gamma 92.258552
_cell_volume 648.247571
_symmetry_space_group_name_H-M "P -1"
_symmetry_group_IT_number 2
_symmetry_cell_setting 'triclinic'
loop_
_space_group_symop_operation_xyz
x,y,z
-x,-y,-z
loop_
_atom_site_type_symbol
_atom_site_label
_atom_site_fract_x
_atom_site_fract_y
_atom_site_fract_z
Si Si1 0.292975 0.805631 0.739373
Si Si2 0.528582 0.719328 0.376933
Si Si3 0.001203 0.424844 0.110818
Si Si4 0.476923 0.424765 0.393949
Si Si5 0.035578 0.719018 0.108759
Si Si6 0.413210 0.061072 0.146595
Si Si7 0.886328 0.058551 0.363420
O O1 0.469836 0.761142 0.583972
O O2 0.467297 0.858666 0.873943
O O3 0.131714 0.857468 0.600356
O O4 0.108543 0.759959 0.898078
O O5 0.560070 0.638496 0.444869
O O6 0.282068 0.723497 0.243324
O O7 0.785164 0.745076 0.240853
O O8 0.737455 0.413516 0.252780
O O9 0.238887 0.423367 0.252382
O O10 0.019793 0.361943 0.952638
O O11 0.000000 0.500000 0.000000
O O12 0.500000 0.500000 0.500000
O O13 0.586479 0.040466 0.329480
O O14 0.102420 0.059409 0.175189
O O15 0.500000 0.000000 0.000000
O O16 0.000000 0.000000 0.500000
#
# Coordination Sequence:
#
# PCOD9042340 Si02
#       7
#     2   2   2   2   2   2   2
#     4  10  28  46  74 102 154 182 242 308 360 424
#     4  12  27  46  72 105 146 193 246 292 370 430
#     4  12  24  44  73 103 149 187 244 304 352 424
#     4  12  24  44  73 103 149 187 244 304 352 424
#     4  12  27  46  72 105 146 193 246 292 370 430
#     4  10  23  44  70  98 137 178 236 285 367 422
#     4  10  23  44  70  98 137 178 236 285 367 422
#
# _framework density 21.596686999999999
#
# number of rings (size 3 to 8) (size 9 to 14) (size 15 to 20)
#    0.857    0.000    1.429    5.143    4.000    1.143 
#    0.000    0.000    0.000    0.000    0.000    0.000 
#    0.000    0.000    0.000    0.000    0.000    0.000 
#
# Total GULP energy -78082.053113 kJ/mol
# GULP energy per Si atom -5577.289508 kJ/mol
# Density = 2.154753 g / cm^3
# Si number density = 21.596687 Si / 1000 Ang^3
#
#
#
# Elastic Constant Matrix: (Units=GPa)
#
#
# Indices 1 2 3 4 5 6 
#
# 1 144.4863 18.3718 49.0958 4.6720 -6.4843 1.5687
# 2 18.3718 133.2025 51.6458 2.9140 -15.3071 -9.2806
# 3 49.0958 51.6458 80.6258 -11.3446 -11.4986 2.8460
# 4 4.6720 2.9140 -11.3446 43.2139 -9.0291 -0.7798
# 5 -6.4843 -15.3071 -11.4986 -9.0291 52.9653 3.1231
# 6 1.5687 -9.2806 2.8460 -0.7798 3.1231 29.6708
#
#
#
# Elastic Compliance Matrix: (Units=1/GPa)
#
#
# Indices 1 2 3 4 5 6 
#
# 1 0.009217 0.001547 -0.007136 -0.003074 -0.000537 0.000657
# 2 0.001547 0.010991 -0.008412 -0.002874 0.000814 0.004002
# 3 -0.007136 -0.008412 0.023984 0.008301 0.003595 -0.004715
# 4 -0.003074 -0.002874 0.008301 0.026921 0.005266 -0.001379
# 5 -0.000537 0.000814 0.003595 0.005266 0.020853 -0.002119
# 6 0.000657 0.004002 -0.004715 -0.001379 -0.002119 0.035559
#
#
# Mechanical properties :
#
#
# Convention : Reuss Voigt Hill
#
# Bulk Modulus (GPa) = 61.76646 66.28239 64.02442
# Shear Modulus (GPa) = 31.07070 41.11676 36.09373
#
# Velocity S-wave (km/s) = 3.79711 4.36804 4.09254
# Velocity P-wave (km/s) = 6.91998 7.49649 7.21399
#
# Compressibility (1/GPa) = 0.01619002
#
# Stress axis : x y z
#
# Youngs Moduli (GPa) = 108.49124 90.98644 41.69497
#
# Poissons Ratio (x) = -0.14074 0.29753
# Poissons Ratio (y) = -0.16782 0.35073
# Poissons Ratio (z) = 0.77418 0.76536
#
# Static dielectric constant tensor:
#      x y z
#    x 1.785090 0.015420 0.007910 
#    y 0.015420 1.836110 -0.008940 
#    z 0.007910 -0.008940 1.801150 
# 
# From -- ./inp_files/7734.got.cif
#   From: 2010.05.17/outbox.cif.g08.bks.cpg/sg2_4_cif.got.tgz:7734.got - 2010.06.03 11:33:40.
