data_PCOD9042694
_publ_section_title
;
Structure prediction by ZEFSAII (Michael W. Deem and Ramdas Pophale) SiO2 
 PCOD9042694
Probable space group: P -1
;
_chemical_formula_sum "Si O2"
_cell_formula_units_Z 14
_cell_length_a 8.564339
_cell_length_b 11.176805
_cell_length_c 12.291542
_cell_angle_alpha 69.213149
_cell_angle_beta 35.238048
_cell_angle_gamma 81.938454
_cell_volume 609.758362
_symmetry_space_group_name_H-M "P -1"
_symmetry_group_IT_number 2
_symmetry_cell_setting 'triclinic'
loop_
_space_group_symop_operation_xyz
x,y,z
-x,-y,-z
loop_
_atom_site_type_symbol
_atom_site_label
_atom_site_fract_x
_atom_site_fract_y
_atom_site_fract_z
Si Si1 0.018085 0.794027 0.794241
Si Si2 0.563275 0.143259 0.865403
Si Si3 0.750474 0.607710 0.381297
Si Si4 0.290147 0.974990 0.387872
Si Si5 0.101112 0.863961 0.973584
Si Si6 0.906618 0.636009 0.501882
Si Si7 0.829005 0.571496 0.800504
O O1 0.963423 0.657714 0.801255
O O2 0.217010 0.909547 0.569126
O O3 0.109224 0.813474 0.861175
O O4 0.703349 0.807472 0.974641
O O5 0.616894 0.126695 0.713098
O O6 0.839901 0.243527 0.722862
O O7 0.500000 0.000000 0.000000
O O8 0.500000 0.500000 0.500000
O O9 0.670230 0.621749 0.549406
O O10 0.004951 0.539599 0.264457
O O11 0.875198 0.747762 0.204756
O O12 0.571215 0.099119 0.187027
O O13 0.000000 0.000000 0.500000
O O14 0.000000 0.000000 0.000000
O O15 0.862904 0.663493 0.643538
O O16 0.000000 0.500000 0.500000
O O17 0.500000 0.500000 0.000000
#
# Coordination Sequence:
#
# PCOD9042694 Si02
#       7
#     2   2   2   2   2   2   2
#     4  12  26  46  78 107 157 200 254 312 388 451
#     4  12  23  43  74 111 148 194 250 316 370 447
#     4  11  28  49  76 112 152 201 254 314 391 452
#     4  12  26  47  75 111 145 199 262 310 374 454
#     4  12  29  50  76 111 162 203 247 315 394 454
#     4  10  23  44  74 104 146 191 252 308 373 444
#     4  11  26  48  78 110 149 203 263 314 375 459
#
# _framework density 22.959916
#
# number of rings (size 3 to 8) (size 9 to 14) (size 15 to 20)
#    0.000    0.571    4.286    3.000   10.000    0.571 
#    2.571    0.000    0.000    0.000    0.000    0.000 
#    0.000    0.000    0.000    0.000    0.000    0.000 
#
# Total GULP energy -78189.410825 kJ/mol
# GULP energy per Si atom -5584.957916 kJ/mol
# Density = 2.290766 g / cm^3
# Si number density = 22.959916 Si / 1000 Ang^3
#
#
#
# Elastic Constant Matrix: (Units=GPa)
#
#
# Indices 1 2 3 4 5 6 
#
# 1 110.6137 35.9670 40.3508 -19.7130 4.6784 28.1126
# 2 35.9670 99.1992 32.1278 -12.5732 11.6429 17.1468
# 3 40.3508 32.1278 118.4755 -28.8542 6.1186 6.4356
# 4 -19.7130 -12.5732 -28.8542 47.5773 10.1683 -4.7950
# 5 4.6784 11.6429 6.1186 10.1683 52.1007 5.6404
# 6 28.1126 17.1468 6.4356 -4.7950 5.6404 44.1177
#
#
#
# Elastic Compliance Matrix: (Units=1/GPa)
#
#
# Indices 1 2 3 4 5 6 
#
# 1 0.012950 -0.002315 -0.002840 0.002370 -0.000052 -0.006674
# 2 -0.002315 0.012467 -0.002000 0.001353 -0.002322 -0.002634
# 3 -0.002840 -0.002000 0.011362 0.005786 -0.001958 0.001809
# 4 0.002370 0.001353 0.005786 0.027382 -0.006641 0.000945
# 5 -0.000052 -0.002322 -0.001958 -0.006641 0.021487 -0.002248
# 6 -0.006674 -0.002634 0.001809 0.000945 -0.002248 0.028069
#
#
# Mechanical properties :
#
#
# Convention : Reuss Voigt Hill
#
# Bulk Modulus (GPa) = 44.50605 60.57551 52.54078
# Shear Modulus (GPa) = 36.89557 43.41533 40.15545
#
# Velocity S-wave (km/s) = 4.01303 4.35319 4.18657
# Velocity P-wave (km/s) = 6.39523 7.19079 6.80464
#
# Compressibility (1/GPa) = 0.02246886
#
# Stress axis : x y z
#
# Youngs Moduli (GPa) = 77.21938 80.20961 88.01091
#
# Poissons Ratio (x) = 0.18572 0.24998
# Poissons Ratio (y) = 0.17880 0.17598
# Poissons Ratio (z) = 0.21933 0.16038
#
# Static dielectric constant tensor:
#      x y z
#    x 1.897780 0.090620 0.044970 
#    y 0.090620 1.947920 0.038790 
#    z 0.044970 0.038790 1.922610 
# 
# From -- ./inp_files/389663.got.cif
#   From: 2010.05.17/outbox.cif.g08.bks.cpg/sg2_195_cif.got.tgz:389663.got - 2010.06.03 11:33:40.
