data_PCOD9042749
_publ_section_title
;
Structure prediction by ZEFSAII (Michael W. Deem and Ramdas Pophale) SiO2 
 PCOD9042749
Probable space group: P -1
;
_chemical_formula_sum "Si O2"
_cell_formula_units_Z 16
_cell_length_a 19.910407
_cell_length_b 6.348150
_cell_length_c 23.541309
_cell_angle_alpha 48.168217
_cell_angle_beta 160.196866
_cell_angle_gamma 124.168349
_cell_volume 725.085520
_symmetry_space_group_name_H-M "P -1"
_symmetry_group_IT_number 2
_symmetry_cell_setting 'triclinic'
loop_
_space_group_symop_operation_xyz
x,y,z
-x,-y,-z
loop_
_atom_site_type_symbol
_atom_site_label
_atom_site_fract_x
_atom_site_fract_y
_atom_site_fract_z
Si Si1 0.505277 0.656667 0.147644
Si Si2 0.409582 0.832601 0.243816
Si Si3 0.505745 0.159419 0.564812
Si Si4 0.761864 0.726775 0.449912
Si Si5 0.166546 0.648672 0.629225
Si Si6 0.170439 0.349455 0.902147
Si Si7 0.340086 0.317151 0.920243
Si Si8 0.229403 0.294531 0.220192
O O1 0.654040 0.613734 0.329666
O O2 0.636183 0.513920 0.222863
O O3 0.301125 0.536196 0.007551
O O4 0.417079 0.005043 0.008195
O O5 0.485422 0.931757 0.346257
O O6 0.580566 0.824500 0.334267
O O7 0.368859 0.515681 0.275597
O O8 0.199256 0.059217 0.014823
O O9 0.500000 0.500000 0.500000
O O10 0.310720 0.152920 0.371497
O O11 0.707477 0.964892 0.728684
O O12 0.946255 0.511915 0.671080
O O13 0.838966 0.012252 0.441761
O O14 0.151234 0.546264 0.700404
O O15 0.000000 0.500000 0.500000
O O16 0.295165 0.263506 0.958279
O O17 0.500000 0.500000 0.000000
O O18 0.000000 0.500000 0.000000
#
# Coordination Sequence:
#
# PCOD9042749 Si02
#       8
#     2   2   2   2   2   2   2   2
#     4  12  23  45  67  90 141 175 238 297 353 419
#     4  11  24  47  66 101 147 178 226 288 337 421
#     4   9  22  43  72 103 145 181 223 277 340 407
#     4  12  27  46  66 101 140 180 241 286 350 425
#     4  12  25  41  67  97 128 184 237 299 361 410
#     4  12  27  44  67 100 135 190 230 289 359 413
#     4  12  22  41  64  92 132 172 237 298 352 412
#     4  10  23  44  75 111 140 181 230 275 344 418
#
# _framework density 22.066362000000002
#
# number of rings (size 3 to 8) (size 9 to 14) (size 15 to 20)
#    0.000    0.750    5.000    1.875    3.500    7.000 
#    0.000    0.000    0.000    0.000    0.000    0.000 
#    0.000    0.000    0.000    0.000    0.000    0.000 
#
# Total GULP energy -89198.225615 kJ/mol
# GULP energy per Si atom -5574.889101 kJ/mol
# Density = 2.201614 g / cm^3
# Si number density = 22.066362 Si / 1000 Ang^3
#
#
#
# Elastic Constant Matrix: (Units=GPa)
#
#
# Indices 1 2 3 4 5 6 
#
# 1 100.2474 18.1218 55.4940 -5.4222 -24.4857 -25.4327
# 2 18.1218 81.1415 26.2667 -12.6535 -5.2267 -12.1604
# 3 55.4940 26.2667 149.5607 -9.9970 -16.0193 -11.8837
# 4 -5.4222 -12.6535 -9.9970 41.3195 -4.1317 0.4787
# 5 -24.4857 -5.2267 -16.0193 -4.1317 46.7285 -4.6670
# 6 -25.4327 -12.1604 -11.8837 0.4787 -4.6670 32.0074
#
#
#
# Elastic Compliance Matrix: (Units=1/GPa)
#
#
# Indices 1 2 3 4 5 6 
#
# 1 0.018786 0.000542 -0.004662 0.002331 0.009993 0.014824
# 2 0.000542 0.014401 -0.001775 0.004209 0.002208 0.005502
# 3 -0.004662 -0.001775 0.008744 0.001006 0.000336 -0.001098
# 4 0.002331 0.004209 0.001006 0.026471 0.004790 0.004127
# 5 0.009993 0.002208 0.000336 0.004790 0.028722 0.013020
# 6 0.014824 0.005502 -0.001098 0.004127 0.013020 0.046541
#
#
# Mechanical properties :
#
#
# Convention : Reuss Voigt Hill
#
# Bulk Modulus (GPa) = 33.17750 58.96830 46.07290
# Shear Modulus (GPa) = 30.21133 39.41556 34.81344
#
# Velocity S-wave (km/s) = 3.70417 4.23096 3.97630
# Velocity P-wave (km/s) = 5.77602 7.11683 6.48119
#
# Compressibility (1/GPa) = 0.03014091
#
# Stress axis : x y z
#
# Youngs Moduli (GPa) = 53.23241 69.44021 114.36890
#
# Poissons Ratio (x) = -0.03766 0.53313
# Poissons Ratio (y) = -0.02887 0.20305
# Poissons Ratio (z) = 0.24814 0.12329
#
# Static dielectric constant tensor:
#      x y z
#    x 1.816560 0.037360 0.014790 
#    y 0.037360 1.890860 0.084400 
#    z 0.014790 0.084400 1.970220 
# 
# From -- ./inp_files/340749.got.cif
#   From: 2010.05.17/outbox.cif.g08.bks.cpg/sg2_171_cif.got.tgz:340749.got - 2010.06.03 11:33:40.
