data_PCOD9042928
_publ_section_title
;
Structure prediction by ZEFSAII (Michael W. Deem and Ramdas Pophale) SiO2 
 PCOD9042928
Probable space group: P -1
;
_chemical_formula_sum "Si O2"
_cell_formula_units_Z 16
_cell_length_a 11.229332
_cell_length_b 9.133383
_cell_length_c 11.754270
_cell_angle_alpha 58.635567
_cell_angle_beta 126.582949
_cell_angle_gamma 86.383317
_cell_volume 693.354815
_symmetry_space_group_name_H-M "P -1"
_symmetry_group_IT_number 2
_symmetry_cell_setting 'triclinic'
loop_
_space_group_symop_operation_xyz
x,y,z
-x,-y,-z
loop_
_atom_site_type_symbol
_atom_site_label
_atom_site_fract_x
_atom_site_fract_y
_atom_site_fract_z
Si Si1 0.888825 0.942964 0.237441
Si Si2 0.950233 0.511448 0.097681
Si Si3 0.898891 0.220211 0.291040
Si Si4 0.481984 0.117720 0.603666
Si Si5 0.874153 0.917310 0.981557
Si Si6 0.352967 0.183626 0.761946
Si Si7 0.438207 0.294865 0.276824
Si Si8 0.722552 0.397704 0.348502
O O1 0.821515 0.954952 0.067943
O O2 0.813398 0.839412 0.314763
O O3 0.101004 0.794403 0.416904
O O4 0.828945 0.163588 0.163177
O O5 0.022875 0.297849 0.288284
O O6 0.972243 0.676903 0.106916
O O7 0.742114 0.595604 0.940374
O O8 0.000000 0.500000 0.000000
O O9 0.762023 0.370257 0.247201
O O10 0.000000 0.000000 0.500000
O O11 0.412936 0.171188 0.671047
O O12 0.398813 0.292138 0.389651
O O13 0.460507 0.938416 0.616244
O O14 0.692516 0.029326 0.761384
O O15 0.000000 0.000000 0.000000
O O16 0.304828 0.395173 0.704392
O O17 0.500000 0.000000 0.000000
O O18 0.556785 0.384251 0.287761
#
# Coordination Sequence:
#
# PCOD9042928 Si02
#       8
#     2   2   2   2   2   2   2   2
#     4  11  23  43  67  98 133 182 226 283 344 405
#     4  11  25  42  68 102 137 183 237 287 346 415
#     4  10  24  44  70  98 139 182 236 288 342 409
#     4  10  23  45  66  98 137 179 226 281 348 409
#     4  11  22  40  69  98 141 178 227 286 349 414
#     4  12  25  41  67 100 140 179 223 285 346 412
#     4  10  24  43  69  96 135 182 229 284 340 411
#     4  11  25  43  68 100 135 176 235 278 348 406
#
# _framework density 23.076208000000001
#
# number of rings (size 3 to 8) (size 9 to 14) (size 15 to 20)
#    0.000    1.250    1.250    3.375    3.500   11.000 
#    0.000    0.000    0.000    0.000    0.000    0.000 
#    0.000    0.000    0.000    0.000    0.000    0.000 
#
# Total GULP energy -89537.403409 kJ/mol
# GULP energy per Si atom -5596.087713 kJ/mol
# Density = 2.302369 g / cm^3
# Si number density = 23.076208 Si / 1000 Ang^3
#
#
#
# Elastic Constant Matrix: (Units=GPa)
#
#
# Indices 1 2 3 4 5 6 
#
# 1 125.6482 65.6148 14.1798 -5.6430 -23.3664 11.8184
# 2 65.6148 195.0277 10.7964 0.3763 -22.3912 5.4530
# 3 14.1798 10.7964 71.0031 8.8670 -10.6058 0.7189
# 4 -5.6430 0.3763 8.8670 27.5924 -1.1285 -6.8841
# 5 -23.3664 -22.3912 -10.6058 -1.1285 45.0126 13.6757
# 6 11.8184 5.4530 0.7189 -6.8841 13.6757 54.4770
#
#
#
# Elastic Compliance Matrix: (Units=1/GPa)
#
#
# Indices 1 2 3 4 5 6 
#
# 1 0.010935 -0.002970 -0.001238 0.002122 0.004876 -0.003015
# 2 -0.002970 0.006345 -0.000011 -0.000750 0.001752 -0.000525
# 3 -0.001238 -0.000011 0.015526 -0.005471 0.003316 -0.001459
# 4 0.002122 -0.000750 -0.005471 0.039639 -0.001075 0.004966
# 5 0.004876 0.001752 0.003316 -0.001075 0.029016 -0.008697
# 6 -0.003015 -0.000525 -0.001459 0.004966 -0.008697 0.021893
#
#
# Mechanical properties :
#
#
# Convention : Reuss Voigt Hill
#
# Bulk Modulus (GPa) = 41.03886 63.65124 52.34505
# Shear Modulus (GPa) = 35.73572 45.48891 40.61231
#
# Velocity S-wave (km/s) = 3.93949 4.44469 4.19969
# Velocity P-wave (km/s) = 6.20608 7.34733 6.80069
#
# Compressibility (1/GPa) = 0.02436715
#
# Stress axis : x y z
#
# Youngs Moduli (GPa) = 91.44611 157.60977 64.40737
#
# Poissons Ratio (x) = 0.46818 0.07976
# Poissons Ratio (y) = 0.27164 0.00070
# Poissons Ratio (z) = 0.11324 0.00170
#
# Static dielectric constant tensor:
#      x y z
#    x 1.875280 0.011390 -0.004450 
#    y 0.011390 1.852020 -0.023290 
#    z -0.004450 -0.023290 1.974240 
# 
# From -- ./inp_files/419208.got.cif
#   From: 2010.05.17/outbox.cif.g08.bks.cpg/sg2_210_cif.got.tgz:419208.got - 2010.06.03 11:33:40.
