data_PCOD9042987
_publ_section_title
;
Structure prediction by ZEFSAII (Michael W. Deem and Ramdas Pophale) SiO2 
 PCOD9042987
Probable space group: P -1
;
_chemical_formula_sum "Si O2"
_cell_formula_units_Z 14
_cell_length_a 12.258052
_cell_length_b 7.112413
_cell_length_c 8.212346
_cell_angle_alpha 101.066400
_cell_angle_beta 102.598046
_cell_angle_gamma 74.874306
_cell_volume 667.577495
_symmetry_space_group_name_H-M "P -1"
_symmetry_group_IT_number 2
_symmetry_cell_setting 'triclinic'
loop_
_space_group_symop_operation_xyz
x,y,z
-x,-y,-z
loop_
_atom_site_type_symbol
_atom_site_label
_atom_site_fract_x
_atom_site_fract_y
_atom_site_fract_z
Si Si1 0.258117 0.261941 0.040372
Si Si2 0.881578 0.601413 0.567157
Si Si3 0.105068 0.052947 0.133701
Si Si4 0.487309 0.559635 0.317195
Si Si5 0.503388 0.147796 0.176918
Si Si6 0.332720 0.192287 0.683398
Si Si7 0.217868 0.649016 0.256605
O O1 0.191084 0.095092 0.029175
O O2 0.368542 0.209082 0.190309
O O3 0.192872 0.484358 0.095282
O O4 0.296941 0.255174 0.866729
O O5 0.915377 0.746862 0.736570
O O6 0.781593 0.739413 0.448824
O O7 0.821383 0.437797 0.602752
O O8 0.000000 0.500000 0.500000
O O9 0.153267 0.869069 0.235025
O O10 0.000000 0.000000 0.000000
O O11 0.500000 0.500000 0.500000
O O12 0.526168 0.361941 0.187133
O O13 0.568927 0.702310 0.326578
O O14 0.351715 0.644957 0.270283
O O15 0.597977 0.035477 0.315568
O O16 0.500000 0.000000 0.000000
#
# Coordination Sequence:
#
# PCOD9042987 Si02
#       7
#     2   2   2   2   2   2   2
#     4   9  22  42  66  99 131 170 210 268 323 378
#     4  11  27  45  64  97 132 169 218 273 324 369
#     4  11  26  45  68  91 123 179 225 262 322 386
#     4  11  22  39  66 100 131 169 204 255 337 383
#     4   9  21  40  62  97 133 165 209 255 317 388
#     4  11  23  40  70  96 136 167 211 272 319 383
#     4  10  23  45  67  94 134 167 216 265 320 395
#
# _framework density 20.971347999999999
#
# number of rings (size 3 to 8) (size 9 to 14) (size 15 to 20)
#    0.000    1.714    1.429    0.857    6.000    9.714 
#    0.000    0.000    0.000    0.000    0.000    0.000 
#    0.000    0.000    0.000    0.000    0.000    0.000 
#
# Total GULP energy -78061.541963 kJ/mol
# GULP energy per Si atom -5575.824426 kJ/mol
# Density = 2.092362 g / cm^3
# Si number density = 20.971348 Si / 1000 Ang^3
#
#
#
# Elastic Constant Matrix: (Units=GPa)
#
#
# Indices 1 2 3 4 5 6 
#
# 1 113.5295 35.8179 33.7870 -12.0457 7.6251 3.8154
# 2 35.8179 78.8688 15.3744 -3.4140 0.6801 -8.9316
# 3 33.7870 15.3744 69.2044 -8.7288 -0.2266 -1.7388
# 4 -12.0457 -3.4140 -8.7288 25.7161 3.1827 -3.7273
# 5 7.6251 0.6801 -0.2266 3.1827 38.2850 -0.6580
# 6 3.8154 -8.9316 -1.7388 -3.7273 -0.6580 19.7963
#
#
#
# Elastic Compliance Matrix: (Units=1/GPa)
#
#
# Indices 1 2 3 4 5 6 
#
# 1 0.012506 -0.005124 -0.004680 0.003264 -0.002778 -0.004611
# 2 -0.005124 0.016122 -0.000796 0.000575 0.000825 0.008327
# 3 -0.004680 -0.000796 0.017485 0.003954 0.000770 0.002849
# 4 0.003264 0.000575 0.003954 0.043508 -0.004116 0.008033
# 5 -0.002778 0.000825 0.000770 -0.004116 0.027024 0.001098
# 6 -0.004611 0.008327 0.002849 0.008033 0.001098 0.056959
#
#
# Mechanical properties :
#
#
# Convention : Reuss Voigt Hill
#
# Bulk Modulus (GPa) = 40.14030 47.95124 44.04577
# Shear Modulus (GPa) = 24.61748 28.53435 26.57592
#
# Velocity S-wave (km/s) = 3.42988 3.69268 3.56371
# Velocity P-wave (km/s) = 5.90488 6.41061 6.16293
#
# Compressibility (1/GPa) = 0.02491262
#
# Stress axis : x y z
#
# Youngs Moduli (GPa) = 79.96382 62.02630 57.19301
#
# Poissons Ratio (x) = 0.31782 0.26769
# Poissons Ratio (y) = 0.40973 0.04551
# Poissons Ratio (z) = 0.37426 0.04935
#
# Static dielectric constant tensor:
#      x y z
#    x 1.782000 -0.027130 0.008930 
#    y -0.027130 1.795230 0.003490 
#    z 0.008930 0.003490 1.801730 
# 
# From -- ./inp_files/27100.got.cif
#   From: 2010.05.17/outbox.cif.g08.bks.cpg/sg2_14_cif.got.tgz:27100.got - 2010.06.03 11:33:40.
