data_PCOD9042469
_publ_section_title
;
Structure prediction by ZEFSAII (Michael W. Deem and Ramdas Pophale) SiO2 
 PCOD9042469
Probable space group: P -1
;
_chemical_formula_sum "Si O2"
_cell_formula_units_Z 16
_cell_length_a 9.922025
_cell_length_b 7.210948
_cell_length_c 13.411197
_cell_angle_alpha 137.828456
_cell_angle_beta 89.190598
_cell_angle_gamma 92.089136
_cell_volume 643.638390
_symmetry_space_group_name_H-M "P -1"
_symmetry_group_IT_number 2
_symmetry_cell_setting 'triclinic'
loop_
_space_group_symop_operation_xyz
x,y,z
-x,-y,-z
loop_
_atom_site_type_symbol
_atom_site_label
_atom_site_fract_x
_atom_site_fract_y
_atom_site_fract_z
Si Si1 0.287979 0.042421 0.918928
Si Si2 0.090362 0.270284 0.712982
Si Si3 0.626464 0.328438 0.815171
Si Si4 0.696647 0.047633 0.901924
Si Si5 0.344259 0.054545 0.702938
Si Si6 0.994563 0.252983 0.984120
Si Si7 0.836542 0.897586 0.575622
Si Si8 0.643266 0.531109 0.570241
O O1 0.347020 0.349574 0.062782
O O2 0.325014 0.880862 0.953939
O O3 0.128155 0.082749 0.922785
O O4 0.345245 0.951767 0.776696
O O5 0.023315 0.562754 0.842925
O O6 0.141909 0.218251 0.580887
O O7 0.221130 0.253235 0.773409
O O8 0.984529 0.027097 0.651840
O O9 0.637920 0.250181 0.901354
O O10 0.482074 0.211167 0.735716
O O11 0.739569 0.156130 0.690095
O O12 0.641475 0.744040 0.747039
O O13 0.858972 0.069686 0.895623
O O14 0.321657 0.780177 0.528100
O O15 0.000000 0.500000 0.000000
O O16 0.760467 0.667620 0.552761
O O17 0.500000 0.500000 0.500000
#
# Coordination Sequence:
#
# PCOD9042469 Si02
#       8
#     2   2   2   2   2   2   2   2
#     4  12  26  43  73 107 137 187 235 286 353 420
#     4  11  24  42  73 104 136 187 238 291 351 413
#     4  11  23  49  68  99 149 179 229 295 347 415
#     4  11  25  43  73  99 135 193 231 281 358 417
#     4  12  26  42  70 108 137 183 239 283 355 425
#     4  12  21  46  70  97 149 181 226 301 351 401
#     4  10  23  44  71  98 138 192 228 289 358 406
#     4  11  24  48  68  96 145 185 226 294 351 413
#
# _framework density 24.858678999999999
#
# number of rings (size 3 to 8) (size 9 to 14) (size 15 to 20)
#    0.000    0.750    6.250    1.500    3.500    2.500 
#    0.000    0.000    0.000    0.000    0.000    0.000 
#    0.000    0.000    0.000    0.000    0.000    0.000 
#
# Total GULP energy -89631.082988 kJ/mol
# GULP energy per Si atom -5601.942687 kJ/mol
# Density = 2.480210 g / cm^3
# Si number density = 24.858679 Si / 1000 Ang^3
#
#
#
# Elastic Constant Matrix: (Units=GPa)
#
#
# Indices 1 2 3 4 5 6 
#
# 1 131.0715 6.3820 13.7101 9.5069 19.2839 19.6147
# 2 6.3820 56.3053 3.8146 3.2946 14.8242 1.7858
# 3 13.7101 3.8146 75.0405 7.1130 19.2300 4.9545
# 4 9.5069 3.2946 7.1130 38.7328 8.1976 4.3507
# 5 19.2839 14.8242 19.2300 8.1976 39.5098 11.7147
# 6 19.6147 1.7858 4.9545 4.3507 11.7147 19.8232
#
#
#
# Elastic Compliance Matrix: (Units=1/GPa)
#
#
# Indices 1 2 3 4 5 6 
#
# 1 0.009169 -0.000286 -0.000664 -0.000903 -0.001556 -0.007763
# 2 -0.000286 0.019959 0.001109 -0.000352 -0.008860 0.003520
# 3 -0.000664 0.001109 0.015406 -0.001290 -0.007796 0.001597
# 4 -0.000903 -0.000352 -0.001290 0.027382 -0.003721 -0.002563
# 5 -0.001556 -0.008860 -0.007796 -0.003721 0.039341 -0.018146
# 6 -0.007763 0.003520 0.001597 -0.002563 -0.018146 0.068697
#
#
# Mechanical properties :
#
#
# Convention : Reuss Voigt Hill
#
# Bulk Modulus (GPa) = 22.29519 34.47007 28.38263
# Shear Modulus (GPa) = 25.69568 35.51388 30.60478
#
# Velocity S-wave (km/s) = 3.21856 3.78382 3.51258
# Velocity P-wave (km/s) = 4.77498 5.74337 5.28142
#
# Compressibility (1/GPa) = 0.04485272
#
# Stress axis : x y z
#
# Youngs Moduli (GPa) = 109.06419 50.10238 64.91090
#
# Poissons Ratio (x) = 0.01431 0.04309
# Poissons Ratio (y) = 0.03115 -0.07198
# Poissons Ratio (z) = 0.07240 -0.05556
#
# Static dielectric constant tensor:
#      x y z
#    x 1.935620 0.011010 0.002870 
#    y 0.011010 2.008480 -0.048840 
#    z 0.002870 -0.048840 1.977860 
# 
# From -- ./inp_files/495861.got.cif
#   From: 2010.05.17/outbox.cif.g08.bks.cpg/sg2_248_cif.got.tgz:495861.got - 2010.06.03 11:33:40.
