data_PCOD9042737
_publ_section_title
;
Structure prediction by ZEFSAII (Michael W. Deem and Ramdas Pophale) SiO2 
 PCOD9042737
Probable space group: P -1
;
_chemical_formula_sum "Si O2"
_cell_formula_units_Z 14
_cell_length_a 8.384901
_cell_length_b 4.947722
_cell_length_c 15.792325
_cell_angle_alpha 105.458502
_cell_angle_beta 105.509993
_cell_angle_gamma 107.767217
_cell_volume 556.246139
_symmetry_space_group_name_H-M "P -1"
_symmetry_group_IT_number 2
_symmetry_cell_setting 'triclinic'
loop_
_space_group_symop_operation_xyz
x,y,z
-x,-y,-z
loop_
_atom_site_type_symbol
_atom_site_label
_atom_site_fract_x
_atom_site_fract_y
_atom_site_fract_z
Si Si1 0.140220 0.510290 0.764753
Si Si2 0.377265 0.188620 0.797763
Si Si3 0.377185 0.112771 0.258799
Si Si4 0.841533 0.501777 0.037886
Si Si5 0.440043 0.328544 0.566545
Si Si6 0.656164 0.821692 0.931904
Si Si7 0.222590 0.851888 0.383288
O O1 0.226015 0.265249 0.734394
O O2 0.965169 0.435830 0.675690
O O3 0.277528 0.864506 0.803139
O O4 0.094146 0.453912 0.853035
O O5 0.474142 0.511148 0.888594
O O6 0.537495 0.134700 0.767496
O O7 0.543427 0.417935 0.341061
O O8 0.302639 0.168488 0.162825
O O9 0.239688 0.028397 0.310689
O O10 0.789474 0.761628 0.010912
O O11 0.675296 0.165027 0.979434
O O12 0.000000 0.500000 0.000000
O O13 0.500000 0.500000 0.500000
O O14 0.598587 0.218038 0.600743
O O15 0.254116 0.049988 0.490205
#
# Coordination Sequence:
#
# PCOD9042737 Si02
#       7
#     2   2   2   2   2   2   2
#     4  12  28  45  70 105 150 178 239 300 350 406
#     4  12  26  47  68 105 144 198 230 283 359 423
#     4  11  22  44  76  99 141 188 242 283 345 432
#     4  12  27  45  70 108 140 184 241 296 347 405
#     4   9  21  41  75 106 133 186 238 284 363 421
#     4  12  24  46  70  98 142 192 236 273 354 421
#     4  10  23  44  75 105 140 181 240 298 350 418
#
# _framework density 25.168713
#
# number of rings (size 3 to 8) (size 9 to 14) (size 15 to 20)
#    0.000    0.857    2.857    3.000    6.000    3.429 
#    0.000    1.429    0.000    0.000    0.000    0.000 
#    0.000    0.000    0.000    0.000    0.000    0.000 
#
# Total GULP energy -78225.463586 kJ/mol
# GULP energy per Si atom -5587.533113 kJ/mol
# Density = 2.511143 g / cm^3
# Si number density = 25.168713 Si / 1000 Ang^3
#
#
#
# Elastic Constant Matrix: (Units=GPa)
#
#
# Indices 1 2 3 4 5 6 
#
# 1 39.2804 19.8820 1.9220 11.4743 0.2036 -15.4503
# 2 19.8820 119.5144 28.9294 2.7824 1.0020 -22.5425
# 3 1.9220 28.9294 128.6484 24.6593 4.9106 -10.8480
# 4 11.4743 2.7824 24.6593 48.1704 -2.5903 -0.5047
# 5 0.2036 1.0020 4.9106 -2.5903 35.9625 7.1412
# 6 -15.4503 -22.5425 -10.8480 -0.5047 7.1412 35.7900
#
#
#
# Elastic Compliance Matrix: (Units=1/GPa)
#
#
# Indices 1 2 3 4 5 6 
#
# 1 0.036193 -0.003804 0.003745 -0.010395 -0.004355 0.015086
# 2 -0.003804 0.010316 -0.002136 0.001409 -0.000742 0.004376
# 3 0.003745 -0.002136 0.009713 -0.005834 -0.002427 0.003618
# 4 -0.010395 0.001409 -0.005834 0.026288 0.003855 -0.005766
# 5 -0.004355 -0.000742 -0.002427 0.003855 0.030261 -0.009066
# 6 0.015086 0.004376 0.003618 -0.005766 -0.009066 0.040034
#
#
# Mechanical properties :
#
#
# Convention : Reuss Voigt Hill
#
# Bulk Modulus (GPa) = 19.29230 43.21222 31.25226
# Shear Modulus (GPa) = 28.65816 39.76523 34.21169
#
# Velocity S-wave (km/s) = 3.37804 3.97917 3.69086
# Velocity P-wave (km/s) = 4.78505 6.19015 5.53239
#
# Compressibility (1/GPa) = 0.05183416
#
# Stress axis : x y z
#
# Youngs Moduli (GPa) = 27.62977 96.93959 102.95111
#
# Poissons Ratio (x) = 0.36871 -0.38560
# Poissons Ratio (y) = 0.10509 0.21988
# Poissons Ratio (z) = -0.10349 0.20704
#
# Static dielectric constant tensor:
#      x y z
#    x 2.029930 0.020710 0.004140 
#    y 0.020710 2.054570 0.015950 
#    z 0.004140 0.015950 2.067160 
# 
# From -- ./inp_files/552832.got.cif
#   From: 2010.05.17/outbox.cif.g08.bks.cpg/sg2_277_cif.got.tgz:552832.got - 2010.06.03 11:33:40.
