data_PCOD9042545
_publ_section_title
;
Structure prediction by ZEFSAII (Michael W. Deem and Ramdas Pophale) SiO2 
 PCOD9042545
Probable space group: P -1
;
_chemical_formula_sum "Si O2"
_cell_formula_units_Z 10
_cell_length_a 8.633194
_cell_length_b 5.040498
_cell_length_c 12.589969
_cell_angle_alpha 116.205495
_cell_angle_beta 110.712132
_cell_angle_gamma 58.881959
_cell_volume 415.166004
_symmetry_space_group_name_H-M "P -1"
_symmetry_group_IT_number 2
_symmetry_cell_setting 'triclinic'
loop_
_space_group_symop_operation_xyz
x,y,z
-x,-y,-z
loop_
_atom_site_type_symbol
_atom_site_label
_atom_site_fract_x
_atom_site_fract_y
_atom_site_fract_z
Si Si1 0.297495 0.778866 0.014646
Si Si2 0.963233 0.926156 0.811076
Si Si3 0.067325 0.780844 0.581342
Si Si4 0.523479 0.729990 0.369465
Si Si5 0.334949 0.256600 0.242684
O O1 0.325084 0.110070 0.098759
O O2 0.500000 0.500000 0.000000
O O3 0.161641 0.793587 0.890094
O O4 0.176177 0.793394 0.093878
O O5 0.989598 0.981952 0.705692
O O6 0.860666 0.687146 0.744640
O O7 0.282892 0.574485 0.617885
O O8 0.000000 0.500000 0.500000
O O9 0.000000 0.000000 0.500000
O O10 0.386956 0.556248 0.313332
O O11 0.500000 0.000000 0.500000
O O12 0.482583 0.942146 0.288858
#
# Coordination Sequence:
#
# PCOD9042545 Si02
#       5
#     2   2   2   2   2
#     4   9  19  45  80 110 154 200 255 320 387 456
#     4   9  22  44  75 114 151 196 260 312 385 460
#     4  12  27  48  73 110 157 203 253 321 383 456
#     4  12  25  45  73 108 149 209 255 313 383 459
#     4  10  23  44  72 110 151 191 258 316 381 454
#
# _framework density 24.086752000000001
#
# number of rings (size 3 to 8) (size 9 to 14) (size 15 to 20)
#    1.200    0.400    0.000    4.200    0.000    4.800 
#    0.000   10.000    0.000    0.000    0.000    0.000 
#    0.000    0.000    0.000    0.000    0.000    0.000 
#
# Total GULP energy -55828.547847 kJ/mol
# GULP energy per Si atom -5582.854785 kJ/mol
# Density = 2.403193 g / cm^3
# Si number density = 24.086752 Si / 1000 Ang^3
#
#
#
# Elastic Constant Matrix: (Units=GPa)
#
#
# Indices 1 2 3 4 5 6 
#
# 1 139.5053 93.9049 70.8664 -6.8120 19.9974 -31.7883
# 2 93.9049 177.6500 68.3988 -15.4292 -0.5262 -5.1655
# 3 70.8664 68.3988 153.3668 -21.6300 -10.5243 -10.7536
# 4 -6.8120 -15.4292 -21.6300 29.5835 -6.4475 5.6514
# 5 19.9974 -0.5262 -10.5243 -6.4475 42.6994 3.1291
# 6 -31.7883 -5.1655 -10.7536 5.6514 3.1291 61.2938
#
#
#
# Elastic Compliance Matrix: (Units=1/GPa)
#
#
# Indices 1 2 3 4 5 6 
#
# 1 0.020506 -0.008662 -0.007257 -0.010063 -0.013771 0.010263
# 2 -0.008662 0.010521 0.000168 0.005626 0.005397 -0.004370
# 3 -0.007257 0.000168 0.011396 0.009015 0.007789 -0.002979
# 4 -0.010063 0.005626 0.009015 0.045723 0.014503 -0.008119
# 5 -0.013771 0.005397 0.007789 0.014503 0.034663 -0.008427
# 6 0.010263 -0.004370 -0.002979 -0.008119 -0.008427 0.021925
#
#
# Mechanical properties :
#
#
# Convention : Reuss Voigt Hill
#
# Bulk Modulus (GPa) = 91.56942 104.09580 97.83261
# Shear Modulus (GPa) = 27.79698 42.53880 35.16789
#
# Velocity S-wave (km/s) = 3.40080 4.20702 3.82521
# Velocity P-wave (km/s) = 7.31571 8.17982 7.75980
#
# Compressibility (1/GPa) = 0.01092068
#
# Stress axis : x y z
#
# Youngs Moduli (GPa) = 48.76589 95.05197 87.75181
#
# Poissons Ratio (x) = 0.82332 0.63681
# Poissons Ratio (y) = 0.42240 -0.01473
# Poissons Ratio (z) = 0.35389 -0.01595
#
# Static dielectric constant tensor:
#      x y z
#    x 3.368940 -0.496850 -0.118690 
#    y -0.496850 2.104420 0.030440 
#    z -0.118690 0.030440 1.956950 
# 
# From -- ./inp_files/372235.got.cif
#   From: 2010.05.17/outbox.cif.g08.bks.cpg/sg2_187_cif.got.tgz:372235.got - 2010.06.03 11:33:40.
