data_PCOD9042969
_publ_section_title
;
Structure prediction by ZEFSAII (Michael W. Deem and Ramdas Pophale) SiO2 
 PCOD9042969
Probable space group: P -1
;
_chemical_formula_sum "Si O2"
_cell_formula_units_Z 14
_cell_length_a 9.319183
_cell_length_b 7.979119
_cell_length_c 11.409049
_cell_angle_alpha 123.946826
_cell_angle_beta 86.905941
_cell_angle_gamma 111.822218
_cell_volume 640.206894
_symmetry_space_group_name_H-M "P -1"
_symmetry_group_IT_number 2
_symmetry_cell_setting 'triclinic'
loop_
_space_group_symop_operation_xyz
x,y,z
-x,-y,-z
loop_
_atom_site_type_symbol
_atom_site_label
_atom_site_fract_x
_atom_site_fract_y
_atom_site_fract_z
Si Si1 0.864818 0.345168 0.856582
Si Si2 0.464390 0.713796 0.048231
Si Si3 0.414824 0.516155 0.735929
Si Si4 0.715162 0.420865 0.649768
Si Si5 0.076314 0.122911 0.663534
Si Si6 0.980429 0.286573 0.340628
Si Si7 0.332079 0.802183 0.682277
O O1 0.707884 0.304571 0.919417
O O2 0.808475 0.395329 0.750045
O O3 0.941890 0.178837 0.752176
O O4 0.000000 0.500000 0.000000
O O5 0.574683 0.941001 0.193981
O O6 0.500000 0.500000 0.000000
O O7 0.475022 0.708446 0.906002
O O8 0.546912 0.419063 0.685467
O O9 0.243550 0.328683 0.709405
O O10 0.404864 0.636767 0.663753
O O11 0.688213 0.248059 0.476369
O O12 0.845607 0.657777 0.690348
O O13 0.092900 0.940658 0.675113
O O14 0.000000 0.000000 0.500000
O O15 0.832025 0.270092 0.263635
O O16 0.000000 0.500000 0.500000
#
# Coordination Sequence:
#
# PCOD9042969 Si02
#       7
#     2   2   2   2   2   2   2
#     4  12  27  47  73 104 150 195 244 297 368 438
#     4  12  26  48  70 106 152 195 244 298 367 433
#     4  12  25  47  74 110 149 190 243 305 365 434
#     4  11  25  47  74 108 146 185 250 307 362 428
#     4  12  25  45  78 105 145 195 243 298 362 434
#     4  10  23  45  67 105 145 182 235 300 361 423
#     4  11  25  45  75 105 147 190 244 307 364 430
#
# _framework density 21.867930999999999
#
# number of rings (size 3 to 8) (size 9 to 14) (size 15 to 20)
#    0.000    0.571    2.857    6.000    4.000    0.571 
#    0.000    1.429    0.000    0.000    0.000    0.000 
#    0.000    0.000    0.000    0.000    0.000    0.000 
#
# Total GULP energy -77982.549570 kJ/mol
# GULP energy per Si atom -5570.182112 kJ/mol
# Density = 2.181816 g / cm^3
# Si number density = 21.867931 Si / 1000 Ang^3
#
#
#
# Elastic Constant Matrix: (Units=GPa)
#
#
# Indices 1 2 3 4 5 6 
#
# 1 157.6693 38.8212 43.3011 16.5190 -11.6186 16.2203
# 2 38.8212 61.3082 25.1877 15.3607 -0.4723 -4.2315
# 3 43.3011 25.1877 138.2462 3.6596 1.5735 3.7366
# 4 16.5190 15.3607 3.6596 33.6253 1.0842 6.9238
# 5 -11.6186 -0.4723 1.5735 1.0842 49.0606 -3.7959
# 6 16.2203 -4.2315 3.7366 6.9238 -3.7959 42.1481
#
#
#
# Elastic Compliance Matrix: (Units=1/GPa)
#
#
# Indices 1 2 3 4 5 6 
#
# 1 0.008551 -0.004576 -0.001743 -0.001317 0.001817 -0.003215
# 2 -0.004576 0.023000 -0.002670 -0.009158 -0.000126 0.005800
# 3 -0.001743 -0.002670 0.008256 0.001330 -0.000781 -0.000618
# 4 -0.001317 -0.009158 0.001330 0.035835 -0.001743 -0.006574
# 5 0.001817 -0.000126 -0.000781 -0.001743 0.020994 0.001534
# 6 -0.003215 0.005800 -0.000618 -0.006574 0.001534 0.026819
#
#
# Mechanical properties :
#
#
# Convention : Reuss Voigt Hill
#
# Bulk Modulus (GPa) = 45.81354 63.53818 54.67586
# Shear Modulus (GPa) = 33.62262 41.62771 37.62517
#
# Velocity S-wave (km/s) = 3.92539 4.36776 4.15247
# Velocity P-wave (km/s) = 6.44519 7.38613 6.93164
#
# Compressibility (1/GPa) = 0.02182761
#
# Stress axis : x y z
#
# Youngs Moduli (GPa) = 116.95143 43.47915 121.11875
#
# Poissons Ratio (x) = 0.19896 0.21115
# Poissons Ratio (y) = 0.53518 0.32339
# Poissons Ratio (z) = 0.20389 0.11609
#
# Static dielectric constant tensor:
#      x y z
#    x 1.935300 0.042280 0.114260 
#    y 0.042280 1.818280 -0.072120 
#    z 0.114260 -0.072120 1.808950 
# 
# From -- ./inp_files/383518.got.cif
#   From: 2010.05.17/outbox.cif.g08.bks.cpg/sg2_192_cif.got.tgz:383518.got - 2010.06.03 11:33:40.
