data_PCOD9042129
_publ_section_title
;
Structure prediction by ZEFSAII (Michael W. Deem and Ramdas Pophale) SiO2 
 PCOD9042129
Probable space group: P -1
;
_chemical_formula_sum "Si O2"
_cell_formula_units_Z 16
_cell_length_a 9.330608
_cell_length_b 11.621008
_cell_length_c 9.978356
_cell_angle_alpha 88.378783
_cell_angle_beta 136.720274
_cell_angle_gamma 103.196485
_cell_volume 706.581596
_symmetry_space_group_name_H-M "P -1"
_symmetry_group_IT_number 2
_symmetry_cell_setting 'triclinic'
loop_
_space_group_symop_operation_xyz
x,y,z
-x,-y,-z
loop_
_atom_site_type_symbol
_atom_site_label
_atom_site_fract_x
_atom_site_fract_y
_atom_site_fract_z
Si Si1 0.258867 0.024222 0.496547
Si Si2 0.392985 0.809941 0.467355
Si Si3 0.625547 0.717070 0.865813
Si Si4 0.238630 0.257877 0.759813
Si Si5 0.295912 0.729578 0.983774
Si Si6 0.037320 0.637706 0.064772
Si Si7 0.142023 0.900133 0.680638
Si Si8 0.218771 0.524375 0.731718
O O1 0.439317 0.131995 0.540972
O O2 0.023182 0.048349 0.346535
O O3 0.270905 0.907103 0.425067
O O4 0.296257 0.995619 0.679595
O O5 0.536284 0.788770 0.690565
O O6 0.208615 0.686848 0.301590
O O7 0.417094 0.609712 0.778058
O O8 0.726893 0.790025 0.067574
O O9 0.809534 0.662655 0.936757
O O10 0.251580 0.396415 0.787785
O O11 0.022888 0.192582 0.532030
O O12 0.450986 0.257262 0.819756
O O13 0.264649 0.829516 0.857456
O O14 0.205755 0.600440 0.851763
O O15 0.155151 0.722889 0.019710
O O16 0.000000 0.500000 0.000000
O O17 0.000000 0.500000 0.500000
#
# Coordination Sequence:
#
# PCOD9042129 Si02
#       8
#     2   2   2   2   2   2   2   2
#     4  10  23  44  69  93 129 184 218 279 334 382
#     4  11  25  47  65  92 141 175 223 271 331 394
#     4  11  25  41  67  98 131 181 221 259 340 400
#     4  11  22  40  66  98 132 171 222 274 325 397
#     4  11  23  40  64 100 133 171 226 270 334 395
#     4  12  26  43  67 100 138 174 218 271 333 400
#     4  11  22  42  67  95 131 165 229 283 330 375
#     4  11  22  40  67  96 132 175 212 270 331 389
#
# _framework density 22.644237
#
# number of rings (size 3 to 8) (size 9 to 14) (size 15 to 20)
#    0.000    1.000    1.250    6.750    3.500    0.500 
#    0.000   25.000    0.000    0.000    0.000    0.000 
#    0.000    0.000    0.000    0.000    0.000    0.000 
#
# Total GULP energy -89554.767777 kJ/mol
# GULP energy per Si atom -5597.172986 kJ/mol
# Density = 2.259270 g / cm^3
# Si number density = 22.644237 Si / 1000 Ang^3
#
#
#
# Elastic Constant Matrix: (Units=GPa)
#
#
# Indices 1 2 3 4 5 6 
#
# 1 141.7545 14.1642 31.1320 -8.7871 -2.8201 -5.6422
# 2 14.1642 87.7001 31.8416 -0.6374 -2.5612 -8.4255
# 3 31.1320 31.8416 93.4646 -4.9603 4.6975 11.6394
# 4 -8.7871 -0.6374 -4.9603 43.2888 -0.9127 -1.8403
# 5 -2.8201 -2.5612 4.6975 -0.9127 27.8295 -0.9374
# 6 -5.6422 -8.4255 11.6394 -1.8403 -0.9374 38.7223
#
#
#
# Elastic Compliance Matrix: (Units=1/GPa)
#
#
# Indices 1 2 3 4 5 6 
#
# 1 0.007887 0.000035 -0.002901 0.001389 0.001410 0.002129
# 2 0.000035 0.013902 -0.005463 -0.000164 0.002359 0.004721
# 3 -0.002901 -0.005463 0.014483 0.000662 -0.003422 -0.006016
# 4 0.001389 -0.000164 0.000662 0.023520 0.000823 0.001105
# 5 0.001410 0.002359 -0.003422 0.000823 0.036988 0.002682
# 6 0.002129 0.004721 -0.006016 0.001105 0.002682 0.029088
#
#
# Mechanical properties :
#
#
# Convention : Reuss Voigt Hill
#
# Bulk Modulus (GPa) = 50.98457 53.02166 52.00312
# Shear Modulus (GPa) = 33.54255 38.35354 35.94804
#
# Velocity S-wave (km/s) = 3.85292 4.11998 3.98868
# Velocity P-wave (km/s) = 6.50828 6.78957 6.65041
#
# Compressibility (1/GPa) = 0.01961378
#
# Stress axis : x y z
#
# Youngs Moduli (GPa) = 126.79051 71.93459 69.04559
#
# Poissons Ratio (x) = -0.00255 0.20033
# Poissons Ratio (y) = -0.00449 0.37720
# Poissons Ratio (z) = 0.36787 0.39298
#
# Static dielectric constant tensor:
#      x y z
#    x 1.830820 0.005050 -0.021360 
#    y 0.005050 1.872060 0.028600 
#    z -0.021360 0.028600 1.849350 
# 
# From -- ./inp_files/188075.got.cif
#   From: 2010.05.17/outbox.cif.g08.bks.cpg/sg2_95_cif.got.tgz:188075.got - 2010.06.03 11:33:40.
