data_PCOD9042755
_publ_section_title
;
Structure prediction by ZEFSAII (Michael W. Deem and Ramdas Pophale) SiO2 
 PCOD9042755
Probable space group: P -1
;
_chemical_formula_sum "Si O2"
_cell_formula_units_Z 16
_cell_length_a 11.584439
_cell_length_b 15.172576
_cell_length_c 7.246230
_cell_angle_alpha 96.131221
_cell_angle_beta 55.826641
_cell_angle_gamma 51.468283
_cell_volume 584.041632
_symmetry_space_group_name_H-M "P -1"
_symmetry_group_IT_number 2
_symmetry_cell_setting 'triclinic'
loop_
_space_group_symop_operation_xyz
x,y,z
-x,-y,-z
loop_
_atom_site_type_symbol
_atom_site_label
_atom_site_fract_x
_atom_site_fract_y
_atom_site_fract_z
Si Si1 0.950709 0.652151 0.579842
Si Si2 0.219211 0.349164 0.639983
Si Si3 0.569974 0.094682 0.767585
Si Si4 0.497176 0.417119 0.120674
Si Si5 0.397369 0.439444 0.605340
Si Si6 0.195158 0.082097 0.118895
Si Si7 0.176691 0.188648 0.769161
Si Si8 0.242013 0.813367 0.455222
O O1 0.903014 0.619043 0.434606
O O2 0.917588 0.776488 0.626291
O O3 0.239014 0.498366 0.343817
O O4 0.731959 0.738227 0.936971
O O5 0.399226 0.338220 0.490684
O O6 0.320208 0.205384 0.606299
O O7 0.000000 0.500000 0.000000
O O8 0.708549 0.941139 0.507384
O O9 0.704205 0.111779 0.580372
O O10 0.598187 0.062951 0.957011
O O11 0.511121 0.433025 0.327054
O O12 0.500000 0.500000 0.000000
O O13 0.715846 0.241359 0.805213
O O14 0.443150 0.660662 0.376408
O O15 0.116853 0.625897 0.936168
O O16 0.021340 0.089597 0.234674
O O17 0.213076 0.123375 0.918407
#
# Coordination Sequence:
#
# PCOD9042755 Si02
#       8
#     2   2   2   2   2   2   2   2
#     4  12  25  51  79 116 153 207 266 321 388 474
#     4  10  23  44  75 114 156 194 252 330 387 450
#     4  12  30  51  78 117 163 212 266 324 390 471
#     4  12  25  50  81 114 158 203 259 328 402 463
#     4  11  26  47  76 122 156 198 265 329 394 469
#     4  12  27  52  77 117 158 213 266 318 391 483
#     4  11  25  48  80 112 160 206 262 323 396 458
#     4  12  29  50  81 116 162 209 260 328 402 461
#
# _framework density 27.395308
#
# number of rings (size 3 to 8) (size 9 to 14) (size 15 to 20)
#    0.000    0.500    3.750    3.000    1.750   10.000 
#    0.000    0.000    0.000    0.000    0.000    0.000 
#    0.000    0.000    0.000    0.000    0.000    0.000 
#
# Total GULP energy -89578.519944 kJ/mol
# GULP energy per Si atom -5598.657496 kJ/mol
# Density = 2.733296 g / cm^3
# Si number density = 27.395308 Si / 1000 Ang^3
#
#
#
# Elastic Constant Matrix: (Units=GPa)
#
#
# Indices 1 2 3 4 5 6 
#
# 1 138.2945 46.9376 69.9862 -16.8056 10.2152 6.0835
# 2 46.9376 148.1920 73.2840 -20.0395 -2.2277 10.1166
# 3 69.9862 73.2840 90.2501 -16.2518 18.8178 -1.2858
# 4 -16.8056 -20.0395 -16.2518 41.6186 -2.7220 -0.8229
# 5 10.2152 -2.2277 18.8178 -2.7220 56.4009 -14.7449
# 6 6.0835 10.1166 -1.2858 -0.8229 -14.7449 65.2417
#
#
#
# Elastic Compliance Matrix: (Units=1/GPa)
#
#
# Indices 1 2 3 4 5 6 
#
# 1 0.012392 0.001933 -0.011173 0.001629 0.001281 -0.001365
# 2 0.001933 0.012634 -0.012180 0.002337 0.003944 -0.001458
# 3 -0.011173 -0.012180 0.031704 0.001478 -0.008534 0.001645
# 4 0.001629 0.002337 0.001478 0.026425 0.000574 -0.000022
# 5 0.001281 0.003944 -0.008534 0.000574 0.021570 0.003983
# 6 -0.001365 -0.001458 0.001645 -0.000022 0.003983 0.016613
#
#
# Mechanical properties :
#
#
# Convention : Reuss Voigt Hill
#
# Bulk Modulus (GPa) = 71.99394 84.12802 78.06098
# Shear Modulus (GPa) = 29.61941 45.08751 37.35346
#
# Velocity S-wave (km/s) = 3.29171 4.06126 3.69656
# Velocity P-wave (km/s) = 6.38622 7.26412 6.83927
#
# Compressibility (1/GPa) = 0.01389006
#
# Stress axis : x y z
#
# Youngs Moduli (GPa) = 80.69470 79.15164 31.54212
#
# Poissons Ratio (x) = -0.15297 0.35241
# Poissons Ratio (y) = -0.15596 0.38419
# Poissons Ratio (z) = 0.90157 0.96407
#
# Static dielectric constant tensor:
#      x y z
#    x 2.227070 0.026820 0.002270 
#    y 0.026820 2.209280 -0.053050 
#    z 0.002270 -0.053050 2.154610 
# 
# From -- ./inp_files/267756.got.cif
#   From: 2010.05.17/outbox.cif.g08.bks.cpg/sg2_134_cif.got.tgz:267756.got - 2010.06.03 11:33:40.
