data_PCOD9042218
_publ_section_title
;
Structure prediction by ZEFSAII (Michael W. Deem and Ramdas Pophale) SiO2 
 PCOD9042218
Probable space group: P -1
;
_chemical_formula_sum "Si O2"
_cell_formula_units_Z 16
_cell_length_a 9.482373
_cell_length_b 9.289443
_cell_length_c 14.380293
_cell_angle_alpha 43.890141
_cell_angle_beta 118.375568
_cell_angle_gamma 103.883976
_cell_volume 761.668828
_symmetry_space_group_name_H-M "P -1"
_symmetry_group_IT_number 2
_symmetry_cell_setting 'triclinic'
loop_
_space_group_symop_operation_xyz
x,y,z
-x,-y,-z
loop_
_atom_site_type_symbol
_atom_site_label
_atom_site_fract_x
_atom_site_fract_y
_atom_site_fract_z
Si Si1 0.436026 0.944340 0.607113
Si Si2 0.637004 0.598115 0.948595
Si Si3 0.742556 0.932119 0.944958
Si Si4 0.006482 0.048066 0.837537
Si Si5 0.552126 0.723918 0.387782
Si Si6 0.906261 0.524813 0.554320
Si Si7 0.106785 0.771741 0.639198
Si Si8 0.915025 0.318761 0.106511
O O1 0.408898 0.155876 0.561901
O O2 0.500000 0.000000 0.500000
O O3 0.582406 0.795232 0.773355
O O4 0.282024 0.819305 0.632759
O O5 0.707575 0.703804 0.011712
O O6 0.500000 0.500000 0.000000
O O7 0.727304 0.419522 0.991131
O O8 0.588851 0.116121 0.786002
O O9 0.817052 0.949110 0.062670
O O10 0.896103 0.940104 0.922349
O O11 0.905299 0.282607 0.692272
O O12 0.027421 0.906666 0.817069
O O13 0.500000 0.500000 0.500000
O O14 0.728152 0.662914 0.423098
O O15 0.000000 0.500000 0.500000
O O16 0.017584 0.626239 0.613817
O O17 0.087355 0.696258 0.774961
O O18 0.000000 0.000000 0.500000
O O19 0.000000 0.500000 0.000000
#
# Coordination Sequence:
#
# PCOD9042218 Si02
#       8
#     2   2   2   2   2   2   2   2
#     4  11  27  45  73 104 138 188 240 298 362 423
#     4  11  23  45  69  98 143 181 233 296 356 419
#     4  10  23  44  70 101 140 183 236 300 349 431
#     4  11  24  43  71 104 139 184 242 289 365 424
#     4  11  24  45  70 103 145 183 238 296 356 429
#     4  12  27  45  73 103 147 194 232 298 368 427
#     4  12  26  47  72 105 145 183 244 298 354 435
#     4  12  26  44  74 105 139 189 243 295 356 430
#
# _framework density 21.006502999999999
#
# number of rings (size 3 to 8) (size 9 to 14) (size 15 to 20)
#    0.000    0.750    5.000    1.500    5.250    1.000 
#    0.000    1.250    0.000    0.000    0.000    0.000 
#    0.000    0.000    0.000    0.000    0.000    0.000 
#
# Total GULP energy -89127.633139 kJ/mol
# GULP energy per Si atom -5570.477071 kJ/mol
# Density = 2.095869 g / cm^3
# Si number density = 21.006503 Si / 1000 Ang^3
#
#
#
# Elastic Constant Matrix: (Units=GPa)
#
#
# Indices 1 2 3 4 5 6 
#
# 1 106.0037 35.6497 14.6116 9.1077 0.9440 -12.6511
# 2 35.6497 115.0255 25.5205 -10.7624 1.5641 -9.2887
# 3 14.6116 25.5205 62.2227 -2.4479 4.1547 -12.4409
# 4 9.1077 -10.7624 -2.4479 36.9383 -5.1810 -0.9018
# 5 0.9440 1.5641 4.1547 -5.1810 47.9936 -7.3535
# 6 -12.6511 -9.2887 -12.4409 -0.9018 -7.3535 39.2233
#
#
#
# Elastic Compliance Matrix: (Units=1/GPa)
#
#
# Indices 1 2 3 4 5 6 
#
# 1 0.011348 -0.003477 -0.000894 -0.003820 -0.000069 0.002452
# 2 -0.003477 0.010938 -0.003438 0.003903 0.000517 0.000565
# 3 -0.000894 -0.003438 0.018698 0.000472 -0.000717 0.004705
# 4 -0.003820 0.003903 0.000472 0.029671 0.003285 0.001140
# 5 -0.000069 0.000517 -0.000717 0.003285 0.021857 0.004046
# 6 0.002452 0.000565 0.004705 0.001140 0.004046 0.028697
#
#
# Mechanical properties :
#
#
# Convention : Reuss Voigt Hill
#
# Bulk Modulus (GPa) = 39.42215 48.31285 43.86750
# Shear Modulus (GPa) = 34.41585 38.66237 36.53911
#
# Velocity S-wave (km/s) = 4.05204 4.29475 4.17516
# Velocity P-wave (km/s) = 6.37961 6.90233 6.64611
#
# Compressibility (1/GPa) = 0.02536645
#
# Stress axis : x y z
#
# Youngs Moduli (GPa) = 88.12324 91.42572 53.48076
#
# Poissons Ratio (x) = 0.31790 0.04781
# Poissons Ratio (y) = 0.30641 0.18385
# Poissons Ratio (z) = 0.07878 0.31429
#
# Static dielectric constant tensor:
#      x y z
#    x 1.744020 0.016770 0.308530 
#    y 0.016770 1.740330 -0.200450 
#    z 0.308530 -0.200450 1.693830 
# 
# From -- ./inp_files/320757.got.cif
#   From: 2010.05.17/outbox.cif.g08.bks.cpg/sg2_161_cif.got.tgz:320757.got - 2010.06.03 11:33:40.
