data_PCOD9042761
_publ_section_title
;
Structure prediction by ZEFSAII (Michael W. Deem and Ramdas Pophale) SiO2 
 PCOD9042761
Probable space group: P -1
;
_chemical_formula_sum "Si O2"
_cell_formula_units_Z 16
_cell_length_a 9.807862
_cell_length_b 9.123766
_cell_length_c 14.938543
_cell_angle_alpha 78.179983
_cell_angle_beta 141.512353
_cell_angle_gamma 115.504791
_cell_volume 729.768178
_symmetry_space_group_name_H-M "P -1"
_symmetry_group_IT_number 2
_symmetry_cell_setting 'triclinic'
loop_
_space_group_symop_operation_xyz
x,y,z
-x,-y,-z
loop_
_atom_site_type_symbol
_atom_site_label
_atom_site_fract_x
_atom_site_fract_y
_atom_site_fract_z
Si Si1 0.277369 0.398812 0.586234
Si Si2 0.622718 0.690549 0.840646
Si Si3 0.152421 0.582914 0.734363
Si Si4 0.548356 0.791376 0.445320
Si Si5 0.005325 0.719443 0.182866
Si Si6 0.989618 0.076824 0.580587
Si Si7 0.181574 0.102904 0.248549
Si Si8 0.216530 0.894479 0.848957
O O1 0.519559 0.537846 0.736972
O O2 0.346964 0.307925 0.552067
O O3 0.092354 0.464654 0.442903
O O4 0.128750 0.271350 0.606195
O O5 0.391370 0.665589 0.785179
O O6 0.722190 0.850924 0.807800
O O7 0.832760 0.693039 0.012665
O O8 0.135231 0.422780 0.798807
O O9 0.167084 0.724652 0.794235
O O10 0.620532 0.794271 0.586256
O O11 0.261833 0.717340 0.293926
O O12 0.705072 0.987193 0.473636
O O13 0.085685 0.905575 0.237470
O O14 0.000000 0.000000 0.500000
O O15 0.127120 0.005701 0.727045
O O16 0.950615 0.140592 0.144545
O O17 0.500000 0.000000 0.000000
#
# Coordination Sequence:
#
# PCOD9042761 Si02
#       8
#     2   2   2   2   2   2   2   2
#     4  11  24  44  73 108 143 185 244 294 349 424
#     4  12  29  44  72 106 151 181 237 296 361 421
#     4  12  26  48  71 105 144 190 239 290 357 424
#     4  10  23  44  75  99 143 184 242 286 353 423
#     4  12  28  45  72 106 147 186 231 299 366 415
#     4   9  19  40  66 101 134 180 230 282 338 417
#     4  11  25  49  72 103 142 190 240 287 356 431
#     4  11  24  43  76 102 143 190 237 292 354 418
#
# _framework density 21.924769000000001
#
# number of rings (size 3 to 8) (size 9 to 14) (size 15 to 20)
#    0.000    1.000    3.750    3.000    8.750    3.500 
#    0.000    0.000    0.000    0.000    0.000    0.000 
#    0.000    0.000    0.000    0.000    0.000    0.000 
#
# Total GULP energy -89479.664917 kJ/mol
# GULP energy per Si atom -5592.479057 kJ/mol
# Density = 2.187487 g / cm^3
# Si number density = 21.924769 Si / 1000 Ang^3
#
#
#
# Elastic Constant Matrix: (Units=GPa)
#
#
# Indices 1 2 3 4 5 6 
#
# 1 129.8410 36.9386 44.7026 -14.5321 8.8118 15.9163
# 2 36.9386 90.7123 9.1219 -8.5312 -13.7898 3.4215
# 3 44.7026 9.1219 119.2264 3.2040 13.1468 -10.2899
# 4 -14.5321 -8.5312 3.2040 25.0627 6.2426 -5.8644
# 5 8.8118 -13.7898 13.1468 6.2426 29.4888 1.8192
# 6 15.9163 3.4215 -10.2899 -5.8644 1.8192 25.2148
#
#
#
# Elastic Compliance Matrix: (Units=1/GPa)
#
#
# Indices 1 2 3 4 5 6 
#
# 1 0.012409 -0.004456 -0.004616 0.005630 -0.004464 -0.007481
# 2 -0.004456 0.014095 -0.000268 0.000337 0.007953 0.000295
# 3 -0.004616 -0.000268 0.011256 -0.001482 -0.003912 0.007481
# 4 0.005630 0.000337 -0.001482 0.048177 -0.011546 0.007834
# 5 -0.004464 0.007953 -0.003912 -0.011546 0.043503 -0.005682
# 6 -0.007481 0.000295 0.007481 0.007834 -0.005682 0.049626
#
#
# Mechanical properties :
#
#
# Convention : Reuss Voigt Hill
#
# Bulk Modulus (GPa) = 52.41490 57.92286 55.16888
# Shear Modulus (GPa) = 24.49717 32.55436 28.52576
#
# Velocity S-wave (km/s) = 3.34627 3.85752 3.61095
# Velocity P-wave (km/s) = 6.23608 6.80565 6.52708
#
# Compressibility (1/GPa) = 0.01907854
#
# Stress axis : x y z
#
# Youngs Moduli (GPa) = 80.58875 70.94880 88.84457
#
# Poissons Ratio (x) = 0.31612 0.41013
# Poissons Ratio (y) = 0.35907 0.02384
# Poissons Ratio (z) = 0.37202 0.01903
#
# Static dielectric constant tensor:
#      x y z
#    x 1.840510 0.029830 -0.003960 
#    y 0.029830 1.851860 0.013300 
#    z -0.003960 0.013300 1.764280 
# 
# From -- ./inp_files/494999.got.cif
#   From: 2010.05.17/outbox.cif.g08.bks.cpg/sg2_248_cif.got.tgz:494999.got - 2010.06.03 11:33:40.
