data_PCOD9042234
_publ_section_title
;
Structure prediction by ZEFSAII (Michael W. Deem and Ramdas Pophale) SiO2 
 PCOD9042234
Probable space group: P -1
;
_chemical_formula_sum "Si O2"
_cell_formula_units_Z 10
_cell_length_a 10.218792
_cell_length_b 6.512176
_cell_length_c 9.479042
_cell_angle_alpha 126.741578
_cell_angle_beta 137.586008
_cell_angle_gamma 58.107545
_cell_volume 336.528058
_symmetry_space_group_name_H-M "P -1"
_symmetry_group_IT_number 2
_symmetry_cell_setting 'triclinic'
loop_
_space_group_symop_operation_xyz
x,y,z
-x,-y,-z
loop_
_atom_site_type_symbol
_atom_site_label
_atom_site_fract_x
_atom_site_fract_y
_atom_site_fract_z
Si Si1 0.754051 0.629334 0.751703
Si Si2 0.655607 0.474460 0.919178
Si Si3 0.263777 0.816740 0.667553
Si Si4 0.953222 0.114461 0.187184
Si Si5 0.618592 0.950396 0.401033
O O1 0.755132 0.507532 0.859681
O O2 0.795838 0.402759 0.575907
O O3 0.531907 0.778848 0.607373
O O4 0.116070 0.139863 0.040378
O O5 0.473094 0.710469 0.861691
O O6 0.519241 0.253617 0.752114
O O7 0.830609 0.374618 0.127680
O O8 0.116906 0.885617 0.706524
O O9 0.292868 0.053849 0.687078
O O10 0.188325 0.089218 0.365610
#
# Coordination Sequence:
#
# PCOD9042234 Si02
#       5
#     2   2   2   2   2
#     4  10  25  48  70  98 142 187 227 283 354 417
#     4  10  23  44  71 101 138 183 231 285 348 414
#     4  11  24  46  71  99 143 185 225 288 354 411
#     4  11  25  45  72 103 136 182 237 286 342 416
#     4  10  23  44  70 102 140 179 231 291 343 411
#
# _framework density 29.715204
#
# number of rings (size 3 to 8) (size 9 to 14) (size 15 to 20)
#    0.000    1.600    0.000    3.600    0.000   20.800 
#    0.000   11.000    0.000    1.200    0.000    0.000 
#    0.000    0.000    0.000    0.000    0.000    0.000 
#
# Total GULP energy -56148.919541 kJ/mol
# GULP energy per Si atom -5614.891954 kJ/mol
# Density = 2.964757 g / cm^3
# Si number density = 29.715204 Si / 1000 Ang^3
#
#
#
# Elastic Constant Matrix: (Units=GPa)
#
#
# Indices 1 2 3 4 5 6 
#
# 1 156.3464 53.5794 97.6906 -24.5470 -0.2522 7.8395
# 2 53.5794 136.1865 62.6460 -33.2573 16.2760 9.3199
# 3 97.6906 62.6460 180.8275 -36.9440 11.7944 1.3545
# 4 -24.5470 -33.2573 -36.9440 69.4085 -4.3086 -4.1077
# 5 -0.2522 16.2760 11.7944 -4.3086 78.3426 -6.5064
# 6 7.8395 9.3199 1.3545 -4.1077 -6.5064 69.9566
#
#
#
# Elastic Compliance Matrix: (Units=1/GPa)
#
#
# Indices 1 2 3 4 5 6 
#
# 1 0.010118 -0.001779 -0.004885 0.000153 0.001089 -0.000692
# 2 -0.001779 0.009843 -0.001715 0.003005 -0.001715 -0.001062
# 3 -0.004885 -0.001715 0.009303 0.002387 -0.000874 0.000655
# 4 0.000153 0.003005 0.002387 0.017205 0.000009 0.000547
# 5 0.001089 -0.001715 -0.000874 0.000009 0.013370 0.001367
# 6 -0.000692 -0.001062 0.000655 0.000547 0.001367 0.014660
#
#
# Mechanical properties :
#
#
# Convention : Reuss Voigt Hill
#
# Bulk Modulus (GPa) = 79.95768 100.13250 90.04509
# Shear Modulus (GPa) = 52.39650 60.83784 56.61717
#
# Velocity S-wave (km/s) = 4.20371 4.52969 4.36974
# Velocity P-wave (km/s) = 7.10830 7.81844 7.47181
#
# Compressibility (1/GPa) = 0.01250662
#
# Stress axis : x y z
#
# Youngs Moduli (GPa) = 98.83120 101.59106 107.49345
#
# Poissons Ratio (x) = 0.18077 0.52505
# Poissons Ratio (y) = 0.17586 0.18436
# Poissons Ratio (z) = 0.48274 0.17424
#
# Static dielectric constant tensor:
#      x y z
#    x 2.307290 0.041250 -0.040550 
#    y 0.041250 2.329610 0.129870 
#    z -0.040550 0.129870 2.347400 
# 
# From -- ./inp_files/275249.got.cif
#   From: 2010.05.17/outbox.cif.g08.bks.cpg/sg2_138_cif.got.tgz:275249.got - 2010.06.03 11:33:40.
