data_PCOD9042085
_publ_section_title
;
Structure prediction by ZEFSAII (Michael W. Deem and Ramdas Pophale) SiO2 
 PCOD9042085
Probable space group: P -1
;
_chemical_formula_sum "Si O2"
_cell_formula_units_Z 16
_cell_length_a 6.776821
_cell_length_b 26.656904
_cell_length_c 14.917226
_cell_angle_alpha 160.046637
_cell_angle_beta 66.480803
_cell_angle_gamma 122.604967
_cell_volume 718.544800
_symmetry_space_group_name_H-M "P -1"
_symmetry_group_IT_number 2
_symmetry_cell_setting 'triclinic'
loop_
_space_group_symop_operation_xyz
x,y,z
-x,-y,-z
loop_
_atom_site_type_symbol
_atom_site_label
_atom_site_fract_x
_atom_site_fract_y
_atom_site_fract_z
Si Si1 0.266007 0.477521 0.252387
Si Si2 0.251860 0.543908 0.176750
Si Si3 0.659737 0.603196 0.710707
Si Si4 0.189997 0.622564 0.728523
Si Si5 0.003165 0.907325 0.042978
Si Si6 0.029647 0.786409 0.644903
Si Si7 0.183634 0.281362 0.618101
Si Si8 0.466099 0.866734 0.929756
O O1 0.278937 0.446160 0.093549
O O2 0.401910 0.431683 0.229574
O O3 0.372847 0.682720 0.589818
O O4 0.962612 0.376309 0.155880
O O5 0.129586 0.655229 0.411585
O O6 0.544978 0.672118 0.316080
O O7 0.119030 0.408730 0.893809
O O8 0.607534 0.437254 0.363448
O O9 0.915655 0.575035 0.632728
O O10 0.830832 0.795095 0.966328
O O11 0.396621 0.793342 0.921920
O O12 0.003951 0.081089 0.333028
O O13 0.922551 0.808270 0.795155
O O14 0.275767 0.929797 0.044586
O O15 0.829728 0.711447 0.474643
O O16 0.263494 0.977059 0.892062
#
# Coordination Sequence:
#
# PCOD9042085 Si02
#       8
#     2   2   2   2   2   2   2   2
#     4  10  18  36  59  80 110 158 194 222 294 353
#     4  11  23  44  59  78 121 165 191 234 297 349
#     4  10  20  30  54  90 121 142 181 247 292 335
#     4   8  15  31  50  80 109 143 186 220 278 343
#     4  12  20  38  58  92 118 145 194 247 293 338
#     4  12  23  38  64  85 115 156 197 241 292 345
#     4  11  27  38  57  90 119 150 200 245 285 349
#     4  10  17  33  58  86 112 146 188 242 290 333
#
# _framework density 22.267227999999999
#
# number of rings (size 3 to 8) (size 9 to 14) (size 15 to 20)
#    0.000    1.750    6.250    1.875    5.250    0.000 
#    0.000    0.625    0.000    0.750    0.000    0.000 
#    0.000    0.000    0.000    0.000    0.000    0.000 
#
# Total GULP energy -89094.416254 kJ/mol
# GULP energy per Si atom -5568.401016 kJ/mol
# Density = 2.221655 g / cm^3
# Si number density = 22.267228 Si / 1000 Ang^3
#
#
#
# Elastic Constant Matrix: (Units=GPa)
#
#
# Indices 1 2 3 4 5 6 
#
# 1 93.5339 4.5423 13.0853 4.3957 -5.1140 -19.6096
# 2 4.5423 90.4435 44.7282 7.3938 -1.0282 -15.8565
# 3 13.0853 44.7282 87.7628 -3.1823 -5.8166 -17.9963
# 4 4.3957 7.3938 -3.1823 20.9421 -4.2862 -2.5283
# 5 -5.1140 -1.0282 -5.8166 -4.2862 20.6751 9.2988
# 6 -19.6096 -15.8565 -17.9963 -2.5283 9.2988 38.1086
#
#
#
# Elastic Compliance Matrix: (Units=1/GPa)
#
#
# Indices 1 2 3 4 5 6 
#
# 1 0.012202 0.001362 -0.001386 -0.002636 -0.000625 0.006169
# 2 0.001362 0.016418 -0.008294 -0.007793 -0.004706 0.004247
# 3 -0.001386 -0.008294 0.017039 0.007030 0.003976 0.003379
# 4 -0.002636 -0.007793 0.007030 0.054612 0.012587 -0.000727
# 5 -0.000625 -0.004706 0.003976 0.012587 0.057862 -0.013686
# 6 0.006169 0.004247 0.003379 -0.000727 -0.013686 0.036069
#
#
# Mechanical properties :
#
#
# Convention : Reuss Voigt Hill
#
# Bulk Modulus (GPa) = 34.45365 44.05020 39.25192
# Shear Modulus (GPa) = 22.67440 29.90410 26.28925
#
# Velocity S-wave (km/s) = 3.19452 3.66862 3.43975
# Velocity P-wave (km/s) = 5.39565 6.14577 5.78289
#
# Compressibility (1/GPa) = 0.02902450
#
# Stress axis : x y z
#
# Youngs Moduli (GPa) = 81.95351 60.90792 58.68753
#
# Poissons Ratio (x) = -0.08298 0.08132
# Poissons Ratio (y) = -0.11165 0.48677
# Poissons Ratio (z) = 0.11356 0.50519
#
# Static dielectric constant tensor:
#      x y z
#    x 2.011960 -0.031640 0.030970 
#    y -0.031640 1.829520 -0.010100 
#    z 0.030970 -0.010100 1.783110 
# 
# From -- ./inp_files/508933.got.cif
#   From: 2010.05.17/outbox.cif.g08.bks.cpg/sg2_255_cif.got.tgz:508933.got - 2010.06.03 11:33:40.
