data_PCOD9042660
_publ_section_title
;
Structure prediction by ZEFSAII (Michael W. Deem and Ramdas Pophale) SiO2 
 PCOD9042660
Probable space group: P -1
;
_chemical_formula_sum "Si O2"
_cell_formula_units_Z 16
_cell_length_a 14.050357
_cell_length_b 13.755437
_cell_length_c 12.191592
_cell_angle_alpha 148.020604
_cell_angle_beta 42.647614
_cell_angle_gamma 146.763225
_cell_volume 681.216301
_symmetry_space_group_name_H-M "P -1"
_symmetry_group_IT_number 2
_symmetry_cell_setting 'triclinic'
loop_
_space_group_symop_operation_xyz
x,y,z
-x,-y,-z
loop_
_atom_site_type_symbol
_atom_site_label
_atom_site_fract_x
_atom_site_fract_y
_atom_site_fract_z
Si Si1 0.935951 0.012774 0.186644
Si Si2 0.551065 0.749656 0.192261
Si Si3 0.098692 0.363992 0.988039
Si Si4 0.957686 0.513368 0.423214
Si Si5 0.273786 0.891340 0.041420
Si Si6 0.572859 0.225977 0.456203
Si Si7 0.494302 0.691832 0.627001
Si Si8 0.463523 0.783508 0.054754
O O1 0.742086 0.933336 0.251848
O O2 0.924811 0.842277 0.121252
O O3 0.046140 0.270987 0.379721
O O4 0.000000 0.000000 0.000000
O O5 0.432430 0.748579 0.385126
O O6 0.537621 0.779669 0.105165
O O7 0.500000 0.500000 0.000000
O O8 0.288652 0.537215 0.939614
O O9 0.090751 0.514622 0.232672
O O10 0.931280 0.262261 0.955384
O O11 0.766895 0.297366 0.343314
O O12 0.000000 0.500000 0.500000
O O13 0.350951 0.740828 0.832431
O O14 0.389104 0.089039 0.040739
O O15 0.328238 0.056556 0.257767
O O16 0.543214 0.364593 0.525687
O O17 0.430228 0.970380 0.292902
O O18 0.500000 0.500000 0.500000
#
# Coordination Sequence:
#
# PCOD9042660 Si02
#       8
#     2   2   2   2   2   2   2   2
#     4  12  24  38  61  95 137 185 226 270 335 409
#     4  12  23  39  61 100 140 173 225 272 338 413
#     4  12  23  41  67 100 131 180 225 280 344 397
#     4  12  22  40  64  93 139 177 220 275 336 407
#     4  10  24  46  69  99 133 174 235 283 338 402
#     4  11  24  44  66  98 134 182 222 279 344 402
#     4  10  23  44  73  96 129 183 231 282 341 397
#     4  11  22  43  68  98 140 179 221 279 340 412
#
# _framework density 23.487400999999998
#
# number of rings (size 3 to 8) (size 9 to 14) (size 15 to 20)
#    0.000    0.750    5.000    4.125    3.500    0.000 
#    0.000    5.625    0.000    4.500    0.000    0.000 
#    0.000    0.000    0.000    0.000    0.000    0.000 
#
# Total GULP energy -89353.709008 kJ/mol
# GULP energy per Si atom -5584.606813 kJ/mol
# Density = 2.343394 g / cm^3
# Si number density = 23.487401 Si / 1000 Ang^3
#
#
#
# Elastic Constant Matrix: (Units=GPa)
#
#
# Indices 1 2 3 4 5 6 
#
# 1 141.8553 26.6435 6.9093 21.6690 -5.7170 1.5345
# 2 26.6435 83.2877 15.0931 20.5818 -7.1882 10.4198
# 3 6.9093 15.0931 69.1722 26.0479 -4.5264 -6.1288
# 4 21.6690 20.5818 26.0479 37.0158 -4.7995 0.7077
# 5 -5.7170 -7.1882 -4.5264 -4.7995 39.4114 9.0136
# 6 1.5345 10.4198 -6.1288 0.7077 9.0136 46.3293
#
#
#
# Elastic Compliance Matrix: (Units=1/GPa)
#
#
# Indices 1 2 3 4 5 6 
#
# 1 0.008024 -0.001658 0.001382 -0.004704 0.000382 0.000288
# 2 -0.001658 0.014952 -0.000892 -0.006320 0.002487 -0.003813
# 3 0.001382 -0.000892 0.020306 -0.014677 -0.000124 0.003089
# 4 -0.004704 -0.006320 -0.014677 0.043920 0.002161 -0.001456
# 5 0.000382 0.002487 -0.000124 0.002161 0.027497 -0.005971
# 6 0.000288 -0.003813 0.003089 -0.001456 -0.005971 0.024025
#
#
# Mechanical properties :
#
#
# Convention : Reuss Voigt Hill
#
# Bulk Modulus (GPa) = 24.42213 43.51191 33.96702
# Shear Modulus (GPa) = 32.31873 40.92925 36.62399
#
# Velocity S-wave (km/s) = 3.71348 4.17898 3.95309
# Velocity P-wave (km/s) = 5.36722 6.46924 5.94382
#
# Compressibility (1/GPa) = 0.04094646
#
# Stress axis : x y z
#
# Youngs Moduli (GPa) = 124.62021 66.88038 49.24675
#
# Poissons Ratio (x) = 0.11089 -0.06807
# Poissons Ratio (y) = 0.20662 0.04393
# Poissons Ratio (z) = -0.17224 0.05966
#
# Static dielectric constant tensor:
#      x y z
#    x 2.528700 -0.186040 -0.053060 
#    y -0.186040 1.972680 -0.071700 
#    z -0.053060 -0.071700 1.953500 
# 
# From -- ./inp_files/533912.got.cif
#   From: 2010.05.17/outbox.cif.g08.bks.cpg/sg2_267_cif.got.tgz:533912.got - 2010.06.03 11:33:40.
