data_PCOD9042308
_publ_section_title
;
Structure prediction by ZEFSAII (Michael W. Deem and Ramdas Pophale) SiO2 
 PCOD9042308
Probable space group: P -1
;
_chemical_formula_sum "Si O2"
_cell_formula_units_Z 15
_cell_length_a 15.369451
_cell_length_b 9.335050
_cell_length_c 9.789634
_cell_angle_alpha 115.744939
_cell_angle_beta 144.152184
_cell_angle_gamma 88.998930
_cell_volume 572.764904
_symmetry_space_group_name_H-M "P -1"
_symmetry_group_IT_number 2
_symmetry_cell_setting 'triclinic'
loop_
_space_group_symop_operation_xyz
x,y,z
-x,-y,-z
loop_
_atom_site_type_symbol
_atom_site_label
_atom_site_fract_x
_atom_site_fract_y
_atom_site_fract_z
Si Si1 0.274656 0.435730 0.294329
Si Si2 0.444678 0.624999 0.306449
Si Si3 0.105551 0.713331 0.559396
Si Si4 0.564082 0.222713 0.144573
Si Si5 0.031787 0.208071 0.132416
Si Si6 0.000000 0.000000 0.500000
Si Si7 0.278969 0.288366 0.729766
Si Si8 0.755128 0.232016 0.951881
O O1 0.298003 0.482082 0.184091
O O2 0.355553 0.312427 0.363758
O O3 0.412554 0.656354 0.637710
O O4 0.085567 0.309440 0.092739
O O5 0.395831 0.495964 0.054255
O O6 0.436698 0.805349 0.347983
O O7 0.225378 0.668691 0.603795
O O8 0.230748 0.821423 0.900133
O O9 0.908291 0.487554 0.251848
O O10 0.080776 0.870297 0.529269
O O11 0.414833 0.224438 0.864287
O O12 0.500000 0.000000 0.000000
O O13 0.204058 0.322739 0.511921
O O14 0.848363 0.174236 0.941832
O O15 0.000000 0.000000 0.000000
O O16 0.100242 0.121991 0.531234
#
# Coordination Sequence:
#
# PCOD9042308 Si02
#       8
#     2   2   2   2   2   1   2   2
#     4  10  25  45  65  99 138 176 221 287 338 393
#     4  10  23  44  70  93 133 179 226 272 347 405
#     4  11  22  39  66 102 133 170 228 276 330 405
#     4  11  23  40  68  99 133 172 228 275 333 410
#     4  12  27  44  65 101 139 172 228 285 337 398
#     4  12  20  38  66  98 138 170 226 272 326 412
#     4  11  24  40  68  99 128 184 222 273 344 399
#     4  11  22  42  65  97 130 180 223 274 336 401
#
# _framework density 26.188755
#
# number of rings (size 3 to 8) (size 9 to 14) (size 15 to 20)
#    0.000    1.067    5.333    0.800    3.733    2.667 
#    2.400    0.667    0.000    0.000    0.000    0.000 
#    0.000    0.000    0.000    0.000    0.000    0.000 
#
# Total GULP energy -83735.509077 kJ/mol
# GULP energy per Si atom -5582.367272 kJ/mol
# Density = 2.612915 g / cm^3
# Si number density = 26.188755 Si / 1000 Ang^3
#
#
#
# Elastic Constant Matrix: (Units=GPa)
#
#
# Indices 1 2 3 4 5 6 
#
# 1 127.4003 36.4723 13.8231 -13.5578 -1.8400 -16.5302
# 2 36.4723 162.1927 11.0570 -4.7434 2.1396 -44.3546
# 3 13.8231 11.0570 37.5035 -5.7762 -11.5896 -3.3579
# 4 -13.5578 -4.7434 -5.7762 23.9117 -7.2789 8.5102
# 5 -1.8400 2.1396 -11.5896 -7.2789 27.0482 -0.3379
# 6 -16.5302 -44.3546 -3.3579 8.5102 -0.3379 58.2317
#
#
#
# Elastic Compliance Matrix: (Units=1/GPa)
#
#
# Indices 1 2 3 4 5 6 
#
# 1 0.009089 -0.001658 -0.001715 0.004596 0.001258 0.000554
# 2 -0.001658 0.008339 -0.002524 -0.002855 -0.002546 0.006138
# 3 -0.001715 -0.002524 0.035887 0.013827 0.019153 -0.002250
# 4 0.004596 -0.002855 0.013827 0.056713 0.021622 -0.008235
# 5 0.001258 -0.002546 0.019153 0.021622 0.051242 -0.003340
# 6 0.000554 0.006138 -0.002250 -0.008235 -0.003340 0.023060
#
#
# Mechanical properties :
#
#
# Convention : Reuss Voigt Hill
#
# Bulk Modulus (GPa) = 24.08384 49.97794 37.03089
# Shear Modulus (GPa) = 23.81351 39.55459 31.68405
#
# Velocity S-wave (km/s) = 3.01874 3.89056 3.48204
# Velocity P-wave (km/s) = 4.62240 6.26954 5.50789
#
# Compressibility (1/GPa) = 0.04152161
#
# Stress axis : x y z
#
# Youngs Moduli (GPa) = 110.02204 119.91848 27.86487
#
# Poissons Ratio (x) = 0.19877 0.04779
# Poissons Ratio (y) = 0.18237 0.07034
# Poissons Ratio (z) = 0.18869 0.30272
#
# Static dielectric constant tensor:
#      x y z
#    x 2.014710 0.004540 0.101470 
#    y 0.004540 2.015310 0.073300 
#    z 0.101470 0.073300 2.247110 
# 
# From -- ./inp_files/299595.got.cif
#   From: 2010.05.17/outbox.cif.g08.bks.cpg/sg2_150_cif.got.tgz:299595.got - 2010.06.03 11:33:40.
