data_PCOD9042585
_publ_section_title
;
Structure prediction by ZEFSAII (Michael W. Deem and Ramdas Pophale) SiO2 
 PCOD9042585
Probable space group: P -1
;
_chemical_formula_sum "Si O2"
_cell_formula_units_Z 16
_cell_length_a 17.499042
_cell_length_b 10.197385
_cell_length_c 8.545571
_cell_angle_alpha 150.151842
_cell_angle_beta 57.727148
_cell_angle_gamma 121.267052
_cell_volume 636.017523
_symmetry_space_group_name_H-M "P -1"
_symmetry_group_IT_number 2
_symmetry_cell_setting 'triclinic'
loop_
_space_group_symop_operation_xyz
x,y,z
-x,-y,-z
loop_
_atom_site_type_symbol
_atom_site_label
_atom_site_fract_x
_atom_site_fract_y
_atom_site_fract_z
Si Si1 0.592046 0.271259 0.037095
Si Si2 0.972106 0.244794 0.376352
Si Si3 0.688263 0.405900 0.581092
Si Si4 0.867950 0.685980 0.244785
Si Si5 0.772823 0.327817 0.744398
Si Si6 0.512675 0.283696 0.485032
Si Si7 0.219534 0.049335 0.107368
Si Si8 0.064127 0.650119 0.918580
O O1 0.566911 0.305678 0.281900
O O2 0.569911 0.542052 0.261705
O O3 0.694504 0.216884 0.836890
O O4 0.526358 0.024741 0.780077
O O5 0.030744 0.359847 0.581857
O O6 0.000000 0.500000 0.500000
O O7 0.972814 0.780739 0.184564
O O8 0.000000 0.000000 0.000000
O O9 0.722431 0.349788 0.658204
O O10 0.581282 0.405524 0.670459
O O11 0.745127 0.682191 0.746518
O O12 0.706244 0.151074 0.192986
O O13 0.812284 0.857156 0.593148
O O14 0.882061 0.423669 0.062014
O O15 0.865184 0.198288 0.486896
O O16 0.813793 0.608157 0.066179
O O17 0.131018 0.845930 0.940701
#
# Coordination Sequence:
#
# PCOD9042585 Si02
#       8
#     2   2   2   2   2   2   2   2
#     4  10  23  45  76 105 144 182 249 293 370 443
#     4  11  27  46  70 102 154 194 241 296 361 420
#     4  12  27  44  73 107 150 188 242 294 378 436
#     4  10  23  47  69 103 140 189 251 306 360 425
#     4  11  27  48  71 115 145 196 245 310 357 440
#     4  10  23  47  74 107 141 192 229 308 374 444
#     4  12  24  45  72 103 141 195 248 298 359 442
#     4  10  23  44  73 100 137 195 250 304 361 422
#
# _framework density 25.156538999999999
#
# number of rings (size 3 to 8) (size 9 to 14) (size 15 to 20)
#    0.000    1.250    1.250    2.625    3.500    5.000 
#    9.000    1.875    0.000    0.000    0.000    0.000 
#    0.000    0.000    0.000    0.000    0.000    0.000 
#
# Total GULP energy -89538.505221 kJ/mol
# GULP energy per Si atom -5596.156576 kJ/mol
# Density = 2.509928 g / cm^3
# Si number density = 25.156539 Si / 1000 Ang^3
#
#
#
# Elastic Constant Matrix: (Units=GPa)
#
#
# Indices 1 2 3 4 5 6 
#
# 1 113.5343 19.1915 27.7312 -21.0581 -0.3177 -0.4478
# 2 19.1915 26.6450 35.1629 -4.2729 -0.5870 3.3116
# 3 27.7312 35.1629 144.4089 -6.1415 -4.1402 -1.6116
# 4 -21.0581 -4.2729 -6.1415 37.7162 3.9001 1.2620
# 5 -0.3177 -0.5870 -4.1402 3.9001 35.8051 -14.5190
# 6 -0.4478 3.3116 -1.6116 1.2620 -14.5190 42.5996
#
#
#
# Elastic Compliance Matrix: (Units=1/GPa)
#
#
# Indices 1 2 3 4 5 6 
#
# 1 0.011014 -0.006801 -0.000241 0.005382 -0.000505 0.000304
# 2 -0.006801 0.061651 -0.013815 0.001521 -0.003499 -0.006624
# 3 -0.000241 -0.013815 0.010400 -0.000269 0.001857 0.002106
# 4 0.005382 0.001521 -0.000269 0.030164 -0.004219 -0.002403
# 5 -0.000505 -0.003499 0.001857 -0.004219 0.033336 0.011824
# 6 0.000304 -0.006624 0.002106 -0.002403 0.011824 0.028173
#
#
# Mechanical properties :
#
#
# Convention : Reuss Voigt Hill
#
# Bulk Modulus (GPa) = 24.18319 49.86216 37.02267
# Shear Modulus (GPa) = 21.71678 36.72435 29.22056
#
# Velocity S-wave (km/s) = 2.94133 3.82492 3.41185
# Velocity P-wave (km/s) = 4.60099 6.27459 5.50180
#
# Compressibility (1/GPa) = 0.04135103
#
# Stress axis : x y z
#
# Youngs Moduli (GPa) = 90.78991 16.22042 96.15007
#
# Poissons Ratio (x) = 0.11031 0.02321
# Poissons Ratio (y) = 0.61742 1.32834
# Poissons Ratio (z) = 0.02192 0.22409
#
# Static dielectric constant tensor:
#      x y z
#    x 2.111760 -0.163750 -0.059660 
#    y -0.163750 2.229250 0.071850 
#    z -0.059660 0.071850 2.049580 
# 
# From -- ./inp_files/343985.got.cif
#   From: 2010.05.17/outbox.cif.g08.bks.cpg/sg2_172_cif.got.tgz:343985.got - 2010.06.03 11:33:40.
