data_PCOD9042401
_publ_section_title
;
Structure prediction by ZEFSAII (Michael W. Deem and Ramdas Pophale) SiO2 
 PCOD9042401
Probable space group: P -1
;
_chemical_formula_sum "Si O2"
_cell_formula_units_Z 14
_cell_length_a 8.073607
_cell_length_b 11.359255
_cell_length_c 17.550552
_cell_angle_alpha 143.664546
_cell_angle_beta 51.950453
_cell_angle_gamma 143.469617
_cell_volume 565.489020
_symmetry_space_group_name_H-M "P -1"
_symmetry_group_IT_number 2
_symmetry_cell_setting 'triclinic'
loop_
_space_group_symop_operation_xyz
x,y,z
-x,-y,-z
loop_
_atom_site_type_symbol
_atom_site_label
_atom_site_fract_x
_atom_site_fract_y
_atom_site_fract_z
Si Si1 0.076397 0.069045 0.769064
Si Si2 0.269321 0.875864 0.820215
Si Si3 0.819542 0.167341 0.022076
Si Si4 0.597123 0.341298 0.861295
Si Si5 0.761634 0.883916 0.413758
Si Si6 0.855582 0.550998 0.629041
Si Si7 0.280785 0.429632 0.591007
O O1 0.382864 0.180382 0.767766
O O2 0.108212 0.143467 0.711147
O O3 0.856121 0.759248 0.690866
O O4 0.971720 0.176826 0.909877
O O5 0.215019 0.973417 0.961880
O O6 0.347402 0.700011 0.729938
O O7 0.024135 0.703677 0.737911
O O8 0.514720 0.129695 0.836678
O O9 0.070015 0.464947 0.139019
O O10 0.500000 0.000000 0.000000
O O11 0.500000 0.500000 0.000000
O O12 0.438535 0.724305 0.409165
O O13 0.737630 0.727779 0.413247
O O14 0.964052 0.198530 0.529496
O O15 0.000000 0.500000 0.500000
O O16 0.500000 0.500000 0.500000
#
# Coordination Sequence:
#
# PCOD9042401 Si02
#       7
#     2   2   2   2   2   2   2
#     4  10  23  44  71 103 144 187 244 297 362 433
#     4  11  25  45  71 103 145 183 243 298 355 430
#     4  11  26  44  67 107 143 189 243 296 360 431
#     4   9  22  46  71  98 137 187 236 299 358 420
#     4  11  24  43  74 100 146 193 233 296 370 422
#     4  11  24  44  75 108 137 184 248 303 357 435
#     4  11  26  46  68 104 148 191 235 295 364 429
#
# _framework density 24.757332999999999
#
# number of rings (size 3 to 8) (size 9 to 14) (size 15 to 20)
#    0.000    1.429    0.000    3.429    4.000   14.857 
#    0.000    0.000    0.000    0.000    0.000    0.000 
#    0.000    0.000    0.000    0.000    0.000    0.000 
#
# Total GULP energy -78120.354978 kJ/mol
# GULP energy per Si atom -5580.025356 kJ/mol
# Density = 2.470098 g / cm^3
# Si number density = 24.757333 Si / 1000 Ang^3
#
#
#
# Elastic Constant Matrix: (Units=GPa)
#
#
# Indices 1 2 3 4 5 6 
#
# 1 87.2287 64.5971 23.9178 -2.6749 19.0487 0.9175
# 2 64.5971 163.7380 29.6490 -1.4384 13.2935 25.3330
# 3 23.9178 29.6490 69.4738 -18.6241 10.8045 -0.3657
# 4 -2.6749 -1.4384 -18.6241 51.3503 -12.2632 17.6113
# 5 19.0487 13.2935 10.8045 -12.2632 37.1850 7.9182
# 6 0.9175 25.3330 -0.3657 17.6113 7.9182 55.5754
#
#
#
# Elastic Compliance Matrix: (Units=1/GPa)
#
#
# Indices 1 2 3 4 5 6 
#
# 1 0.019609 -0.007303 -0.003404 -0.004579 -0.009178 0.005741
# 2 -0.007303 0.009932 -0.001672 0.001663 0.002349 -0.005279
# 3 -0.003404 -0.001672 0.018122 0.006594 -0.000520 -0.001078
# 4 -0.004579 0.001663 0.006594 0.028294 0.011562 -0.011253
# 5 -0.009178 0.002349 -0.000520 0.011562 0.036812 -0.009831
# 6 0.005741 -0.005279 -0.001078 -0.011253 -0.009831 0.025265
#
#
# Mechanical properties :
#
#
# Convention : Reuss Voigt Hill
#
# Bulk Modulus (GPa) = 43.65718 61.86314 52.76016
# Shear Modulus (GPa) = 29.33807 42.30726 35.82266
#
# Velocity S-wave (km/s) = 3.44615 4.13834 3.80801
# Velocity P-wave (km/s) = 5.78852 6.91929 6.37901
#
# Compressibility (1/GPa) = 0.02290574
#
# Stress axis : x y z
#
# Youngs Moduli (GPa) = 50.99625 100.68544 55.18130
#
# Poissons Ratio (x) = 0.73532 0.18784
# Poissons Ratio (y) = 0.37243 0.09224
# Poissons Ratio (z) = 0.17359 0.16830
#
# Static dielectric constant tensor:
#      x y z
#    x 2.057080 0.038060 0.050200 
#    y 0.038060 1.903550 -0.008070 
#    z 0.050200 -0.008070 2.047430 
# 
# From -- ./inp_files/459641.got.cif
#   From: 2010.05.17/outbox.cif.g08.bks.cpg/sg2_230_cif.got.tgz:459641.got - 2010.06.03 11:33:40.
