data_PCOD9042503
_publ_section_title
;
Structure prediction by ZEFSAII (Michael W. Deem and Ramdas Pophale) SiO2 
 PCOD9042503
Probable space group: P -1
;
_chemical_formula_sum "Si O2"
_cell_formula_units_Z 14
_cell_length_a 13.828433
_cell_length_b 11.278141
_cell_length_c 11.274929
_cell_angle_alpha 115.537805
_cell_angle_beta 92.658921
_cell_angle_gamma 31.975527
_cell_volume 625.058835
_symmetry_space_group_name_H-M "P -1"
_symmetry_group_IT_number 2
_symmetry_cell_setting 'triclinic'
loop_
_space_group_symop_operation_xyz
x,y,z
-x,-y,-z
loop_
_atom_site_type_symbol
_atom_site_label
_atom_site_fract_x
_atom_site_fract_y
_atom_site_fract_z
Si Si1 0.812181 0.183595 0.853484
Si Si2 0.130902 0.160517 0.612309
Si Si3 0.627625 0.149607 0.762045
Si Si4 0.761629 0.237091 0.435509
Si Si5 0.271353 0.110368 0.832093
Si Si6 0.384069 0.076517 0.167467
Si Si7 0.418301 0.386745 0.194668
O O1 0.790593 0.053996 0.801684
O O2 0.665246 0.404283 0.817662
O O3 0.652530 0.452748 0.061616
O O4 0.082114 0.902242 0.724882
O O5 0.286830 0.038408 0.669401
O O6 0.876740 0.551827 0.739215
O O7 0.282250 0.961122 0.414489
O O8 0.088067 0.070033 0.627928
O O9 0.657712 0.970848 0.746778
O O10 0.500000 0.500000 0.500000
O O11 0.733441 0.387223 0.596759
O O12 0.463827 0.986802 0.810212
O O13 0.318220 0.943008 0.864823
O O14 0.000000 0.500000 0.000000
O O15 0.545471 0.790480 0.959223
#
# Coordination Sequence:
#
# PCOD9042503 Si02
#       7
#     2   2   2   2   2   2   2
#     4  10  23  44  72 102 138 184 232 284 351 413
#     4  12  25  45  72 105 139 183 232 289 348 411
#     4  10  24  44  72  99 139 191 230 276 350 422
#     4  12  25  41  73 109 137 173 238 297 344 405
#     4  12  26  41  71 109 139 177 235 290 351 406
#     4  11  26  45  71  98 146 186 229 282 348 419
#     4  11  22  42  73 101 135 181 229 293 347 395
#
# _framework density 22.397891999999999
#
# number of rings (size 3 to 8) (size 9 to 14) (size 15 to 20)
#    0.000    0.857    4.286    2.143    6.000    0.571 
#    0.000    2.143    3.143    0.000    0.000    0.000 
#    0.000    0.000    0.000    0.000    0.000    0.000 
#
# Total GULP energy -78173.840367 kJ/mol
# GULP energy per Si atom -5583.845740 kJ/mol
# Density = 2.234691 g / cm^3
# Si number density = 22.397892 Si / 1000 Ang^3
#
#
#
# Elastic Constant Matrix: (Units=GPa)
#
#
# Indices 1 2 3 4 5 6 
#
# 1 114.3342 18.8949 35.9535 -2.9735 -0.1195 -12.4288
# 2 18.8949 61.1034 5.3719 6.8137 11.7449 -19.0950
# 3 35.9535 5.3719 138.6321 -8.2411 2.7190 -11.1218
# 4 -2.9735 6.8137 -8.2411 35.4624 0.6444 3.0674
# 5 -0.1195 11.7449 2.7190 0.6444 44.6038 -0.7247
# 6 -12.4288 -19.0950 -11.1218 3.0674 -0.7247 35.6274
#
#
#
# Elastic Compliance Matrix: (Units=1/GPa)
#
#
# Indices 1 2 3 4 5 6 
#
# 1 0.010113 -0.002781 -0.002391 0.000702 0.000915 0.001249
# 2 -0.002781 0.022491 0.000576 -0.005321 -0.005699 0.011606
# 3 -0.002391 0.000576 0.008056 0.001412 -0.000640 0.001855
# 4 0.000702 -0.005321 0.001412 0.030003 0.000807 -0.004733
# 5 0.000915 -0.005699 -0.000640 0.000807 0.023909 -0.002518
# 6 0.001249 0.011606 0.001855 -0.004733 -0.002518 0.035660
#
#
# Mechanical properties :
#
#
# Convention : Reuss Voigt Hill
#
# Bulk Modulus (GPa) = 31.77725 48.27893 40.02809
# Shear Modulus (GPa) = 33.35280 40.06202 36.70741
#
# Velocity S-wave (km/s) = 3.86308 4.23383 4.05270
# Velocity P-wave (km/s) = 5.84091 6.74554 6.30946
#
# Compressibility (1/GPa) = 0.03146905
#
# Stress axis : x y z
#
# Youngs Moduli (GPa) = 98.88563 44.46278 124.12490
#
# Poissons Ratio (x) = 0.12364 0.29677
# Poissons Ratio (y) = 0.27497 -0.07153
# Poissons Ratio (z) = 0.23643 -0.02562
#
# Static dielectric constant tensor:
#      x y z
#    x 1.876850 -0.002090 0.003600 
#    y -0.002090 1.875150 0.031880 
#    z 0.003600 0.031880 1.864430 
# 
# From -- ./inp_files/452575.got.cif
#   From: 2010.05.17/outbox.cif.g08.bks.cpg/sg2_227_cif.got.tgz:452575.got - 2010.06.03 11:33:40.
