data_PCOD9042832
_publ_section_title
;
Structure prediction by ZEFSAII (Michael W. Deem and Ramdas Pophale) SiO2 
 PCOD9042832
Probable space group: P -1
;
_chemical_formula_sum "Si O2"
_cell_formula_units_Z 13
_cell_length_a 4.939421
_cell_length_b 9.915549
_cell_length_c 12.656107
_cell_angle_alpha 64.805530
_cell_angle_beta 118.365263
_cell_angle_gamma 84.034790
_cell_volume 455.602248
_symmetry_space_group_name_H-M "P -1"
_symmetry_group_IT_number 2
_symmetry_cell_setting 'triclinic'
loop_
_space_group_symop_operation_xyz
x,y,z
-x,-y,-z
loop_
_atom_site_type_symbol
_atom_site_label
_atom_site_fract_x
_atom_site_fract_y
_atom_site_fract_z
Si Si1 0.849807 0.324741 0.241259
Si Si2 0.762691 0.971755 0.706079
Si Si3 0.314826 0.727034 0.535715
Si Si4 0.500000 0.500000 0.500000
Si Si5 0.197607 0.377499 0.988096
Si Si6 0.678976 0.758096 0.309081
Si Si7 0.801629 0.147668 0.985812
O O1 0.808338 0.289989 0.366736
O O2 0.764209 0.510610 0.135278
O O3 0.181550 0.198213 0.285422
O O4 0.553173 0.290503 0.137740
O O5 0.741403 0.093896 0.567256
O O6 0.466525 0.080319 0.695869
O O7 0.090138 0.931090 0.853305
O O8 0.643735 0.591688 0.595684
O O9 0.081571 0.678041 0.420955
O O10 0.542779 0.632384 0.375804
O O11 0.984357 0.271222 0.964954
O O12 0.000000 0.500000 0.000000
O O13 0.560108 0.791644 0.154886
O O14 0.000000 0.000000 0.000000
#
# Coordination Sequence:
#
# PCOD9042832 Si02
#       7
#     2   2   2   1   2   2   2
#     4  11  26  44  72 106 141 188 238 289 362 415
#     4  10  23  45  64 107 138 184 237 284 354 416
#     4  11  25  44  70 103 142 187 234 295 355 423
#     4  10  24  46  60 102 144 180 244 278 358 418
#     4  11  25  46  71 103 143 188 238 292 351 420
#     4  10  24  42  71 102 137 189 232 294 356 412
#     4  10  23  46  70 101 140 185 237 291 348 417
#
# _framework density 28.533657999999999
#
# number of rings (size 3 to 8) (size 9 to 14) (size 15 to 20)
#    0.000    1.538    1.538    0.923    8.615    2.462 
#    8.308    0.000    0.000    0.000    0.000    0.000 
#    0.000    0.000    0.000    0.000    0.000    0.000 
#
# Total GULP energy -72619.841037 kJ/mol
# GULP energy per Si atom -5586.141618 kJ/mol
# Density = 2.846871 g / cm^3
# Si number density = 28.533658 Si / 1000 Ang^3
#
#
#
# Elastic Constant Matrix: (Units=GPa)
#
#
# Indices 1 2 3 4 5 6 
#
# 1 106.0743 17.7791 52.4943 -4.8595 -5.0351 -3.4248
# 2 17.7791 167.2081 2.6137 -7.1540 -30.3702 -22.7535
# 3 52.4943 2.6137 199.1883 12.8014 4.5539 4.5444
# 4 -4.8595 -7.1540 12.8014 23.8806 14.8631 -10.1550
# 5 -5.0351 -30.3702 4.5539 14.8631 37.6147 6.5025
# 6 -3.4248 -22.7535 4.5444 -10.1550 6.5025 54.1120
#
#
#
# Elastic Compliance Matrix: (Units=1/GPa)
#
#
# Indices 1 2 3 4 5 6 
#
# 1 0.011500 -0.000921 -0.003379 0.005409 -0.001241 0.001789
# 2 -0.000921 0.007393 -0.000002 -0.000531 0.005664 0.002270
# 3 -0.003379 -0.000002 0.006297 -0.005800 0.001422 -0.002003
# 4 0.005409 -0.000531 -0.005800 0.072782 -0.030869 0.017974
# 5 -0.001241 0.005664 0.001422 -0.030869 0.044567 -0.008965
# 6 0.001789 0.002270 -0.002003 0.017974 -0.008965 0.024167
#
#
# Mechanical properties :
#
#
# Convention : Reuss Voigt Hill
#
# Bulk Modulus (GPa) = 60.28203 68.69391 64.48797
# Shear Modulus (GPa) = 27.64906 49.76038 38.70472
#
# Velocity S-wave (km/s) = 3.11625 4.18056 3.68701
# Velocity P-wave (km/s) = 5.84128 6.88692 6.38554
#
# Compressibility (1/GPa) = 0.01658869
#
# Stress axis : x y z
#
# Youngs Moduli (GPa) = 86.95357 135.25497 158.81100
#
# Poissons Ratio (x) = 0.12452 0.53659
# Poissons Ratio (y) = 0.08005 0.00024
# Poissons Ratio (z) = 0.29380 0.00021
#
# Static dielectric constant tensor:
#      x y z
#    x 3.374970 -1.066040 0.531380 
#    y -1.066040 3.228200 -0.268930 
#    z 0.531380 -0.268930 2.418120 
# 
# From -- ./inp_files/360604.got.cif
#   From: 2010.05.17/outbox.cif.g08.bks.cpg/sg2_181_cif.got.tgz:360604.got - 2010.06.03 11:33:40.
