data_PCOD9042642
_publ_section_title
;
Structure prediction by ZEFSAII (Michael W. Deem and Ramdas Pophale) SiO2 
 PCOD9042642
Probable space group: P -1
;
_chemical_formula_sum "Si O2"
_cell_formula_units_Z 15
_cell_length_a 11.763381
_cell_length_b 8.855422
_cell_length_c 17.690810
_cell_angle_alpha 111.917010
_cell_angle_beta 21.506408
_cell_angle_gamma 108.265786
_cell_volume 623.656799
_symmetry_space_group_name_H-M "P -1"
_symmetry_group_IT_number 2
_symmetry_cell_setting 'triclinic'
loop_
_space_group_symop_operation_xyz
x,y,z
-x,-y,-z
loop_
_atom_site_type_symbol
_atom_site_label
_atom_site_fract_x
_atom_site_fract_y
_atom_site_fract_z
Si Si1 0.883916 0.798710 0.832248
Si Si2 0.569939 0.317820 0.642978
Si Si3 0.500000 0.500000 0.000000
Si Si4 0.686585 0.973039 0.778452
Si Si5 0.702041 0.245469 0.298059
Si Si6 0.630554 0.997486 0.638153
Si Si7 0.843959 0.598919 0.225155
Si Si8 0.555497 0.613311 0.815246
O O1 0.704214 0.642323 0.933838
O O2 0.157264 0.746929 0.595037
O O3 0.052393 0.849475 0.814299
O O4 0.632614 0.933184 0.976578
O O5 0.280163 0.366817 0.776179
O O6 0.657415 0.472768 0.665440
O O7 0.516176 0.171306 0.705043
O O8 0.594761 0.552518 0.864972
O O9 0.645962 0.005768 0.719928
O O10 0.713141 0.779146 0.736057
O O11 0.005091 0.044344 0.619295
O O12 0.581030 0.135549 0.286810
O O13 0.834599 0.407371 0.214101
O O14 0.402093 0.307605 0.546955
O O15 0.184759 0.651766 0.037564
#
# Coordination Sequence:
#
# PCOD9042642 Si02
#       8
#     2   2   1   2   2   2   2   2
#     4  11  26  46  74 110 142 196 237 308 353 442
#     4  11  26  46  73 108 147 188 250 292 371 418
#     4  12  26  44  76 102 148 184 248 292 366 424
#     4  11  28  48  73 109 150 191 249 291 378 418
#     4  10  23  45  72 107 145 191 245 292 370 421
#     4  11  26  46  73 105 150 195 239 309 350 443
#     4  10  23  44  73 108 144 193 239 300 361 436
#     4  12  26  48  73 109 144 196 238 307 355 447
#
# _framework density 24.051690000000001
#
# number of rings (size 3 to 8) (size 9 to 14) (size 15 to 20)
#    0.000    1.067    1.333    2.800    5.600    6.933 
#    0.000    0.000    0.000    0.000    0.000    0.000 
#    0.000    0.000    0.000    0.000    0.000    0.000 
#
# Total GULP energy -83859.680514 kJ/mol
# GULP energy per Si atom -5590.645368 kJ/mol
# Density = 2.399695 g / cm^3
# Si number density = 24.051690 Si / 1000 Ang^3
#
#
#
# Elastic Constant Matrix: (Units=GPa)
#
#
# Indices 1 2 3 4 5 6 
#
# 1 132.9521 8.0608 7.4054 0.0684 -11.2234 -3.2708
# 2 8.0608 48.0774 -8.9687 -8.9075 0.0641 -0.9982
# 3 7.4054 -8.9687 67.6566 14.9045 -10.1513 -4.8704
# 4 0.0684 -8.9075 14.9045 36.3977 -0.3706 -2.5046
# 5 -11.2234 0.0641 -10.1513 -0.3706 38.0973 -14.5527
# 6 -3.2708 -0.9982 -4.8704 -2.5046 -14.5527 45.3916
#
#
#
# Elastic Compliance Matrix: (Units=1/GPa)
#
#
# Indices 1 2 3 4 5 6 
#
# 1 0.007898 -0.001405 -0.000546 -0.000015 0.002697 0.001343
# 2 -0.001405 0.022336 0.002266 0.004622 0.000612 0.001084
# 3 -0.000546 0.002266 0.017659 -0.006382 0.005780 0.003406
# 4 -0.000015 0.004622 -0.006382 0.031262 -0.001109 0.000785
# 5 0.002697 0.000612 0.005780 -0.001109 0.032892 0.011312
# 6 0.001343 0.001084 0.003406 0.000785 0.011312 0.026187
#
#
# Mechanical properties :
#
#
# Convention : Reuss Voigt Hill
#
# Bulk Modulus (GPa) = 20.60815 29.07568 24.84191
# Shear Modulus (GPa) = 32.51469 40.12323 36.31896
#
# Velocity S-wave (km/s) = 3.68076 4.08880 3.89014
# Velocity P-wave (km/s) = 5.16245 5.86567 5.52526
#
# Compressibility (1/GPa) = 0.04852450
#
# Stress axis : x y z
#
# Youngs Moduli (GPa) = 126.61814 44.77068 56.62800
#
# Poissons Ratio (x) = 0.06288 0.03092
# Poissons Ratio (y) = 0.17784 -0.12834
# Poissons Ratio (z) = 0.06914 -0.10147
#
# Static dielectric constant tensor:
#      x y z
#    x 1.891450 -0.003370 0.009300 
#    y -0.003370 1.851750 0.057400 
#    z 0.009300 0.057400 1.992390 
# 
# From -- ./inp_files/566801.got.cif
#   From: 2010.05.17/outbox.cif.g08.bks.cpg/sg2_284_cif.got.tgz:566801.got - 2010.06.03 11:33:40.
