data_PCOD9042662
_publ_section_title
;
Structure prediction by ZEFSAII (Michael W. Deem and Ramdas Pophale) SiO2 
 PCOD9042662
Probable space group: P -1
;
_chemical_formula_sum "Si O2"
_cell_formula_units_Z 16
_cell_length_a 12.897063
_cell_length_b 11.391725
_cell_length_c 5.293316
_cell_angle_alpha 116.782856
_cell_angle_beta 93.986643
_cell_angle_gamma 101.193125
_cell_volume 670.023274
_symmetry_space_group_name_H-M "P -1"
_symmetry_group_IT_number 2
_symmetry_cell_setting 'triclinic'
loop_
_space_group_symop_operation_xyz
x,y,z
-x,-y,-z
loop_
_atom_site_type_symbol
_atom_site_label
_atom_site_fract_x
_atom_site_fract_y
_atom_site_fract_z
Si Si1 0.272339 0.256204 0.258973
Si Si2 0.246015 0.530596 0.596017
Si Si3 0.970701 0.845476 0.742119
Si Si4 0.438386 0.103948 0.384687
Si Si5 0.267842 0.041609 0.671078
Si Si6 0.872704 0.451114 0.911858
Si Si7 0.906545 0.175516 0.773739
Si Si8 0.649717 0.159318 0.199119
O O1 0.311016 0.418872 0.432595
O O2 0.156142 0.218205 0.335546
O O3 0.363433 0.190021 0.322362
O O4 0.243334 0.175142 0.911664
O O5 0.162543 0.515107 0.336195
O O6 0.306112 0.690040 0.752532
O O7 0.188761 0.495884 0.822220
O O8 0.016476 0.836716 0.460968
O O9 0.031382 0.782007 0.911318
O O10 0.000000 0.000000 0.000000
O O11 0.389642 0.088433 0.639999
O O12 0.561825 0.168385 0.406556
O O13 0.409298 0.950747 0.122489
O O14 0.183396 0.967667 0.374307
O O15 0.265617 0.920521 0.753504
O O16 0.847650 0.290579 0.800879
O O17 0.000000 0.500000 0.000000
#
# Coordination Sequence:
#
# PCOD9042662 Si02
#       8
#     2   2   2   2   2   2   2   2
#     4  11  26  41  64 100 139 177 225 281 349 411
#     4  12  26  45  69 102 142 180 227 284 348 409
#     4  12  24  40  62 101 140 180 223 278 337 409
#     4  10  23  44  73  96 134 175 235 289 351 399
#     4  11  22  41  69  98 133 174 234 282 345 404
#     4  12  25  45  69  97 139 185 232 277 333 408
#     4  12  24  40  68  96 133 179 230 274 336 396
#     4  10  23  45  69 103 129 179 233 291 341 414
#
# _framework density 23.879766
#
# number of rings (size 3 to 8) (size 9 to 14) (size 15 to 20)
#    0.000    0.750    2.500    4.875    5.250    0.500 
#    0.000    0.625    0.000    0.000    0.000    0.000 
#    0.000    0.000    0.000    0.000    0.000    0.000 
#
# Total GULP energy -89496.788490 kJ/mol
# GULP energy per Si atom -5593.549281 kJ/mol
# Density = 2.382541 g / cm^3
# Si number density = 23.879766 Si / 1000 Ang^3
#
#
#
# Elastic Constant Matrix: (Units=GPa)
#
#
# Indices 1 2 3 4 5 6 
#
# 1 67.9064 -4.9788 18.6337 -1.5712 -16.6570 12.1757
# 2 -4.9788 47.9520 19.0539 34.4886 -5.6117 0.8935
# 3 18.6337 19.0539 67.7357 17.1642 -15.7714 7.0295
# 4 -1.5712 34.4886 17.1642 44.1431 -9.5656 -5.9726
# 5 -16.6570 -5.6117 -15.7714 -9.5656 37.8958 -10.9837
# 6 12.1757 0.8935 7.0295 -5.9726 -10.9837 42.6305
#
#
#
# Elastic Compliance Matrix: (Units=1/GPa)
#
#
# Indices 1 2 3 4 5 6 
#
# 1 0.018319 0.004821 -0.004589 -0.000495 0.005819 -0.003147
# 2 0.004821 0.052900 -0.006170 -0.041121 -0.005501 -0.008647
# 3 -0.004589 -0.006170 0.019394 -0.002066 0.004351 -0.000927
# 4 -0.000495 -0.041121 -0.002066 0.059804 0.011614 0.012715
# 5 0.005819 -0.005501 0.004351 0.011614 0.035327 0.008465
# 6 -0.003147 -0.008647 -0.000927 0.012715 0.008465 0.028652
#
#
# Mechanical properties :
#
#
# Convention : Reuss Voigt Hill
#
# Bulk Modulus (GPa) = 12.70050 27.66796 20.18423
# Shear Modulus (GPa) = 19.80061 34.99291 27.39676
#
# Velocity S-wave (km/s) = 2.88267 3.83218 3.39083
# Velocity P-wave (km/s) = 4.05090 5.58501 4.87863
#
# Compressibility (1/GPa) = 0.07873703
#
# Stress axis : x y z
#
# Youngs Moduli (GPa) = 54.58832 18.90372 51.56249
#
# Poissons Ratio (x) = -0.09114 0.23660
# Poissons Ratio (y) = -0.26318 0.31816
# Poissons Ratio (z) = 0.25049 0.11664
#
# Static dielectric constant tensor:
#      x y z
#    x 1.946400 -0.017650 0.039780 
#    y -0.017650 2.004480 -0.037770 
#    z 0.039780 -0.037770 1.979940 
# 
# From -- ./inp_files/72320.got.cif
#   From: 2010.05.17/outbox.cif.g08.bks.cpg/sg2_37_cif.got.tgz:72320.got - 2010.06.03 11:33:40.
