data_PCOD9042098
_publ_section_title
;
Structure prediction by ZEFSAII (Michael W. Deem and Ramdas Pophale) SiO2 
 PCOD9042098
Probable space group: P -1
;
_chemical_formula_sum "Si O2"
_cell_formula_units_Z 12
_cell_length_a 9.270392
_cell_length_b 8.047972
_cell_length_c 7.700056
_cell_angle_alpha 99.029333
_cell_angle_beta 49.482944
_cell_angle_gamma 108.374450
_cell_volume 413.551750
_symmetry_space_group_name_H-M "P -1"
_symmetry_group_IT_number 2
_symmetry_cell_setting 'triclinic'
loop_
_space_group_symop_operation_xyz
x,y,z
-x,-y,-z
loop_
_atom_site_type_symbol
_atom_site_label
_atom_site_fract_x
_atom_site_fract_y
_atom_site_fract_z
Si Si1 0.396144 0.456236 0.315710
Si Si2 0.414951 0.994109 0.771554
Si Si3 0.811017 0.263952 0.614755
Si Si4 0.283564 0.267688 0.737007
Si Si5 0.149821 0.134147 0.269443
Si Si6 0.898378 0.310460 0.965430
O O1 0.266238 0.580595 0.374486
O O2 0.333691 0.378437 0.540581
O O3 0.615756 0.588734 0.172149
O O4 0.338312 0.280774 0.222062
O O5 0.627388 0.087374 0.704735
O O6 0.378969 0.106115 0.651116
O O7 0.254414 0.041558 0.035903
O O8 0.319366 0.785405 0.806219
O O9 0.876610 0.305544 0.771562
O O10 0.993861 0.239224 0.355748
O O11 0.049722 0.206262 0.901126
O O12 0.000000 0.000000 0.500000
O O13 0.000000 0.500000 0.000000
#
# Coordination Sequence:
#
# PCOD9042098 Si02
#       6
#     2   2   2   2   2   2
#     4  10  23  44  70 104 146 187 241 293 356 425
#     4  11  26  47  75 104 144 192 242 287 364 428
#     4  11  25  47  74 107 144 191 241 295 353 433
#     4  10  23  44  69 104 146 187 236 297 358 423
#     4  12  24  42  76 103 142 188 242 292 349 427
#     4  12  26  42  70 107 146 187 239 299 359 420
#
# _framework density 29.016921
#
# number of rings (size 3 to 8) (size 9 to 14) (size 15 to 20)
#    0.000    1.000    3.333    1.500    4.667    1.333 
#    0.000    0.000    0.000    9.000    0.000    0.000 
#    0.000    0.000    0.000    0.000    0.000    0.000 
#
# Total GULP energy -67302.503931 kJ/mol
# GULP energy per Si atom -5608.541994 kJ/mol
# Density = 2.895088 g / cm^3
# Si number density = 29.016921 Si / 1000 Ang^3
#
#
#
# Elastic Constant Matrix: (Units=GPa)
#
#
# Indices 1 2 3 4 5 6 
#
# 1 205.9787 63.7614 38.9837 -14.5676 -11.8037 23.2134
# 2 63.7614 161.4505 -9.1383 -33.7939 -0.5523 45.0597
# 3 38.9837 -9.1383 99.4047 -22.8570 5.3155 19.0274
# 4 -14.5676 -33.7939 -22.8570 38.1092 -1.7413 -9.2285
# 5 -11.8037 -0.5523 5.3155 -1.7413 57.5966 -15.2894
# 6 23.2134 45.0597 19.0274 -9.2285 -15.2894 76.9134
#
#
#
# Elastic Compliance Matrix: (Units=1/GPa)
#
#
# Indices 1 2 3 4 5 6 
#
# 1 0.006502 -0.003677 -0.003838 -0.002703 0.001886 0.001192
# 2 -0.003677 0.012472 0.006818 0.011922 -0.002762 -0.007002
# 3 -0.003838 0.006818 0.016491 0.012843 -0.003464 -0.006063
# 4 -0.002703 0.011922 0.012843 0.042301 -0.001562 -0.004581
# 5 0.001886 -0.002762 -0.003464 -0.001562 0.019479 0.005590
# 6 0.001192 -0.007002 -0.006063 -0.004581 0.005590 0.018806
#
#
# Mechanical properties :
#
#
# Convention : Reuss Voigt Hill
#
# Bulk Modulus (GPa) = 29.35163 72.67195 51.01179
# Shear Modulus (GPa) = 38.81902 59.40564 49.11233
#
# Velocity S-wave (km/s) = 3.66157 4.52959 4.11851
# Velocity P-wave (km/s) = 5.29277 7.24260 6.34306
#
# Compressibility (1/GPa) = 0.03406965
#
# Stress axis : x y z
#
# Youngs Moduli (GPa) = 153.79358 80.17888 60.63963
#
# Poissons Ratio (x) = 0.29483 0.23276
# Poissons Ratio (y) = 0.56552 -0.41343
# Poissons Ratio (z) = 0.59034 -0.54665
#
# Static dielectric constant tensor:
#      x y z
#    x 2.253930 -0.054880 0.070810 
#    y -0.054880 2.369580 0.010440 
#    z 0.070810 0.010440 2.467160 
# 
# From -- ./inp_files/154513.got.cif
#   From: 2010.05.17/outbox.cif.g08.bks.cpg/sg2_78_cif.got.tgz:154513.got - 2010.06.03 11:33:40.
