data_PCOD9042248
_publ_section_title
;
Structure prediction by ZEFSAII (Michael W. Deem and Ramdas Pophale) SiO2 
 PCOD9042248
Probable space group: P -1
;
_chemical_formula_sum "Si O2"
_cell_formula_units_Z 14
_cell_length_a 9.469583
_cell_length_b 8.731102
_cell_length_c 9.138019
_cell_angle_alpha 78.663474
_cell_angle_beta 103.791032
_cell_angle_gamma 120.221074
_cell_volume 631.379778
_symmetry_space_group_name_H-M "P -1"
_symmetry_group_IT_number 2
_symmetry_cell_setting 'triclinic'
loop_
_space_group_symop_operation_xyz
x,y,z
-x,-y,-z
loop_
_atom_site_type_symbol
_atom_site_label
_atom_site_fract_x
_atom_site_fract_y
_atom_site_fract_z
Si Si1 0.664822 0.120989 0.611995
Si Si2 0.120391 0.502389 0.903685
Si Si3 0.534658 0.685677 0.400226
Si Si4 0.942137 0.329397 0.415411
Si Si5 0.941404 0.090393 0.841584
Si Si6 0.178821 0.201961 0.350167
Si Si7 0.585189 0.485681 0.877307
O O1 0.616533 0.270184 0.628809
O O2 0.806140 0.188418 0.512938
O O3 0.750670 0.061013 0.774843
O O4 0.500000 0.000000 0.500000
O O5 0.134735 0.632877 0.753961
O O6 0.052294 0.303089 0.855739
O O7 0.290213 0.575309 0.017119
O O8 0.000000 0.500000 0.000000
O O9 0.500000 0.500000 0.500000
O O10 0.698192 0.818546 0.501944
O O11 0.549392 0.654519 0.239521
O O12 0.000000 0.500000 0.500000
O O13 0.084148 0.287852 0.399593
O O14 0.950877 0.982740 0.721799
O O15 0.000000 0.000000 0.000000
O O16 0.296296 0.335764 0.223358
O O17 0.500000 0.500000 0.000000
#
# Coordination Sequence:
#
# PCOD9042248 Si02
#       7
#     2   2   2   2   2   2   2
#     4  12  26  47  73 112 150 192 244 314 373 437
#     4  12  24  46  72 102 145 192 249 304 367 441
#     4  10  23  44  70 102 147 185 242 301 366 438
#     4  12  25  45  76 107 141 198 255 300 365 454
#     4  12  24  46  75 104 154 192 245 311 374 437
#     4  11  24  46  69 106 147 192 247 300 367 451
#     4  11  24  40  68 105 138 186 238 303 364 430
#
# _framework density 22.173659000000001
#
# number of rings (size 3 to 8) (size 9 to 14) (size 15 to 20)
#    0.000    0.571    5.714    2.571    6.000    0.571 
#    2.571    0.000    0.000    4.286    0.000    0.000 
#    0.000    0.000    0.000    0.000    0.000    0.000 
#
# Total GULP energy -78028.838695 kJ/mol
# GULP energy per Si atom -5573.488478 kJ/mol
# Density = 2.212319 g / cm^3
# Si number density = 22.173659 Si / 1000 Ang^3
#
#
#
# Elastic Constant Matrix: (Units=GPa)
#
#
# Indices 1 2 3 4 5 6 
#
# 1 135.3072 26.5139 72.0150 -4.9847 2.2053 -25.7996
# 2 26.5139 87.3447 27.8143 16.7855 -5.1041 -13.4823
# 3 72.0150 27.8143 177.0519 17.8755 14.8085 -6.6647
# 4 -4.9847 16.7855 17.8755 35.7603 -3.5865 3.5359
# 5 2.2053 -5.1041 14.8085 -3.5865 63.3531 1.9485
# 6 -25.7996 -13.4823 -6.6647 3.5359 1.9485 38.7710
#
#
#
# Elastic Compliance Matrix: (Units=1/GPa)
#
#
# Indices 1 2 3 4 5 6 
#
# 1 0.011479 -0.001913 -0.004637 0.004307 0.000597 0.005754
# 2 -0.001913 0.014275 -0.000677 -0.006955 0.000853 0.004166
# 3 -0.004637 -0.000677 0.008211 -0.004498 -0.002024 -0.001397
# 4 0.004307 -0.006955 -0.004498 0.034676 0.002415 -0.003610
# 5 0.000597 0.000853 -0.002024 0.002415 0.016464 -0.000702
# 6 0.005754 0.004166 -0.001397 -0.003610 -0.000702 0.031194
#
#
# Mechanical properties :
#
#
# Convention : Reuss Voigt Hill
#
# Bulk Modulus (GPa) = 51.24952 72.48781 61.86867
# Shear Modulus (GPa) = 36.42817 45.80092 41.11454
#
# Velocity S-wave (km/s) = 4.05762 4.54977 4.31072
# Velocity P-wave (km/s) = 6.71679 7.76933 7.26215
#
# Compressibility (1/GPa) = 0.01951238
#
# Stress axis : x y z
#
# Youngs Moduli (GPa) = 87.11344 70.05493 121.78458
#
# Poissons Ratio (x) = 0.13399 0.56469
# Poissons Ratio (y) = 0.16662 0.08243
# Poissons Ratio (z) = 0.40393 0.04742
#
# Static dielectric constant tensor:
#      x y z
#    x 1.889480 -0.060370 0.023830 
#    y -0.060370 1.911350 -0.033000 
#    z 0.023830 -0.033000 1.882770 
# 
# From -- ./inp_files/158161.got.cif
#   From: 2010.05.17/outbox.cif.g08.bks.cpg/sg2_80_cif.got.tgz:158161.got - 2010.06.03 11:33:40.
