data_PCOD9042554
_publ_section_title
;
Structure prediction by ZEFSAII (Michael W. Deem and Ramdas Pophale) SiO2 
 PCOD9042554
Probable space group: P -1
;
_chemical_formula_sum "Si O2"
_cell_formula_units_Z 14
_cell_length_a 11.599050
_cell_length_b 9.078107
_cell_length_c 12.890322
_cell_angle_alpha 59.233367
_cell_angle_beta 119.760391
_cell_angle_gamma 69.085584
_cell_volume 580.996555
_symmetry_space_group_name_H-M "P -1"
_symmetry_group_IT_number 2
_symmetry_cell_setting 'triclinic'
loop_
_space_group_symop_operation_xyz
x,y,z
-x,-y,-z
loop_
_atom_site_type_symbol
_atom_site_label
_atom_site_fract_x
_atom_site_fract_y
_atom_site_fract_z
Si Si1 0.695573 0.150873 0.848839
Si Si2 0.655393 0.743131 0.250014
Si Si3 0.003428 0.562658 0.095238
Si Si4 0.884533 0.890407 0.622985
Si Si5 0.410866 0.373546 0.333185
Si Si6 0.173488 0.105737 0.634364
Si Si7 0.173769 0.846789 0.892287
O O1 0.483711 0.269144 0.760005
O O2 0.621671 0.420218 0.688097
O O3 0.876811 0.990977 0.083931
O O4 0.817515 0.908248 0.905438
O O5 0.708578 0.833153 0.327076
O O6 0.904540 0.419535 0.433964
O O7 0.500000 0.000000 0.000000
O O8 0.952647 0.450224 0.183091
O O9 0.247439 0.395720 0.289313
O O10 0.000000 0.500000 0.000000
O O11 0.814883 0.991902 0.437297
O O12 0.984995 0.949868 0.702354
O O13 0.672357 0.055776 0.540558
O O14 0.318716 0.540242 0.119625
O O15 0.286934 0.861087 0.858866
#
# Coordination Sequence:
#
# PCOD9042554 Si02
#       7
#     2   2   2   2   2   2   2
#     4  10  23  44  72  92 135 181 216 274 338 398
#     4  11  21  42  64 101 140 178 221 269 341 399
#     4  12  24  46  70  98 134 175 230 287 329 390
#     4  12  25  43  69 103 138 173 226 283 329 393
#     4  10  24  45  67  96 135 181 225 266 343 391
#     4  11  25  38  70 104 136 176 223 275 330 408
#     4  10  23  45  65  98 139 172 224 268 339 404
#
# _framework density 24.096530999999999
#
# number of rings (size 3 to 8) (size 9 to 14) (size 15 to 20)
#    0.857    0.286    2.857    3.000    4.000    1.714 
#    0.000    1.429    0.000    0.000    0.000    0.000 
#    0.000    0.000    0.000    0.000    0.000    0.000 
#
# Total GULP energy -78225.575288 kJ/mol
# GULP energy per Si atom -5587.541092 kJ/mol
# Density = 2.404169 g / cm^3
# Si number density = 24.096531 Si / 1000 Ang^3
#
#
#
# Elastic Constant Matrix: (Units=GPa)
#
#
# Indices 1 2 3 4 5 6 
#
# 1 64.9147 41.2327 -0.4718 10.3033 9.4876 26.5698
# 2 41.2327 154.9889 37.2123 17.4836 14.5712 7.5060
# 3 -0.4718 37.2123 37.4429 16.1918 -0.4863 -1.0554
# 4 10.3033 17.4836 16.1918 33.2950 2.5981 -4.3694
# 5 9.4876 14.5712 -0.4863 2.5981 47.1196 7.0170
# 6 26.5698 7.5060 -1.0554 -4.3694 7.0170 42.6256
#
#
#
# Elastic Compliance Matrix: (Units=1/GPa)
#
#
# Indices 1 2 3 4 5 6 
#
# 1 0.032095 -0.009809 0.016210 -0.015264 0.000487 -0.019522
# 2 -0.009809 0.011912 -0.013713 0.004265 -0.002766 0.004570
# 3 0.016210 -0.013713 0.050740 -0.024083 0.004258 -0.009603
# 4 -0.015264 0.004265 -0.024083 0.046227 -0.003039 0.013406
# 5 0.000487 -0.002766 0.004258 -0.003039 0.022752 -0.003768
# 6 -0.019522 0.004570 -0.009603 0.013406 -0.003768 0.036581
#
#
# Mechanical properties :
#
#
# Convention : Reuss Voigt Hill
#
# Bulk Modulus (GPa) = 12.48103 45.92143 29.20123
# Shear Modulus (GPa) = 20.69202 36.56625 28.62914
#
# Velocity S-wave (km/s) = 2.93356 3.89972 3.45062
# Velocity P-wave (km/s) = 4.08230 6.27501 5.29344
#
# Compressibility (1/GPa) = 0.08012160
#
# Stress axis : x y z
#
# Youngs Moduli (GPa) = 31.15744 83.95071 19.70843
#
# Poissons Ratio (x) = 0.82346 -0.31947
# Poissons Ratio (y) = 0.30562 0.27027
# Poissons Ratio (z) = -0.50506 1.15125
#
# Static dielectric constant tensor:
#      x y z
#    x 1.880950 0.005590 -0.010750 
#    y 0.005590 1.903990 0.002400 
#    z -0.010750 0.002400 1.969100 
# 
# From -- ./inp_files/514126.got.cif
#   From: 2010.05.17/outbox.cif.g08.bks.cpg/sg2_258_cif.got.tgz:514126.got - 2010.06.03 11:33:40.
