data_PCOD9042110
_publ_section_title
;
Structure prediction by ZEFSAII (Michael W. Deem and Ramdas Pophale) SiO2 
 PCOD9042110
Probable space group: P -1
;
_chemical_formula_sum "Si O2"
_cell_formula_units_Z 15
_cell_length_a 12.575977
_cell_length_b 9.799164
_cell_length_c 11.657562
_cell_angle_alpha 55.385647
_cell_angle_beta 140.149700
_cell_angle_gamma 135.780376
_cell_volume 641.493263
_symmetry_space_group_name_H-M "P -1"
_symmetry_group_IT_number 2
_symmetry_cell_setting 'triclinic'
loop_
_space_group_symop_operation_xyz
x,y,z
-x,-y,-z
loop_
_atom_site_type_symbol
_atom_site_label
_atom_site_fract_x
_atom_site_fract_y
_atom_site_fract_z
Si Si1 0.824763 0.482570 0.788527
Si Si2 0.283014 0.257707 0.322609
Si Si3 0.911842 0.628548 0.388466
Si Si4 0.908890 0.926156 0.084641
Si Si5 0.057309 0.840792 0.641866
Si Si6 0.499074 0.257596 0.267238
Si Si7 0.500000 0.000000 0.000000
Si Si8 0.490976 0.070407 0.685282
O O1 0.685745 0.531652 0.725681
O O2 0.702044 0.265365 0.738887
O O3 0.904541 0.647535 0.679043
O O4 0.000000 0.500000 0.000000
O O5 0.397311 0.256410 0.303541
O O6 0.349981 0.155876 0.517589
O O7 0.047117 0.118266 0.181915
O O8 0.939629 0.761596 0.239884
O O9 0.681228 0.476919 0.294753
O O10 0.000000 0.500000 0.500000
O O11 0.034957 0.758486 0.535219
O O12 0.677478 0.824499 0.932038
O O13 0.000000 0.000000 0.000000
O O14 0.000000 0.000000 0.500000
O O15 0.266232 0.927390 0.834108
O O16 0.563155 0.101172 0.369889
O O17 0.495395 0.985395 0.146386
#
# Coordination Sequence:
#
# PCOD9042110 Si02
#       8
#     2   2   2   2   2   2   1   2
#     4  12  25  48  73 110 148 200 253 308 382 463
#     4  11  24  46  74 111 148 198 252 321 382 455
#     4  12  26  48  73 111 149 198 254 311 384 451
#     4  10  23  44  69 105 147 193 243 311 372 449
#     4  12  28  50  78 108 158 200 254 322 385 461
#     4  11  25  46  76 111 149 198 254 317 381 453
#     4  12  26  46  72 112 150 206 246 314 386 456
#     4  12  25  46  74 109 155 197 256 310 387 459
#
# _framework density 23.382943000000001
#
# number of rings (size 3 to 8) (size 9 to 14) (size 15 to 20)
#    0.000    0.533    1.333    6.800    1.867    6.400 
#    7.200    0.000    0.000    0.000    0.000    0.000 
#    0.000    0.000    0.000    0.000    0.000    0.000 
#
# Total GULP energy -83594.486526 kJ/mol
# GULP energy per Si atom -5572.965768 kJ/mol
# Density = 2.332972 g / cm^3
# Si number density = 23.382943 Si / 1000 Ang^3
#
#
#
# Elastic Constant Matrix: (Units=GPa)
#
#
# Indices 1 2 3 4 5 6 
#
# 1 107.7159 39.0600 38.4995 -19.7072 -13.5620 -2.3110
# 2 39.0600 99.4181 26.3512 -4.0700 -12.1642 -2.4667
# 3 38.4995 26.3512 129.9374 11.9425 -7.6240 -1.4872
# 4 -19.7072 -4.0700 11.9425 45.7602 11.3530 9.1866
# 5 -13.5620 -12.1642 -7.6240 11.3530 31.9923 -3.5087
# 6 -2.3110 -2.4667 -1.4872 9.1866 -3.5087 48.0530
#
#
#
# Elastic Compliance Matrix: (Units=1/GPa)
#
#
# Indices 1 2 3 4 5 6 
#
# 1 0.013245 -0.003879 -0.003663 0.006235 0.000967 -0.000797
# 2 -0.003879 0.012224 -0.001001 -0.001332 0.003337 0.000908
# 3 -0.003663 -0.001001 0.009585 -0.004961 0.002241 0.001181
# 4 0.006235 -0.001332 -0.004961 0.029515 -0.010212 -0.006310
# 5 0.000967 0.003337 0.002241 -0.010212 0.037641 0.004988
# 6 -0.000797 0.000908 0.001181 -0.006310 0.004988 0.022426
#
#
# Mechanical properties :
#
#
# Convention : Reuss Voigt Hill
#
# Bulk Modulus (GPa) = 55.65440 60.54365 58.09903
# Shear Modulus (GPa) = 33.84951 40.70513 37.27732
#
# Velocity S-wave (km/s) = 3.80888 4.17682 3.99709
# Velocity P-wave (km/s) = 6.57240 7.01495 6.79728
#
# Compressibility (1/GPa) = 0.01796803
#
# Stress axis : x y z
#
# Youngs Moduli (GPa) = 75.50017 81.80465 104.32524
#
# Poissons Ratio (x) = 0.31733 0.38216
# Poissons Ratio (y) = 0.29287 0.10443
# Poissons Ratio (z) = 0.27657 0.08189
#
# Static dielectric constant tensor:
#      x y z
#    x 1.958910 0.012580 0.005700 
#    y 0.012580 1.923790 0.040360 
#    z 0.005700 0.040360 1.883230 
# 
# From -- ./inp_files/419271.got.cif
#   From: 2010.05.17/outbox.cif.g08.bks.cpg/sg2_210_cif.got.tgz:419271.got - 2010.06.03 11:33:40.
