data_PCOD9042628
_publ_section_title
;
Structure prediction by ZEFSAII (Michael W. Deem and Ramdas Pophale) SiO2 
 PCOD9042628
Probable space group: P -1
;
_chemical_formula_sum "Si O2"
_cell_formula_units_Z 13
_cell_length_a 5.085335
_cell_length_b 12.536079
_cell_length_c 11.139197
_cell_angle_alpha 109.214722
_cell_angle_beta 55.264432
_cell_angle_gamma 82.439533
_cell_volume 502.320198
_symmetry_space_group_name_H-M "P -1"
_symmetry_group_IT_number 2
_symmetry_cell_setting 'triclinic'
loop_
_space_group_symop_operation_xyz
x,y,z
-x,-y,-z
loop_
_atom_site_type_symbol
_atom_site_label
_atom_site_fract_x
_atom_site_fract_y
_atom_site_fract_z
Si Si1 0.873522 0.754864 0.253361
Si Si2 0.643228 0.108736 0.767619
Si Si3 0.030665 0.123856 0.079309
Si Si4 0.831653 0.404052 0.498096
Si Si5 0.826570 0.387500 0.203374
Si Si6 0.000000 0.500000 0.000000
Si Si7 0.131658 0.838877 0.587214
O O1 0.657393 0.850190 0.239375
O O2 0.547703 0.775359 0.433878
O O3 0.150784 0.803409 0.250855
O O4 0.032413 0.615743 0.109925
O O5 0.421621 0.114554 0.948309
O O6 0.921550 0.968134 0.626553
O O7 0.791485 0.259955 0.134819
O O8 0.940321 0.134501 0.245196
O O9 0.000000 0.000000 0.000000
O O10 0.813612 0.390805 0.352997
O O11 0.485673 0.478854 0.696527
O O12 0.004690 0.266066 0.450492
O O13 0.000000 0.500000 0.500000
O O14 0.120802 0.405354 0.055035
#
# Coordination Sequence:
#
# PCOD9042628 Si02
#       7
#     2   2   2   2   2   1   2
#     4  12  28  51  75 113 153 207 252 318 386 461
#     4  12  27  50  76 109 155 202 261 314 384 460
#     4  11  25  47  78 111 151 203 255 323 382 458
#     4  10  23  44  73 105 144 196 255 317 384 455
#     4  10  23  46  70 107 148 192 255 309 385 455
#     4  12  24  48  74 108 156 194 256 308 388 458
#     4  11  25  46  72 110 148 202 256 316 385 455
#
# _framework density 25.879906999999999
#
# number of rings (size 3 to 8) (size 9 to 14) (size 15 to 20)
#    0.000    0.923    3.077    2.308    2.154    5.538 
#    2.769    0.000    0.000    0.000    0.000    0.000 
#    0.000    0.000    0.000    0.000    0.000    0.000 
#
# Total GULP energy -72406.083213 kJ/mol
# GULP energy per Si atom -5569.698709 kJ/mol
# Density = 2.582100 g / cm^3
# Si number density = 25.879907 Si / 1000 Ang^3
#
#
#
# Elastic Constant Matrix: (Units=GPa)
#
#
# Indices 1 2 3 4 5 6 
#
# 1 29.3232 15.6913 18.1802 4.2464 -1.7451 12.0044
# 2 15.6913 213.3040 55.3919 34.8553 16.4664 19.1863
# 3 18.1802 55.3919 105.4673 16.9973 3.5511 9.9170
# 4 4.2464 34.8553 16.9973 52.0746 10.5267 6.9459
# 5 -1.7451 16.4664 3.5511 10.5267 23.5089 -5.2518
# 6 12.0044 19.1863 9.9170 6.9459 -5.2518 40.5404
#
#
#
# Elastic Compliance Matrix: (Units=1/GPa)
#
#
# Indices 1 2 3 4 5 6 
#
# 1 0.042704 -0.000806 -0.006023 -0.000049 0.002325 -0.010481
# 2 -0.000806 0.006222 -0.002435 -0.002307 -0.003502 -0.002169
# 3 -0.006023 -0.002435 0.012064 -0.001945 0.000389 0.000368
# 4 -0.000049 -0.002307 -0.001945 0.023826 -0.009599 -0.003744
# 5 0.002325 -0.003502 0.000389 -0.009599 0.051453 0.009184
# 6 -0.010481 -0.002169 0.000368 -0.003744 0.009184 0.030538
#
#
# Mechanical properties :
#
#
# Convention : Reuss Voigt Hill
#
# Bulk Modulus (GPa) = 23.55024 58.51348 41.03186
# Shear Modulus (GPa) = 25.06383 40.48017 32.77200
#
# Velocity S-wave (km/s) = 3.11540 3.95923 3.56239
# Velocity P-wave (km/s) = 4.69686 6.59995 5.72800
#
# Compressibility (1/GPa) = 0.04246241
#
# Stress axis : x y z
#
# Youngs Moduli (GPa) = 23.41685 160.71361 82.88783
#
# Poissons Ratio (x) = 0.12957 0.49921
# Poissons Ratio (y) = 0.01888 0.20186
# Poissons Ratio (z) = 0.14103 0.39140
#
# Static dielectric constant tensor:
#      x y z
#    x 2.061030 -0.068480 -0.005600 
#    y -0.068480 1.981660 0.058080 
#    z -0.005600 0.058080 2.008700 
# 
# From -- ./inp_files/363269.got.cif
#   From: 2010.05.17/outbox.cif.g08.bks.cpg/sg2_182_cif.got.tgz:363269.got - 2010.06.03 11:33:40.
