data_PCOD9042861
_publ_section_title
;
Structure prediction by ZEFSAII (Michael W. Deem and Ramdas Pophale) SiO2 
 PCOD9042861
Probable space group: P -1
;
_chemical_formula_sum "Si O2"
_cell_formula_units_Z 16
_cell_length_a 13.659863
_cell_length_b 16.563600
_cell_length_c 8.352358
_cell_angle_alpha 45.016718
_cell_angle_beta 134.176015
_cell_angle_gamma 146.784234
_cell_volume 704.569663
_symmetry_space_group_name_H-M "P -1"
_symmetry_group_IT_number 2
_symmetry_cell_setting 'triclinic'
loop_
_space_group_symop_operation_xyz
x,y,z
-x,-y,-z
loop_
_atom_site_type_symbol
_atom_site_label
_atom_site_fract_x
_atom_site_fract_y
_atom_site_fract_z
Si Si1 0.126684 0.357215 0.451796
Si Si2 0.151166 0.617444 0.284833
Si Si3 0.727666 0.379050 0.232827
Si Si4 0.164054 0.992690 0.812260
Si Si5 0.254694 0.882168 0.793937
Si Si6 0.528792 0.546466 0.149708
Si Si7 0.217900 0.274331 0.372861
Si Si8 0.495761 0.068078 0.239589
O O1 0.152739 0.497979 0.357545
O O2 0.255332 0.344157 0.717369
O O3 0.193228 0.368510 0.329740
O O4 0.909188 0.206897 0.400569
O O5 0.264813 0.666407 0.512414
O O6 0.940993 0.527257 0.227520
O O7 0.213800 0.752460 0.046944
O O8 0.653054 0.251547 0.191512
O O9 0.581002 0.398339 0.030921
O O10 0.238705 0.986596 0.735317
O O11 0.950862 0.830347 0.799976
O O12 0.187883 0.141844 0.625991
O O13 0.295871 0.010611 0.066679
O O14 0.443491 0.969161 0.792931
O O15 0.416410 0.394361 0.347992
O O16 0.500000 0.500000 0.000000
O O17 0.500000 0.000000 0.500000
#
# Coordination Sequence:
#
# PCOD9042861 Si02
#       8
#     2   2   2   2   2   2   2   2
#     4  11  22  42  67 100 128 167 216 271 331 385
#     4  11  23  42  71  98 134 169 213 282 334 384
#     4  11  24  43  65 101 135 169 216 274 336 386
#     4  10  23  45  65  91 128 176 220 267 315 385
#     4  11  24  41  68  96 129 171 225 266 327 387
#     4  12  25  40  65 100 135 170 211 269 335 388
#     4  10  24  42  69  93 129 174 222 265 319 393
#     4  12  26  40  64  95 132 175 218 268 323 391
#
# _framework density 22.708897
#
# number of rings (size 3 to 8) (size 9 to 14) (size 15 to 20)
#    0.000    1.000    2.500    4.125    3.500    3.000 
#    0.000    0.000    0.000    6.000    0.000    0.000 
#    0.000    0.000    0.000    0.000    0.000    0.000 
#
# Total GULP energy -89473.497803 kJ/mol
# GULP energy per Si atom -5592.093613 kJ/mol
# Density = 2.265721 g / cm^3
# Si number density = 22.708897 Si / 1000 Ang^3
#
#
#
# Elastic Constant Matrix: (Units=GPa)
#
#
# Indices 1 2 3 4 5 6 
#
# 1 91.9056 11.3750 20.9599 -11.6814 12.9387 -13.0582
# 2 11.3750 63.8474 40.3902 30.1127 7.6564 -4.2283
# 3 20.9599 40.3902 129.1001 35.4718 17.5873 12.7694
# 4 -11.6814 30.1127 35.4718 39.0576 5.3443 2.9667
# 5 12.9387 7.6564 17.5873 5.3443 35.7363 3.3700
# 6 -13.0582 -4.2283 12.7694 2.9667 3.3700 36.3009
#
#
#
# Elastic Compliance Matrix: (Units=1/GPa)
#
#
# Indices 1 2 3 4 5 6 
#
# 1 0.015687 -0.005062 -0.004410 0.012815 -0.004908 0.006013
# 2 -0.005062 0.028688 -0.002626 -0.021541 -0.000198 0.004223
# 3 -0.004410 -0.002626 0.012958 -0.010357 -0.002159 -0.005404
# 4 0.012815 -0.021541 -0.010357 0.055803 -0.003414 0.001500
# 5 -0.004908 -0.000198 -0.002159 -0.003414 0.031724 -0.003695
# 6 0.006013 0.004223 -0.005404 0.001500 -0.003695 0.032324
#
#
# Mechanical properties :
#
#
# Convention : Reuss Voigt Hill
#
# Bulk Modulus (GPa) = 30.17732 47.81150 38.99441
# Shear Modulus (GPa) = 23.53773 36.36081 29.94927
#
# Velocity S-wave (km/s) = 3.22296 4.00580 3.63552
# Velocity P-wave (km/s) = 5.21225 6.51882 5.90181
#
# Compressibility (1/GPa) = 0.03313747
#
# Stress axis : x y z
#
# Youngs Moduli (GPa) = 63.74645 34.85767 77.17409
#
# Poissons Ratio (x) = 0.17644 0.34036
# Poissons Ratio (y) = 0.32267 0.20263
# Poissons Ratio (z) = 0.28114 0.09152
#
# Static dielectric constant tensor:
#      x y z
#    x 1.885600 -0.048000 0.084520 
#    y -0.048000 1.879070 0.002450 
#    z 0.084520 0.002450 1.905870 
# 
# From -- ./inp_files/205294.got.cif
#   From: 2010.05.17/outbox.cif.g08.bks.cpg/sg2_103_cif.got.tgz:205294.got - 2010.06.03 11:33:40.
