data_PCOD9042163
_publ_section_title
;
Structure prediction by ZEFSAII (Michael W. Deem and Ramdas Pophale) SiO2 
 PCOD9042163
Probable space group: P -1
;
_chemical_formula_sum "Si O2"
_cell_formula_units_Z 16
_cell_length_a 11.463873
_cell_length_b 9.822349
_cell_length_c 17.932075
_cell_angle_alpha 133.889713
_cell_angle_beta 137.628380
_cell_angle_gamma 78.447502
_cell_volume 751.731562
_symmetry_space_group_name_H-M "P -1"
_symmetry_group_IT_number 2
_symmetry_cell_setting 'triclinic'
loop_
_space_group_symop_operation_xyz
x,y,z
-x,-y,-z
loop_
_atom_site_type_symbol
_atom_site_label
_atom_site_fract_x
_atom_site_fract_y
_atom_site_fract_z
Si Si1 0.898873 0.859241 0.138482
Si Si2 0.184497 0.258769 0.645928
Si Si3 0.900712 0.226751 0.368527
Si Si4 0.334239 0.925657 0.323938
Si Si5 0.331268 0.212080 0.302878
Si Si6 0.182062 0.016449 0.994369
Si Si7 0.391842 0.777165 0.012217
Si Si8 0.621480 0.356350 0.875857
O O1 0.117250 0.886807 0.235509
O O2 0.954112 0.107762 0.285982
O O3 0.749239 0.795712 0.969475
O O4 0.765482 0.649421 0.058250
O O5 0.369944 0.245836 0.696488
O O6 0.045442 0.268424 0.522699
O O7 0.314523 0.514311 0.849911
O O8 0.000000 0.000000 0.500000
O O9 0.000000 0.500000 0.500000
O O10 0.635431 0.013288 0.183982
O O11 0.281450 0.696718 0.167048
O O12 0.500000 0.000000 0.500000
O O13 0.415252 0.114247 0.364644
O O14 0.500000 0.500000 0.500000
O O15 0.078805 0.108144 0.164000
O O16 0.314280 0.140068 0.181128
O O17 0.221028 0.822715 0.922744
O O18 0.386423 0.756111 0.091776
#
# Coordination Sequence:
#
# PCOD9042163 Si02
#       8
#     2   2   2   2   2   2   2   2
#     4  11  25  46  70 103 144 188 234 297 359 417
#     4  12  25  44  71 101 141 186 234 292 353 418
#     4  12  27  46  72 106 142 185 241 294 357 424
#     4  11  25  44  68 108 138 184 240 288 355 427
#     4  10  23  44  69  97 140 185 232 292 348 420
#     4  10  24  43  67 101 137 183 239 285 355 418
#     4  12  25  46  71 104 140 188 239 291 355 424
#     4  12  24  45  70 100 144 185 237 293 354 426
#
# _framework density 21.284192000000001
#
# number of rings (size 3 to 8) (size 9 to 14) (size 15 to 20)
#    0.000    0.750    3.750    3.000    3.500    6.000 
#    0.000    0.000    0.000    0.000    0.000    0.000 
#    0.000    0.000    0.000    0.000    0.000    0.000 
#
# Total GULP energy -89305.206315 kJ/mol
# GULP energy per Si atom -5581.575395 kJ/mol
# Density = 2.123575 g / cm^3
# Si number density = 21.284192 Si / 1000 Ang^3
#
#
#
# Elastic Constant Matrix: (Units=GPa)
#
#
# Indices 1 2 3 4 5 6 
#
# 1 102.1157 41.4039 32.3037 1.5578 -9.1861 -12.8671
# 2 41.4039 185.5437 60.9548 -5.0328 -1.5277 1.4943
# 3 32.3037 60.9548 85.6540 2.3587 -13.2021 5.7284
# 4 1.5578 -5.0328 2.3587 32.0870 5.2792 -3.3544
# 5 -9.1861 -1.5277 -13.2021 5.2792 19.5722 2.7644
# 6 -12.8671 1.4943 5.7284 -3.3544 2.7644 32.8695
#
#
#
# Elastic Compliance Matrix: (Units=1/GPa)
#
#
# Indices 1 2 3 4 5 6 
#
# 1 0.012485 -0.001704 -0.003395 -0.000541 0.002839 0.005262
# 2 -0.001704 0.007652 -0.005655 0.002554 -0.004795 0.000634
# 3 -0.003395 -0.005655 0.019592 -0.005006 0.013396 -0.006124
# 4 -0.000541 0.002554 -0.005006 0.034734 -0.013539 0.005228
# 5 0.002839 -0.004795 0.013396 -0.013539 0.065858 -0.007926
# 6 0.005262 0.000634 -0.006124 0.005228 -0.007926 0.034722
#
#
# Mechanical properties :
#
#
# Convention : Reuss Voigt Hill
#
# Bulk Modulus (GPa) = 54.88430 71.40424 63.14427
# Shear Modulus (GPa) = 24.67623 32.81581 28.74602
#
# Velocity S-wave (km/s) = 3.40864 3.93083 3.67901
# Velocity P-wave (km/s) = 6.42917 7.36361 6.91220
#
# Compressibility (1/GPa) = 0.01822015
#
# Stress axis : x y z
#
# Youngs Moduli (GPa) = 80.09884 130.68040 51.04222
#
# Poissons Ratio (x) = 0.22271 0.17329
# Poissons Ratio (y) = 0.13651 0.28863
# Poissons Ratio (z) = 0.27195 0.73897
#
# Static dielectric constant tensor:
#      x y z
#    x 1.854840 0.024030 -0.025300 
#    y 0.024030 1.796200 0.058380 
#    z -0.025300 0.058380 1.843970 
# 
# From -- ./inp_files/333282.got.cif
#   From: 2010.05.17/outbox.cif.g08.bks.cpg/sg2_167_cif.got.tgz:333282.got - 2010.06.03 11:33:40.
