data_PCOD9042172
_publ_section_title
;
Structure prediction by ZEFSAII (Michael W. Deem and Ramdas Pophale) SiO2 
 PCOD9042172
Probable space group: P -1
;
_chemical_formula_sum "Si O2"
_cell_formula_units_Z 16
_cell_length_a 6.124839
_cell_length_b 16.607111
_cell_length_c 8.743773
_cell_angle_alpha 103.263894
_cell_angle_beta 100.640668
_cell_angle_gamma 53.937497
_cell_volume 698.383145
_symmetry_space_group_name_H-M "P -1"
_symmetry_group_IT_number 2
_symmetry_cell_setting 'triclinic'
loop_
_space_group_symop_operation_xyz
x,y,z
-x,-y,-z
loop_
_atom_site_type_symbol
_atom_site_label
_atom_site_fract_x
_atom_site_fract_y
_atom_site_fract_z
Si Si1 0.443812 0.466823 0.318818
Si Si2 0.125897 0.653038 0.135231
Si Si3 0.990755 0.742741 0.700571
Si Si4 0.787565 0.990166 0.076922
Si Si5 0.217981 0.783475 0.009180
Si Si6 0.716221 0.038315 0.411923
Si Si7 0.226211 0.166360 0.600253
Si Si8 0.251400 0.333234 0.164912
O O1 0.500000 0.500000 0.500000
O O2 0.321504 0.557883 0.224257
O O3 0.254480 0.426136 0.267100
O O4 0.730351 0.364139 0.277366
O O5 0.893363 0.747479 0.249477
O O6 0.284237 0.691515 0.083577
O O7 0.985833 0.630044 0.973214
O O8 0.979372 0.783507 0.549043
O O9 0.778671 0.719176 0.715420
O O10 0.995207 0.811916 0.860065
O O11 0.693469 0.063800 0.241735
O O12 0.030926 0.881474 0.129283
O O13 0.500000 0.000000 0.000000
O O14 0.000000 0.000000 0.000000
O O15 0.484308 0.749480 0.935628
O O16 0.499735 0.131156 0.530257
O O17 0.698817 0.941592 0.380545
O O18 0.000000 0.000000 0.500000
#
# Coordination Sequence:
#
# PCOD9042172 Si02
#       8
#     2   2   2   2   2   2   2   2
#     4  11  23  44  68 104 138 180 230 300 365 439
#     4  11  23  44  71  96 141 184 243 294 360 444
#     4  10  23  44  69  98 140 181 239 292 363 438
#     4  12  29  47  78 108 150 198 254 314 375 446
#     4  10  24  43  69  98 139 186 240 293 364 437
#     4  11  28  44  70 106 146 190 246 305 378 442
#     4  11  24  45  68  98 148 184 239 304 372 434
#     4  10  25  42  68 102 135 184 238 292 364 434
#
# _framework density 22.910060000000001
#
# number of rings (size 3 to 8) (size 9 to 14) (size 15 to 20)
#    0.000    1.250    2.500    1.125   12.250    7.000 
#    2.250    0.000    0.000    0.000    0.000    0.000 
#    0.000    0.000    0.000    0.000    0.000    0.000 
#
# Total GULP energy -89087.753054 kJ/mol
# GULP energy per Si atom -5567.984566 kJ/mol
# Density = 2.285792 g / cm^3
# Si number density = 22.910060 Si / 1000 Ang^3
#
#
#
# Elastic Constant Matrix: (Units=GPa)
#
#
# Indices 1 2 3 4 5 6 
#
# 1 65.1436 0.9329 12.2295 -14.3325 -10.6398 -1.1859
# 2 0.9329 82.2268 -0.9270 -20.3338 2.3495 -3.9527
# 3 12.2295 -0.9270 104.1585 -7.9031 -3.9253 4.8099
# 4 -14.3325 -20.3338 -7.9031 33.9704 -0.2884 -10.5995
# 5 -10.6398 2.3495 -3.9253 -0.2884 31.1301 -3.4529
# 6 -1.1859 -3.9527 4.8099 -10.5995 -3.4529 23.4418
#
#
#
# Elastic Compliance Matrix: (Units=1/GPa)
#
#
# Indices 1 2 3 4 5 6 
#
# 1 0.019702 0.003064 -0.001452 0.012546 0.007387 0.008572
# 2 0.003064 0.015958 0.000447 0.013814 0.001042 0.009154
# 3 -0.001452 0.000447 0.009976 0.001596 0.000606 -0.001234
# 4 0.012546 0.013814 0.001596 0.051892 0.006936 0.027122
# 5 0.007387 0.001042 0.000606 0.006936 0.035688 0.008818
# 6 0.008572 0.009154 -0.001234 0.027122 0.008818 0.058451
#
#
# Mechanical properties :
#
#
# Convention : Reuss Voigt Hill
#
# Bulk Modulus (GPa) = 20.09875 30.66663 25.38269
# Shear Modulus (GPa) = 24.49370 33.66135 29.07752
#
# Velocity S-wave (km/s) = 3.27329 3.83728 3.56645
# Velocity P-wave (km/s) = 4.80394 5.74871 5.29743
#
# Compressibility (1/GPa) = 0.04975433
#
# Stress axis : x y z
#
# Youngs Moduli (GPa) = 50.75591 62.66474 100.23968
#
# Poissons Ratio (x) = -0.19198 0.14550
# Poissons Ratio (y) = -0.15550 -0.04481
# Poissons Ratio (z) = 0.07367 -0.02801
#
# Static dielectric constant tensor:
#      x y z
#    x 1.997150 0.073030 0.062850 
#    y 0.073030 1.946350 0.053770 
#    z 0.062850 0.053770 1.946840 
# 
# From -- ./inp_files/109510.got.cif
#   From: 2010.05.17/outbox.cif.g08.bks.cpg/sg2_55_cif.got.tgz:109510.got - 2010.06.03 11:33:40.
