data_PCOD9042383
_publ_section_title
;
Structure prediction by ZEFSAII (Michael W. Deem and Ramdas Pophale) SiO2 
 PCOD9042383
Probable space group: P -1
;
_chemical_formula_sum "Si O2"
_cell_formula_units_Z 16
_cell_length_a 14.433783
_cell_length_b 14.965808
_cell_length_c 14.971025
_cell_angle_alpha 160.389381
_cell_angle_beta 40.619323
_cell_angle_gamma 139.948280
_cell_volume 687.538870
_symmetry_space_group_name_H-M "P -1"
_symmetry_group_IT_number 2
_symmetry_cell_setting 'triclinic'
loop_
_space_group_symop_operation_xyz
x,y,z
-x,-y,-z
loop_
_atom_site_type_symbol
_atom_site_label
_atom_site_fract_x
_atom_site_fract_y
_atom_site_fract_z
Si Si1 0.196661 0.419563 0.529195
Si Si2 0.193221 0.025519 0.724002
Si Si3 0.293513 0.611996 0.126712
Si Si4 0.856772 0.808966 0.465409
Si Si5 0.914545 0.643872 0.629187
Si Si6 0.697309 0.261795 0.967454
Si Si7 0.365072 0.193236 0.934741
Si Si8 0.369063 0.991808 0.931685
O O1 0.107732 0.316397 0.585189
O O2 0.111537 0.502781 0.585906
O O3 0.325356 0.681747 0.705145
O O4 0.253819 0.161908 0.208164
O O5 0.235384 0.796920 0.415314
O O6 0.029292 0.928895 0.791620
O O7 0.303551 0.071480 0.770750
O O8 0.214274 0.300123 0.909769
O O9 0.468361 0.635788 0.034101
O O10 0.272488 0.716765 0.140987
O O11 0.776956 0.552620 0.223145
O O12 0.000000 0.000000 0.500000
O O13 0.751483 0.017742 0.746059
O O14 0.000000 0.500000 0.500000
O O15 0.758997 0.656362 0.797262
O O16 0.523187 0.175588 0.022949
O O17 0.372806 0.984620 0.813827
#
# Coordination Sequence:
#
# PCOD9042383 Si02
#       8
#     2   2   2   2   2   2   2   2
#     4  11  25  43  70 101 137 177 232 282 348 411
#     4  12  24  42  69 104 138 188 239 285 345 422
#     4  11  26  43  71 101 139 187 233 295 343 419
#     4  12  27  46  68 101 137 184 223 287 342 417
#     4  11  25  45  71 104 143 189 230 291 349 421
#     4  11  25  46  71  98 139 176 232 284 351 405
#     4  10  23  45  66 102 145 183 234 290 356 406
#     4  10  23  44  71 102 133 179 224 291 345 412
#
# _framework density 23.271412999999999
#
# number of rings (size 3 to 8) (size 9 to 14) (size 15 to 20)
#    0.000    1.000    0.000    5.250    3.500   13.000 
#    0.000    0.000    0.000    0.000    0.000    0.000 
#    0.000    0.000    0.000    0.000    0.000    0.000 
#
# Total GULP energy -89555.502628 kJ/mol
# GULP energy per Si atom -5597.218914 kJ/mol
# Density = 2.321845 g / cm^3
# Si number density = 23.271413 Si / 1000 Ang^3
#
#
#
# Elastic Constant Matrix: (Units=GPa)
#
#
# Indices 1 2 3 4 5 6 
#
# 1 106.9031 28.4370 31.4133 -12.3664 18.0901 -1.3995
# 2 28.4370 134.0610 25.4673 30.6374 -5.0119 -13.7746
# 3 31.4133 25.4673 92.8985 -0.9759 8.0359 0.2408
# 4 -12.3664 30.6374 -0.9759 53.9657 -6.6473 0.6596
# 5 18.0901 -5.0119 8.0359 -6.6473 39.5199 0.1273
# 6 -1.3995 -13.7746 0.2408 0.6596 0.1273 24.1429
#
#
#
# Elastic Compliance Matrix: (Units=1/GPa)
#
#
# Indices 1 2 3 4 5 6 
#
# 1 0.012330 -0.003325 -0.002796 0.004086 -0.004806 -0.001241
# 2 -0.003325 0.010827 -0.002118 -0.006755 0.002170 0.006179
# 3 -0.002796 -0.002118 0.012423 0.000632 -0.001404 -0.001504
# 4 0.004086 -0.006755 0.000632 0.023502 0.001111 -0.004272
# 5 -0.004806 0.002170 -0.001404 0.001111 0.028249 0.000794
# 6 -0.001241 0.006179 -0.001504 -0.004272 0.000794 0.045001
#
#
# Mechanical properties :
#
#
# Convention : Reuss Voigt Hill
#
# Bulk Modulus (GPa) = 52.35487 56.05534 54.20510
# Shear Modulus (GPa) = 32.22132 40.09536 36.15834
#
# Velocity S-wave (km/s) = 3.72504 4.15534 3.94606
# Velocity P-wave (km/s) = 6.40684 6.86749 6.64116
#
# Compressibility (1/GPa) = 0.01910042
#
# Stress axis : x y z
#
# Youngs Moduli (GPa) = 81.10269 92.36345 80.49885
#
# Poissons Ratio (x) = 0.30713 0.22507
# Poissons Ratio (y) = 0.26969 0.17052
# Poissons Ratio (z) = 0.22676 0.19566
#
# Static dielectric constant tensor:
#      x y z
#    x 1.841540 -0.031550 -0.021550 
#    y -0.031550 1.861770 -0.008500 
#    z -0.021550 -0.008500 1.864410 
# 
# From -- ./inp_files/139529.got.cif
#   From: 2010.05.17/outbox.cif.g08.bks.cpg/sg2_70_cif.got.tgz:139529.got - 2010.06.03 11:33:40.
