data_PCOD9042678
_publ_section_title
;
Structure prediction by ZEFSAII (Michael W. Deem and Ramdas Pophale) SiO2 
 PCOD9042678
Probable space group: P -1
;
_chemical_formula_sum "Si O2"
_cell_formula_units_Z 16
_cell_length_a 8.634630
_cell_length_b 8.935209
_cell_length_c 16.750080
_cell_angle_alpha 148.197264
_cell_angle_beta 94.382519
_cell_angle_gamma 82.375814
_cell_volume 673.384166
_symmetry_space_group_name_H-M "P -1"
_symmetry_group_IT_number 2
_symmetry_cell_setting 'triclinic'
loop_
_space_group_symop_operation_xyz
x,y,z
-x,-y,-z
loop_
_atom_site_type_symbol
_atom_site_label
_atom_site_fract_x
_atom_site_fract_y
_atom_site_fract_z
Si Si1 0.962138 0.339605 0.161412
Si Si2 0.301534 0.742221 0.779660
Si Si3 0.431335 0.757054 0.198969
Si Si4 0.459525 0.804677 0.480243
Si Si5 0.464937 0.857349 0.058642
Si Si6 0.058865 0.666723 0.155907
Si Si7 0.873883 0.282030 0.401433
Si Si8 0.767013 0.566803 0.678396
O O1 0.784535 0.370575 0.198965
O O2 0.015700 0.489951 0.152177
O O3 0.059712 0.432339 0.282402
O O4 0.000000 0.000000 0.000000
O O5 0.436647 0.499255 0.649182
O O6 0.190717 0.786187 0.718368
O O7 0.385983 0.023702 0.921864
O O8 0.477290 0.805659 0.131026
O O9 0.244126 0.717631 0.178789
O O10 0.494828 0.023295 0.363907
O O11 0.525168 0.473439 0.115187
O O12 0.294374 0.704490 0.405571
O O13 0.500000 0.000000 0.500000
O O14 0.322130 0.115475 0.162653
O O15 0.956427 0.978717 0.299730
O O16 0.000000 0.500000 0.000000
O O17 0.752278 0.461483 0.538704
O O18 0.000000 0.500000 0.500000
#
# Coordination Sequence:
#
# PCOD9042678 Si02
#       8
#     2   2   2   2   2   2   2   2
#     4  12  27  46  73 105 148 186 242 299 360 429
#     4  11  24  46  69 106 142 189 234 291 361 424
#     4  11  23  44  72 102 141 183 246 287 357 419
#     4  11  25  43  69 102 144 183 232 295 357 424
#     4  10  23  44  74 100 140 188 233 295 345 432
#     4  12  28  46  74 107 145 190 243 296 360 430
#     4  12  23  42  73 104 146 186 237 293 354 424
#     4  11  25  44  71 106 141 187 238 287 362 415
#
# _framework density 23.760584000000001
#
# number of rings (size 3 to 8) (size 9 to 14) (size 15 to 20)
#    0.000    0.750    1.250    6.000    3.500    4.500 
#    0.000    3.125    0.000    0.000    0.000    0.000 
#    0.000    0.000    0.000    0.000    0.000    0.000 
#
# Total GULP energy -89336.187839 kJ/mol
# GULP energy per Si atom -5583.511740 kJ/mol
# Density = 2.370650 g / cm^3
# Si number density = 23.760584 Si / 1000 Ang^3
#
#
#
# Elastic Constant Matrix: (Units=GPa)
#
#
# Indices 1 2 3 4 5 6 
#
# 1 85.7373 30.7866 20.5875 -2.7766 14.5236 7.5933
# 2 30.7866 92.6824 14.7643 8.6469 17.5098 4.7187
# 3 20.5875 14.7643 107.3623 7.8680 12.4290 -1.9035
# 4 -2.7766 8.6469 7.8680 38.4267 9.5548 5.6064
# 5 14.5236 17.5098 12.4290 9.5548 23.0584 3.9760
# 6 7.5933 4.7187 -1.9035 5.6064 3.9760 35.2376
#
#
#
# Elastic Compliance Matrix: (Units=1/GPa)
#
#
# Indices 1 2 3 4 5 6 
#
# 1 0.015010 -0.003624 -0.001942 0.004447 -0.007021 -0.002770
# 2 -0.003624 0.013539 -0.000217 -0.001455 -0.007279 0.000009
# 3 -0.001942 -0.000217 0.010299 -0.001491 -0.003834 0.001674
# 4 0.004447 -0.001455 -0.001491 0.030817 -0.012923 -0.004289
# 5 -0.007021 -0.007279 -0.003834 -0.012923 0.061182 -0.002567
# 6 -0.002770 0.000009 0.001674 -0.004289 -0.002567 0.030037
#
#
# Mechanical properties :
#
#
# Convention : Reuss Voigt Hill
#
# Bulk Modulus (GPa) = 36.65602 46.45098 41.55350
# Shear Modulus (GPa) = 27.54159 33.98745 30.76452
#
# Velocity S-wave (km/s) = 3.40829 3.78618 3.60220
# Velocity P-wave (km/s) = 5.56321 6.22138 5.90148
#
# Compressibility (1/GPa) = 0.02728065
#
# Stress axis : x y z
#
# Youngs Moduli (GPa) = 66.62313 73.86338 97.09335
#
# Poissons Ratio (x) = 0.26768 0.18857
# Poissons Ratio (y) = 0.24144 0.02110
# Poissons Ratio (z) = 0.12939 0.01605
#
# Static dielectric constant tensor:
#      x y z
#    x 4.146980 1.435530 1.210340 
#    y 1.435530 2.889750 0.781920 
#    z 1.210340 0.781920 2.711410 
# 
# From -- ./inp_files/557718.got.cif
#   From: 2010.05.17/outbox.cif.g08.bks.cpg/sg2_279_cif.got.tgz:557718.got - 2010.06.03 11:33:40.
