data_PCOD9042418
_publ_section_title
;
Structure prediction by ZEFSAII (Michael W. Deem and Ramdas Pophale) SiO2 
 PCOD9042418
Probable space group: P -1
;
_chemical_formula_sum "Si O2"
_cell_formula_units_Z 16
_cell_length_a 6.286421
_cell_length_b 7.740333
_cell_length_c 18.285333
_cell_angle_alpha 76.134420
_cell_angle_beta 118.496317
_cell_angle_gamma 117.991203
_cell_volume 690.336531
_symmetry_space_group_name_H-M "P -1"
_symmetry_group_IT_number 2
_symmetry_cell_setting 'triclinic'
loop_
_space_group_symop_operation_xyz
x,y,z
-x,-y,-z
loop_
_atom_site_type_symbol
_atom_site_label
_atom_site_fract_x
_atom_site_fract_y
_atom_site_fract_z
Si Si1 0.876467 0.229357 0.218481
Si Si2 0.191181 0.916140 0.998545
Si Si3 0.900836 0.564689 0.901709
Si Si4 0.355285 0.794949 0.334464
Si Si5 0.545033 0.211065 0.818836
Si Si6 0.773859 0.793630 0.508271
Si Si7 0.595942 0.796407 0.637978
Si Si8 0.095440 0.567088 0.649647
O O1 0.794311 0.301682 0.272566
O O2 0.908547 0.386304 0.143712
O O3 0.163961 0.238285 0.283726
O O4 0.702277 0.000283 0.195732
O O5 0.246233 0.813903 0.089283
O O6 0.981912 0.788827 0.915555
O O7 0.500000 0.000000 0.000000
O O8 0.000000 0.000000 0.000000
O O9 0.600586 0.426408 0.839795
O O10 0.000000 0.500000 0.000000
O O11 0.375701 0.770120 0.254325
O O12 0.561187 0.727981 0.415681
O O13 0.065071 0.654037 0.329831
O O14 0.422210 0.014863 0.347747
O O15 0.641177 0.829356 0.556228
O O16 0.903286 0.647808 0.568335
O O17 0.000000 0.000000 0.500000
O O18 0.332960 0.605991 0.630238
#
# Coordination Sequence:
#
# PCOD9042418 Si02
#       8
#     2   2   2   2   2   2   2   2
#     4  11  22  44  70  96 144 177 232 286 357 411
#     4  11  25  47  78 107 147 193 238 299 368 436
#     4  10  23  44  71 105 140 187 237 288 359 439
#     4  12  23  41  68 101 136 178 237 284 355 419
#     4  11  23  44  73 102 142 185 235 295 358 428
#     4  11  23  46  67  91 137 185 226 288 349 421
#     4  11  25  42  66 101 132 185 227 288 353 420
#     4  11  24  43  67  95 138 179 228 294 342 418
#
# _framework density 23.177102999999999
#
# number of rings (size 3 to 8) (size 9 to 14) (size 15 to 20)
#    0.000    1.000    5.000    1.500    1.750    1.500 
#    4.500    8.125    0.000    0.000    0.000    0.000 
#    0.000    0.000    0.000    0.000    0.000    0.000 
#
# Total GULP energy -89074.132973 kJ/mol
# GULP energy per Si atom -5567.133311 kJ/mol
# Density = 2.312435 g / cm^3
# Si number density = 23.177103 Si / 1000 Ang^3
#
#
#
# Elastic Constant Matrix: (Units=GPa)
#
#
# Indices 1 2 3 4 5 6 
#
# 1 81.3346 31.1793 46.8683 2.4374 -21.0189 17.0771
# 2 31.1793 96.5475 33.2503 5.4722 -13.2383 42.9648
# 3 46.8683 33.2503 137.5601 -5.4703 -34.5275 17.1358
# 4 2.4374 5.4722 -5.4703 39.8298 11.3254 -5.7230
# 5 -21.0189 -13.2383 -34.5275 11.3254 27.9776 -7.7578
# 6 17.0771 42.9648 17.1358 -5.7230 -7.7578 44.8626
#
#
#
# Elastic Compliance Matrix: (Units=1/GPa)
#
#
# Indices 1 2 3 4 5 6 
#
# 1 0.018068 -0.001988 -0.003016 -0.004468 0.009981 -0.002665
# 2 -0.001988 0.020758 -0.001149 -0.006861 0.004479 -0.018785
# 3 -0.003016 -0.001149 0.011560 -0.001522 0.011994 -0.000288
# 4 -0.004468 -0.006861 -0.001522 0.032950 -0.019115 0.009750
# 5 0.009981 0.004479 0.011994 -0.019115 0.066920 -0.003537
# 6 -0.002665 -0.018785 -0.000288 0.009750 -0.003537 0.042037
#
#
# Mechanical properties :
#
#
# Convention : Reuss Voigt Hill
#
# Bulk Modulus (GPa) = 26.26004 59.78199 43.02102
# Shear Modulus (GPa) = 23.01056 36.14364 29.57710
#
# Velocity S-wave (km/s) = 3.15431 3.95328 3.57618
# Velocity P-wave (km/s) = 4.96196 6.83282 5.97112
#
# Compressibility (1/GPa) = 0.03808067
#
# Stress axis : x y z
#
# Youngs Moduli (GPa) = 55.34752 48.17487 86.50148
#
# Poissons Ratio (x) = 0.09579 0.26087
# Poissons Ratio (y) = 0.11005 0.09935
# Poissons Ratio (z) = 0.16691 0.05533
#
# Static dielectric constant tensor:
#      x y z
#    x 1.878370 -0.025860 -0.021350 
#    y -0.025860 2.999470 -0.089790 
#    z -0.021350 -0.089790 1.865800 
# 
# From -- ./inp_files/52169.got.cif
#   From: 2010.05.17/outbox.cif.g08.bks.cpg/sg2_27_cif.got.tgz:52169.got - 2010.06.03 11:33:40.
