data_PCOD9042368
_publ_section_title
;
Structure prediction by ZEFSAII (Michael W. Deem and Ramdas Pophale) SiO2 
 PCOD9042368
Probable space group: P -1
;
_chemical_formula_sum "Si O2"
_cell_formula_units_Z 16
_cell_length_a 9.149966
_cell_length_b 5.159174
_cell_length_c 22.735011
_cell_angle_alpha 124.618324
_cell_angle_beta 51.167311
_cell_angle_gamma 101.964457
_cell_volume 669.191223
_symmetry_space_group_name_H-M "P -1"
_symmetry_group_IT_number 2
_symmetry_cell_setting 'triclinic'
loop_
_space_group_symop_operation_xyz
x,y,z
-x,-y,-z
loop_
_atom_site_type_symbol
_atom_site_label
_atom_site_fract_x
_atom_site_fract_y
_atom_site_fract_z
Si Si1 0.940447 0.053831 0.454686
Si Si2 0.864198 0.302682 0.040211
Si Si3 0.258988 0.422974 0.150882
Si Si4 0.411834 0.816679 0.602729
Si Si5 0.315489 0.290504 0.379287
Si Si6 0.157206 0.413642 0.674330
Si Si7 0.592742 0.881514 0.036235
Si Si8 0.467569 0.167774 0.819093
O O1 0.747201 0.336027 0.539088
O O2 0.116146 0.190546 0.401463
O O3 0.911433 0.742811 0.387460
O O4 0.000000 0.000000 0.500000
O O5 0.695307 0.590443 0.147428
O O6 0.729518 0.122185 0.013205
O O7 0.000000 0.500000 0.000000
O O8 0.000000 0.000000 0.000000
O O9 0.348120 0.678570 0.197805
O O10 0.032644 0.478890 0.223862
O O11 0.378241 0.081225 0.102283
O O12 0.330102 0.419694 0.064811
O O13 0.500000 0.500000 0.500000
O O14 0.576860 0.883723 0.612851
O O15 0.253380 0.702909 0.668801
O O16 0.310354 0.124335 0.629766
O O17 0.459136 0.177159 0.274374
O O18 0.612704 0.843724 0.096159
#
# Coordination Sequence:
#
# PCOD9042368 Si02
#       8
#     2   2   2   2   2   2   2   2
#     4  11  25  43  74 105 142 194 242 307 357 439
#     4  11  23  44  67  98 139 183 234 288 359 425
#     4  10  24  43  69 108 137 189 246 295 363 429
#     4  12  27  50  71 107 151 194 237 303 373 432
#     4  11  26  44  71 108 144 189 246 298 370 434
#     4  12  27  48  77 105 148 193 247 300 359 445
#     4  10  23  44  71 100 146 187 234 311 353 425
#     4  11  23  43  73 103 141 190 242 305 357 433
#
# _framework density 23.909458000000001
#
# number of rings (size 3 to 8) (size 9 to 14) (size 15 to 20)
#    0.000    1.000    3.750    1.500    7.000    2.000 
#    0.000    0.000    0.000    0.000    0.000    0.000 
#    0.000    0.000    0.000    0.000    0.000    0.000 
#
# Total GULP energy -89424.890065 kJ/mol
# GULP energy per Si atom -5589.055629 kJ/mol
# Density = 2.385504 g / cm^3
# Si number density = 23.909458 Si / 1000 Ang^3
#
#
#
# Elastic Constant Matrix: (Units=GPa)
#
#
# Indices 1 2 3 4 5 6 
#
# 1 95.6910 17.4833 32.9821 0.0480 -15.9510 -16.1046
# 2 17.4833 86.4951 5.7233 -7.5868 -7.9015 -4.9334
# 3 32.9821 5.7233 141.5104 1.2431 -8.3239 -11.4012
# 4 0.0480 -7.5868 1.2431 23.1719 6.4001 3.5155
# 5 -15.9510 -7.9015 -8.3239 6.4001 33.0765 -6.3025
# 6 -16.1046 -4.9334 -11.4012 3.5155 -6.3025 37.0142
#
#
#
# Elastic Compliance Matrix: (Units=1/GPa)
#
#
# Indices 1 2 3 4 5 6 
#
# 1 0.013989 -0.001912 -0.002141 -0.003727 0.007777 0.006850
# 2 -0.001912 0.012437 0.000063 0.003534 0.001528 0.000770
# 3 -0.002141 0.000063 0.007810 -0.001091 0.001510 0.001843
# 4 -0.003727 0.003534 -0.001091 0.049020 -0.012282 -0.008234
# 5 0.007777 0.001528 0.001510 -0.012282 0.039377 0.011924
# 6 0.006850 0.000770 0.001843 -0.008234 0.011924 0.033480
#
#
# Mechanical properties :
#
#
# Convention : Reuss Voigt Hill
#
# Bulk Modulus (GPa) = 38.08459 48.45266 43.26863
# Shear Modulus (GPa) = 28.92791 36.48638 32.70714
#
# Velocity S-wave (km/s) = 3.48213 3.91067 3.70260
# Velocity P-wave (km/s) = 5.66835 6.37967 6.03450
#
# Compressibility (1/GPa) = 0.02625734
#
# Stress axis : x y z
#
# Youngs Moduli (GPa) = 71.48672 80.40508 128.04120
#
# Poissons Ratio (x) = 0.15371 0.27413
# Poissons Ratio (y) = 0.13666 -0.00812
# Poissons Ratio (z) = 0.15305 -0.00510
#
# Static dielectric constant tensor:
#      x y z
#    x 0.146290 -0.857800 -0.829700 
#    y -0.857800 1.582550 -0.414340 
#    z -0.829700 -0.414340 1.548600 
# 
# From -- ./inp_files/605920.got.cif
#   From: 2010.05.17/outbox.cif.g08.bks.cpg/sg2_303_cif.got.tgz:605920.got - 2010.06.03 11:33:40.
