data_PCOD9042381
_publ_section_title
;
Structure prediction by ZEFSAII (Michael W. Deem and Ramdas Pophale) SiO2 
 PCOD9042381
Probable space group: P -1
;
_chemical_formula_sum "Si O2"
_cell_formula_units_Z 14
_cell_length_a 9.661284
_cell_length_b 7.873776
_cell_length_c 14.803037
_cell_angle_alpha 70.602927
_cell_angle_beta 142.067349
_cell_angle_gamma 95.317801
_cell_volume 624.506869
_symmetry_space_group_name_H-M "P -1"
_symmetry_group_IT_number 2
_symmetry_cell_setting 'triclinic'
loop_
_space_group_symop_operation_xyz
x,y,z
-x,-y,-z
loop_
_atom_site_type_symbol
_atom_site_label
_atom_site_fract_x
_atom_site_fract_y
_atom_site_fract_z
Si Si1 0.267285 0.967825 0.927670
Si Si2 0.097516 0.650708 0.796729
Si Si3 0.984777 0.307779 0.613233
Si Si4 0.286088 0.574827 0.707891
Si Si5 0.216285 0.398304 0.063665
Si Si6 0.624747 0.627961 0.484070
Si Si7 0.725399 0.023351 0.858582
O O1 0.189905 0.791821 0.880959
O O2 0.056564 0.145226 0.752219
O O3 0.500000 0.000000 0.000000
O O4 0.319868 0.956929 0.062006
O O5 0.241092 0.629236 0.780424
O O6 0.818663 0.704989 0.622945
O O7 0.144265 0.458195 0.912334
O O8 0.885081 0.268021 0.472596
O O9 0.785457 0.484050 0.520325
O O10 0.203687 0.387756 0.692112
O O11 0.547876 0.541571 0.813343
O O12 0.295914 0.174384 0.154083
O O13 0.000000 0.500000 0.000000
O O14 0.500000 0.500000 0.500000
O O15 0.432733 0.799931 0.308648
O O16 0.000000 0.000000 0.000000
#
# Coordination Sequence:
#
# PCOD9042381 Si02
#       7
#     2   2   2   2   2   2   2
#     4  12  26  44  75 109 147 186 241 293 363 432
#     4  11  25  44  72 107 142 191 239 296 361 431
#     4  10  24  43  72 102 146 190 237 294 361 420
#     4  10  23  44  71 101 144 188 240 289 358 422
#     4  12  26  45  73 106 144 186 242 297 362 427
#     4  11  26  48  74 102 148 190 244 302 361 426
#     4  12  27  48  70 104 144 191 239 298 362 430
#
# _framework density 22.417687000000001
#
# number of rings (size 3 to 8) (size 9 to 14) (size 15 to 20)
#    0.000    0.857    0.000    6.429   14.000    0.571 
#    0.000    2.143    0.000    0.000    0.000    0.000 
#    0.000    0.000    0.000    0.000    0.000    0.000 
#
# Total GULP energy -78307.240234 kJ/mol
# GULP energy per Si atom -5593.374302 kJ/mol
# Density = 2.236666 g / cm^3
# Si number density = 22.417687 Si / 1000 Ang^3
#
#
#
# Elastic Constant Matrix: (Units=GPa)
#
#
# Indices 1 2 3 4 5 6 
#
# 1 149.6479 60.0553 49.3852 4.6699 13.7123 18.8369
# 2 60.0553 101.9896 64.7495 -15.0954 2.9965 8.0267
# 3 49.3852 64.7495 168.7770 -25.8453 -3.2258 14.8135
# 4 4.6699 -15.0954 -25.8453 47.5729 10.6763 1.9841
# 5 13.7123 2.9965 -3.2258 10.6763 41.2950 7.2323
# 6 18.8369 8.0267 14.8135 1.9841 7.2323 31.9659
#
#
#
# Elastic Compliance Matrix: (Units=1/GPa)
#
#
# Indices 1 2 3 4 5 6 
#
# 1 0.009760 -0.005181 -0.001000 -0.002629 -0.001659 -0.003448
# 2 -0.005181 0.015971 -0.004182 0.003449 -0.000824 0.000953
# 3 -0.001000 -0.004182 0.008595 0.003348 0.000925 -0.002761
# 4 -0.002629 0.003449 0.003348 0.025474 -0.005490 -0.001207
# 5 -0.001659 -0.000824 0.000925 -0.005490 0.027204 -0.005058
# 6 -0.003448 0.000953 -0.002761 -0.001207 -0.005058 0.035575
#
#
# Mechanical properties :
#
#
# Convention : Reuss Voigt Hill
#
# Bulk Modulus (GPa) = 73.53546 85.42162 79.47854
# Shear Modulus (GPa) = 33.82103 40.58171 37.20137
#
# Velocity S-wave (km/s) = 3.88838 4.25932 4.07807
# Velocity P-wave (km/s) = 7.28238 7.89787 7.59636
#
# Compressibility (1/GPa) = 0.01359888
#
# Stress axis : x y z
#
# Youngs Moduli (GPa) = 102.46271 62.61514 116.35250
#
# Poissons Ratio (x) = 0.32442 0.11631
# Poissons Ratio (y) = 0.53088 0.48660
# Poissons Ratio (z) = 0.10243 0.26186
#
# Static dielectric constant tensor:
#      x y z
#    x 3.042270 2.670990 0.295500 
#    y 2.670990 7.689830 0.700590 
#    z 0.295500 0.700590 1.972540 
# 
# From -- ./inp_files/494546.got.cif
#   From: 2010.05.17/outbox.cif.g08.bks.cpg/sg2_248_cif.got.tgz:494546.got - 2010.06.03 11:33:40.
