data_PCOD9042400
_publ_section_title
;
Structure prediction by ZEFSAII (Michael W. Deem and Ramdas Pophale) SiO2 
 PCOD9042400
Probable space group: P -1
;
_chemical_formula_sum "Si O2"
_cell_formula_units_Z 16
_cell_length_a 5.537135
_cell_length_b 18.811726
_cell_length_c 21.991256
_cell_angle_alpha 18.866491
_cell_angle_beta 67.923950
_cell_angle_gamma 68.718872
_cell_volume 686.213342
_symmetry_space_group_name_H-M "P -1"
_symmetry_group_IT_number 2
_symmetry_cell_setting 'triclinic'
loop_
_space_group_symop_operation_xyz
x,y,z
-x,-y,-z
loop_
_atom_site_type_symbol
_atom_site_label
_atom_site_fract_x
_atom_site_fract_y
_atom_site_fract_z
Si Si1 0.449641 0.046746 0.649562
Si Si2 0.007931 0.957127 0.605622
Si Si3 0.242408 0.640340 0.927829
Si Si4 0.017642 0.194874 0.792714
Si Si5 0.494636 0.013539 0.815159
Si Si6 0.244418 0.642764 0.423106
Si Si7 0.460159 0.483701 0.775540
Si Si8 0.852618 0.586300 0.758514
O O1 0.461876 0.996240 0.760491
O O2 0.398548 0.309334 0.436063
O O3 0.271297 0.868506 0.778258
O O4 0.725930 0.999398 0.627991
O O5 0.110306 0.725065 0.809595
O O6 0.191622 0.152292 0.452323
O O7 0.000000 0.000000 0.500000
O O8 0.500000 0.500000 0.000000
O O9 0.121670 0.488312 0.113597
O O10 0.255103 0.135082 0.773006
O O11 0.043312 0.445541 0.612087
O O12 0.785338 0.214835 0.750784
O O13 0.000000 0.000000 0.000000
O O14 0.733145 0.176305 0.673299
O O15 0.509898 0.771062 0.038855
O O16 0.500000 0.500000 0.500000
O O17 0.607513 0.489943 0.823081
O O18 0.150385 0.530988 0.754673
#
# Coordination Sequence:
#
# PCOD9042400 Si02
#       8
#     2   2   2   2   2   2   2   2
#     4  11  25  45  66  99 140 182 237 295 363 424
#     4  11  26  45  69  96 136 187 241 300 366 437
#     4  12  26  41  72  97 139 186 241 303 368 425
#     4  10  23  44  71 103 143 181 232 283 351 421
#     4  11  24  42  71 101 138 181 235 288 358 419
#     4   9  22  43  67 101 140 182 229 285 341 426
#     4  11  25  45  70 102 140 188 232 302 356 436
#     4  11  25  46  68  97 144 179 243 294 368 430
#
# _framework density 23.316365999999999
#
# number of rings (size 3 to 8) (size 9 to 14) (size 15 to 20)
#    0.000    1.250    2.500    1.500    5.250    9.000 
#    2.250    0.000    0.000    0.000    0.000    0.000 
#    0.000    0.000    0.000    0.000    0.000    0.000 
#
# Total GULP energy -89184.560829 kJ/mol
# GULP energy per Si atom -5574.035052 kJ/mol
# Density = 2.326330 g / cm^3
# Si number density = 23.316366 Si / 1000 Ang^3
#
#
#
# Elastic Constant Matrix: (Units=GPa)
#
#
# Indices 1 2 3 4 5 6 
#
# 1 32.8508 15.5660 16.5677 0.6440 23.1818 15.3541
# 2 15.5660 64.8649 35.7339 0.0556 -1.2901 14.4860
# 3 16.5677 35.7339 180.5932 -0.5995 22.2593 20.2015
# 4 0.6440 0.0556 -0.5995 42.8105 6.9939 -0.3117
# 5 23.1818 -1.2901 22.2593 6.9939 42.6803 -1.9565
# 6 15.3541 14.4860 20.2015 -0.3117 -1.9565 31.1218
#
#
#
# Elastic Compliance Matrix: (Units=1/GPa)
#
#
# Indices 1 2 3 4 5 6 
#
# 1 0.108824 -0.020072 0.008458 0.009242 -0.068117 -0.054026
# 2 -0.020072 0.022382 -0.004782 -0.002151 0.014585 0.003484
# 3 0.008458 -0.004782 0.007705 0.001458 -0.009341 -0.007521
# 4 0.009242 -0.002151 0.001458 0.024865 -0.010144 -0.004894
# 5 -0.068117 0.014585 -0.009341 -0.010144 0.069104 0.037123
# 6 -0.054026 0.003484 -0.007521 -0.004894 0.037123 0.064331
#
#
# Mechanical properties :
#
#
# Convention : Reuss Voigt Hill
#
# Bulk Modulus (GPa) = 9.42335 46.00490 27.71412
# Shear Modulus (GPa) = 13.68455 37.35193 25.51824
#
# Velocity S-wave (km/s) = 2.42525 4.00679 3.31181
# Velocity P-wave (km/s) = 3.44858 6.41712 5.15132
#
# Compressibility (1/GPa) = 0.10611941
#
# Stress axis : x y z
#
# Youngs Moduli (GPa) = 9.18911 44.67960 129.78608
#
# Poissons Ratio (x) = 0.89681 -1.09774
# Poissons Ratio (y) = 0.18444 0.62061
# Poissons Ratio (z) = -0.07772 0.21365
#
# Static dielectric constant tensor:
#      x y z
#    x 1.994810 0.045400 -0.040460 
#    y 0.045400 1.856430 -0.034480 
#    z -0.040460 -0.034480 1.904700 
# 
# From -- ./inp_files/138922.got.cif
#   From: 2010.05.17/outbox.cif.g08.bks.cpg/sg2_70_cif.got.tgz:138922.got - 2010.06.03 11:33:40.
