data_PCOD9042535
_publ_section_title
;
Structure prediction by ZEFSAII (Michael W. Deem and Ramdas Pophale) SiO2 
 PCOD9042535
Probable space group: P -1
;
_chemical_formula_sum "Si O2"
_cell_formula_units_Z 12
_cell_length_a 13.235023
_cell_length_b 22.276996
_cell_length_c 9.984536
_cell_angle_alpha 29.943466
_cell_angle_beta 38.586961
_cell_angle_gamma 19.431926
_cell_volume 477.546316
_symmetry_space_group_name_H-M "P -1"
_symmetry_group_IT_number 2
_symmetry_cell_setting 'triclinic'
loop_
_space_group_symop_operation_xyz
x,y,z
-x,-y,-z
loop_
_atom_site_type_symbol
_atom_site_label
_atom_site_fract_x
_atom_site_fract_y
_atom_site_fract_z
Si Si1 0.533467 0.724664 0.689463
Si Si2 0.366155 0.612511 0.271836
Si Si3 0.362956 0.078502 0.842577
Si Si4 0.898319 0.616303 0.082902
Si Si5 0.386325 0.462312 0.281448
Si Si6 0.868504 0.769048 0.561540
O O1 0.393693 0.721829 0.950930
O O2 0.993818 0.194663 0.704574
O O3 0.475355 0.731908 0.579443
O O4 0.904489 0.479012 0.805954
O O5 0.500000 0.500000 0.500000
O O6 0.487265 0.436793 0.375983
O O7 0.509509 0.106788 0.569109
O O8 0.990904 0.307669 0.776171
O O9 0.500000 0.000000 0.000000
O O10 0.535720 0.857481 0.021039
O O11 0.000558 0.424565 0.288052
O O12 0.987916 0.658067 0.799151
O O13 0.500000 0.500000 0.000000
O O14 0.500000 0.000000 0.500000
#
# Coordination Sequence:
#
# PCOD9042535 Si02
#       6
#     2   2   2   2   2   2
#     4  11  23  45  71 109 146 187 245 305 365 441
#     4  11  23  45  74 104 148 194 241 306 365 432
#     4  12  25  44  79 108 145 198 243 303 372 438
#     4  11  23  43  73 108 143 188 250 298 367 443
#     4  10  23  44  72 105 149 187 242 304 364 432
#     4  11  24  45  76 105 145 194 245 305 370 436
#
# _framework density 25.128451999999999
#
# number of rings (size 3 to 8) (size 9 to 14) (size 15 to 20)
#    0.000    1.000    3.333    3.500    2.333    0.000 
#    0.000   13.333    3.667    0.000    0.000    0.000 
#    0.000    0.000    0.000    0.000    0.000    0.000 
#
# Total GULP energy -66949.639188 kJ/mol
# GULP energy per Si atom -5579.136599 kJ/mol
# Density = 2.507126 g / cm^3
# Si number density = 25.128452 Si / 1000 Ang^3
#
#
#
# Elastic Constant Matrix: (Units=GPa)
#
#
# Indices 1 2 3 4 5 6 
#
# 1 110.8981 41.9593 57.9934 15.2329 17.6088 24.3870
# 2 41.9593 127.9120 51.4162 19.4922 -29.9653 -1.0119
# 3 57.9934 51.4162 135.0733 43.1947 -0.3776 -4.0590
# 4 15.2329 19.4922 43.1947 39.2080 2.8709 -12.6419
# 5 17.6088 -29.9653 -0.3776 2.8709 64.2252 19.2776
# 6 24.3870 -1.0119 -4.0590 -12.6419 19.2776 47.8368
#
#
#
# Elastic Compliance Matrix: (Units=1/GPa)
#
#
# Indices 1 2 3 4 5 6 
#
# 1 0.015428 -0.003909 -0.005327 -0.000075 -0.004044 -0.006790
# 2 -0.003909 0.012107 -0.001790 -0.003676 0.007436 -0.001871
# 3 -0.005327 -0.001790 0.014622 -0.013292 0.001346 -0.000137
# 4 -0.000075 -0.003676 -0.013292 0.047349 -0.008298 0.014690
# 5 -0.004044 0.007436 0.001346 -0.008298 0.023304 -0.009251
# 6 -0.006790 -0.001871 -0.000137 0.014690 -0.009251 0.031925
#
#
# Mechanical properties :
#
#
# Convention : Reuss Voigt Hill
#
# Bulk Modulus (GPa) = 49.74126 75.18014 62.46070
# Shear Modulus (GPa) = 28.82022 45.08830 36.95426
#
# Velocity S-wave (km/s) = 3.39029 4.24053 3.83902
# Velocity P-wave (km/s) = 5.92985 7.34571 6.67542
#
# Compressibility (1/GPa) = 0.02010403
#
# Stress axis : x y z
#
# Youngs Moduli (GPa) = 64.81891 82.59637 68.38818
#
# Poissons Ratio (x) = 0.32287 0.36432
# Poissons Ratio (y) = 0.25337 0.12243
# Poissons Ratio (z) = 0.34531 0.14787
#
# Static dielectric constant tensor:
#      x y z
#    x 2.070840 0.019640 0.025170 
#    y 0.019640 1.968100 0.020070 
#    z 0.025170 0.020070 2.051080 
# 
# From -- ./inp_files/319744.got.cif
#   From: 2010.05.17/outbox.cif.g08.bks.cpg/sg2_160_cif.got.tgz:319744.got - 2010.06.03 11:33:40.
