data_PCOD9042509
_publ_section_title
;
Structure prediction by ZEFSAII (Michael W. Deem and Ramdas Pophale) SiO2 
 PCOD9042509
Probable space group: P -1
;
_chemical_formula_sum "Si O2"
_cell_formula_units_Z 15
_cell_length_a 10.592991
_cell_length_b 12.955115
_cell_length_c 5.301887
_cell_angle_alpha 117.233794
_cell_angle_beta 78.653341
_cell_angle_gamma 111.567867
_cell_volume 601.284682
_symmetry_space_group_name_H-M "P -1"
_symmetry_group_IT_number 2
_symmetry_cell_setting 'triclinic'
loop_
_space_group_symop_operation_xyz
x,y,z
-x,-y,-z
loop_
_atom_site_type_symbol
_atom_site_label
_atom_site_fract_x
_atom_site_fract_y
_atom_site_fract_z
Si Si1 0.385290 0.209139 0.806622
Si Si2 0.689366 0.459428 0.334992
Si Si3 0.916177 0.681744 0.604836
Si Si4 0.217740 0.121362 0.273358
Si Si5 0.631466 0.246918 0.439315
Si Si6 0.500000 0.500000 0.000000
Si Si7 0.161817 0.846496 0.013450
Si Si8 0.858938 0.333994 0.812549
O O1 0.278638 0.150554 0.561745
O O2 0.522250 0.185708 0.625738
O O3 0.329636 0.157865 0.044623
O O4 0.424428 0.355446 0.939715
O O5 0.776937 0.574117 0.596047
O O6 0.585881 0.347303 0.407673
O O7 0.614079 0.503919 0.189950
O O8 0.796349 0.394422 0.120956
O O9 0.876724 0.795757 0.644836
O O10 0.031149 0.738823 0.833468
O O11 0.988927 0.625101 0.297055
O O12 0.144910 0.976650 0.125036
O O13 0.695533 0.157412 0.166037
O O14 0.762725 0.337567 0.625238
O O15 0.168640 0.807356 0.255567
#
# Coordination Sequence:
#
# PCOD9042509 Si02
#       8
#     2   2   2   2   2   1   2   2
#     4  12  28  47  76 108 150 192 245 304 382 437
#     4  11  23  44  73 111 148 188 246 298 387 438
#     4  11  25  44  71 107 145 201 240 310 365 439
#     4  12  29  47  74 114 144 201 249 305 368 441
#     4  10  24  46  71 106 146 194 239 311 367 441
#     4  12  24  46  76 106 152 180 234 310 364 454
#     4  10  26  47  72 100 149 193 256 301 360 434
#     4  10  23  44  72 102 147 195 244 306 363 436
#
# _framework density 24.946584000000001
#
# number of rings (size 3 to 8) (size 9 to 14) (size 15 to 20)
#    0.000    1.067    2.667    1.600    9.333    8.533 
#    0.000    0.000    0.000    0.000    0.000    0.000 
#    0.000    0.000    0.000    0.000    0.000    0.000 
#
# Total GULP energy -83576.421753 kJ/mol
# GULP energy per Si atom -5571.761450 kJ/mol
# Density = 2.488980 g / cm^3
# Si number density = 24.946584 Si / 1000 Ang^3
#
#
#
# Elastic Constant Matrix: (Units=GPa)
#
#
# Indices 1 2 3 4 5 6 
#
# 1 61.7881 -85.5751 25.1703 -11.1145 32.7455 -34.8225
# 2 -85.5751 -171.2397 36.9895 -28.5638 115.8014 -81.4248
# 3 25.1703 36.9895 47.1977 1.0760 -1.0117 15.0542
# 4 -11.1145 -28.5638 1.0760 25.7949 18.7744 -11.2049
# 5 32.7455 115.8014 -1.0117 18.7744 4.9530 23.0687
# 6 -34.8225 -81.4248 15.0542 -11.2049 23.0687 14.6737
#
#
#
# Elastic Compliance Matrix: (Units=1/GPa)
#
#
# Indices 1 2 3 4 5 6 
#
# 1 0.010946 -0.003387 -0.003573 -0.001770 0.004968 0.001683
# 2 -0.003387 0.002601 0.001752 -0.004301 0.004408 -0.005617
# 3 -0.003573 0.001752 0.022783 0.004335 -0.009257 -0.004266
# 4 -0.001770 -0.004301 0.004335 0.033789 -0.002583 -0.002652
# 5 0.004968 0.004408 -0.009257 -0.002583 0.020561 0.011451
# 6 0.001683 -0.005617 -0.004266 -0.002652 0.011451 0.025322
#
#
# Mechanical properties :
#
#
# Convention : Reuss Voigt Hill
#
# Bulk Modulus (GPa) = 38.58877 -12.12050 13.23414
# Shear Modulus (GPa) = 37.02185 6.49508 21.75846
#
# Velocity S-wave (km/s) = 3.85651 1.61532 2.95651
# Velocity P-wave (km/s) = 5.94410 1.17904 4.11960
#
# Compressibility (1/GPa) = 0.02591427
#
# Stress axis : x y z
#
# Youngs Moduli (GPa) = 91.35881 384.47852 43.89244
#
# Poissons Ratio (x) = 1.30232 0.15682
# Poissons Ratio (y) = 0.30945 -0.07691
# Poissons Ratio (z) = 0.32641 -0.67372
#
# Static dielectric constant tensor:
#      x y z
#    x 1.980930 0.017750 0.014680 
#    y 0.017750 1.855250 0.144470 
#    z 0.014680 0.144470 1.627660 
# 
# From -- ./inp_files/67854.got.cif
#   From: 2010.05.17/outbox.cif.g08.bks.cpg/sg2_34_cif.got.tgz:67854.got - 2010.06.03 11:33:40.
