data_PCOD9042320
_publ_section_title
;
Structure prediction by ZEFSAII (Michael W. Deem and Ramdas Pophale) SiO2 
 PCOD9042320
Probable space group: P -1
;
_chemical_formula_sum "Si O2"
_cell_formula_units_Z 14
_cell_length_a 25.800733
_cell_length_b 15.574376
_cell_length_c 14.877538
_cell_angle_alpha 152.731231
_cell_angle_beta 19.414084
_cell_angle_gamma 161.737589
_cell_volume 621.388713
_symmetry_space_group_name_H-M "P -1"
_symmetry_group_IT_number 2
_symmetry_cell_setting 'triclinic'
loop_
_space_group_symop_operation_xyz
x,y,z
-x,-y,-z
loop_
_atom_site_type_symbol
_atom_site_label
_atom_site_fract_x
_atom_site_fract_y
_atom_site_fract_z
Si Si1 0.699721 0.835728 0.216362
Si Si2 0.694770 0.512907 0.800763
Si Si3 0.630693 0.112032 0.214185
Si Si4 0.915662 0.528774 0.299394
Si Si5 0.907330 0.599977 0.976087
Si Si6 0.555260 0.676811 0.488668
Si Si7 0.093988 0.695583 0.442744
O O1 0.561958 0.909500 0.522438
O O2 0.668317 0.696934 0.231827
O O3 0.615240 0.641359 0.089109
O O4 0.958341 0.120574 0.035852
O O5 0.816708 0.613793 0.598219
O O6 0.886397 0.614045 0.653792
O O7 0.494181 0.184730 0.824443
O O8 0.763568 0.334540 0.283742
O O9 0.823133 0.223376 0.930345
O O10 0.917389 0.358239 0.208913
O O11 0.812750 0.372848 0.845433
O O12 0.701880 0.488069 0.268948
O O13 0.500000 0.500000 0.500000
O O14 0.716921 0.988861 0.544651
O O15 0.000000 0.500000 0.500000
#
# Coordination Sequence:
#
# PCOD9042320 Si02
#       7
#     2   2   2   2   2   2   2
#     4  12  25  43  68 101 136 172 225 282 327 404
#     4  11  25  41  67 100 133 171 221 276 332 397
#     4  11  22  47  69  95 135 173 220 277 335 401
#     4  10  23  44  70  96 131 175 220 275 337 398
#     4  11  23  42  67  96 132 174 230 271 330 402
#     4  12  26  42  64  99 138 178 223 279 334 394
#     4  11  22  42  67  93 132 183 222 271 332 395
#
# _framework density 22.530180000000001
#
# number of rings (size 3 to 8) (size 9 to 14) (size 15 to 20)
#    0.000    0.857    5.714    1.714    2.000    5.143 
#    0.000    1.429    0.000    0.000    0.000    0.000 
#    0.000    0.000    0.000    0.000    0.000    0.000 
#
# Total GULP energy -78264.543465 kJ/mol
# GULP energy per Si atom -5590.324533 kJ/mol
# Density = 2.247890 g / cm^3
# Si number density = 22.530180 Si / 1000 Ang^3
#
#
#
# Elastic Constant Matrix: (Units=GPa)
#
#
# Indices 1 2 3 4 5 6 
#
# 1 55.0686 5.7137 6.2168 -11.6943 18.8870 -5.2971
# 2 5.7137 101.1418 51.5374 -20.5512 15.5451 -0.9452
# 3 6.2168 51.5374 81.2236 -14.6147 38.1822 -4.7833
# 4 -11.6943 -20.5512 -14.6147 38.2685 -0.5143 6.3566
# 5 18.8870 15.5451 38.1822 -0.5143 42.1265 -7.2320
# 6 -5.2971 -0.9452 -4.7833 6.3566 -7.2320 26.8451
#
#
#
# Elastic Compliance Matrix: (Units=1/GPa)
#
#
# Indices 1 2 3 4 5 6 
#
# 1 0.026765 -0.001482 0.010995 0.011514 -0.021507 -0.001332
# 2 -0.001482 0.016016 -0.011991 0.003860 0.005445 -0.001312
# 3 0.010995 -0.011991 0.037216 0.011272 -0.034724 -0.003645
# 4 0.011514 0.003860 0.011272 0.037323 -0.017936 -0.009253
# 5 -0.021507 0.005445 -0.034724 -0.017936 0.064583 0.011406
# 6 -0.001332 -0.001312 -0.003645 -0.009253 0.011406 0.041556
#
#
# Mechanical properties :
#
#
# Convention : Reuss Voigt Hill
#
# Bulk Modulus (GPa) = 13.32609 40.48552 26.90581
# Shear Modulus (GPa) = 19.72935 33.04577 26.38756
#
# Velocity S-wave (km/s) = 2.96241 3.83395 3.42601
# Velocity P-wave (km/s) = 4.19866 6.13249 5.25529
#
# Compressibility (1/GPa) = 0.07504077
#
# Stress axis : x y z
#
# Youngs Moduli (GPa) = 37.36224 62.43626 26.87043
#
# Poissons Ratio (x) = 0.09253 -0.29545
# Poissons Ratio (y) = 0.05537 0.32221
# Poissons Ratio (z) = -0.41081 0.74870
#
# Static dielectric constant tensor:
#      x y z
#    x 1.862870 -0.035390 -0.030320 
#    y -0.035390 1.780330 0.031710 
#    z -0.030320 0.031710 1.900150 
# 
# From -- ./inp_files/269124.got.cif
#   From: 2010.05.17/outbox.cif.g08.bks.cpg/sg2_135_cif.got.tgz:269124.got - 2010.06.03 11:33:40.
