data_PCOD9042546
_publ_section_title
;
Structure prediction by ZEFSAII (Michael W. Deem and Ramdas Pophale) SiO2 
 PCOD9042546
Probable space group: P -1
;
_chemical_formula_sum "Si O2"
_cell_formula_units_Z 10
_cell_length_a 8.151161
_cell_length_b 10.003009
_cell_length_c 6.101872
_cell_angle_alpha 115.860132
_cell_angle_beta 117.526616
_cell_angle_gamma 78.391208
_cell_volume 397.020283
_symmetry_space_group_name_H-M "P -1"
_symmetry_group_IT_number 2
_symmetry_cell_setting 'triclinic'
loop_
_space_group_symop_operation_xyz
x,y,z
-x,-y,-z
loop_
_atom_site_type_symbol
_atom_site_label
_atom_site_fract_x
_atom_site_fract_y
_atom_site_fract_z
Si Si1 0.968061 0.325237 0.379726
Si Si2 0.187272 0.086702 0.131273
Si Si3 0.210863 0.246877 0.833043
Si Si4 0.607996 0.191866 0.825513
Si Si5 0.413834 0.532006 0.226118
O O1 0.000000 0.500000 0.500000
O O2 0.140909 0.251053 0.304331
O O3 0.016234 0.256274 0.595537
O O4 0.769450 0.271106 0.132050
O O5 0.337992 0.980761 0.254529
O O6 0.211004 0.116218 0.914086
O O7 0.000000 0.000000 0.000000
O O8 0.401929 0.211701 0.800720
O O9 0.243208 0.418492 0.044536
O O10 0.619830 0.291415 0.684663
O O11 0.500000 0.500000 0.500000
O O12 0.500000 0.500000 0.000000
#
# Coordination Sequence:
#
# PCOD9042546 Si02
#       5
#     2   2   2   2   2
#     4  11  24  46  71 104 146 185 249 300 372 442
#     4  10  25  46  66 108 144 188 246 306 373 438
#     4  11  24  44  76 102 141 196 245 301 369 447
#     4  10  23  48  70 108 145 188 245 307 370 442
#     4  10  23  44  72 111 145 189 251 303 365 450
#
# _framework density 25.187632000000001
#
# number of rings (size 3 to 8) (size 9 to 14) (size 15 to 20)
#    0.000    1.600    2.000    0.600    5.600    4.800 
#   21.600    0.000    0.000    0.000    0.000    0.000 
#    0.000    0.000    0.000    0.000    0.000    0.000 
#
# Total GULP energy -55700.214122 kJ/mol
# GULP energy per Si atom -5570.021412 kJ/mol
# Density = 2.513030 g / cm^3
# Si number density = 25.187632 Si / 1000 Ang^3
#
#
#
# Elastic Constant Matrix: (Units=GPa)
#
#
# Indices 1 2 3 4 5 6 
#
# 1 93.2502 67.6707 41.4996 -14.6715 18.5341 -7.7072
# 2 67.6707 237.8417 57.7227 -39.3049 -3.2395 -20.7952
# 3 41.4996 57.7227 131.6806 -39.0566 27.8056 0.9155
# 4 -14.6715 -39.3049 -39.0566 46.7853 -14.7978 -2.1993
# 5 18.5341 -3.2395 27.8056 -14.7978 28.9429 -3.6184
# 6 -7.7072 -20.7952 0.9155 -2.1993 -3.6184 55.7932
#
#
#
# Elastic Compliance Matrix: (Units=1/GPa)
#
#
# Indices 1 2 3 4 5 6 
#
# 1 0.017114 -0.005412 -0.001785 -0.004577 -0.012266 -0.000600
# 2 -0.005412 0.007643 -0.001813 0.006428 0.009726 0.003015
# 3 -0.001785 -0.001813 0.012353 0.005545 -0.008273 -0.001443
# 4 -0.004577 0.006428 0.005545 0.035548 0.017021 0.004178
# 5 -0.012266 0.009726 -0.008273 0.017021 0.060980 0.006692
# 6 -0.000600 0.003015 -0.001443 0.004178 0.006692 0.019587
#
#
# Mechanical properties :
#
#
# Convention : Reuss Voigt Hill
#
# Bulk Modulus (GPa) = 52.38185 88.50650 70.44417
# Shear Modulus (GPa) = 28.15218 46.02958 37.09088
#
# Velocity S-wave (km/s) = 3.34683 4.27953 3.84159
# Velocity P-wave (km/s) = 5.98137 7.72232 6.90692
#
# Compressibility (1/GPa) = 0.01909058
#
# Stress axis : x y z
#
# Youngs Moduli (GPa) = 58.43304 130.84546 80.95374
#
# Poissons Ratio (x) = 0.70814 0.14446
# Poissons Ratio (y) = 0.31624 0.14674
# Poissons Ratio (z) = 0.10428 0.23717
#
# Static dielectric constant tensor:
#      x y z
#    x 2.040420 -0.085560 -0.144410 
#    y -0.085560 2.037790 0.040640 
#    z -0.144410 0.040640 2.237960 
# 
# From -- ./inp_files/28591.got.cif
#   From: 2010.05.17/outbox.cif.g08.bks.cpg/sg2_15_cif.got.tgz:28591.got - 2010.06.03 11:33:40.
