data_PCOD9042981
_publ_section_title
;
Structure prediction by ZEFSAII (Michael W. Deem and Ramdas Pophale) SiO2 
 PCOD9042981
Probable space group: P -1
;
_chemical_formula_sum "Si O2"
_cell_formula_units_Z 13
_cell_length_a 15.257428
_cell_length_b 8.531428
_cell_length_c 5.389988
_cell_angle_alpha 120.021432
_cell_angle_beta 69.060160
_cell_angle_gamma 76.389182
_cell_volume 487.305484
_symmetry_space_group_name_H-M "P -1"
_symmetry_group_IT_number 2
_symmetry_cell_setting 'triclinic'
loop_
_space_group_symop_operation_xyz
x,y,z
-x,-y,-z
loop_
_atom_site_type_symbol
_atom_site_label
_atom_site_fract_x
_atom_site_fract_y
_atom_site_fract_z
Si Si1 0.220935 0.838668 0.211738
Si Si2 0.572056 0.286791 0.407749
Si Si3 0.361337 0.138348 0.060191
Si Si4 0.921845 0.187846 0.039786
Si Si5 0.772494 0.800173 0.254256
Si Si6 0.000000 0.500000 0.000000
Si Si7 0.679616 0.449715 0.731898
O O1 0.281332 0.600712 0.065337
O O2 0.207246 0.004642 0.565942
O O3 0.308911 0.835586 0.937328
O O4 0.109867 0.903624 0.238835
O O5 0.500000 0.500000 0.500000
O O6 0.605989 0.344640 0.676995
O O7 0.543473 0.104076 0.274688
O O8 0.306746 0.179439 0.420100
O O9 0.391109 0.314825 0.107678
O O10 0.275139 0.187790 0.959621
O O11 0.968961 0.336533 0.041983
O O12 0.798033 0.338133 0.391435
O O13 0.000000 0.000000 0.000000
O O14 0.888299 0.592572 0.018230
#
# Coordination Sequence:
#
# PCOD9042981 Si02
#       7
#     2   2   2   2   2   1   2
#     4  10  23  45  67  93 143 183 229 297 359 418
#     4  10  24  45  70 103 134 179 237 295 362 434
#     4  11  24  45  69 100 140 183 231 289 363 420
#     4  11  25  42  66 101 141 189 241 291 354 425
#     4  11  24  43  67  99 140 186 233 292 345 420
#     4  12  24  40  66 104 138 186 250 286 344 430
#     4  11  22  44  69  95 142 185 225 296 358 417
#
# _framework density 26.677312000000001
#
# number of rings (size 3 to 8) (size 9 to 14) (size 15 to 20)
#    0.000    1.231    3.077    1.846    6.462    5.538 
#    0.000    0.769    0.000    0.000    0.000    0.000 
#    0.000    0.000    0.000    0.000    0.000    0.000 
#
# Total GULP energy -72439.320355 kJ/mol
# GULP energy per Si atom -5572.255412 kJ/mol
# Density = 2.661659 g / cm^3
# Si number density = 26.677312 Si / 1000 Ang^3
#
#
#
# Elastic Constant Matrix: (Units=GPa)
#
#
# Indices 1 2 3 4 5 6 
#
# 1 84.4310 22.3173 35.8073 -11.9881 6.1867 -12.7309
# 2 22.3173 193.0355 15.5218 15.5476 8.0880 -18.3843
# 3 35.8073 15.5218 56.2519 2.1358 -5.0661 2.6931
# 4 -11.9881 15.5476 2.1358 39.2981 -2.2153 -0.5073
# 5 6.1867 8.0880 -5.0661 -2.2153 35.0418 -1.2975
# 6 -12.7309 -18.3843 2.6931 -0.5073 -1.2975 64.8738
#
#
#
# Elastic Compliance Matrix: (Units=1/GPa)
#
#
# Indices 1 2 3 4 5 6 
#
# 1 0.019598 -0.001213 -0.013000 0.006965 -0.004471 0.004007
# 2 -0.001213 0.005800 -0.000918 -0.002674 -0.001375 0.001395
# 3 -0.013000 -0.000918 0.027212 -0.004793 0.005995 -0.003858
# 4 0.006965 -0.002674 -0.004793 0.028935 0.000563 0.001045
# 5 -0.004471 -0.001375 0.005995 0.000563 0.030513 -0.000901
# 6 0.004007 0.001395 -0.003858 0.001045 -0.000901 0.016747
#
#
# Mechanical properties :
#
#
# Convention : Reuss Voigt Hill
#
# Bulk Modulus (GPa) = 44.74131 53.44568 49.09349
# Shear Modulus (GPa) = 30.02725 45.18088 37.60407
#
# Velocity S-wave (km/s) = 3.35860 4.11981 3.75852
# Velocity P-wave (km/s) = 5.64340 6.53514 6.10557
#
# Compressibility (1/GPa) = 0.02235071
#
# Stress axis : x y z
#
# Youngs Moduli (GPa) = 51.02460 172.40594 36.74841
#
# Poissons Ratio (x) = 0.20904 0.47772
# Poissons Ratio (y) = 0.06187 0.03373
# Poissons Ratio (z) = 0.66331 0.15822
#
# Static dielectric constant tensor:
#      x y z
#    x 2.051650 0.081300 0.096910 
#    y 0.081300 2.166880 0.074300 
#    z 0.096910 0.074300 2.230210 
# 
# From -- ./inp_files/30485.got.cif
#   From: 2010.05.17/outbox.cif.g08.bks.cpg/sg2_16_cif.got.tgz:30485.got - 2010.06.03 11:33:40.
