data_PCOD9042982
_publ_section_title
;
Structure prediction by ZEFSAII (Michael W. Deem and Ramdas Pophale) SiO2 
 PCOD9042982
Probable space group: P -1
;
_chemical_formula_sum "Si O2"
_cell_formula_units_Z 16
_cell_length_a 9.232321
_cell_length_b 15.643863
_cell_length_c 8.814475
_cell_angle_alpha 60.785363
_cell_angle_beta 132.569908
_cell_angle_gamma 91.216388
_cell_volume 717.569010
_symmetry_space_group_name_H-M "P -1"
_symmetry_group_IT_number 2
_symmetry_cell_setting 'triclinic'
loop_
_space_group_symop_operation_xyz
x,y,z
-x,-y,-z
loop_
_atom_site_type_symbol
_atom_site_label
_atom_site_fract_x
_atom_site_fract_y
_atom_site_fract_z
Si Si1 0.620516 0.839151 0.495534
Si Si2 0.778440 0.385652 0.461248
Si Si3 0.833793 0.175085 0.867873
Si Si4 0.563674 0.366280 0.045593
Si Si5 0.767872 0.698420 0.999460
Si Si6 0.247744 0.845186 0.834066
Si Si7 0.204622 0.065002 0.715327
Si Si8 0.302115 0.072157 0.131734
O O1 0.386037 0.837944 0.306886
O O2 0.732608 0.856039 0.409934
O O3 0.779543 0.734446 0.803577
O O4 0.529589 0.956692 0.417444
O O5 0.774645 0.292927 0.648534
O O6 0.567922 0.508240 0.217635
O O7 0.004732 0.383016 0.682055
O O8 0.773615 0.349746 0.313146
O O9 0.075638 0.089965 0.041907
O O10 0.856853 0.168503 0.070799
O O11 0.403070 0.349222 0.066308
O O12 0.599199 0.277566 0.017007
O O13 0.676220 0.817733 0.915685
O O14 0.054472 0.898832 0.525020
O O15 0.325376 0.937151 0.847524
O O16 0.248612 0.069693 0.917820
#
# Coordination Sequence:
#
# PCOD9042982 Si02
#       8
#     2   2   2   2   2   2   2   2
#     4  12  23  39  61  96 133 168 218 257 323 380
#     4  10  23  45  67  94 127 166 220 275 317 381
#     4  11  23  41  64  93 131 173 215 267 315 383
#     4  11  23  43  70  95 124 172 217 268 329 377
#     4  11  23  39  68  96 128 166 218 263 322 385
#     4  11  24  40  63  92 133 170 216 259 326 381
#     4  11  24  39  62  96 136 170 209 265 317 385
#     4  11  23  40  64  94 131 176 215 255 318 389
#
# _framework density 22.297507
#
# number of rings (size 3 to 8) (size 9 to 14) (size 15 to 20)
#    0.000    1.000    2.500    5.250    1.750    1.500 
#    0.000    0.000    0.000    1.500    0.000    0.000 
#    0.000    0.000    0.000    0.000    0.000    0.000 
#
# Total GULP energy -89364.059032 kJ/mol
# GULP energy per Si atom -5585.253690 kJ/mol
# Density = 2.224676 g / cm^3
# Si number density = 22.297507 Si / 1000 Ang^3
#
#
#
# Elastic Constant Matrix: (Units=GPa)
#
#
# Indices 1 2 3 4 5 6 
#
# 1 93.0368 13.5636 16.5134 -0.5664 -16.3738 -0.1101
# 2 13.5636 57.2246 3.0970 -8.1744 -5.0223 -3.1060
# 3 16.5134 3.0970 110.9381 0.5829 -9.5966 0.2553
# 4 -0.5664 -8.1744 0.5829 37.1941 8.7342 -0.8329
# 5 -16.3738 -5.0223 -9.5966 8.7342 30.1907 7.0108
# 6 -0.1101 -3.1060 0.2553 -0.8329 7.0108 26.5414
#
#
#
# Elastic Compliance Matrix: (Units=1/GPa)
#
#
# Indices 1 2 3 4 5 6 
#
# 1 0.012590 -0.002717 -0.001165 -0.002110 0.007128 -0.002204
# 2 -0.002717 0.018841 -0.000162 0.004191 -0.000153 0.002367
# 3 -0.001165 -0.000162 0.009441 -0.000879 0.002801 -0.000882
# 4 -0.002110 0.004191 -0.000879 0.030345 -0.010483 0.004212
# 5 0.007128 -0.000153 0.002801 -0.010483 0.043644 -0.011872
# 6 -0.002204 0.002367 -0.000882 0.004212 -0.011872 0.041222
#
#
# Mechanical properties :
#
#
# Convention : Reuss Voigt Hill
#
# Bulk Modulus (GPa) = 30.50262 36.39414 33.44838
# Shear Modulus (GPa) = 28.55518 33.98693 31.27106
#
# Velocity S-wave (km/s) = 3.58249 3.90840 3.74899
# Velocity P-wave (km/s) = 5.55174 6.06011 5.81149
#
# Compressibility (1/GPa) = 0.03278407
#
# Stress axis : x y z
#
# Youngs Moduli (GPa) = 79.42559 53.07448 105.92099
#
# Poissons Ratio (x) = 0.14418 0.12345
# Poissons Ratio (y) = 0.21577 0.01719
# Poissons Ratio (z) = 0.09257 0.00861
#
# Static dielectric constant tensor:
#      x y z
#    x 1.845760 0.001610 0.021160 
#    y 0.001610 1.855230 0.037230 
#    z 0.021160 0.037230 1.858790 
# 
# From -- ./inp_files/214801.got.cif
#   From: 2010.05.17/outbox.cif.g08.bks.cpg/sg2_108_cif.got.tgz:214801.got - 2010.06.03 11:33:40.
