data_PCOD9042687
_publ_section_title
;
Structure prediction by ZEFSAII (Michael W. Deem and Ramdas Pophale) SiO2 
 PCOD9042687
Probable space group: P -1
;
_chemical_formula_sum "Si O2"
_cell_formula_units_Z 16
_cell_length_a 17.383938
_cell_length_b 16.053153
_cell_length_c 8.388411
_cell_angle_alpha 128.683975
_cell_angle_beta 118.035715
_cell_angle_gamma 23.545889
_cell_volume 689.052898
_symmetry_space_group_name_H-M "P -1"
_symmetry_group_IT_number 2
_symmetry_cell_setting 'triclinic'
loop_
_space_group_symop_operation_xyz
x,y,z
-x,-y,-z
loop_
_atom_site_type_symbol
_atom_site_label
_atom_site_fract_x
_atom_site_fract_y
_atom_site_fract_z
Si Si1 0.091974 0.675594 0.592809
Si Si2 0.230940 0.238336 0.857126
Si Si3 0.568186 0.776515 0.816192
Si Si4 0.313831 0.772704 0.724196
Si Si5 0.466397 0.289218 0.984713
Si Si6 0.104069 0.980491 0.467705
Si Si7 0.834434 0.761357 0.564332
Si Si8 0.132428 0.767753 0.036437
O O1 0.942564 0.755627 0.624978
O O2 0.293839 0.387288 0.400445
O O3 0.013939 0.807120 0.505734
O O4 0.142624 0.719009 0.807114
O O5 0.230372 0.214844 0.641445
O O6 0.342074 0.031476 0.833042
O O7 0.354794 0.207275 0.988396
O O8 0.000000 0.500000 0.000000
O O9 0.594007 0.655453 0.823590
O O10 0.500000 0.500000 0.500000
O O11 0.403598 0.747383 0.918425
O O12 0.218293 0.921996 0.643664
O O13 0.108731 0.955485 0.827945
O O14 0.263632 0.530917 0.972935
O O15 0.626132 0.020588 0.766904
O O16 0.221549 0.778998 0.208252
O O17 0.000000 0.000000 0.500000
O O18 0.000000 0.500000 0.500000
#
# Coordination Sequence:
#
# PCOD9042687 Si02
#       8
#     2   2   2   2   2   2   2   2
#     4  12  25  46  73 107 144 189 242 294 365 432
#     4  11  24  47  69  99 143 184 247 300 355 417
#     4  11  26  42  74 103 133 193 242 296 358 426
#     4  11  23  44  73 105 147 185 241 294 365 431
#     4  12  26  46  75 106 144 195 241 296 367 431
#     4  10  23  44  74 102 139 185 230 296 358 424
#     4  12  28  47  73 105 151 197 239 300 362 424
#     4  11  24  46  71 105 147 186 239 299 363 437
#
# _framework density 23.220278
#
# number of rings (size 3 to 8) (size 9 to 14) (size 15 to 20)
#    0.000    0.750    3.750    3.375    7.000    2.500 
#    0.000    1.250    0.000    0.000    0.000    0.000 
#    0.000    0.000    0.000    0.000    0.000    0.000 
#
# Total GULP energy -89139.271172 kJ/mol
# GULP energy per Si atom -5571.204448 kJ/mol
# Density = 2.316743 g / cm^3
# Si number density = 23.220278 Si / 1000 Ang^3
#
#
#
# Elastic Constant Matrix: (Units=GPa)
#
#
# Indices 1 2 3 4 5 6 
#
# 1 65.9275 34.6756 3.7016 10.8354 -1.9262 6.3903
# 2 34.6756 150.5131 34.2271 -1.3604 -11.8298 14.8220
# 3 3.7016 34.2271 135.8505 -0.4097 -9.9097 -11.4236
# 4 10.8354 -1.3604 -0.4097 45.8096 -3.9993 1.2284
# 5 -1.9262 -11.8298 -9.9097 -3.9993 29.0604 -0.6013
# 6 6.3903 14.8220 -11.4236 1.2284 -0.6013 25.2800
#
#
#
# Elastic Compliance Matrix: (Units=1/GPa)
#
#
# Indices 1 2 3 4 5 6 
#
# 1 0.018253 -0.004226 0.000326 -0.004484 -0.001053 -0.001796
# 2 -0.004226 0.008894 -0.002368 0.001614 0.002647 -0.005232
# 3 0.000326 -0.002368 0.008538 -0.000030 0.002073 0.005215
# 4 -0.004484 0.001614 -0.000030 0.023270 0.003534 -0.000873
# 5 -0.001053 0.002647 0.002073 0.003534 0.036619 0.000350
# 6 -0.001796 -0.005232 0.005215 -0.000873 0.000350 0.045486
#
#
# Mechanical properties :
#
#
# Convention : Reuss Voigt Hill
#
# Bulk Modulus (GPa) = 43.19659 55.27776 49.23717
# Shear Modulus (GPa) = 30.99610 38.67577 34.83593
#
# Velocity S-wave (km/s) = 3.65755 4.08561 3.87749
# Velocity P-wave (km/s) = 6.03989 6.79071 6.42628
#
# Compressibility (1/GPa) = 0.02314998
#
# Stress axis : x y z
#
# Youngs Moduli (GPa) = 54.78651 112.43967 117.11910
#
# Poissons Ratio (x) = 0.47513 -0.03817
# Poissons Ratio (y) = 0.23151 0.27729
# Poissons Ratio (z) = -0.01785 0.26621
#
# Static dielectric constant tensor:
#      x y z
#    x 2.056500 -0.029700 0.035510 
#    y -0.029700 1.917550 0.044110 
#    z 0.035510 0.044110 1.930330 
# 
# From -- ./inp_files/348611.got.cif
#   From: 2010.05.17/outbox.cif.g08.bks.cpg/sg2_175_cif.got.tgz:348611.got - 2010.06.03 11:33:40.
