data_PCOD9042745
_publ_section_title
;
Structure prediction by ZEFSAII (Michael W. Deem and Ramdas Pophale) SiO2 
 PCOD9042745
Probable space group: P -1
;
_chemical_formula_sum "Si O2"
_cell_formula_units_Z 14
_cell_length_a 13.492574
_cell_length_b 9.359138
_cell_length_c 13.319992
_cell_angle_alpha 111.504123
_cell_angle_beta 147.946017
_cell_angle_gamma 48.801209
_cell_volume 589.234316
_symmetry_space_group_name_H-M "P -1"
_symmetry_group_IT_number 2
_symmetry_cell_setting 'triclinic'
loop_
_space_group_symop_operation_xyz
x,y,z
-x,-y,-z
loop_
_atom_site_type_symbol
_atom_site_label
_atom_site_fract_x
_atom_site_fract_y
_atom_site_fract_z
Si Si1 0.595740 0.454604 0.451595
Si Si2 0.006245 0.686791 0.774470
Si Si3 0.410486 0.127746 0.696797
Si Si4 0.272195 0.933103 0.228377
Si Si5 0.424465 0.251762 0.120245
Si Si6 0.894310 0.966608 0.304712
Si Si7 0.368322 0.706934 0.001858
O O1 0.500000 0.500000 0.500000
O O2 0.478755 0.684870 0.375457
O O3 0.494794 0.360090 0.279817
O O4 0.899681 0.276227 0.624714
O O5 0.867298 0.738220 0.561629
O O6 0.233831 0.685750 0.967376
O O7 0.776528 0.902222 0.693698
O O8 0.141196 0.464133 0.886723
O O9 0.635647 0.038182 0.785990
O O10 0.516562 0.928512 0.804982
O O11 0.414726 0.288974 0.796269
O O12 0.000000 0.000000 0.000000
O O13 0.603862 0.109810 0.138776
O O14 0.861641 0.088400 0.209420
O O15 0.000000 0.000000 0.500000
O O16 0.500000 0.500000 0.000000
#
# Coordination Sequence:
#
# PCOD9042745 Si02
#       7
#     2   2   2   2   2   2   2
#     4  11  23  44  80 111 150 206 257 314 382 455
#     4  12  25  51  78 112 156 201 257 313 390 457
#     4  12  29  47  76 115 151 201 258 315 385 461
#     4  12  24  49  77 107 153 202 252 316 386 455
#     4  11  24  49  73 111 160 197 253 326 376 460
#     4  10  23  44  75 110 150 195 255 309 385 451
#     4  12  25  49  77 106 153 201 248 316 380 457
#
# _framework density 23.759650000000001
#
# number of rings (size 3 to 8) (size 9 to 14) (size 15 to 20)
#    0.000    0.571    4.286    3.857    2.000    2.857 
#    2.571    0.000    0.000    0.000    0.000    0.000 
#    0.000    0.000    0.000    0.000    0.000    0.000 
#
# Total GULP energy -78051.079127 kJ/mol
# GULP energy per Si atom -5575.077081 kJ/mol
# Density = 2.370557 g / cm^3
# Si number density = 23.759650 Si / 1000 Ang^3
#
#
#
# Elastic Constant Matrix: (Units=GPa)
#
#
# Indices 1 2 3 4 5 6 
#
# 1 123.6255 72.3765 21.9467 -7.3463 -7.4268 -8.2063
# 2 72.3765 196.7089 87.6849 -30.9634 0.8401 -5.0416
# 3 21.9467 87.6849 110.0689 -13.2341 -13.8644 7.8760
# 4 -7.3463 -30.9634 -13.2341 44.1046 -1.2444 9.4772
# 5 -7.4268 0.8401 -13.8644 -1.2444 32.2398 -9.8088
# 6 -8.2063 -5.0416 7.8760 9.4772 -9.8088 52.7141
#
#
#
# Elastic Compliance Matrix: (Units=1/GPa)
#
#
# Indices 1 2 3 4 5 6 
#
# 1 0.011061 -0.005241 0.002176 -0.001483 0.004152 0.001935
# 2 -0.005241 0.011321 -0.008014 0.004590 -0.004852 -0.000264
# 3 0.002176 -0.008014 0.016055 0.000080 0.007158 -0.001509
# 4 -0.001483 0.004590 0.000080 0.026671 -0.000844 -0.004756
# 5 0.004152 -0.004852 0.007158 -0.000844 0.037018 0.006153
# 6 0.001935 -0.000264 -0.001509 -0.004756 0.006153 0.021472
#
#
# Mechanical properties :
#
#
# Convention : Reuss Voigt Hill
#
# Bulk Modulus (GPa) = 61.43102 88.26881 74.84992
# Shear Modulus (GPa) = 33.07290 42.37137 37.72213
#
# Velocity S-wave (km/s) = 3.73497 4.22753 3.98886
# Velocity P-wave (km/s) = 6.67168 7.81414 7.26540
#
# Compressibility (1/GPa) = 0.01627842
#
# Stress axis : x y z
#
# Youngs Moduli (GPa) = 90.40869 88.33237 62.28688
#
# Poissons Ratio (x) = 0.46298 -0.13555
# Poissons Ratio (y) = 0.47386 0.49916
# Poissons Ratio (z) = -0.19675 0.70789
#
# Static dielectric constant tensor:
#      x y z
#    x 2.101210 -0.094940 0.044300 
#    y -0.094940 2.881510 0.356080 
#    z 0.044300 0.356080 2.082950 
# 
# From -- ./inp_files/530014.got.cif
#   From: 2010.05.17/outbox.cif.g08.bks.cpg/sg2_266_cif.got.tgz:530014.got - 2010.06.03 11:33:40.
