data_PCOD9042520
_publ_section_title
;
Structure prediction by ZEFSAII (Michael W. Deem and Ramdas Pophale) SiO2 
 PCOD9042520
Probable space group: P -1
;
_chemical_formula_sum "Si O2"
_cell_formula_units_Z 14
_cell_length_a 13.070580
_cell_length_b 13.811402
_cell_length_c 11.538475
_cell_angle_alpha 145.521921
_cell_angle_beta 122.508929
_cell_angle_gamma 34.751564
_cell_volume 605.705144
_symmetry_space_group_name_H-M "P -1"
_symmetry_group_IT_number 2
_symmetry_cell_setting 'triclinic'
loop_
_space_group_symop_operation_xyz
x,y,z
-x,-y,-z
loop_
_atom_site_type_symbol
_atom_site_label
_atom_site_fract_x
_atom_site_fract_y
_atom_site_fract_z
Si Si1 0.643836 0.272689 0.701905
Si Si2 0.355196 0.169630 0.255107
Si Si3 0.614294 0.723776 0.364763
Si Si4 0.687096 0.604584 0.776442
Si Si5 0.967417 0.165734 0.896088
Si Si6 0.355989 0.785370 0.859898
Si Si7 0.944537 0.761579 0.218009
O O1 0.525323 0.287133 0.733100
O O2 0.820003 0.183777 0.779190
O O3 0.485337 0.567793 0.829005
O O4 0.746097 0.035363 0.434301
O O5 0.357976 0.256025 0.464688
O O6 0.257512 0.387406 0.307505
O O7 0.576385 0.882206 0.053926
O O8 0.273373 0.068197 0.118007
O O9 0.500000 0.000000 0.500000
O O10 0.824270 0.445811 0.160941
O O11 0.517608 0.649122 0.723159
O O12 0.876027 0.342387 0.707723
O O13 0.050803 0.178997 0.851096
O O14 0.166029 0.886887 0.809510
O O15 0.000000 0.500000 0.000000
#
# Coordination Sequence:
#
# PCOD9042520 Si02
#       7
#     2   2   2   2   2   2   2
#     4  12  27  46  71 105 143 186 236 300 358 422
#     4   9  20  41  71 103 139 190 237 286 348 406
#     4  12  26  47  71 101 146 193 239 298 352 426
#     4   9  19  41  70 104 144 176 239 302 330 415
#     4  12  26  45  71 107 147 190 231 288 370 422
#     4  10  23  44  72 103 148 180 236 300 345 423
#     4  12  24  44  75 107 136 187 243 291 358 420
#
# _framework density 23.113557
#
# number of rings (size 3 to 8) (size 9 to 14) (size 15 to 20)
#    0.857    0.286    1.429    5.143    2.000    2.857 
#    0.000    1.429    0.000    0.000    0.000    0.000 
#    0.000    0.000    0.000    0.000    0.000    0.000 
#
# Total GULP energy -78315.129303 kJ/mol
# GULP energy per Si atom -5593.937807 kJ/mol
# Density = 2.306095 g / cm^3
# Si number density = 23.113557 Si / 1000 Ang^3
#
#
#
# Elastic Constant Matrix: (Units=GPa)
#
#
# Indices 1 2 3 4 5 6 
#
# 1 77.3089 31.1766 13.3079 5.7347 11.8825 -19.1327
# 2 31.1766 126.6138 25.5844 -1.0204 0.7014 -25.8567
# 3 13.3079 25.5844 98.0329 -10.3633 -9.8037 -7.9852
# 4 5.7347 -1.0204 -10.3633 28.5815 -3.0664 -9.7553
# 5 11.8825 0.7014 -9.8037 -3.0664 37.5558 -2.9703
# 6 -19.1327 -25.8567 -7.9852 -9.7553 -2.9703 29.3178
#
#
#
# Elastic Compliance Matrix: (Units=1/GPa)
#
#
# Indices 1 2 3 4 5 6 
#
# 1 0.016988 -0.002315 -0.001903 -0.002306 -0.005447 0.007207
# 2 -0.002315 0.010518 -0.001233 0.003494 0.001189 0.008713
# 3 -0.001903 -0.001233 0.012229 0.006511 0.004637 0.003638
# 4 -0.002306 0.003494 0.006511 0.045300 0.007581 0.019192
# 5 -0.005447 0.001189 0.004637 0.007581 0.030503 0.004369
# 6 0.007207 0.008713 0.003638 0.019192 0.004369 0.054316
#
#
# Mechanical properties :
#
#
# Convention : Reuss Voigt Hill
#
# Bulk Modulus (GPa) = 34.68229 49.12149 41.90189
# Shear Modulus (GPa) = 26.26493 34.55014 30.40754
#
# Velocity S-wave (km/s) = 3.37463 3.87046 3.63102
# Velocity P-wave (km/s) = 5.49744 6.42435 5.97889
#
# Compressibility (1/GPa) = 0.02883316
#
# Stress axis : x y z
#
# Youngs Moduli (GPa) = 58.86415 95.07431 81.77222
#
# Poissons Ratio (x) = 0.22010 0.15564
# Poissons Ratio (y) = 0.13627 0.10080
# Poissons Ratio (z) = 0.11204 0.11720
#
# Static dielectric constant tensor:
#      x y z
#    x 1.853050 -0.036970 0.060260 
#    y -0.036970 1.883750 -0.037710 
#    z 0.060260 -0.037710 1.907490 
# 
# From -- ./inp_files/455942.got.cif
#   From: 2010.05.17/outbox.cif.g08.bks.cpg/sg2_228_cif.got.tgz:455942.got - 2010.06.03 11:33:40.
