data_PCOD9042668
_publ_section_title
;
Structure prediction by ZEFSAII (Michael W. Deem and Ramdas Pophale) SiO2 
 PCOD9042668
Probable space group: P -1
;
_chemical_formula_sum "Si O2"
_cell_formula_units_Z 12
_cell_length_a 6.641300
_cell_length_b 23.883335
_cell_length_c 9.228774
_cell_angle_alpha 148.198123
_cell_angle_beta 132.758973
_cell_angle_gamma 45.144143
_cell_volume 534.325722
_symmetry_space_group_name_H-M "P -1"
_symmetry_group_IT_number 2
_symmetry_cell_setting 'triclinic'
loop_
_space_group_symop_operation_xyz
x,y,z
-x,-y,-z
loop_
_atom_site_type_symbol
_atom_site_label
_atom_site_fract_x
_atom_site_fract_y
_atom_site_fract_z
Si Si1 0.725808 0.886652 0.296056
Si Si2 0.152094 0.582086 0.328805
Si Si3 0.344730 0.880539 0.530537
Si Si4 0.184648 0.498445 0.446500
Si Si5 0.187731 0.285551 0.786640
Si Si6 0.663564 0.063925 0.023526
O O1 0.835182 0.801547 0.294658
O O2 0.524164 0.852383 0.006304
O O3 0.001533 0.906942 0.401107
O O4 0.500000 0.000000 0.500000
O O5 0.064705 0.600957 0.497729
O O6 0.494369 0.520473 0.377975
O O7 0.058100 0.683920 0.392141
O O8 0.000000 0.500000 0.000000
O O9 0.516729 0.769437 0.280668
O O10 0.501565 0.970265 0.757785
O O11 0.370293 0.875503 0.705813
O O12 0.000000 0.500000 0.500000
O O13 0.192166 0.391817 0.116781
O O14 0.000000 0.000000 0.000000
#
# Coordination Sequence:
#
# PCOD9042668 Si02
#       6
#     2   2   2   2   2   2
#     4  12  24  42  64  95 136 181 232 275 327 390
#     4   9  22  45  67  98 132 166 217 275 342 400
#     4  11  24  41  65  90 133 181 224 284 326 385
#     4  10  23  44  73  98 131 171 215 278 342 406
#     4  11  25  39  65 101 134 171 225 277 333 402
#     4  11  23  41  63  90 126 180 230 274 329 382
#
# _framework density 22.458210999999999
#
# number of rings (size 3 to 8) (size 9 to 14) (size 15 to 20)
#    0.000    1.333    3.333    0.500    0.000   13.333 
#    0.000    0.000    0.000    0.000    0.000    0.000 
#    0.000    0.000    0.000    0.000    0.000    0.000 
#
# Total GULP energy -66950.868423 kJ/mol
# GULP energy per Si atom -5579.239035 kJ/mol
# Density = 2.240709 g / cm^3
# Si number density = 22.458211 Si / 1000 Ang^3
#
#
#
# Elastic Constant Matrix: (Units=GPa)
#
#
# Indices 1 2 3 4 5 6 
#
# 1 175.2113 72.9252 56.3167 -30.0544 -14.2573 3.1366
# 2 72.9252 146.7409 43.8936 -44.6102 4.6234 30.3884
# 3 56.3167 43.8936 87.8330 -24.4028 -14.5916 -7.6087
# 4 -30.0544 -44.6102 -24.4028 44.7178 -1.9167 -5.9057
# 5 -14.2573 4.6234 -14.5916 -1.9167 42.3617 -5.3919
# 6 3.1366 30.3884 -7.6087 -5.9057 -5.3919 41.0376
#
#
#
# Elastic Compliance Matrix: (Units=1/GPa)
#
#
# Indices 1 2 3 4 5 6 
#
# 1 0.008408 -0.003538 -0.002756 0.000984 0.002559 0.001944
# 2 -0.003538 0.015063 -0.004876 0.008252 -0.005584 -0.011334
# 3 -0.002756 -0.004876 0.019089 0.005228 0.007576 0.009108
# 4 0.000984 0.008252 0.005228 0.034239 0.002790 0.000077
# 5 0.002559 -0.005584 0.007576 0.002790 0.029029 0.009559
# 6 0.001944 -0.011334 0.009108 0.000077 0.009559 0.035568
#
#
# Mechanical properties :
#
#
# Convention : Reuss Voigt Hill
#
# Bulk Modulus (GPa) = 49.45555 84.00625 66.73090
# Shear Modulus (GPa) = 29.32942 41.40008 35.36475
#
# Velocity S-wave (km/s) = 3.61772 4.29817 3.97254
# Velocity P-wave (km/s) = 6.28645 7.88157 7.12877
#
# Compressibility (1/GPa) = 0.02022018
#
# Stress axis : x y z
#
# Youngs Moduli (GPa) = 118.93338 66.38582 52.38580
#
# Poissons Ratio (x) = 0.23490 0.14438
# Poissons Ratio (y) = 0.42083 0.25542
# Poissons Ratio (z) = 0.32779 0.32369
#
# Static dielectric constant tensor:
#      x y z
#    x 1.865050 0.082410 0.024270 
#    y 0.082410 1.944200 0.027940 
#    z 0.024270 0.027940 1.883370 
# 
# From -- ./inp_files/3119.got.cif
#   From: 2010.05.17/outbox.cif.g08.bks.cpg/sg2_2_cif.got.tgz:3119.got - 2010.06.03 11:33:40.
