data_PCOD9042270
_publ_section_title
;
Structure prediction by ZEFSAII (Michael W. Deem and Ramdas Pophale) SiO2 
 PCOD9042270
Probable space group: P -1
;
_chemical_formula_sum "Si O2"
_cell_formula_units_Z 16
_cell_length_a 16.916486
_cell_length_b 8.906232
_cell_length_c 5.804395
_cell_angle_alpha 56.248905
_cell_angle_beta 90.554452
_cell_angle_gamma 84.525302
_cell_volume 721.717542
_symmetry_space_group_name_H-M "P -1"
_symmetry_group_IT_number 2
_symmetry_cell_setting 'triclinic'
loop_
_space_group_symop_operation_xyz
x,y,z
-x,-y,-z
loop_
_atom_site_type_symbol
_atom_site_label
_atom_site_fract_x
_atom_site_fract_y
_atom_site_fract_z
Si Si1 0.666313 0.693132 0.492789
Si Si2 0.569102 0.053891 0.294842
Si Si3 0.696547 0.153541 0.565903
Si Si4 0.428329 0.632361 0.279602
Si Si5 0.252481 0.256585 0.046749
Si Si6 0.832421 0.406214 0.396843
Si Si7 0.932934 0.497346 0.696794
Si Si8 0.013349 0.784851 0.666442
O O1 0.629300 0.507234 0.696992
O O2 0.704995 0.685809 0.241725
O O3 0.600703 0.870410 0.318683
O O4 0.711559 0.722399 0.712832
O O5 0.646993 0.115266 0.370406
O O6 0.500000 0.000000 0.500000
O O7 0.535069 0.233220 0.006296
O O8 0.626938 0.230876 0.673240
O O9 0.757012 0.303023 0.428778
O O10 0.745952 0.960034 0.799881
O O11 0.500000 0.500000 0.500000
O O12 0.174606 0.404529 0.904901
O O13 0.849799 0.461614 0.612354
O O14 0.909557 0.271402 0.441924
O O15 0.000000 0.500000 0.500000
O O16 0.938232 0.693470 0.644092
O O17 0.962791 0.329451 0.005047
O O18 0.000000 0.000000 0.500000
#
# Coordination Sequence:
#
# PCOD9042270 Si02
#       8
#     2   2   2   2   2   2   2   2
#     4  11  25  46  70  95 145 181 238 297 368 427
#     4  11  26  45  68  96 141 189 241 301 368 436
#     4  11  25  44  66 101 138 181 244 292 363 429
#     4  12  26  41  71  98 135 184 242 300 367 430
#     4  11  25  46  70 101 141 188 229 302 357 431
#     4  11  24  42  71 101 137 182 233 293 356 419
#     4   9  22  43  68 100 143 181 225 282 348 422
#     4  10  23  44  70 104 142 184 232 282 349 428
#
# _framework density 22.169335
#
# number of rings (size 3 to 8) (size 9 to 14) (size 15 to 20)
#    0.000    1.250    2.500    1.500    5.250    9.000 
#    2.250    0.000    0.000    0.000    0.000    0.000 
#    0.000    0.000    0.000    0.000    0.000    0.000 
#
# Total GULP energy -89232.213051 kJ/mol
# GULP energy per Si atom -5577.013316 kJ/mol
# Density = 2.211888 g / cm^3
# Si number density = 22.169335 Si / 1000 Ang^3
#
#
#
# Elastic Constant Matrix: (Units=GPa)
#
#
# Indices 1 2 3 4 5 6 
#
# 1 52.1440 31.5493 8.0189 2.1182 1.6712 -10.3258
# 2 31.5493 145.3341 57.4904 -32.8122 11.6186 -5.4309
# 3 8.0189 57.4904 111.9035 -22.2826 3.8566 -1.6009
# 4 2.1182 -32.8122 -22.2826 43.1737 -12.1534 20.5395
# 5 1.6712 11.6186 3.8566 -12.1534 39.3759 5.4061
# 6 -10.3258 -5.4309 -1.6009 20.5395 5.4061 9.4987
#
#
#
# Elastic Compliance Matrix: (Units=1/GPa)
#
#
# Indices 1 2 3 4 5 6 
#
# 1 0.011789 -0.001518 0.002855 0.018885 0.010193 -0.034208
# 2 -0.001518 0.009280 -0.005087 -0.004182 -0.005524 0.014985
# 3 0.002855 -0.005087 0.011106 -0.001910 -0.001246 0.006906
# 4 0.018885 -0.004182 -0.001910 -0.021716 -0.016246 0.074020
# 5 0.010193 -0.005524 -0.001246 -0.016246 0.017160 0.033075
# 6 -0.034208 0.014985 0.006906 0.074020 0.033075 -0.101060
#
#
# Mechanical properties :
#
#
# Convention : Reuss Voigt Hill
#
# Bulk Modulus (GPa) = 40.52600 55.94432 48.23516
# Shear Modulus (GPa) = -86.63195 32.56451 -27.03372
#
# Velocity S-wave (km/s) = -6.25797 3.83678 -3.49581
# Velocity P-wave (km/s) = 5.82206 6.70206 2.34747
#
# Compressibility (1/GPa) = 0.02467552
#
# Stress axis : x y z
#
# Youngs Moduli (GPa) = 84.82287 107.76104 90.03838
#
# Poissons Ratio (x) = 0.16359 -0.25705
# Poissons Ratio (y) = 0.12877 0.45800
# Poissons Ratio (z) = -0.24216 0.54815
#
# Static dielectric constant tensor:
#      x y z
#    x 1.874960 -0.006650 0.042500 
#    y -0.006650 1.975860 0.154970 
#    z 0.042500 0.154970 1.916710 
# 
# From -- ./inp_files/51781.got.cif
#   From: 2010.05.17/outbox.cif.g08.bks.cpg/sg2_26_cif.got.tgz:51781.got - 2010.06.03 11:33:40.
