data_PCOD9042223
_publ_section_title
;
Structure prediction by ZEFSAII (Michael W. Deem and Ramdas Pophale) SiO2 
 PCOD9042223
Probable space group: P -1
;
_chemical_formula_sum "Si O2"
_cell_formula_units_Z 14
_cell_length_a 20.058544
_cell_length_b 10.928712
_cell_length_c 12.366465
_cell_angle_alpha 49.062912
_cell_angle_beta 25.389223
_cell_angle_gamma 35.126224
_cell_volume 629.157151
_symmetry_space_group_name_H-M "P -1"
_symmetry_group_IT_number 2
_symmetry_cell_setting 'triclinic'
loop_
_space_group_symop_operation_xyz
x,y,z
-x,-y,-z
loop_
_atom_site_type_symbol
_atom_site_label
_atom_site_fract_x
_atom_site_fract_y
_atom_site_fract_z
Si Si1 0.343211 0.768392 0.064402
Si Si2 0.974401 0.567686 0.741438
Si Si3 0.685861 0.028861 0.792420
Si Si4 0.672917 0.872304 0.195973
Si Si5 0.217125 0.100149 0.744169
Si Si6 0.937938 0.107988 0.801544
Si Si7 0.796032 0.544860 0.734385
O O1 0.429008 0.877409 0.827976
O O2 0.500000 0.500000 0.000000
O O3 0.271297 0.875015 0.227432
O O4 0.157291 0.868110 0.191109
O O5 0.059837 0.322679 0.771280
O O6 0.164425 0.505986 0.423698
O O7 0.772832 0.791100 0.840991
O O8 0.888367 0.684893 0.917480
O O9 0.430224 0.209090 0.054436
O O10 0.819591 0.001859 0.511034
O O11 0.746536 0.828215 0.237666
O O12 0.470092 0.900189 0.452434
O O13 0.105443 0.011764 0.988955
O O14 0.802987 0.364793 0.883556
O O15 0.000000 0.500000 0.500000
#
# Coordination Sequence:
#
# PCOD9042223 Si02
#       7
#     2   2   2   2   2   2   2
#     4  10  17  33  58  88 122 153 192 240 294 353
#     4  10  20  36  60  83 115 152 198 240 292 353
#     4  10  21  37  59  87 116 156 195 246 307 348
#     4   9  20  34  56  86 126 168 189 230 291 359
#     4  10  20  37  55  89 125 159 196 230 294 364
#     4  10  22  36  58  91 121 155 194 246 294 358
#     4  11  24  43  64  85 113 154 209 260 298 343
#
# _framework density 22.251992999999999
#
# number of rings (size 3 to 8) (size 9 to 14) (size 15 to 20)
#    0.000    2.000    1.429    2.571    2.000    4.571 
#    2.571    0.714    0.000    2.571    0.000    0.000 
#    0.000    0.000    0.000    0.000    0.000    0.000 
#
# Total GULP energy -77953.078705 kJ/mol
# GULP energy per Si atom -5568.077050 kJ/mol
# Density = 2.220135 g / cm^3
# Si number density = 22.251993 Si / 1000 Ang^3
#
#
#
# Elastic Constant Matrix: (Units=GPa)
#
#
# Indices 1 2 3 4 5 6 
#
# 1 26.1630 16.6084 16.4692 3.1417 -5.5646 6.5185
# 2 16.6084 163.7305 59.8269 -9.7520 -0.4253 -35.5763
# 3 16.4692 59.8269 108.0389 -6.2332 -3.7521 -29.4755
# 4 3.1417 -9.7520 -6.2332 44.8355 -3.4293 4.6402
# 5 -5.5646 -0.4253 -3.7521 -3.4293 34.6210 3.8293
# 6 6.5185 -35.5763 -29.4755 4.6402 3.8293 14.5719
#
#
#
# Elastic Compliance Matrix: (Units=1/GPa)
#
#
# Indices 1 2 3 4 5 6 
#
# 1 -0.041365 0.025257 0.033633 -0.004522 -0.020282 0.154970
# 2 0.025257 -0.001243 -0.016535 0.001481 0.007967 -0.050343
# 3 0.033633 -0.016535 -0.005219 0.001494 0.012498 -0.069730
# 4 -0.004522 0.001481 0.001494 0.023190 0.001657 0.000840
# 5 -0.020282 0.007967 0.012498 0.001657 0.021987 0.047499
# 6 0.154970 -0.050343 -0.069730 0.000840 0.047499 -0.277406
#
#
# Mechanical properties :
#
#
# Convention : Reuss Voigt Hill
#
# Bulk Modulus (GPa) = 27.11091 53.74906 40.42999
# Shear Modulus (GPa) = -14.18558 32.47420 9.14431
#
# Velocity S-wave (km/s) = -2.52761 3.82433 2.02937
# Velocity P-wave (km/s) = 1.92136 6.61119 4.86824
#
# Compressibility (1/GPa) = 0.03688552
#
# Stress axis : x y z
#
# Youngs Moduli (GPa) = -24.17523 -804.72162 -191.61831
#
# Poissons Ratio (x) = 20.32488 6.44479
# Poissons Ratio (y) = 0.61059 -3.16836
# Poissons Ratio (z) = 0.81310 -13.30585
#
# Static dielectric constant tensor:
#      x y z
#    x 1.947320 0.015980 -0.010150 
#    y 0.015980 1.812230 0.013920 
#    z -0.010150 0.013920 1.872320 
# 
# From -- ./inp_files/66953.got.cif
#   From: 2010.05.17/outbox.cif.g08.bks.cpg/sg2_34_cif.got.tgz:66953.got - 2010.06.03 11:33:40.
