data_PCOD9042531
_publ_section_title
;
Structure prediction by ZEFSAII (Michael W. Deem and Ramdas Pophale) SiO2 
 PCOD9042531
Probable space group: P -1
;
_chemical_formula_sum "Si O2"
_cell_formula_units_Z 12
_cell_length_a 9.313556
_cell_length_b 7.168446
_cell_length_c 11.940834
_cell_angle_alpha 129.029837
_cell_angle_beta 81.057108
_cell_angle_gamma 125.052072
_cell_volume 479.575284
_symmetry_space_group_name_H-M "P -1"
_symmetry_group_IT_number 2
_symmetry_cell_setting 'triclinic'
loop_
_space_group_symop_operation_xyz
x,y,z
-x,-y,-z
loop_
_atom_site_type_symbol
_atom_site_label
_atom_site_fract_x
_atom_site_fract_y
_atom_site_fract_z
Si Si1 0.857998 0.534583 0.090013
Si Si2 0.143385 0.363989 0.615205
Si Si3 0.552175 0.658528 0.358303
Si Si4 0.456522 0.259446 0.007370
Si Si5 0.228746 0.651525 0.475676
Si Si6 0.061236 0.911436 0.850445
O O1 0.888807 0.564233 0.229394
O O2 0.635646 0.267348 0.994199
O O3 0.898900 0.843360 0.154894
O O4 0.000000 0.500000 0.000000
O O5 0.698418 0.001353 0.417183
O O6 0.137420 0.499255 0.549247
O O7 0.000000 0.000000 0.500000
O O8 0.450103 0.403416 0.177132
O O9 0.411079 0.673148 0.450624
O O10 0.658305 0.565335 0.378827
O O11 0.500000 0.500000 0.000000
O O12 0.253367 0.976137 0.884390
O O13 0.100184 0.424539 0.303618
O O14 0.000000 0.000000 0.000000
#
# Coordination Sequence:
#
# PCOD9042531 Si02
#       6
#     2   2   2   2   2   2
#     4  10  23  46  69 102 147 190 240 300 364 430
#     4  11  23  45  70 104 149 182 244 308 358 430
#     4  10  23  44  72 105 143 189 245 293 369 438
#     4   9  20  43  70  99 142 187 236 298 354 437
#     4  11  23  44  75 109 140 194 238 299 370 439
#     4  11  21  42  75 104 143 185 242 297 368 435
#
# _framework density 25.022138999999999
#
# number of rings (size 3 to 8) (size 9 to 14) (size 15 to 20)
#    0.000    1.667    3.333    0.500    0.000    2.000 
#   12.000    0.833    0.000    1.000    0.000    0.000 
#    0.000    0.000    0.000    0.000    0.000    0.000 
#
# Total GULP energy -67156.499804 kJ/mol
# GULP energy per Si atom -5596.374984 kJ/mol
# Density = 2.496519 g / cm^3
# Si number density = 25.022139 Si / 1000 Ang^3
#
#
#
# Elastic Constant Matrix: (Units=GPa)
#
#
# Indices 1 2 3 4 5 6 
#
# 1 111.1487 22.8899 77.9457 -19.0732 -3.4738 19.9378
# 2 22.8899 125.5771 69.5180 -7.6074 9.0334 -9.8159
# 3 77.9457 69.5180 152.9303 -6.7232 18.2585 -2.1259
# 4 -19.0732 -7.6074 -6.7232 41.6738 8.3363 2.1340
# 5 -3.4738 9.0334 18.2585 8.3363 49.5816 -11.3659
# 6 19.9378 -9.8159 -2.1259 2.1340 -11.3659 53.3101
#
#
#
# Elastic Compliance Matrix: (Units=1/GPa)
#
#
# Indices 1 2 3 4 5 6 
#
# 1 0.018238 0.002128 -0.010281 0.007029 0.001958 -0.006703
# 2 0.002128 0.011109 -0.006068 0.001920 0.000263 0.000987
# 3 -0.010281 -0.006068 0.014939 -0.002720 -0.004071 0.002564
# 4 0.007029 0.001920 -0.002720 0.028284 -0.004644 -0.004506
# 5 0.001958 0.000263 -0.004071 -0.004644 0.023537 0.004358
# 6 -0.006703 0.000987 0.002564 -0.004506 0.004358 0.022659
#
#
# Mechanical properties :
#
#
# Convention : Reuss Voigt Hill
#
# Bulk Modulus (GPa) = 63.11097 81.15147 72.13122
# Shear Modulus (GPa) = 32.78927 43.53328 38.16127
#
# Velocity S-wave (km/s) = 3.62389 4.17560 3.90949
# Velocity P-wave (km/s) = 6.54117 7.46658 7.01914
#
# Compressibility (1/GPa) = 0.01584511
#
# Stress axis : x y z
#
# Youngs Moduli (GPa) = 54.83011 90.01825 66.93786
#
# Poissons Ratio (x) = -0.19156 0.68818
# Poissons Ratio (y) = -0.11668 0.40616
# Poissons Ratio (z) = 0.56370 0.54620
#
# Static dielectric constant tensor:
#      x y z
#    x 1.821520 0.206440 -0.002770 
#    y 0.206440 1.882440 0.016960 
#    z -0.002770 0.016960 1.888100 
# 
# From -- ./inp_files/161543.got.cif
#   From: 2010.05.17/outbox.cif.g08.bks.cpg/sg2_81_cif.got.tgz:161543.got - 2010.06.03 11:33:40.
