data_PCOD9042790
_publ_section_title
;
Structure prediction by ZEFSAII (Michael W. Deem and Ramdas Pophale) SiO2 
 PCOD9042790
Probable space group: P -1
;
_chemical_formula_sum "Si O2"
_cell_formula_units_Z 14
_cell_length_a 16.379518
_cell_length_b 11.938869
_cell_length_c 5.089351
_cell_angle_alpha 83.055028
_cell_angle_beta 75.445646
_cell_angle_gamma 37.555874
_cell_volume 581.970324
_symmetry_space_group_name_H-M "P -1"
_symmetry_group_IT_number 2
_symmetry_cell_setting 'triclinic'
loop_
_space_group_symop_operation_xyz
x,y,z
-x,-y,-z
loop_
_atom_site_type_symbol
_atom_site_label
_atom_site_fract_x
_atom_site_fract_y
_atom_site_fract_z
Si Si1 0.348395 0.625719 0.487612
Si Si2 0.758977 0.486727 0.199060
Si Si3 0.873917 0.638808 0.858836
Si Si4 0.025383 0.664819 0.514441
Si Si5 0.593321 0.648054 0.777971
Si Si6 0.425330 0.025457 0.803882
Si Si7 0.940765 0.993412 0.303345
O O1 0.500000 0.500000 0.500000
O O2 0.386838 0.507792 0.233854
O O3 0.224808 0.847825 0.537386
O O4 0.263274 0.624389 0.729976
O O5 0.697426 0.576414 0.940093
O O6 0.993939 0.201820 0.679285
O O7 0.897615 0.379190 0.264821
O O8 0.896922 0.516812 0.658775
O O9 0.884484 0.749656 0.680861
O O10 0.734988 0.775208 0.096957
O O11 0.000000 0.500000 0.000000
O O12 0.354511 0.357784 0.537743
O O13 0.448385 0.865022 0.863047
O O14 0.500000 0.000000 0.500000
O O15 0.500000 0.000000 0.000000
O O16 0.000000 0.000000 0.500000
O O17 0.000000 0.000000 0.000000
#
# Coordination Sequence:
#
# PCOD9042790 Si02
#       7
#     2   2   2   2   2   2   2
#     4  10  26  46  74 110 149 192 251 313 391 451
#     4  10  23  44  77 103 145 202 241 315 380 460
#     4  11  30  48  79 115 158 213 260 331 391 460
#     4  11  27  50  78 112 163 202 275 319 394 471
#     4  10  24  44  72 103 146 192 249 299 388 452
#     4  12  28  47  77 112 153 200 261 320 394 467
#     4  12  28  48  79 115 150 208 262 319 394 471
#
# _framework density 24.056208000000002
#
# number of rings (size 3 to 8) (size 9 to 14) (size 15 to 20)
#    0.857    0.286    1.429    1.714   16.000    4.000 
#    0.000    0.000    0.000    0.000    0.000    0.000 
#    0.000    0.000    0.000    0.000    0.000    0.000 
#
# Total GULP energy -77998.085826 kJ/mol
# GULP energy per Si atom -5571.291845 kJ/mol
# Density = 2.400146 g / cm^3
# Si number density = 24.056208 Si / 1000 Ang^3
#
#
#
# Elastic Constant Matrix: (Units=GPa)
#
#
# Indices 1 2 3 4 5 6 
#
# 1 133.6836 52.2282 67.5546 -7.9379 4.1502 -6.4399
# 2 52.2282 140.6351 52.2873 26.7874 12.9201 -7.9482
# 3 67.5546 52.2873 136.8847 2.3016 22.1574 -15.4608
# 4 -7.9379 26.7874 2.3016 36.0801 -7.3535 -4.9737
# 5 4.1502 12.9201 22.1574 -7.3535 44.8292 -5.3019
# 6 -6.4399 -7.9482 -15.4608 -4.9737 -5.3019 50.7922
#
#
#
# Elastic Compliance Matrix: (Units=1/GPa)
#
#
# Indices 1 2 3 4 5 6 
#
# 1 0.011953 -0.004232 -0.004958 0.006909 0.003746 0.000411
# 2 -0.004232 0.011559 -0.001591 -0.010297 -0.003917 -0.000629
# 3 -0.004958 -0.001591 0.011362 -0.001319 -0.004682 0.001963
# 4 0.006909 -0.010297 -0.001319 0.039503 0.009905 0.003765
# 5 0.003746 -0.003917 -0.004682 0.009905 0.027295 0.002256
# 6 0.000411 -0.000629 0.001963 0.003765 0.002256 0.020844
#
#
# Mechanical properties :
#
#
# Convention : Reuss Voigt Hill
#
# Bulk Modulus (GPa) = 75.12227 83.92708 79.52467
# Shear Modulus (GPa) = 33.66642 42.28251 37.97447
#
# Velocity S-wave (km/s) = 3.74503 4.19699 3.97744
# Velocity P-wave (km/s) = 7.07078 7.64525 7.36362
#
# Compressibility (1/GPa) = 0.01331163
#
# Stress axis : x y z
#
# Youngs Moduli (GPa) = 83.65877 86.50995 88.01355
#
# Poissons Ratio (x) = 0.36615 0.43641
# Poissons Ratio (y) = 0.35408 0.13999
# Poissons Ratio (z) = 0.41482 0.13760
#
# Static dielectric constant tensor:
#      x y z
#    x 2.056490 0.233540 -0.119970 
#    y 0.233540 2.255160 -0.031310 
#    z -0.119970 -0.031310 2.024470 
# 
# From -- ./inp_files/110831.got.cif
#   From: 2010.05.17/outbox.cif.g08.bks.cpg/sg2_56_cif.got.tgz:110831.got - 2010.06.03 11:33:40.
