data_PCOD9042695
_publ_section_title
;
Structure prediction by ZEFSAII (Michael W. Deem and Ramdas Pophale) SiO2 
 PCOD9042695
Probable space group: P -1
;
_chemical_formula_sum "Si O2"
_cell_formula_units_Z 12
_cell_length_a 8.924231
_cell_length_b 8.382801
_cell_length_c 20.263077
_cell_angle_alpha 44.117886
_cell_angle_beta 30.789981
_cell_angle_gamma 44.452280
_cell_volume 519.733544
_symmetry_space_group_name_H-M "P -1"
_symmetry_group_IT_number 2
_symmetry_cell_setting 'triclinic'
loop_
_space_group_symop_operation_xyz
x,y,z
-x,-y,-z
loop_
_atom_site_type_symbol
_atom_site_label
_atom_site_fract_x
_atom_site_fract_y
_atom_site_fract_z
Si Si1 0.836772 0.643432 0.317740
Si Si2 0.440105 0.119087 0.915209
Si Si3 0.196794 0.488229 0.362177
Si Si4 0.231859 0.207291 0.224969
Si Si5 0.775385 0.018436 0.518070
Si Si6 0.146562 0.904512 0.902794
O O1 0.988457 0.549889 0.357480
O O2 0.988615 0.458658 0.257171
O O3 0.481566 0.741727 0.440470
O O4 0.896965 0.882995 0.195757
O O5 0.599193 0.327758 0.775513
O O6 0.583570 0.888612 0.882164
O O7 0.082492 0.233798 0.999058
O O8 0.500000 0.000000 0.000000
O O9 0.356863 0.204848 0.378745
O O10 0.000000 0.500000 0.500000
O O11 0.497290 0.193717 0.183681
O O12 0.008804 0.036410 0.367042
O O13 0.000000 0.000000 0.500000
O O14 0.000000 0.000000 0.000000
#
# Coordination Sequence:
#
# PCOD9042695 Si02
#       6
#     2   2   2   2   2   2
#     4  12  24  45  75 108 145 200 249 305 368 439
#     4  11  24  49  76 110 150 195 244 307 381 433
#     4  12  26  46  73 110 153 192 246 312 374 433
#     4  11  24  46  77 108 145 196 255 302 362 451
#     4  12  24  45  74 109 145 190 252 304 367 445
#     4  10  23  44  74 104 146 194 255 296 361 448
#
# _framework density 23.088756
#
# number of rings (size 3 to 8) (size 9 to 14) (size 15 to 20)
#    0.000    0.667    6.667    0.500    0.000    3.333 
#    3.000    5.000    0.000    0.000    0.000    0.000 
#    0.000    0.000    0.000    0.000    0.000    0.000 
#
# Total GULP energy -66853.125119 kJ/mol
# GULP energy per Si atom -5571.093760 kJ/mol
# Density = 2.303620 g / cm^3
# Si number density = 23.088756 Si / 1000 Ang^3
#
#
#
# Elastic Constant Matrix: (Units=GPa)
#
#
# Indices 1 2 3 4 5 6 
#
# 1 92.9542 46.7403 52.8898 1.2899 2.5606 10.9030
# 2 46.7403 141.5894 56.1793 10.8889 -12.9362 14.7441
# 3 52.8898 56.1793 143.3719 1.9556 -6.4091 4.1317
# 4 1.2899 10.8889 1.9556 34.2185 4.9146 -0.4248
# 5 2.5606 -12.9362 -6.4091 4.9146 51.5321 5.9696
# 6 10.9030 14.7441 4.1317 -0.4248 5.9696 28.7432
#
#
#
# Elastic Compliance Matrix: (Units=1/GPa)
#
#
# Indices 1 2 3 4 5 6 
#
# 1 0.015270 -0.003219 -0.004377 0.000924 -0.001838 -0.003117
# 2 -0.003219 0.010114 -0.002459 -0.003474 0.003227 -0.004335
# 3 -0.004377 -0.002459 0.009534 0.000336 0.000588 0.001434
# 4 0.000924 -0.003474 0.000336 0.030903 -0.004136 0.002699
# 5 -0.001838 0.003227 0.000588 -0.004136 0.021417 -0.005552
# 6 -0.003117 -0.004335 0.001434 0.002699 -0.005552 0.039184
#
#
# Mechanical properties :
#
#
# Convention : Reuss Voigt Hill
#
# Bulk Modulus (GPa) = 67.52967 76.61494 72.07231
# Shear Modulus (GPa) = 33.01026 37.70583 35.35805
#
# Velocity S-wave (km/s) = 3.78525 4.04553 3.91755
# Velocity P-wave (km/s) = 6.95813 7.42136 7.19347
#
# Compressibility (1/GPa) = 0.01480830
#
# Stress axis : x y z
#
# Youngs Moduli (GPa) = 65.48683 98.86877 104.89299
#
# Poissons Ratio (x) = 0.31823 0.45911
# Poissons Ratio (y) = 0.21078 0.25797
# Poissons Ratio (z) = 0.28663 0.24315
#
# Static dielectric constant tensor:
#      x y z
#    x 1.835130 -0.002480 -0.075140 
#    y -0.002480 1.899440 -0.023400 
#    z -0.075140 -0.023400 1.991010 
# 
# From -- ./inp_files/26074.got.cif
#   From: 2010.05.17/outbox.cif.g08.bks.cpg/sg2_14_cif.got.tgz:26074.got - 2010.06.03 11:33:40.
