data_PCOD9042136
_publ_section_title
;
Structure prediction by ZEFSAII (Michael W. Deem and Ramdas Pophale) SiO2 
 PCOD9042136
Probable space group: P -1
;
_chemical_formula_sum "Si O2"
_cell_formula_units_Z 16
_cell_length_a 17.193333
_cell_length_b 9.216204
_cell_length_c 10.339607
_cell_angle_alpha 71.952530
_cell_angle_beta 67.919990
_cell_angle_gamma 25.744924
_cell_volume 657.776833
_symmetry_space_group_name_H-M "P -1"
_symmetry_group_IT_number 2
_symmetry_cell_setting 'triclinic'
loop_
_space_group_symop_operation_xyz
x,y,z
-x,-y,-z
loop_
_atom_site_type_symbol
_atom_site_label
_atom_site_fract_x
_atom_site_fract_y
_atom_site_fract_z
Si Si1 0.928507 0.884448 0.301592
Si Si2 0.247514 0.181940 0.182033
Si Si3 0.745111 0.117834 0.083256
Si Si4 0.977328 0.740165 0.798962
Si Si5 0.340661 0.878861 0.461344
Si Si6 0.297898 0.256451 0.551666
Si Si7 0.168068 0.712780 0.314317
Si Si8 0.516183 0.220755 0.082654
O O1 0.126259 0.499964 0.244105
O O2 0.981044 0.970310 0.283363
O O3 0.798600 0.069730 0.208609
O O4 0.845190 0.918944 0.459547
O O5 0.104230 0.288666 0.188031
O O6 0.364040 0.907248 0.295436
O O7 0.360152 0.062423 0.023208
O O8 0.643423 0.121526 0.121335
O O9 0.604822 0.466926 0.014919
O O10 0.925899 0.833492 0.956633
O O11 0.185896 0.417635 0.710364
O O12 0.853756 0.071213 0.714929
O O13 0.500000 0.500000 0.500000
O O14 0.318458 0.060415 0.520299
O O15 0.178895 0.576824 0.461454
O O16 0.500000 0.000000 0.500000
O O17 0.364435 0.374632 0.213555
#
# Coordination Sequence:
#
# PCOD9042136 Si02
#       8
#     2   2   2   2   2   2   2   2
#     4  12  24  42  69  99 132 175 220 280 328 391
#     4  11  22  44  69  94 129 175 225 271 326 394
#     4   9  21  42  69  97 130 179 224 258 327 400
#     4  10  23  44  69  94 132 177 215 269 327 399
#     4  12  27  45  68  94 131 177 224 276 329 397
#     4  12  27  44  65 101 131 173 225 276 330 396
#     4  11  25  43  68 101 138 171 213 279 337 384
#     4   9  21  41  67  99 133 173 218 268 325 399
#
# _framework density 24.324361
#
# number of rings (size 3 to 8) (size 9 to 14) (size 15 to 20)
#    0.000    1.250    2.500    3.000    5.250    5.500 
#    2.250    0.000    0.000    0.000    0.000    0.000 
#    0.000    0.000    0.000    0.000    0.000    0.000 
#
# Total GULP energy -89527.454480 kJ/mol
# GULP energy per Si atom -5595.465905 kJ/mol
# Density = 2.426900 g / cm^3
# Si number density = 24.324361 Si / 1000 Ang^3
#
#
#
# Elastic Constant Matrix: (Units=GPa)
#
#
# Indices 1 2 3 4 5 6 
#
# 1 80.8156 0.2706 30.8302 9.6064 -17.4888 -12.9754
# 2 0.2706 82.8883 17.0113 -3.1674 -5.2433 -2.6064
# 3 30.8302 17.0113 107.6850 21.5202 -9.5106 -12.4788
# 4 9.6064 -3.1674 21.5202 57.4106 -10.7965 -4.6534
# 5 -17.4888 -5.2433 -9.5106 -10.7965 33.1968 -2.3472
# 6 -12.9754 -2.6064 -12.4788 -4.6534 -2.3472 36.0267
#
#
#
# Elastic Compliance Matrix: (Units=1/GPa)
#
#
# Indices 1 2 3 4 5 6 
#
# 1 0.016374 0.001435 -0.003698 0.000743 0.008414 0.005364
# 2 0.001435 0.012854 -0.002476 0.002008 0.002803 0.001031
# 3 -0.003698 -0.002476 0.011720 -0.003755 -0.000057 0.002060
# 4 0.000743 0.002008 -0.003755 0.020179 0.006346 0.002132
# 5 0.008414 0.002803 -0.000057 0.006346 0.037504 0.006477
# 6 0.005364 0.001031 0.002060 0.002132 0.006477 0.031175
#
#
# Mechanical properties :
#
#
# Convention : Reuss Voigt Hill
#
# Bulk Modulus (GPa) = 31.77605 40.84590 36.31098
# Shear Modulus (GPa) = 33.38378 40.21195 36.79786
#
# Velocity S-wave (km/s) = 3.70867 4.07031 3.89369
# Velocity P-wave (km/s) = 5.60632 6.23847 5.93082
#
# Compressibility (1/GPa) = 0.03147024
#
# Stress axis : x y z
#
# Youngs Moduli (GPa) = 61.07398 77.79519 85.32245
#
# Poissons Ratio (x) = -0.11162 0.31553
# Poissons Ratio (y) = -0.08763 0.21123
# Poissons Ratio (z) = 0.22586 0.19259
#
# Static dielectric constant tensor:
#      x y z
#    x 1.893460 -0.028060 0.045770 
#    y -0.028060 1.962070 0.003720 
#    z 0.045770 0.003720 1.931250 
# 
# From -- ./inp_files/461165.got.cif
#   From: 2010.05.17/outbox.cif.g08.bks.cpg/sg2_231_cif.got.tgz:461165.got - 2010.06.03 11:33:40.
