data_PCOD9042542
_publ_section_title
;
Structure prediction by ZEFSAII (Michael W. Deem and Ramdas Pophale) SiO2 
 PCOD9042542
Probable space group: P -1
;
_chemical_formula_sum "Si O2"
_cell_formula_units_Z 16
_cell_length_a 8.483952
_cell_length_b 8.627863
_cell_length_c 11.829332
_cell_angle_alpha 70.153734
_cell_angle_beta 112.811276
_cell_angle_gamma 69.239354
_cell_volume 621.678732
_symmetry_space_group_name_H-M "P -1"
_symmetry_group_IT_number 2
_symmetry_cell_setting 'triclinic'
loop_
_space_group_symop_operation_xyz
x,y,z
-x,-y,-z
loop_
_atom_site_type_symbol
_atom_site_label
_atom_site_fract_x
_atom_site_fract_y
_atom_site_fract_z
Si Si1 0.593515 0.067667 0.356772
Si Si2 0.956518 0.273218 0.105575
Si Si3 0.933276 0.729182 0.282772
Si Si4 0.174913 0.462310 0.215946
Si Si5 0.386247 0.847991 0.321922
Si Si6 0.645169 0.160022 0.095884
Si Si7 0.794965 0.208544 0.501875
Si Si8 0.368139 0.401012 0.758241
O O1 0.398062 0.260404 0.314629
O O2 0.580613 0.130356 0.207637
O O3 0.793771 0.028951 0.488200
O O4 0.555478 0.893920 0.392379
O O5 0.802093 0.227441 0.129717
O O6 0.013120 0.400420 0.165338
O O7 0.860135 0.392583 0.933054
O O8 0.171036 0.062461 0.193596
O O9 0.816104 0.627352 0.309855
O O10 0.116015 0.582043 0.285914
O O11 0.012644 0.796312 0.392450
O O12 0.766603 0.941163 0.125764
O O13 0.343073 0.744534 0.435989
O O14 0.458214 0.729251 0.255344
O O15 0.457961 0.316685 0.926855
O O16 0.700960 0.377138 0.339263
#
# Coordination Sequence:
#
# PCOD9042542 Si02
#       8
#     2   2   2   2   2   2   2   2
#     4  11  27  48  75 111 145 193 244 303 366 430
#     4  10  23  44  72 108 144 193 237 303 366 428
#     4  12  27  49  72 110 147 195 242 302 364 429
#     4  10  25  43  73 107 151 186 243 303 362 429
#     4  11  24  49  73 107 147 194 244 299 362 440
#     4  12  26  48  79 109 146 189 247 306 365 428
#     4  12  28  48  72 107 150 200 241 293 368 443
#     4  12  28  46  76 109 151 190 245 305 363 431
#
# _framework density 25.736764999999998
#
# number of rings (size 3 to 8) (size 9 to 14) (size 15 to 20)
#    0.000    0.750    2.500    3.000   12.250    2.500 
#    0.000    0.000    0.000    0.000    0.000    0.000 
#    0.000    0.000    0.000    0.000    0.000    0.000 
#
# Total GULP energy -89772.244628 kJ/mol
# GULP energy per Si atom -5610.765289 kJ/mol
# Density = 2.567819 g / cm^3
# Si number density = 25.736765 Si / 1000 Ang^3
#
#
#
# Elastic Constant Matrix: (Units=GPa)
#
#
# Indices 1 2 3 4 5 6 
#
# 1 121.7660 23.9152 23.1149 14.1984 -18.1024 28.5717
# 2 23.9152 84.9740 10.8462 7.9538 -4.0634 -12.0409
# 3 23.1149 10.8462 79.8817 9.0678 -16.3696 3.2150
# 4 14.1984 7.9538 9.0678 39.7167 8.6230 -3.8940
# 5 -18.1024 -4.0634 -16.3696 8.6230 42.4101 2.2096
# 6 28.5717 -12.0409 3.2150 -3.8940 2.2096 54.0321
#
#
#
# Elastic Compliance Matrix: (Units=1/GPa)
#
#
# Indices 1 2 3 4 5 6 
#
# 1 0.012625 -0.003757 -0.000881 -0.005719 0.006275 -0.008130
# 2 -0.003757 0.013691 -0.001110 -0.000450 -0.000895 0.005108
# 3 -0.000881 -0.001110 0.014714 -0.004272 0.006129 -0.001216
# 4 -0.005719 -0.000450 -0.004272 0.031205 -0.010784 0.005868
# 5 0.006275 -0.000895 0.006129 -0.010784 0.031039 -0.005929
# 6 -0.008130 0.005108 -0.001216 0.005868 -0.005929 0.024682
#
#
# Mechanical properties :
#
#
# Convention : Reuss Voigt Hill
#
# Bulk Modulus (GPa) = 33.85881 44.70825 39.28353
# Shear Modulus (GPa) = 33.49045 42.48149 37.98597
#
# Velocity S-wave (km/s) = 3.61122 4.06718 3.84597
# Velocity P-wave (km/s) = 5.52922 6.28212 5.91766
#
# Compressibility (1/GPa) = 0.02953441
#
# Stress axis : x y z
#
# Youngs Moduli (GPa) = 79.20763 73.04322 67.96308
#
# Poissons Ratio (x) = 0.27445 0.05985
# Poissons Ratio (y) = 0.29761 0.07541
# Poissons Ratio (z) = 0.06975 0.08104
#
# Static dielectric constant tensor:
#      x y z
#    x 2.029840 -0.003390 0.060290 
#    y -0.003390 1.982730 -0.002880 
#    z 0.060290 -0.002880 1.995820 
# 
# From -- ./inp_files/381763.got.cif
#   From: 2010.05.17/outbox.cif.g08.bks.cpg/sg2_191_cif.got.tgz:381763.got - 2010.06.03 11:33:40.
