data_PCOD9042448
_publ_section_title
;
Structure prediction by ZEFSAII (Michael W. Deem and Ramdas Pophale) SiO2 
 PCOD9042448
Probable space group: P -1
;
_chemical_formula_sum "Si O2"
_cell_formula_units_Z 14
_cell_length_a 11.733955
_cell_length_b 8.672557
_cell_length_c 8.912977
_cell_angle_alpha 126.713354
_cell_angle_beta 93.230299
_cell_angle_gamma 74.016965
_cell_volume 692.057459
_symmetry_space_group_name_H-M "P -1"
_symmetry_group_IT_number 2
_symmetry_cell_setting 'triclinic'
loop_
_space_group_symop_operation_xyz
x,y,z
-x,-y,-z
loop_
_atom_site_type_symbol
_atom_site_label
_atom_site_fract_x
_atom_site_fract_y
_atom_site_fract_z
Si Si1 0.571312 0.600868 0.449427
Si Si2 0.017136 0.835919 0.036720
Si Si3 0.549898 0.282095 0.804537
Si Si4 0.819301 0.009586 0.633585
Si Si5 0.784264 0.907474 0.249817
Si Si6 0.191924 0.415772 0.693980
Si Si7 0.471282 0.976996 0.814062
O O1 0.500000 0.500000 0.500000
O O2 0.484643 0.690239 0.355638
O O3 0.702235 0.512460 0.333945
O O4 0.577466 0.789415 0.655606
O O5 0.890501 0.839861 0.100116
O O6 0.089317 0.908512 0.217597
O O7 0.086866 0.615345 0.846927
O O8 0.000000 0.000000 0.000000
O O9 0.688517 0.154519 0.755167
O O10 0.480010 0.155399 0.814117
O O11 0.500000 0.500000 0.000000
O O12 0.821381 0.027010 0.461600
O O13 0.835725 0.766917 0.510875
O O14 0.768072 0.711768 0.222631
O O15 0.662092 0.034179 0.233351
O O16 0.500000 0.000000 0.000000
#
# Coordination Sequence:
#
# PCOD9042448 Si02
#       7
#     2   2   2   2   2   2   2
#     4  12  23  42  67 102 139 178 230 288 352 422
#     4  12  27  42  70 105 134 178 245 290 335 414
#     4  12  22  42  68 102 137 183 227 287 358 421
#     4  10  23  44  71  93 139 184 230 277 353 413
#     4  10  23  47  67  94 141 186 229 277 347 420
#     4  10  23  46  70  94 140 185 230 282 353 413
#     4  12  24  42  69 104 138 178 231 288 357 419
#
# _framework density 20.229533
#
# number of rings (size 3 to 8) (size 9 to 14) (size 15 to 20)
#    0.857    0.000    4.286    3.000    4.000    0.571 
#    0.000    0.000    0.000    0.000    0.000    0.000 
#    0.000    0.000    0.000    0.000    0.000    0.000 
#
# Total GULP energy -77964.482149 kJ/mol
# GULP energy per Si atom -5568.891582 kJ/mol
# Density = 2.018349 g / cm^3
# Si number density = 20.229533 Si / 1000 Ang^3
#
#
#
# Elastic Constant Matrix: (Units=GPa)
#
#
# Indices 1 2 3 4 5 6 
#
# 1 103.6930 15.4946 42.4191 -6.2153 -35.7465 2.1517
# 2 15.4946 65.9342 37.0152 -11.2775 -14.2843 13.2884
# 3 42.4191 37.0152 111.7769 1.0381 -26.1308 -7.4029
# 4 -6.2153 -11.2775 1.0381 46.7320 -6.9235 -3.1457
# 5 -35.7465 -14.2843 -26.1308 -6.9235 34.8134 -1.1386
# 6 2.1517 13.2884 -7.4029 -3.1457 -1.1386 37.8335
#
#
#
# Elastic Compliance Matrix: (Units=1/GPa)
#
#
# Indices 1 2 3 4 5 6 
#
# 1 0.016836 0.003001 -0.003617 0.005417 0.016823 -0.001762
# 2 0.003001 0.023547 -0.007737 0.006822 0.007993 -0.009147
# 3 -0.003617 -0.007737 0.014095 -0.001759 0.003526 0.005641
# 4 0.005417 0.006822 -0.001759 0.025560 0.012106 -0.000559
# 5 0.016823 0.007993 0.003526 0.012106 0.054318 -0.000433
# 6 -0.001762 -0.009147 0.005641 -0.000559 -0.000433 0.030789
#
#
# Mechanical properties :
#
#
# Convention : Reuss Voigt Hill
#
# Bulk Modulus (GPa) = 26.47506 52.36243 39.41874
# Shear Modulus (GPa) = 25.71443 36.30746 31.01095
#
# Velocity S-wave (km/s) = 3.56916 4.24107 3.91954
# Velocity P-wave (km/s) = 5.48644 7.06559 6.32549
#
# Compressibility (1/GPa) = 0.03777140
#
# Stress axis : x y z
#
# Youngs Moduli (GPa) = 59.39674 42.46829 70.94501
#
# Poissons Ratio (x) = -0.12743 0.25661
# Poissons Ratio (y) = -0.17822 0.54890
# Poissons Ratio (z) = 0.21484 0.32858
#
# Static dielectric constant tensor:
#      x y z
#    x 1.725930 0.021810 0.014500 
#    y 0.021810 1.729350 0.028680 
#    z 0.014500 0.028680 1.851060 
# 
# From -- ./inp_files/241474.got.cif
#   From: 2010.05.17/outbox.cif.g08.bks.cpg/sg2_121_cif.got.tgz:241474.got - 2010.06.03 11:33:40.
