data_PCOD9042093
_publ_section_title
;
Structure prediction by ZEFSAII (Michael W. Deem and Ramdas Pophale) SiO2 
 PCOD9042093
Probable space group: P -1
;
_chemical_formula_sum "Si O2"
_cell_formula_units_Z 14
_cell_length_a 11.709813
_cell_length_b 14.437887
_cell_length_c 20.501286
_cell_angle_alpha 161.882166
_cell_angle_beta 29.989826
_cell_angle_gamma 144.736013
_cell_volume 538.260461
_symmetry_space_group_name_H-M "P -1"
_symmetry_group_IT_number 2
_symmetry_cell_setting 'triclinic'
loop_
_space_group_symop_operation_xyz
x,y,z
-x,-y,-z
loop_
_atom_site_type_symbol
_atom_site_label
_atom_site_fract_x
_atom_site_fract_y
_atom_site_fract_z
Si Si1 0.910384 0.952056 0.811429
Si Si2 0.461461 0.969980 0.291532
Si Si3 0.794093 0.697093 0.262592
Si Si4 0.103417 0.205788 0.433707
Si Si5 0.446898 0.083077 0.919533
Si Si6 0.151004 0.411261 0.079343
Si Si7 0.612902 0.297682 0.618253
O O1 0.818021 0.840319 0.712000
O O2 0.724852 0.944528 0.954621
O O3 0.141239 0.747080 0.564711
O O4 0.025443 0.271150 0.984776
O O5 0.283131 0.706714 0.192860
O O6 0.295187 0.241289 0.580119
O O7 0.586241 0.093035 0.248805
O O8 0.654217 0.832137 0.153625
O O9 0.569863 0.583623 0.264418
O O10 0.868443 0.026140 0.425154
O O11 0.000000 0.500000 0.000000
O O12 0.020289 0.488540 0.708965
O O13 0.298707 0.023287 0.255544
O O14 0.391220 0.418612 0.143449
O O15 0.500000 0.000000 0.500000
#
# Coordination Sequence:
#
# PCOD9042093 Si02
#       7
#     2   2   2   2   2   2   2
#     4  12  25  46  73 102 145 195 231 283 358 427
#     4  10  23  44  69 104 140 179 239 299 343 419
#     4  11  22  42  72 104 132 178 241 297 351 401
#     4  11  25  44  69 105 144 189 236 291 344 422
#     4  12  27  44  66 108 149 183 233 290 358 424
#     4  10  23  45  73 100 139 188 241 288 349 416
#     4  12  23  44  73 102 131 184 246 291 345 412
#
# _framework density 26.009712
#
# number of rings (size 3 to 8) (size 9 to 14) (size 15 to 20)
#    0.000    0.857    4.286    2.571    2.000    4.571 
#    2.571    0.000    0.000    0.000    0.000    0.000 
#    0.000    0.000    0.000    0.000    0.000    0.000 
#
# Total GULP energy -78029.824004 kJ/mol
# GULP energy per Si atom -5573.558857 kJ/mol
# Density = 2.595051 g / cm^3
# Si number density = 26.009712 Si / 1000 Ang^3
#
#
#
# Elastic Constant Matrix: (Units=GPa)
#
#
# Indices 1 2 3 4 5 6 
#
# 1 61.6400 13.1451 62.8564 -20.3196 6.7581 -14.0709
# 2 13.1451 78.2625 34.8665 -34.6198 5.7688 -11.5495
# 3 62.8564 34.8665 199.7061 -40.9439 8.3030 -10.9461
# 4 -20.3196 -34.6198 -40.9439 36.6891 -10.0798 17.4160
# 5 6.7581 5.7688 8.3030 -10.0798 55.3336 -19.9163
# 6 -14.0709 -11.5495 -10.9461 17.4160 -19.9163 30.9708
#
#
#
# Elastic Compliance Matrix: (Units=1/GPa)
#
#
# Indices 1 2 3 4 5 6 
#
# 1 0.026676 0.002135 -0.007348 0.004967 0.001608 0.008560
# 2 0.002135 0.022727 0.000245 0.025054 0.000334 -0.004342
# 3 -0.007348 0.000245 0.008692 0.008145 -0.000859 -0.005308
# 4 0.004967 0.025054 0.008145 0.076248 -0.001006 -0.029046
# 5 0.001608 0.000334 -0.000859 -0.001006 0.023667 0.016336
# 6 0.008560 -0.004342 -0.005308 -0.029046 0.016336 0.059521
#
#
# Mechanical properties :
#
#
# Convention : Reuss Voigt Hill
#
# Bulk Modulus (GPa) = 20.76492 62.37160 41.56826
# Shear Modulus (GPa) = 20.53206 39.84809 30.19008
#
# Velocity S-wave (km/s) = 2.81267 3.91838 3.41063
# Velocity P-wave (km/s) = 4.30686 6.67112 5.61484
#
# Compressibility (1/GPa) = 0.04815815
#
# Stress axis : x y z
#
# Youngs Moduli (GPa) = 37.48651 44.00030 115.04631
#
# Poissons Ratio (x) = -0.09393 0.84540
# Poissons Ratio (y) = -0.08003 -0.02817
# Poissons Ratio (z) = 0.27546 -0.01077
#
# Static dielectric constant tensor:
#      x y z
#    x 2.155170 -0.060720 0.058700 
#    y -0.060720 2.088640 0.110730 
#    z 0.058700 0.110730 2.161860 
# 
# From -- ./inp_files/183841.got.cif
#   From: 2010.05.17/outbox.cif.g08.bks.cpg/sg2_92_cif.got.tgz:183841.got - 2010.06.03 11:33:40.
