data_PCOD9042066
_publ_section_title
;
Structure prediction by ZEFSAII (Michael W. Deem and Ramdas Pophale) SiO2 
 PCOD9042066
Probable space group: P -1
;
_chemical_formula_sum "Si O2"
_cell_formula_units_Z 14
_cell_length_a 8.652826
_cell_length_b 18.469824
_cell_length_c 5.252595
_cell_angle_alpha 73.110910
_cell_angle_beta 96.250669
_cell_angle_gamma 135.336269
_cell_volume 558.640979
_symmetry_space_group_name_H-M "P -1"
_symmetry_group_IT_number 2
_symmetry_cell_setting 'triclinic'
loop_
_space_group_symop_operation_xyz
x,y,z
-x,-y,-z
loop_
_atom_site_type_symbol
_atom_site_label
_atom_site_fract_x
_atom_site_fract_y
_atom_site_fract_z
Si Si1 0.336516 0.979148 0.776095
Si Si2 0.948739 0.195396 0.462582
Si Si3 0.555807 0.818843 0.382019
Si Si4 0.619336 0.688596 0.856545
Si Si5 0.937013 0.329885 0.685564
Si Si6 0.871468 0.534920 0.919815
Si Si7 0.896804 0.863705 0.097544
O O1 0.265980 0.886464 0.670496
O O2 0.433848 0.093893 0.589877
O O3 0.087424 0.920564 0.868971
O O4 0.500000 0.000000 0.000000
O O5 0.925842 0.241923 0.653971
O O6 0.186237 0.289869 0.272401
O O7 0.973752 0.119336 0.650762
O O8 0.593827 0.762036 0.639009
O O9 0.311888 0.724090 0.318649
O O10 0.746796 0.881579 0.133738
O O11 0.385008 0.566513 0.955050
O O12 0.709368 0.738431 0.103117
O O13 0.087501 0.423687 0.403572
O O14 0.022255 0.373217 0.940829
O O15 0.000000 0.500000 0.000000
#
# Coordination Sequence:
#
# PCOD9042066 Si02
#       7
#     2   2   2   2   2   2   2
#     4  11  25  44  73 102 146 186 239 298 364 431
#     4  10  26  46  66 107 143 186 240 296 362 437
#     4  11  24  42  70 103 139 192 238 297 359 424
#     4  10  24  44  71  98 147 183 242 299 357 426
#     4  12  28  44  77 106 149 190 246 296 366 425
#     4  12  26  47  74 110 144 191 246 300 358 428
#     4  10  23  44  69 101 146 183 242 294 359 430
#
# _framework density 25.060818999999999
#
# number of rings (size 3 to 8) (size 9 to 14) (size 15 to 20)
#    0.000    1.143    1.429    2.571   10.000    9.714 
#    0.000    0.000    0.000    0.000    0.000    0.000 
#    0.000    0.000    0.000    0.000    0.000    0.000 
#
# Total GULP energy -78211.103067 kJ/mol
# GULP energy per Si atom -5586.507362 kJ/mol
# Density = 2.500378 g / cm^3
# Si number density = 25.060819 Si / 1000 Ang^3
#
#
#
# Elastic Constant Matrix: (Units=GPa)
#
#
# Indices 1 2 3 4 5 6 
#
# 1 151.5866 52.6080 39.4540 15.5966 -20.1145 0.9109
# 2 52.6080 107.6622 11.0841 17.6447 4.1331 14.8251
# 3 39.4540 11.0841 62.4209 13.8274 4.4153 -1.6244
# 4 15.5966 17.6447 13.8274 46.7400 -3.2633 2.4666
# 5 -20.1145 4.1331 4.4153 -3.2633 48.3950 2.5501
# 6 0.9109 14.8251 -1.6244 2.4666 2.5501 34.4451
#
#
#
# Elastic Compliance Matrix: (Units=1/GPa)
#
#
# Indices 1 2 3 4 5 6 
#
# 1 0.010622 -0.004990 -0.006294 0.000518 0.005391 0.001134
# 2 -0.004990 0.012949 0.001792 -0.003731 -0.003340 -0.004842
# 3 -0.006294 0.001792 0.021242 -0.005279 -0.005124 0.001154
# 4 0.000518 -0.003731 -0.005279 0.024412 0.002694 -0.000605
# 5 0.005391 -0.003340 -0.005124 0.002694 0.023886 -0.000908
# 6 0.001134 -0.004842 0.001154 -0.000605 -0.000908 0.031251
#
#
# Mechanical properties :
#
#
# Convention : Reuss Voigt Hill
#
# Bulk Modulus (GPa) = 38.71890 58.66246 48.69068
# Shear Modulus (GPa) = 32.90388 40.48424 36.69406
#
# Velocity S-wave (km/s) = 3.62741 4.02361 3.83064
# Velocity P-wave (km/s) = 5.74697 6.71154 6.24790
#
# Compressibility (1/GPa) = 0.02582718
#
# Stress axis : x y z
#
# Youngs Moduli (GPa) = 94.14212 77.22729 47.07556
#
# Poissons Ratio (x) = 0.38540 0.29631
# Poissons Ratio (y) = 0.46981 -0.08434
# Poissons Ratio (z) = 0.59256 -0.13836
#
# Static dielectric constant tensor:
#      x y z
#    x 1.994560 -0.048470 -0.042890 
#    y -0.048470 1.988470 -0.037960 
#    z -0.042890 -0.037960 2.098540 
# 
# From -- ./inp_files/24122.got.cif
#   From: 2010.05.17/outbox.cif.g08.bks.cpg/sg2_13_cif.got.tgz:24122.got - 2010.06.03 11:33:40.
