data_PCOD9042691
_publ_section_title
;
Structure prediction by ZEFSAII (Michael W. Deem and Ramdas Pophale) SiO2 
 PCOD9042691
Probable space group: P -1
;
_chemical_formula_sum "Si O2"
_cell_formula_units_Z 15
_cell_length_a 10.340382
_cell_length_b 10.074035
_cell_length_c 10.262889
_cell_angle_alpha 138.836967
_cell_angle_beta 109.690160
_cell_angle_gamma 71.367821
_cell_volume 658.777852
_symmetry_space_group_name_H-M "P -1"
_symmetry_group_IT_number 2
_symmetry_cell_setting 'triclinic'
loop_
_space_group_symop_operation_xyz
x,y,z
-x,-y,-z
loop_
_atom_site_type_symbol
_atom_site_label
_atom_site_fract_x
_atom_site_fract_y
_atom_site_fract_z
Si Si1 0.310031 0.541694 0.466208
Si Si2 0.953010 0.954155 0.094200
Si Si3 0.391082 0.319132 0.922804
Si Si4 0.500000 0.000000 0.500000
Si Si5 0.487107 0.411306 0.654644
Si Si6 0.653090 0.996853 0.107880
Si Si7 0.990876 0.379286 0.543517
Si Si8 0.896341 0.458621 0.053291
O O1 0.352679 0.419447 0.522381
O O2 0.405948 0.496856 0.341424
O O3 0.152430 0.528591 0.372447
O O4 0.329588 0.773812 0.677263
O O5 0.789115 0.932151 0.019978
O O6 0.978912 0.148091 0.333058
O O7 0.048469 0.764308 0.043654
O O8 0.000000 0.000000 0.000000
O O9 0.436517 0.186127 0.714071
O O10 0.338462 0.155905 0.882599
O O11 0.264300 0.498347 0.006431
O O12 0.517213 0.427801 0.109676
O O13 0.529504 0.179597 0.536324
O O14 0.500000 0.000000 0.000000
O O15 0.000000 0.500000 0.500000
O O16 0.097869 0.402877 0.712044
O O17 0.000000 0.500000 0.000000
#
# Coordination Sequence:
#
# PCOD9042691 Si02
#       8
#     2   2   2   1   2   2   2   2
#     4  10  23  44  74 103 138 187 250 295 365 446
#     4  11  25  47  76 113 144 199 257 308 377 451
#     4  12  26  47  71 108 149 195 244 308 382 447
#     4  12  28  46  64 106 150 192 240 300 382 436
#     4  11  24  45  71 104 141 188 238 304 367 445
#     4  11  22  46  78 107 148 194 251 306 376 450
#     4  11  25  46  73 107 147 191 250 308 366 446
#     4  12  26  48  74 105 151 198 244 309 378 455
#
# _framework density 22.769435999999999
#
# number of rings (size 3 to 8) (size 9 to 14) (size 15 to 20)
#    0.000    0.800    5.333    1.200    1.867    1.600 
#    4.800    0.000    0.000    0.000    0.000    0.000 
#    0.000    0.000    0.000    0.000    0.000    0.000 
#
# Total GULP energy -83570.445288 kJ/mol
# GULP energy per Si atom -5571.363019 kJ/mol
# Density = 2.271761 g / cm^3
# Si number density = 22.769436 Si / 1000 Ang^3
#
#
#
# Elastic Constant Matrix: (Units=GPa)
#
#
# Indices 1 2 3 4 5 6 
#
# 1 64.9666 46.0394 15.5381 -5.3641 -18.8385 0.3901
# 2 46.0394 136.7596 29.0378 13.2318 -13.5297 3.5929
# 3 15.5381 29.0378 102.6973 12.2614 -19.9854 -6.0588
# 4 -5.3641 13.2318 12.2614 40.9771 -2.7652 -3.3958
# 5 -18.8385 -13.5297 -19.9854 -2.7652 35.0894 -2.2838
# 6 0.3901 3.5929 -6.0588 -3.3958 -2.2838 33.2686
#
#
#
# Elastic Compliance Matrix: (Units=1/GPa)
#
#
# Indices 1 2 3 4 5 6 
#
# 1 0.024715 -0.007935 -0.000074 0.006715 0.010825 0.001982
# 2 -0.007935 0.010652 -0.001730 -0.004227 -0.001596 -0.001913
# 3 -0.000074 -0.001730 0.011840 -0.002380 0.006013 0.002514
# 4 0.006715 -0.004227 -0.002380 0.027810 0.003006 0.002989
# 5 0.010825 -0.001596 0.006013 0.003006 0.037619 0.004030
# 6 0.001982 -0.001913 0.002514 0.002989 0.004030 0.031281
#
#
# Mechanical properties :
#
#
# Convention : Reuss Voigt Hill
#
# Bulk Modulus (GPa) = 36.06289 53.96157 45.01223
# Shear Modulus (GPa) = 28.96196 36.12088 32.54142
#
# Velocity S-wave (km/s) = 3.57033 3.98725 3.78454
# Velocity P-wave (km/s) = 5.73315 6.70434 6.23768
#
# Compressibility (1/GPa) = 0.02772933
#
# Stress axis : x y z
#
# Youngs Moduli (GPa) = 40.46089 93.87743 84.45712
#
# Poissons Ratio (x) = 0.74495 0.00623
# Poissons Ratio (y) = 0.32107 0.14612
# Poissons Ratio (z) = 0.00298 0.16242
#
# Static dielectric constant tensor:
#      x y z
#    x 1.868250 0.005350 -0.026830 
#    y 0.005350 1.834440 -0.008260 
#    z -0.026830 -0.008260 1.825800 
# 
# From -- ./inp_files/241580.got.cif
#   From: 2010.05.17/outbox.cif.g08.bks.cpg/sg2_121_cif.got.tgz:241580.got - 2010.06.03 11:33:40.
