data_PCOD9042659
_publ_section_title
;
Structure prediction by ZEFSAII (Michael W. Deem and Ramdas Pophale) SiO2 
 PCOD9042659
Probable space group: P -1
;
_chemical_formula_sum "Si O2"
_cell_formula_units_Z 16
_cell_length_a 7.829417
_cell_length_b 21.883751
_cell_length_c 5.194723
_cell_angle_alpha 63.009406
_cell_angle_beta 64.558368
_cell_angle_gamma 50.925827
_cell_volume 602.314914
_symmetry_space_group_name_H-M "P -1"
_symmetry_group_IT_number 2
_symmetry_cell_setting 'triclinic'
loop_
_space_group_symop_operation_xyz
x,y,z
-x,-y,-z
loop_
_atom_site_type_symbol
_atom_site_label
_atom_site_fract_x
_atom_site_fract_y
_atom_site_fract_z
Si Si1 0.806552 0.523810 0.866216
Si Si2 0.621126 0.407044 0.679497
Si Si3 0.270819 0.751090 0.015957
Si Si4 0.444232 0.177148 0.405163
Si Si5 0.949840 0.629564 0.302103
Si Si6 0.097443 0.223257 0.179118
Si Si7 0.938441 0.902896 0.306171
Si Si8 0.669893 0.071612 0.942821
O O1 0.871013 0.435560 0.895252
O O2 0.827655 0.583521 0.542287
O O3 0.547837 0.576428 0.008229
O O4 0.000000 0.500000 0.000000
O O5 0.500000 0.500000 0.500000
O O6 0.631476 0.327837 0.712332
O O7 0.877957 0.379928 0.575403
O O8 0.097401 0.829591 0.147646
O O9 0.456767 0.765897 0.752999
O O10 0.137995 0.739956 0.889320
O O11 0.183040 0.226064 0.405627
O O12 0.505790 0.119890 0.721052
O O13 0.564728 0.121527 0.179639
O O14 0.816751 0.722670 0.117905
O O15 0.151530 0.130639 0.351540
O O16 0.102811 0.929278 0.263990
O O17 0.745425 0.979871 0.128414
#
# Coordination Sequence:
#
# PCOD9042659 Si02
#       8
#     2   2   2   2   2   2   2   2
#     4  11  23  42  68  98 138 181 235 301 352 431
#     4  11  23  43  70  98 139 189 234 294 367 434
#     4  10  25  45  64 103 137 187 239 295 371 430
#     4  11  25  45  71 104 146 184 246 295 373 435
#     4  10  25  44  64 102 137 186 241 291 369 427
#     4  11  25  42  68 101 139 187 239 303 359 441
#     4  10  23  44  73  95 147 183 237 301 360 437
#     4  10  24  45  73 106 140 196 236 303 369 441
#
# _framework density 26.564174000000001
#
# number of rings (size 3 to 8) (size 9 to 14) (size 15 to 20)
#    0.000    1.500    2.500    0.375    7.000    3.500 
#    2.250    0.000    0.000    0.000    0.000    0.000 
#    0.000    0.000    0.000    0.000    0.000    0.000 
#
# Total GULP energy -89207.377333 kJ/mol
# GULP energy per Si atom -5575.461083 kJ/mol
# Density = 2.650371 g / cm^3
# Si number density = 26.564174 Si / 1000 Ang^3
#
#
#
# Elastic Constant Matrix: (Units=GPa)
#
#
# Indices 1 2 3 4 5 6 
#
# 1 91.9442 10.8069 35.8004 -12.5243 -4.8396 -0.8769
# 2 10.8069 127.5656 51.5011 -33.0412 -1.6755 6.3272
# 3 35.8004 51.5011 160.4369 -56.3622 0.4014 14.1180
# 4 -12.5243 -33.0412 -56.3622 56.2804 3.2657 -2.1408
# 5 -4.8396 -1.6755 0.4014 3.2657 51.5518 -11.1440
# 6 -0.8769 6.3272 14.1180 -2.1408 -11.1440 19.9877
#
#
#
# Elastic Compliance Matrix: (Units=1/GPa)
#
#
# Indices 1 2 3 4 5 6 
#
# 1 0.012220 -0.000025 -0.003254 -0.000524 0.002055 0.003932
# 2 -0.000025 0.009579 -0.001481 0.004088 -0.000311 -0.001723
# 3 -0.003254 -0.001481 0.011686 0.009955 -0.002909 -0.008484
# 4 -0.000524 0.004088 0.009955 0.029951 -0.003414 -0.007044
# 5 0.002055 -0.000311 -0.002909 -0.003414 0.022997 0.014700
# 6 0.003932 -0.001723 -0.008484 -0.007044 0.014700 0.064182
#
#
# Mechanical properties :
#
#
# Convention : Reuss Voigt Hill
#
# Bulk Modulus (GPa) = 41.72777 64.01816 52.87296
# Shear Modulus (GPa) = 29.73984 44.35320 37.04652
#
# Velocity S-wave (km/s) = 3.34959 4.09058 3.73849
# Velocity P-wave (km/s) = 5.54095 6.81632 6.21145
#
# Compressibility (1/GPa) = 0.02396486
#
# Stress axis : x y z
#
# Youngs Moduli (GPa) = 81.83003 104.39228 85.57575
#
# Poissons Ratio (x) = 0.00264 0.27846
# Poissons Ratio (y) = 0.00207 0.12674
# Poissons Ratio (z) = 0.26627 0.15460
#
# Static dielectric constant tensor:
#      x y z
#    x 2.189820 -0.012070 0.013610 
#    y -0.012070 2.349530 0.038980 
#    z 0.013610 0.038980 2.174940 
# 
# From -- ./inp_files/55263.got.cif
#   From: 2010.05.17/outbox.cif.g08.bks.cpg/sg2_28_cif.got.tgz:55263.got - 2010.06.03 11:33:40.
