data_PCOD9042052
_publ_section_title
;
Structure prediction by ZEFSAII (Michael W. Deem and Ramdas Pophale) SiO2 
 PCOD9042052
Probable space group: P -1
;
_chemical_formula_sum "Si O2"
_cell_formula_units_Z 16
_cell_length_a 9.007464
_cell_length_b 22.623741
_cell_length_c 6.855328
_cell_angle_alpha 48.821527
_cell_angle_beta 54.913719
_cell_angle_gamma 47.640757
_cell_volume 755.040473
_symmetry_space_group_name_H-M "P -1"
_symmetry_group_IT_number 2
_symmetry_cell_setting 'triclinic'
loop_
_space_group_symop_operation_xyz
x,y,z
-x,-y,-z
loop_
_atom_site_type_symbol
_atom_site_label
_atom_site_fract_x
_atom_site_fract_y
_atom_site_fract_z
Si Si1 0.469846 0.766667 0.488827
Si Si2 0.856117 0.761046 0.411273
Si Si3 0.734954 0.306147 0.895543
Si Si4 0.573809 0.636792 0.332543
Si Si5 0.410325 0.050266 0.662230
Si Si6 0.219815 0.971139 0.285795
Si Si7 0.967765 0.591093 0.927955
Si Si8 0.727611 0.459588 0.828705
O O1 0.690450 0.760621 0.385000
O O2 0.486728 0.707810 0.416683
O O3 0.303715 0.869681 0.369679
O O4 0.399794 0.727419 0.807381
O O5 0.726410 0.841717 0.482532
O O6 0.982912 0.661560 0.619975
O O7 0.038692 0.774167 0.148948
O O8 0.605069 0.354432 0.695575
O O9 0.769915 0.374135 0.857086
O O10 0.711915 0.538594 0.532285
O O11 0.735561 0.649456 0.052381
O O12 0.612461 0.030799 0.680156
O O13 0.500000 0.000000 0.500000
O O14 0.263179 0.020391 0.960808
O O15 0.000000 0.000000 0.500000
O O16 0.000000 0.500000 0.000000
O O17 0.118272 0.564365 0.056222
O O18 0.500000 0.500000 0.000000
#
# Coordination Sequence:
#
# PCOD9042052 Si02
#       8
#     2   2   2   2   2   2   2   2
#     4  11  24  43  67  98 134 170 219 274 328 394
#     4  11  24  44  66  98 134 175 219 271 329 394
#     4  12  24  43  65  97 133 174 222 272 324 393
#     4  12  24  42  66  93 132 176 219 271 328 390
#     4  10  24  44  69 100 136 174 222 276 337 401
#     4  10  23  44  69 101 134 173 220 278 337 401
#     4  12  24  42  68  96 132 178 222 268 329 388
#     4  12  23  41  62  94 133 172 222 273 322 387
#
# _framework density 21.190919000000001
#
# number of rings (size 3 to 8) (size 9 to 14) (size 15 to 20)
#    0.000    0.750    2.500    5.250    1.750    1.500 
#    2.250    0.000    0.000    0.000    0.000    0.000 
#    0.000    0.000    0.000    0.000    0.000    0.000 
#
# Total GULP energy -89386.519260 kJ/mol
# GULP energy per Si atom -5586.657454 kJ/mol
# Density = 2.114269 g / cm^3
# Si number density = 21.190919 Si / 1000 Ang^3
#
#
#
# Elastic Constant Matrix: (Units=GPa)
#
#
# Indices 1 2 3 4 5 6 
#
# 1 121.5164 44.1357 25.2305 13.0948 6.2776 -14.6798
# 2 44.1357 121.3414 32.6346 1.0868 12.7365 -1.5087
# 3 25.2305 32.6346 78.8063 7.0498 -7.5841 -12.2237
# 4 13.0948 1.0868 7.0498 40.6542 -6.5286 -10.3415
# 5 6.2776 12.7365 -7.5841 -6.5286 28.8706 15.3763
# 6 -14.6798 -1.5087 -12.2237 -10.3415 15.3763 26.9821
#
#
#
# Elastic Compliance Matrix: (Units=1/GPa)
#
#
# Indices 1 2 3 4 5 6 
#
# 1 0.011105 -0.002843 -0.001558 -0.002229 -0.006283 0.007903
# 2 -0.002843 0.010957 -0.004122 0.000598 -0.005446 0.000532
# 3 -0.001558 -0.004122 0.015897 -0.000574 0.004392 0.003401
# 4 -0.002229 0.000598 -0.000574 0.027773 0.002079 0.008020
# 5 -0.006283 -0.005446 0.004392 0.002079 0.058190 -0.034097
# 6 0.007903 0.000532 0.003401 0.008020 -0.034097 0.065436
#
#
# Mechanical properties :
#
#
# Convention : Reuss Voigt Hill
#
# Bulk Modulus (GPa) = 47.81679 58.40729 53.11204
# Shear Modulus (GPa) = 23.43302 33.94559 28.68931
#
# Velocity S-wave (km/s) = 3.32897 4.00671 3.68346
# Velocity P-wave (km/s) = 6.11472 7.00194 6.57332
#
# Compressibility (1/GPa) = 0.02091316
#
# Stress axis : x y z
#
# Youngs Moduli (GPa) = 90.05196 91.26759 62.90607
#
# Poissons Ratio (x) = 0.25943 0.09798
# Poissons Ratio (y) = 0.25597 0.25933
# Poissons Ratio (z) = 0.14026 0.37625
#
# Static dielectric constant tensor:
#      x y z
#    x 1.789130 0.032020 -0.185890 
#    y 0.032020 1.845610 -0.315470 
#    z -0.185890 -0.315470 2.963330 
# 
# From -- ./inp_files/52351.got.cif
#   From: 2010.05.17/outbox.cif.g08.bks.cpg/sg2_27_cif.got.tgz:52351.got - 2010.06.03 11:33:40.
