data_PCOD9042640
_publ_section_title
;
Structure prediction by ZEFSAII (Michael W. Deem and Ramdas Pophale) SiO2 
 PCOD9042640
Probable space group: P -1
;
_chemical_formula_sum "Si O2"
_cell_formula_units_Z 14
_cell_length_a 8.812715
_cell_length_b 11.863195
_cell_length_c 12.360246
_cell_angle_alpha 114.821531
_cell_angle_beta 50.772920
_cell_angle_gamma 142.610293
_cell_volume 598.392154
_symmetry_space_group_name_H-M "P -1"
_symmetry_group_IT_number 2
_symmetry_cell_setting 'triclinic'
loop_
_space_group_symop_operation_xyz
x,y,z
-x,-y,-z
loop_
_atom_site_type_symbol
_atom_site_label
_atom_site_fract_x
_atom_site_fract_y
_atom_site_fract_z
Si Si1 0.832466 0.510818 0.999580
Si Si2 0.347209 0.731216 0.195981
Si Si3 0.098108 0.830547 0.855591
Si Si4 0.332239 0.297027 0.822371
Si Si5 0.698308 0.486176 0.451860
Si Si6 0.370142 0.129772 0.556048
Si Si7 0.043295 0.742293 0.597165
O O1 0.057298 0.681410 0.878991
O O2 0.607173 0.316562 0.957244
O O3 0.000000 0.500000 0.000000
O O4 0.676925 0.559681 0.138605
O O5 0.383501 0.638682 0.230670
O O6 0.012258 0.621220 0.305739
O O7 0.580602 0.951932 0.201429
O O8 0.996038 0.763925 0.751077
O O9 0.889343 0.816072 0.019712
O O10 0.233585 0.165723 0.714286
O O11 0.500000 0.500000 0.500000
O O12 0.500686 0.267788 0.452935
O O13 0.793089 0.556405 0.563286
O O14 0.662940 0.203611 0.505271
O O15 0.137880 0.909797 0.555051
#
# Coordination Sequence:
#
# PCOD9042640 Si02
#       7
#     2   2   2   2   2   2   2
#     4  10  26  43  67 108 147 185 221 283 367 421
#     4  12  22  47  71 102 142 182 244 291 339 415
#     4  10  24  42  77 107 135 179 244 291 345 413
#     4  10  23  44  73 108 136 177 239 292 342 414
#     4  12  29  44  70 104 147 189 229 289 355 421
#     4  11  23  44  73 107 134 181 247 285 347 413
#     4  11  22  45  76 100 137 187 235 296 342 409
#
# _framework density 23.396027
#
# number of rings (size 3 to 8) (size 9 to 14) (size 15 to 20)
#    0.857    0.286    2.857    3.000    4.000    1.143 
#    0.000    0.000    0.000    0.000    0.000    0.000 
#    0.000    0.000    0.000    0.000    0.000    0.000 
#
# Total GULP energy -78190.917160 kJ/mol
# GULP energy per Si atom -5585.065511 kJ/mol
# Density = 2.334278 g / cm^3
# Si number density = 23.396027 Si / 1000 Ang^3
#
#
#
# Elastic Constant Matrix: (Units=GPa)
#
#
# Indices 1 2 3 4 5 6 
#
# 1 87.2813 25.2464 -11.3206 -6.2847 -22.3338 -18.2499
# 2 25.2464 117.0248 2.5993 -4.0321 -4.4402 -26.6525
# 3 -11.3206 2.5993 117.6758 11.1054 -12.4388 -1.8998
# 4 -6.2847 -4.0321 11.1054 33.1537 1.1779 5.7492
# 5 -22.3338 -4.4402 -12.4388 1.1779 31.0230 6.1474
# 6 -18.2499 -26.6525 -1.8998 5.7492 6.1474 26.4741
#
#
#
# Elastic Compliance Matrix: (Units=1/GPa)
#
#
# Indices 1 2 3 4 5 6 
#
# 1 0.016851 -0.001538 0.002975 0.000294 0.011602 0.007524
# 2 -0.001538 0.011253 -0.000349 -0.000614 -0.001750 0.010784
# 3 0.002975 -0.000349 0.009737 -0.003251 0.005770 0.001764
# 4 0.000294 -0.000614 -0.003251 0.032567 -0.000929 -0.007505
# 5 0.011602 -0.001750 0.005770 -0.000929 0.043320 -0.003207
# 6 0.007524 0.010784 0.001764 -0.007505 -0.003207 0.056317
#
#
# Mechanical properties :
#
#
# Convention : Reuss Voigt Hill
#
# Bulk Modulus (GPa) = 24.98909 39.44803 32.21856
# Shear Modulus (GPa) = 27.59262 38.49395 33.04329
#
# Velocity S-wave (km/s) = 3.43792 4.06065 3.76220
# Velocity P-wave (km/s) = 5.14424 6.23561 5.71603
#
# Compressibility (1/GPa) = 0.04001746
#
# Stress axis : x y z
#
# Youngs Moduli (GPa) = 59.34390 88.86458 102.70069
#
# Poissons Ratio (x) = 0.13663 -0.30555
# Poissons Ratio (y) = 0.09124 0.03589
# Poissons Ratio (z) = -0.17656 0.03105
#
# Static dielectric constant tensor:
#      x y z
#    x 1.848640 -0.028000 0.051910 
#    y -0.028000 1.891560 -0.030500 
#    z 0.051910 -0.030500 2.020640 
# 
# From -- ./inp_files/498177.got.cif
#   From: 2010.05.17/outbox.cif.g08.bks.cpg/sg2_250_cif.got.tgz:498177.got - 2010.06.03 11:33:40.
