data_PCOD9042758
_publ_section_title
;
Structure prediction by ZEFSAII (Michael W. Deem and Ramdas Pophale) SiO2 
 PCOD9042758
Probable space group: P -1
;
_chemical_formula_sum "Si O2"
_cell_formula_units_Z 16
_cell_length_a 9.497717
_cell_length_b 11.729864
_cell_length_c 8.870319
_cell_angle_alpha 65.841453
_cell_angle_beta 132.087105
_cell_angle_gamma 98.926784
_cell_volume 658.709430
_symmetry_space_group_name_H-M "P -1"
_symmetry_group_IT_number 2
_symmetry_cell_setting 'triclinic'
loop_
_space_group_symop_operation_xyz
x,y,z
-x,-y,-z
loop_
_atom_site_type_symbol
_atom_site_label
_atom_site_fract_x
_atom_site_fract_y
_atom_site_fract_z
Si Si1 0.185079 0.589231 0.350881
Si Si2 0.869517 0.700297 0.565819
Si Si3 0.477400 0.783540 0.891872
Si Si4 0.761614 0.059132 0.631061
Si Si5 0.096308 0.202871 0.793489
Si Si6 0.441332 0.413950 0.182746
Si Si7 0.754526 0.321208 0.981664
Si Si8 0.392304 0.175722 0.464484
O O1 0.152925 0.446676 0.373831
O O2 0.347911 0.581713 0.600083
O O3 0.262507 0.647171 0.223672
O O4 0.996914 0.683442 0.223529
O O5 0.932894 0.740137 0.426731
O O6 0.675673 0.790037 0.434465
O O7 0.026221 0.723219 0.788843
O O8 0.331325 0.861560 0.625718
O O9 0.539561 0.642484 0.940338
O O10 0.674981 0.837260 0.006778
O O11 0.375619 0.769264 0.984777
O O12 0.614148 0.112305 0.630115
O O13 0.971610 0.092274 0.785362
O O14 0.734886 0.917413 0.654008
O O15 0.305762 0.544992 0.047336
O O16 0.363640 0.307434 0.283304
#
# Coordination Sequence:
#
# PCOD9042758 Si02
#       8
#     2   2   2   2   2   2   2   2
#     4  12  24  40  68 105 140 180 224 279 348 410
#     4  12  25  43  68 105 141 180 225 284 342 411
#     4  11  24  44  69 101 137 184 226 281 342 403
#     4  10  23  50  69  98 136 183 229 286 334 399
#     4  12  25  44  71 102 139 181 230 279 346 402
#     4  11  22  43  67  97 143 179 221 282 341 406
#     4  12  24  40  67 106 141 177 226 280 344 412
#     4  10  23  44  75  93 135 186 226 281 342 395
#
# _framework density 24.289922000000001
#
# number of rings (size 3 to 8) (size 9 to 14) (size 15 to 20)
#    0.000    0.750    5.000    3.000    5.250    0.500 
#    0.000    7.500    0.000    0.000    0.000    0.000 
#    0.000    0.000    0.000    0.000    0.000    0.000 
#
# Total GULP energy -89659.860422 kJ/mol
# GULP energy per Si atom -5603.741276 kJ/mol
# Density = 2.423464 g / cm^3
# Si number density = 24.289922 Si / 1000 Ang^3
#
#
#
# Elastic Constant Matrix: (Units=GPa)
#
#
# Indices 1 2 3 4 5 6 
#
# 1 166.3340 53.2841 33.2815 10.1896 4.1448 23.2633
# 2 53.2841 80.3006 6.2865 8.6259 11.9542 23.4975
# 3 33.2815 6.2865 82.3052 14.0886 16.8799 16.6508
# 4 10.1896 8.6259 14.0886 34.0225 13.1131 10.0852
# 5 4.1448 11.9542 16.8799 13.1131 35.4383 10.9735
# 6 23.2633 23.4975 16.6508 10.0852 10.9735 24.2961
#
#
#
# Elastic Compliance Matrix: (Units=1/GPa)
#
#
# Indices 1 2 3 4 5 6 
#
# 1 0.008579 -0.005213 -0.003185 -0.000483 0.003133 -0.002205
# 2 -0.005213 0.021039 0.004587 0.000834 -0.003656 -0.017195
# 3 -0.003185 0.004587 0.016442 -0.002206 -0.005296 -0.009347
# 4 -0.000483 0.000834 -0.002206 0.036904 -0.009821 -0.009715
# 5 0.003133 -0.003656 -0.005296 -0.009821 0.038005 -0.008923
# 6 -0.002205 -0.017195 -0.009347 -0.009715 -0.008923 0.074369
#
#
# Mechanical properties :
#
#
# Convention : Reuss Voigt Hill
#
# Bulk Modulus (GPa) = 26.01558 57.18268 41.59913
# Shear Modulus (GPa) = 23.17258 34.49055 28.83157
#
# Velocity S-wave (km/s) = 3.09204 3.77231 3.44899
# Velocity P-wave (km/s) = 4.84575 6.52431 5.74665
#
# Compressibility (1/GPa) = 0.03843851
#
# Stress axis : x y z
#
# Youngs Moduli (GPa) = 116.56385 47.53023 60.81967
#
# Poissons Ratio (x) = 0.24776 0.19370
# Poissons Ratio (y) = 0.60761 -0.27895
# Poissons Ratio (z) = 0.37123 -0.21800
#
# Static dielectric constant tensor:
#      x y z
#    x 1.937540 0.019360 0.014050 
#    y 0.019360 1.905810 0.007560 
#    z 0.014050 0.007560 1.934670 
# 
# From -- ./inp_files/187101.got.cif
#   From: 2010.05.17/outbox.cif.g08.bks.cpg/sg2_94_cif.got.tgz:187101.got - 2010.06.03 11:33:40.
