data_PCOD9042558
_publ_section_title
;
Structure prediction by ZEFSAII (Michael W. Deem and Ramdas Pophale) SiO2 
 PCOD9042558
Probable space group: P -1
;
_chemical_formula_sum "Si O2"
_cell_formula_units_Z 16
_cell_length_a 10.955632
_cell_length_b 14.232797
_cell_length_c 9.250897
_cell_angle_alpha 30.529429
_cell_angle_beta 89.912043
_cell_angle_gamma 80.178588
_cell_volume 690.883741
_symmetry_space_group_name_H-M "P -1"
_symmetry_group_IT_number 2
_symmetry_cell_setting 'triclinic'
loop_
_space_group_symop_operation_xyz
x,y,z
-x,-y,-z
loop_
_atom_site_type_symbol
_atom_site_label
_atom_site_fract_x
_atom_site_fract_y
_atom_site_fract_z
Si Si1 0.579069 0.536990 0.815147
Si Si2 0.175250 0.401421 0.341790
Si Si3 0.801969 0.011553 0.142526
Si Si4 0.603874 0.082459 0.812308
Si Si5 0.338584 0.168702 0.150549
Si Si6 0.978294 0.158847 0.160117
Si Si7 0.139257 0.342924 0.740443
Si Si8 0.624260 0.137375 0.221669
O O1 0.697865 0.619174 0.726530
O O2 0.474258 0.689141 0.513999
O O3 0.500000 0.500000 0.000000
O O4 0.651506 0.330376 0.013207
O O5 0.125575 0.222926 0.534576
O O6 0.211971 0.343837 0.587353
O O7 0.079413 0.624215 0.053553
O O8 0.884009 0.119850 0.087936
O O9 0.666245 0.077297 0.140661
O O10 0.742269 0.058567 0.919999
O O11 0.629094 0.973843 0.800716
O O12 0.500000 0.000000 0.000000
O O13 0.471662 0.191633 0.170435
O O14 0.299986 0.048489 0.435787
O O15 0.233866 0.369262 0.830439
O O16 0.000000 0.000000 0.500000
O O17 0.098847 0.169399 0.047915
O O18 0.000000 0.500000 0.500000
#
# Coordination Sequence:
#
# PCOD9042558 Si02
#       8
#     2   2   2   2   2   2   2   2
#     4  12  24  41  66 107 146 182 231 287 357 437
#     4  11  24  45  70 101 146 180 233 297 351 417
#     4  12  24  44  74 104 139 187 234 287 369 421
#     4  12  22  41  67  98 143 180 221 288 365 427
#     4  11  21  42  65 100 139 184 224 294 361 420
#     4  11  26  48  74 105 138 187 251 296 339 420
#     4  10  23  44  72  94 140 189 234 293 350 405
#     4  11  24  38  71 105 141 182 234 286 370 438
#
# _framework density 23.158745
#
# number of rings (size 3 to 8) (size 9 to 14) (size 15 to 20)
#    0.000    0.750    6.250    0.750    1.750    3.500 
#    0.000    0.000    0.000    0.000    0.000    0.000 
#    0.000    0.000    0.000    0.000    0.000    0.000 
#
# Total GULP energy -89155.302096 kJ/mol
# GULP energy per Si atom -5572.206381 kJ/mol
# Density = 2.310603 g / cm^3
# Si number density = 23.158745 Si / 1000 Ang^3
#
#
#
# Elastic Constant Matrix: (Units=GPa)
#
#
# Indices 1 2 3 4 5 6 
#
# 1 72.2849 0.7721 10.8282 11.5231 -2.4313 -8.6932
# 2 0.7721 58.3963 -6.3435 -2.4322 -9.7182 -5.8289
# 3 10.8282 -6.3435 87.7673 13.3921 -3.1081 -12.4491
# 4 11.5231 -2.4322 13.3921 40.2254 -3.7899 -1.4863
# 5 -2.4313 -9.7182 -3.1081 -3.7899 35.0613 8.2020
# 6 -8.6932 -5.8289 -12.4491 -1.4863 8.2020 35.0821
#
#
#
# Elastic Compliance Matrix: (Units=1/GPa)
#
#
# Indices 1 2 3 4 5 6 
#
# 1 0.014970 -0.000166 -0.000801 -0.003936 -0.000275 0.003296
# 2 -0.000166 0.018408 0.001709 0.001135 0.004767 0.002558
# 3 -0.000801 0.001709 0.012826 -0.003763 0.000107 0.004452
# 4 -0.003936 0.001135 -0.003763 0.027537 0.003076 -0.001675
# 5 -0.000275 0.004767 0.000107 0.003076 0.031690 -0.006517
# 6 0.003296 0.002558 0.004452 -0.001675 -0.006517 0.032779
#
#
# Mechanical properties :
#
#
# Convention : Reuss Voigt Hill
#
# Bulk Modulus (GPa) = 20.96876 25.44023 23.20449
# Shear Modulus (GPa) = 32.76100 36.28654 34.52377
#
# Velocity S-wave (km/s) = 3.76523 3.96265 3.86520
# Velocity P-wave (km/s) = 5.28930 5.65206 5.47369
#
# Compressibility (1/GPa) = 0.04769000
#
# Stress axis : x y z
#
# Youngs Moduli (GPa) = 66.79851 54.32392 77.96934
#
# Poissons Ratio (x) = 0.00900 0.06243
# Poissons Ratio (y) = 0.01107 -0.13327
# Poissons Ratio (z) = 0.05348 -0.09286
#
# Static dielectric constant tensor:
#      x y z
#    x 1.993460 -0.054340 -0.034860 
#    y -0.054340 1.872900 0.009190 
#    z -0.034860 0.009190 2.109310 
# 
# From -- ./inp_files/271366.got.cif
#   From: 2010.05.17/outbox.cif.g08.bks.cpg/sg2_136_cif.got.tgz:271366.got - 2010.06.03 11:33:40.
