data_PCOD9042915
_publ_section_title
;
Structure prediction by ZEFSAII (Michael W. Deem and Ramdas Pophale) SiO2 
 PCOD9042915
Probable space group: P -1
;
_chemical_formula_sum "Si O2"
_cell_formula_units_Z 16
_cell_length_a 13.525073
_cell_length_b 13.626264
_cell_length_c 11.390377
_cell_angle_alpha 73.405048
_cell_angle_beta 31.759074
_cell_angle_gamma 54.210999
_cell_volume 778.424319
_symmetry_space_group_name_H-M "P -1"
_symmetry_group_IT_number 2
_symmetry_cell_setting 'triclinic'
loop_
_space_group_symop_operation_xyz
x,y,z
-x,-y,-z
loop_
_atom_site_type_symbol
_atom_site_label
_atom_site_fract_x
_atom_site_fract_y
_atom_site_fract_z
Si Si1 0.337704 0.888904 0.410347
Si Si2 0.474008 0.129888 0.012656
Si Si3 0.465275 0.639285 0.744063
Si Si4 0.560963 0.915256 0.683137
Si Si5 0.136170 0.958795 0.002523
Si Si6 0.014447 0.650422 0.174132
Si Si7 0.252261 0.351500 0.753698
Si Si8 0.991334 0.451070 0.396780
O O1 0.569757 0.743190 0.285844
O O2 0.354794 0.877739 0.256051
O O3 0.385123 0.988768 0.368736
O O4 0.077289 0.950413 0.713441
O O5 0.533262 0.111418 0.096936
O O6 0.191066 0.284504 0.237698
O O7 0.500000 0.000000 0.000000
O O8 0.299958 0.794534 0.909343
O O9 0.586639 0.637997 0.502044
O O10 0.702551 0.526234 0.628257
O O11 0.273542 0.617946 0.919620
O O12 0.336940 0.977536 0.795315
O O13 0.822557 0.771049 0.420837
O O14 0.000000 0.000000 0.000000
O O15 0.062046 0.516742 0.213581
O O16 0.854226 0.703728 0.197230
O O17 0.000000 0.500000 0.000000
O O18 0.000000 0.500000 0.500000
#
# Coordination Sequence:
#
# PCOD9042915 Si02
#       8
#     2   2   2   2   2   2   2   2
#     4  11  23  38  67  91 130 172 215 269 334 385
#     4  10  23  45  66  94 132 173 217 272 329 385
#     4  11  23  39  64 101 129 165 221 268 324 395
#     4  11  22  41  64  95 130 168 214 270 327 387
#     4  12  22  38  64  98 129 166 218 269 325 392
#     4  11  22  39  66  97 128 170 216 269 324 391
#     4  11  24  43  62  90 133 175 215 278 329 388
#     4  11  21  43  69  93 134 173 216 269 323 389
#
# _framework density 20.554342999999999
#
# number of rings (size 3 to 8) (size 9 to 14) (size 15 to 20)
#    0.000    1.000    6.250    1.500    1.750    2.500 
#    0.000    7.500    0.000    0.000    0.000    0.000 
#    0.000    0.000    0.000    0.000    0.000    0.000 
#
# Total GULP energy -89362.680010 kJ/mol
# GULP energy per Si atom -5585.167501 kJ/mol
# Density = 2.050756 g / cm^3
# Si number density = 20.554343 Si / 1000 Ang^3
#
#
#
# Elastic Constant Matrix: (Units=GPa)
#
#
# Indices 1 2 3 4 5 6 
#
# 1 62.5648 5.8686 43.3531 -12.2135 -8.3939 -1.2509
# 2 5.8686 72.9218 39.8459 22.8269 -4.7004 -1.0593
# 3 43.3531 39.8459 126.3517 15.7777 -6.7871 5.5228
# 4 -12.2135 22.8269 15.7777 35.7582 10.1660 -3.5622
# 5 -8.3939 -4.7004 -6.7871 10.1660 44.1434 -5.4076
# 6 -1.2509 -1.0593 5.5228 -3.5622 -5.4076 22.2963
#
#
#
# Elastic Compliance Matrix: (Units=1/GPa)
#
#
# Indices 1 2 3 4 5 6 
#
# 1 0.026960 -0.000606 -0.011193 0.015009 0.000721 0.006829
# 2 -0.000606 0.020383 -0.004492 -0.012361 0.004349 0.001127
# 3 -0.011193 -0.004492 0.014471 -0.008122 0.000812 -0.005527
# 4 0.015009 -0.012361 -0.008122 0.048125 -0.009868 0.007562
# 5 0.000721 0.004349 0.000812 -0.009868 0.026243 0.004834
# 6 0.006829 0.001127 -0.005527 0.007562 0.004834 0.049037
#
#
# Mechanical properties :
#
#
# Convention : Reuss Voigt Hill
#
# Bulk Modulus (GPa) = 34.21075 48.88594 41.54835
# Shear Modulus (GPa) = 21.97374 31.95760 26.96567
#
# Velocity S-wave (km/s) = 3.27319 3.94735 3.62597
# Velocity P-wave (km/s) = 5.56464 6.67914 6.14720
#
# Compressibility (1/GPa) = 0.02923058
#
# Stress axis : x y z
#
# Youngs Moduli (GPa) = 37.09256 49.06126 69.10468
#
# Poissons Ratio (x) = 0.02975 0.77349
# Poissons Ratio (y) = 0.02249 0.31041
# Poissons Ratio (z) = 0.41518 0.22038
#
# Static dielectric constant tensor:
#      x y z
#    x 1.765640 -0.008740 0.033480 
#    y -0.008740 1.765720 0.008390 
#    z 0.033480 0.008390 1.728040 
# 
# From -- ./inp_files/454722.got.cif
#   From: 2010.05.17/outbox.cif.g08.bks.cpg/sg2_228_cif.got.tgz:454722.got - 2010.06.03 11:33:40.
