data_PCOD9042507
_publ_section_title
;
Structure prediction by ZEFSAII (Michael W. Deem and Ramdas Pophale) SiO2 
 PCOD9042507
Probable space group: P -1
;
_chemical_formula_sum "Si O2"
_cell_formula_units_Z 14
_cell_length_a 14.987851
_cell_length_b 8.262999
_cell_length_c 11.998329
_cell_angle_alpha 70.846902
_cell_angle_beta 134.248791
_cell_angle_gamma 142.329700
_cell_volume 558.660536
_symmetry_space_group_name_H-M "P -1"
_symmetry_group_IT_number 2
_symmetry_cell_setting 'triclinic'
loop_
_space_group_symop_operation_xyz
x,y,z
-x,-y,-z
loop_
_atom_site_type_symbol
_atom_site_label
_atom_site_fract_x
_atom_site_fract_y
_atom_site_fract_z
Si Si1 0.360686 0.570859 0.636409
Si Si2 0.747547 0.354985 0.119554
Si Si3 0.346677 0.806563 0.172017
Si Si4 0.059153 0.221884 0.159744
Si Si5 0.293400 0.179683 0.261072
Si Si6 0.251787 0.294074 0.828157
Si Si7 0.787124 0.230279 0.553446
O O1 0.460426 0.552419 0.639743
O O2 0.220148 0.327065 0.668112
O O3 0.252535 0.618181 0.480448
O O4 0.578325 0.912305 0.809087
O O5 0.752949 0.551375 0.126703
O O6 0.958674 0.501477 0.324893
O O7 0.777131 0.372961 0.009269
O O8 0.500000 0.000000 0.000000
O O9 0.190462 0.550678 0.189085
O O10 0.587215 0.983986 0.344395
O O11 0.235294 0.273215 0.268148
O O12 0.934838 0.042991 0.207400
O O13 0.875431 0.001915 0.950047
O O14 0.259011 0.966078 0.349573
O O15 0.500000 0.500000 0.000000
#
# Coordination Sequence:
#
# PCOD9042507 Si02
#       7
#     2   2   2   2   2   2   2
#     4  10  24  42  68 105 139 179 230 291 342 403
#     4  12  22  45  74  99 137 187 230 280 346 415
#     4  10  24  42  71 107 129 186 234 279 343 418
#     4  11  22  41  72 100 138 188 228 279 351 412
#     4  11  20  42  70 100 139 182 229 290 341 403
#     4  12  24  44  68 104 141 183 229 292 345 410
#     4  10  23  44  72 102 141 175 234 291 338 407
#
# _framework density 25.059940999999998
#
# number of rings (size 3 to 8) (size 9 to 14) (size 15 to 20)
#    0.857    0.286    5.714    1.286    0.000    3.429 
#    2.571    0.000    0.000    2.571    0.000    0.000 
#    0.000    0.000    0.000    0.000    0.000    0.000 
#
# Total GULP energy -78325.388696 kJ/mol
# GULP energy per Si atom -5594.670621 kJ/mol
# Density = 2.500290 g / cm^3
# Si number density = 25.059941 Si / 1000 Ang^3
#
#
#
# Elastic Constant Matrix: (Units=GPa)
#
#
# Indices 1 2 3 4 5 6 
#
# 1 97.1758 15.7576 23.0156 -3.6705 11.2489 3.0942
# 2 15.7576 132.6932 11.4623 -7.1578 -12.0184 27.6438
# 3 23.0156 11.4623 68.2710 -2.3606 -1.4139 -19.3033
# 4 -3.6705 -7.1578 -2.3606 48.4190 4.3592 -4.0059
# 5 11.2489 -12.0184 -1.4139 4.3592 40.7414 -4.7970
# 6 3.0942 27.6438 -19.3033 -4.0059 -4.7970 26.6604
#
#
#
# Elastic Compliance Matrix: (Units=1/GPa)
#
#
# Indices 1 2 3 4 5 6 
#
# 1 0.012506 0.000084 -0.006222 0.000501 -0.004496 -0.006777
# 2 0.000084 0.011720 -0.006732 -0.000092 0.001229 -0.016829
# 3 -0.006222 -0.006732 0.025710 0.001711 0.003647 0.027231
# 4 0.000501 -0.000092 0.001711 0.021273 -0.001896 0.004132
# 5 -0.004496 0.001229 0.003647 -0.001896 0.027244 0.006506
# 6 -0.006777 -0.016829 0.027231 0.004132 0.006506 0.077253
#
#
# Mechanical properties :
#
#
# Convention : Reuss Voigt Hill
#
# Bulk Modulus (GPa) = 41.33101 44.29013 42.81057
# Shear Modulus (GPa) = 23.86500 39.69112 31.77806
#
# Velocity S-wave (km/s) = 3.08931 3.98408 3.56488
# Velocity P-wave (km/s) = 5.40868 6.23505 5.83651
#
# Compressibility (1/GPa) = 0.02419491
#
# Stress axis : x y z
#
# Youngs Moduli (GPa) = 79.96278 85.32363 38.89605
#
# Poissons Ratio (x) = -0.00718 0.24202
# Poissons Ratio (y) = -0.00673 0.26186
# Poissons Ratio (z) = 0.49754 0.57442
#
# Static dielectric constant tensor:
#      x y z
#    x 1.996220 0.027190 -0.027570 
#    y 0.027190 1.982760 0.001980 
#    z -0.027570 0.001980 2.027400 
# 
# From -- ./inp_files/447222.got.cif
#   From: 2010.05.17/outbox.cif.g08.bks.cpg/sg2_224_cif.got.tgz:447222.got - 2010.06.03 11:33:40.
