data_PCOD9042796
_publ_section_title
;
Structure prediction by ZEFSAII (Michael W. Deem and Ramdas Pophale) SiO2 
 PCOD9042796
Probable space group: P -1
;
_chemical_formula_sum "Si O2"
_cell_formula_units_Z 15
_cell_length_a 7.722500
_cell_length_b 16.958436
_cell_length_c 9.969197
_cell_angle_alpha 139.537105
_cell_angle_beta 107.237874
_cell_angle_gamma 102.730848
_cell_volume 562.145492
_symmetry_space_group_name_H-M "P -1"
_symmetry_group_IT_number 2
_symmetry_cell_setting 'triclinic'
loop_
_space_group_symop_operation_xyz
x,y,z
-x,-y,-z
loop_
_atom_site_type_symbol
_atom_site_label
_atom_site_fract_x
_atom_site_fract_y
_atom_site_fract_z
Si Si1 0.293878 0.893840 0.694693
Si Si2 0.256597 0.285246 0.691941
Si Si3 0.176961 0.507070 0.736218
Si Si4 0.000000 0.000000 0.500000
Si Si5 0.090009 0.215982 0.045148
Si Si6 0.348516 0.662328 0.271689
Si Si7 0.706273 0.221033 0.082905
Si Si8 0.529560 0.454775 0.628426
O O1 0.300212 0.770746 0.458237
O O2 0.000099 0.782006 0.519456
O O3 0.500000 0.000000 0.000000
O O4 0.405361 0.049998 0.821321
O O5 0.350364 0.215157 0.537622
O O6 0.171986 0.195024 0.701914
O O7 0.500000 0.500000 0.000000
O O8 0.210367 0.564821 0.972521
O O9 0.277430 0.669336 0.882996
O O10 0.351392 0.478484 0.681140
O O11 0.878284 0.346074 0.411498
O O12 0.995896 0.916272 0.259178
O O13 0.302946 0.264207 0.259875
O O14 0.265763 0.403176 0.252231
O O15 0.849958 0.168852 0.997956
O O16 0.306568 0.541712 0.220909
#
# Coordination Sequence:
#
# PCOD9042796 Si02
#       8
#     2   2   2   1   2   2   2   2
#     4  12  33  53  81 123 168 222 283 351 429 507
#     4  12  31  56  84 128 175 222 287 357 424 510
#     4  10  23  47  83 113 162 216 272 356 421 504
#     4  12  26  48  88 120 166 228 284 346 422 512
#     4  10  23  44  77 117 163 220 280 344 426 504
#     4  12  27  51  84 117 170 221 277 348 430 502
#     4  10  25  50  75 117 165 209 281 351 419 505
#     4  10  23  45  76 120 162 222 277 344 434 501
#
# _framework density 26.683487
#
# number of rings (size 3 to 8) (size 9 to 14) (size 15 to 20)
#    0.000    1.067    0.000    3.600   13.067    4.800 
#    0.000    0.000    0.000    0.000    0.000    0.000 
#    0.000    0.000    0.000    0.000    0.000    0.000 
#
# Total GULP energy -83780.791295 kJ/mol
# GULP energy per Si atom -5585.386086 kJ/mol
# Density = 2.662275 g / cm^3
# Si number density = 26.683487 Si / 1000 Ang^3
#
#
#
# Elastic Constant Matrix: (Units=GPa)
#
#
# Indices 1 2 3 4 5 6 
#
# 1 143.9930 24.0404 59.4386 -6.2436 11.4942 18.7586
# 2 24.0404 140.7277 56.1575 0.0578 10.3236 -5.5404
# 3 59.4386 56.1575 148.0557 -10.2160 -3.6830 7.6428
# 4 -6.2436 0.0578 -10.2160 69.7979 13.8501 3.5953
# 5 11.4942 10.3236 -3.6830 13.8501 43.0218 4.6126
# 6 18.7586 -5.5404 7.6428 3.5953 4.6126 41.8034
#
#
#
# Elastic Compliance Matrix: (Units=1/GPa)
#
#
# Indices 1 2 3 4 5 6 
#
# 1 0.009055 -0.000115 -0.003421 0.001004 -0.002660 -0.003246
# 2 -0.000115 0.008782 -0.003468 -0.000127 -0.002562 0.002143
# 3 -0.003421 -0.003468 0.009602 0.000666 0.002462 -0.001009
# 4 0.001004 -0.000127 0.000666 0.015588 -0.005052 -0.001372
# 5 -0.002660 -0.002562 0.002462 -0.005052 0.026632 -0.002100
# 6 -0.003246 0.002143 -0.001009 -0.001372 -0.002100 0.026196
#
#
# Mechanical properties :
#
#
# Convention : Reuss Voigt Hill
#
# Bulk Modulus (GPa) = 74.45202 79.11660 76.78431
# Shear Modulus (GPa) = 43.72951 50.46727 47.09839
#
# Velocity S-wave (km/s) = 4.05263 4.35366 4.20584
# Velocity P-wave (km/s) = 7.06122 7.41531 7.24043
#
# Compressibility (1/GPa) = 0.01343147
#
# Stress axis : x y z
#
# Youngs Moduli (GPa) = 110.43895 113.87135 104.14213
#
# Poissons Ratio (x) = 0.01307 0.35626
# Poissons Ratio (y) = 0.01268 0.36117
# Poissons Ratio (z) = 0.37780 0.39491
#
# Static dielectric constant tensor:
#      x y z
#    x 2.138470 -0.097820 0.065470 
#    y -0.097820 2.227810 0.053160 
#    z 0.065470 0.053160 2.197250 
# 
# From -- ./inp_files/404350.got.cif
#   From: 2010.05.17/outbox.cif.g08.bks.cpg/sg2_203_cif.got.tgz:404350.got - 2010.06.03 11:33:40.
