data_PCOD9042464
_publ_section_title
;
Structure prediction by ZEFSAII (Michael W. Deem and Ramdas Pophale) SiO2 
 PCOD9042464
Probable space group: P -1
;
_chemical_formula_sum "Si O2"
_cell_formula_units_Z 14
_cell_length_a 16.604738
_cell_length_b 9.771523
_cell_length_c 10.953655
_cell_angle_alpha 80.196347
_cell_angle_beta 146.788441
_cell_angle_gamma 123.072952
_cell_volume 637.600988
_symmetry_space_group_name_H-M "P -1"
_symmetry_group_IT_number 2
_symmetry_cell_setting 'triclinic'
loop_
_space_group_symop_operation_xyz
x,y,z
-x,-y,-z
loop_
_atom_site_type_symbol
_atom_site_label
_atom_site_fract_x
_atom_site_fract_y
_atom_site_fract_z
Si Si1 0.100364 0.426413 0.844936
Si Si2 0.164811 0.045980 0.408345
Si Si3 0.556482 0.698698 0.513043
Si Si4 0.613418 0.418408 0.031474
Si Si5 0.534565 0.376299 0.217984
Si Si6 0.797362 0.004099 0.001741
Si Si7 0.959236 0.553001 0.815200
O O1 0.945570 0.433737 0.705486
O O2 0.328627 0.598417 0.185438
O O3 0.181300 0.495232 0.797457
O O4 0.985236 0.196395 0.752102
O O5 0.256460 0.154492 0.375904
O O6 0.385910 0.178604 0.747875
O O7 0.019412 0.067953 0.276003
O O8 0.500000 0.500000 0.500000
O O9 0.652731 0.842741 0.730998
O O10 0.569061 0.544403 0.906441
O O11 0.633614 0.443001 0.197760
O O12 0.343352 0.128852 0.036204
O O13 0.732712 0.479592 0.544554
O O14 0.854559 0.202952 0.018032
O O15 0.000000 0.500000 0.000000
#
# Coordination Sequence:
#
# PCOD9042464 Si02
#       7
#     2   2   2   2   2   2   2
#     4  11  24  42  64  97 134 172 215 274 326 384
#     4  11  21  39  68  97 122 173 224 266 322 387
#     4  11  22  35  65  97 128 164 222 272 313 384
#     4  10  23  44  71  98 128 168 231 275 313 386
#     4  11  24  44  68 100 131 170 222 278 320 384
#     4  12  23  40  67  97 130 177 217 264 331 390
#     4  12  28  43  64  98 142 172 210 271 341 389
#
# _framework density 21.957305999999999
#
# number of rings (size 3 to 8) (size 9 to 14) (size 15 to 20)
#    0.000    0.857    4.286    3.000    2.000    6.857 
#    0.000    1.429    0.000    0.000    0.000    0.000 
#    0.000    0.000    0.000    0.000    0.000    0.000 
#
# Total GULP energy -78326.993455 kJ/mol
# GULP energy per Si atom -5594.785247 kJ/mol
# Density = 2.190733 g / cm^3
# Si number density = 21.957306 Si / 1000 Ang^3
#
#
#
# Elastic Constant Matrix: (Units=GPa)
#
#
# Indices 1 2 3 4 5 6 
#
# 1 84.0352 35.6421 -4.3509 6.3241 1.2310 8.2587
# 2 35.6421 127.8352 26.6442 17.3857 9.5339 1.0392
# 3 -4.3509 26.6442 47.6149 4.6222 6.1844 10.2074
# 4 6.3241 17.3857 4.6222 33.9215 3.6680 4.0063
# 5 1.2310 9.5339 6.1844 3.6680 20.9732 6.0410
# 6 8.2587 1.0392 10.2074 4.0063 6.0410 33.0606
#
#
#
# Elastic Compliance Matrix: (Units=1/GPa)
#
#
# Indices 1 2 3 4 5 6 
#
# 1 0.014971 -0.005318 0.005341 -0.000319 0.001597 -0.005475
# 2 -0.005318 0.011544 -0.007020 -0.004105 -0.003370 0.004246
# 3 0.005341 -0.007020 0.027720 0.000202 -0.002680 -0.009207
# 4 -0.000319 -0.004105 0.000202 0.032311 -0.002892 -0.003241
# 5 0.001597 -0.003370 -0.002680 -0.002892 0.052946 -0.008790
# 6 -0.005475 0.004246 -0.009207 -0.003241 -0.008790 0.036323
#
#
# Mechanical properties :
#
#
# Convention : Reuss Voigt Hill
#
# Bulk Modulus (GPa) = 24.85026 41.70623 33.27825
# Shear Modulus (GPa) = 24.60363 31.02772 27.81567
#
# Velocity S-wave (km/s) = 3.35105 3.76319 3.56308
# Velocity P-wave (km/s) = 5.12980 6.15773 5.66712
#
# Compressibility (1/GPa) = 0.04024103
#
# Stress axis : x y z
#
# Youngs Moduli (GPa) = 66.79709 86.62743 36.07494
#
# Poissons Ratio (x) = 0.46073 -0.19269
# Poissons Ratio (y) = 0.35526 0.25323
# Poissons Ratio (z) = -0.35678 0.60809
#
# Static dielectric constant tensor:
#      x y z
#    x 1.820950 0.015570 0.007200 
#    y 0.015570 1.786200 -0.018440 
#    z 0.007200 -0.018440 1.827600 
# 
# From -- ./inp_files/26864.got.cif
#   From: 2010.05.17/outbox.cif.g08.bks.cpg/sg2_14_cif.got.tgz:26864.got - 2010.06.03 11:33:40.
