data_PCOD9042229
_publ_section_title
;
Structure prediction by ZEFSAII (Michael W. Deem and Ramdas Pophale) SiO2 
 PCOD9042229
Probable space group: P -1
;
_chemical_formula_sum "Si O2"
_cell_formula_units_Z 12
_cell_length_a 6.029007
_cell_length_b 17.910661
_cell_length_c 7.906263
_cell_angle_alpha 50.500854
_cell_angle_beta 51.303599
_cell_angle_gamma 60.839519
_cell_volume 508.436045
_symmetry_space_group_name_H-M "P -1"
_symmetry_group_IT_number 2
_symmetry_cell_setting 'triclinic'
loop_
_space_group_symop_operation_xyz
x,y,z
-x,-y,-z
loop_
_atom_site_type_symbol
_atom_site_label
_atom_site_fract_x
_atom_site_fract_y
_atom_site_fract_z
Si Si1 0.306301 0.026890 0.373988
Si Si2 0.830727 0.910815 0.164012
Si Si3 0.870542 0.568110 0.618731
Si Si4 0.772464 0.775615 0.708956
Si Si5 0.870357 0.267372 0.909295
Si Si6 0.182244 0.612567 0.897513
O O1 0.250036 0.143620 0.247768
O O2 0.500000 0.000000 0.500000
O O3 0.509919 0.966443 0.226246
O O4 0.000000 0.000000 0.500000
O O5 0.832845 0.836802 0.427051
O O6 0.964621 0.841714 0.048243
O O7 0.000000 0.000000 0.000000
O O8 0.967755 0.338804 0.616557
O O9 0.525476 0.600640 0.722483
O O10 0.000000 0.500000 0.500000
O O11 0.901672 0.494133 0.869787
O O12 0.010280 0.680976 0.743161
O O13 0.465031 0.740129 0.912947
O O14 0.913600 0.321895 0.984813
#
# Coordination Sequence:
#
# PCOD9042229 Si02
#       6
#     2   2   2   2   2   2
#     4  10  24  45  68 100 148 193 242 307 365 430
#     4  11  24  46  67 102 144 188 242 293 364 434
#     4   9  21  44  70  99 139 177 231 293 370 440
#     4  11  25  41  69 100 138 184 238 295 358 430
#     4  11  23  43  70  99 140 185 233 290 362 436
#     4  10  23  44  70 102 137 181 229 301 360 435
#
# _framework density 23.601787999999999
#
# number of rings (size 3 to 8) (size 9 to 14) (size 15 to 20)
#    0.000    1.667    1.667    1.000    7.000    3.333 
#    3.000   15.833    0.000    0.000    0.000    0.000 
#    0.000    0.000    0.000    0.000    0.000    0.000 
#
# Total GULP energy -66923.421432 kJ/mol
# GULP energy per Si atom -5576.951786 kJ/mol
# Density = 2.354807 g / cm^3
# Si number density = 23.601788 Si / 1000 Ang^3
#
#
#
# Elastic Constant Matrix: (Units=GPa)
#
#
# Indices 1 2 3 4 5 6 
#
# 1 82.2044 48.1373 65.7753 0.5055 -0.4444 -6.6201
# 2 48.1373 196.8833 47.6081 1.1621 4.0527 -14.2049
# 3 65.7753 47.6081 178.5044 -18.7736 -5.5604 -13.0280
# 4 0.5055 1.1621 -18.7736 46.3502 11.7383 -11.5622
# 5 -0.4444 4.0527 -5.5604 11.7383 31.4498 3.3778
# 6 -6.6201 -14.2049 -13.0280 -11.5622 3.3778 45.7042
#
#
#
# Elastic Compliance Matrix: (Units=1/GPa)
#
#
# Indices 1 2 3 4 5 6 
#
# 1 0.019294 -0.003177 -0.006653 -0.003282 0.000836 -0.000981
# 2 -0.003177 0.006068 -0.000327 0.000440 -0.001214 0.001533
# 3 -0.006653 -0.000327 0.008777 0.004383 -0.000413 0.002576
# 4 -0.003282 0.000440 0.004383 0.028341 -0.010860 0.008883
# 5 0.000836 -0.001214 -0.000413 -0.010860 0.036571 -0.005824
# 6 -0.000981 0.001533 0.002576 0.008883 -0.005824 0.025626
#
#
# Mechanical properties :
#
#
# Convention : Reuss Voigt Hill
#
# Bulk Modulus (GPa) = 72.33569 86.73707 79.53638
# Shear Modulus (GPa) = 33.42231 44.43893 38.93062
#
# Velocity S-wave (km/s) = 3.76718 4.34390 4.06578
# Velocity P-wave (km/s) = 7.04536 7.87333 7.47083
#
# Compressibility (1/GPa) = 0.01382443
#
# Stress axis : x y z
#
# Youngs Moduli (GPa) = 51.82872 164.79511 113.93502
#
# Poissons Ratio (x) = 0.52360 0.75800
# Poissons Ratio (y) = 0.16468 0.03729
# Poissons Ratio (z) = 0.34481 0.05393
#
# Static dielectric constant tensor:
#      x y z
#    x 1.982380 0.068660 0.066380 
#    y 0.068660 1.923600 -0.001750 
#    z 0.066380 -0.001750 1.894470 
# 
# From -- ./inp_files/137106.got.cif
#   From: 2010.05.17/outbox.cif.g08.bks.cpg/sg2_69_cif.got.tgz:137106.got - 2010.06.03 11:33:40.
