data_PCOD9042850
_publ_section_title
;
Structure prediction by ZEFSAII (Michael W. Deem and Ramdas Pophale) SiO2 
 PCOD9042850
Probable space group: P -1
;
_chemical_formula_sum "Si O2"
_cell_formula_units_Z 14
_cell_length_a 11.981327
_cell_length_b 11.564577
_cell_length_c 17.738157
_cell_angle_alpha 30.769999
_cell_angle_beta 37.544477
_cell_angle_gamma 27.977468
_cell_volume 583.895846
_symmetry_space_group_name_H-M "P -1"
_symmetry_group_IT_number 2
_symmetry_cell_setting 'triclinic'
loop_
_space_group_symop_operation_xyz
x,y,z
-x,-y,-z
loop_
_atom_site_type_symbol
_atom_site_label
_atom_site_fract_x
_atom_site_fract_y
_atom_site_fract_z
Si Si1 0.272452 0.786041 0.006966
Si Si2 0.161057 0.231873 0.379212
Si Si3 0.441285 0.288650 0.301232
Si Si4 0.228537 0.540846 0.427625
Si Si5 0.876494 0.661686 0.156637
Si Si6 0.312974 0.619204 0.665494
Si Si7 0.896202 0.180604 0.172871
O O1 0.301812 0.021979 0.883242
O O2 0.500000 0.500000 0.000000
O O3 0.279482 0.623105 0.167898
O O4 0.000000 0.000000 0.000000
O O5 0.401191 0.130300 0.348243
O O6 0.959761 0.448098 0.429036
O O7 0.081273 0.415238 0.243139
O O8 0.170267 0.953935 0.525003
O O9 0.347458 0.311548 0.422859
O O10 0.705216 0.182212 0.228094
O O11 0.417534 0.505476 0.402242
O O12 0.090355 0.858577 0.284754
O O13 0.737413 0.555993 0.259741
O O14 0.997862 0.707531 0.998438
O O15 0.240046 0.621662 0.789821
#
# Coordination Sequence:
#
# PCOD9042850 Si02
#       7
#     2   2   2   2   2   2   2
#     4  12  26  47  72 116 151 190 250 320 392 445
#     4  11  25  43  71 106 149 192 247 302 376 455
#     4  11  23  43  73 102 144 190 249 310 376 435
#     4  10  23  45  65 103 146 190 255 293 378 442
#     4  12  24  48  74 106 151 189 249 316 376 449
#     4  10  25  47  70 106 145 205 246 298 375 456
#     4  10  23  45  73 108 141 194 250 313 371 445
#
# _framework density 23.976879
#
# number of rings (size 3 to 8) (size 9 to 14) (size 15 to 20)
#    0.000    1.143    2.857    2.143    0.000    8.571 
#   10.286    0.000    0.000    0.000    0.000    0.000 
#    0.000    0.000    0.000    0.000    0.000    0.000 
#
# Total GULP energy -78368.432877 kJ/mol
# GULP energy per Si atom -5597.745206 kJ/mol
# Density = 2.392231 g / cm^3
# Si number density = 23.976879 Si / 1000 Ang^3
#
#
#
# Elastic Constant Matrix: (Units=GPa)
#
#
# Indices 1 2 3 4 5 6 
#
# 1 147.7970 43.5290 49.3351 -28.5016 -30.1070 0.6750
# 2 43.5290 91.6474 28.5148 -17.4287 -12.8481 -4.7750
# 3 49.3351 28.5148 117.9447 -22.7247 2.0412 2.7909
# 4 -28.5016 -17.4287 -22.7247 25.9896 4.9387 -0.1671
# 5 -30.1070 -12.8481 2.0412 4.9387 56.5944 -16.0309
# 6 0.6750 -4.7750 2.7909 -0.1671 -16.0309 32.8267
#
#
#
# Elastic Compliance Matrix: (Units=1/GPa)
#
#
# Indices 1 2 3 4 5 6 
#
# 1 0.010734 -0.002014 -0.002817 0.006941 0.005432 0.002414
# 2 -0.002014 0.013937 -0.001656 0.005197 0.002706 0.003557
# 3 -0.002817 -0.001656 0.011439 0.006483 -0.003680 -0.002920
# 4 0.006941 0.005197 0.006483 0.055263 -0.000101 0.000294
# 5 0.005432 0.002706 -0.003680 -0.000101 0.024933 0.012770
# 6 0.002414 0.003557 -0.002920 0.000294 0.012770 0.037417
#
#
# Mechanical properties :
#
#
# Convention : Reuss Voigt Hill
#
# Bulk Modulus (GPa) = 43.22603 66.68298 54.95450
# Shear Modulus (GPa) = 28.66842 38.81614 33.74228
#
# Velocity S-wave (km/s) = 3.46160 4.02792 3.75545
# Velocity P-wave (km/s) = 5.83474 7.03590 6.46329
#
# Compressibility (1/GPa) = 0.02313421
#
# Stress axis : x y z
#
# Youngs Moduli (GPa) = 93.16603 71.75347 87.42027
#
# Poissons Ratio (x) = 0.14454 0.24623
# Poissons Ratio (y) = 0.18768 0.14480
# Poissons Ratio (z) = 0.26241 0.11885
#
# Static dielectric constant tensor:
#      x y z
#    x 1.909060 0.024000 0.005790 
#    y 0.024000 1.974030 0.009130 
#    z 0.005790 0.009130 1.917570 
# 
# From -- ./inp_files/72436.got.cif
#   From: 2010.05.17/outbox.cif.g08.bks.cpg/sg2_37_cif.got.tgz:72436.got - 2010.06.03 11:33:40.
