data_PCOD9042101
_publ_section_title
;
Structure prediction by ZEFSAII (Michael W. Deem and Ramdas Pophale) SiO2 
 PCOD9042101
Probable space group: P -1
;
_chemical_formula_sum "Si O2"
_cell_formula_units_Z 16
_cell_length_a 10.744023
_cell_length_b 5.090458
_cell_length_c 23.983814
_cell_angle_alpha 70.478957
_cell_angle_beta 145.870155
_cell_angle_gamma 112.895320
_cell_volume 677.800767
_symmetry_space_group_name_H-M "P -1"
_symmetry_group_IT_number 2
_symmetry_cell_setting 'triclinic'
loop_
_space_group_symop_operation_xyz
x,y,z
-x,-y,-z
loop_
_atom_site_type_symbol
_atom_site_label
_atom_site_fract_x
_atom_site_fract_y
_atom_site_fract_z
Si Si1 0.564823 0.792363 0.468637
Si Si2 0.750111 0.669573 0.427466
Si Si3 0.747054 0.588073 0.760642
Si Si4 0.378090 0.533296 0.894168
Si Si5 0.014166 0.213392 0.602915
Si Si6 0.867960 0.251084 0.930297
Si Si7 0.416051 0.179266 0.834380
Si Si8 0.124761 0.791002 0.257176
O O1 0.500000 0.500000 0.500000
O O2 0.641478 0.792486 0.431730
O O3 0.325440 0.888875 0.369936
O O4 0.795413 0.993519 0.561327
O O5 0.526149 0.465849 0.331874
O O6 0.874779 0.863201 0.409398
O O7 0.917865 0.487476 0.529482
O O8 0.844179 0.380863 0.852068
O O9 0.811313 0.477071 0.732291
O O10 0.856306 0.915588 0.790304
O O11 0.503639 0.417124 0.897198
O O12 0.131842 0.323361 0.812503
O O13 0.350514 0.857973 0.856527
O O14 0.500000 0.500000 0.000000
O O15 0.209784 0.260901 0.717836
O O16 0.615585 0.161885 0.866897
O O17 0.000000 0.500000 0.000000
O O18 0.000000 0.000000 0.000000
#
# Coordination Sequence:
#
# PCOD9042101 Si02
#       8
#     2   2   2   2   2   2   2   2
#     4  11  24  41  68 105 149 198 245 300 366 447
#     4  10  23  44  69 104 147 198 239 303 369 445
#     4  11  23  47  71 106 139 190 242 302 363 443
#     4  12  29  51  75 105 148 198 245 311 375 445
#     4  11  23  45  72 105 147 191 246 304 373 442
#     4  12  27  47  75 107 143 185 248 316 371 424
#     4  12  28  49  77 110 145 192 250 307 372 448
#     4  11  25  44  72 103 144 191 244 292 366 433
#
# _framework density 23.605757000000001
#
# number of rings (size 3 to 8) (size 9 to 14) (size 15 to 20)
#    0.000    0.750    2.500    3.750    8.750    1.500 
#    0.000    0.000    0.000    0.000    0.000    0.000 
#    0.000    0.000    0.000    0.000    0.000    0.000 
#
# Total GULP energy -89438.392556 kJ/mol
# GULP energy per Si atom -5589.899535 kJ/mol
# Density = 2.355203 g / cm^3
# Si number density = 23.605757 Si / 1000 Ang^3
#
#
#
# Elastic Constant Matrix: (Units=GPa)
#
#
# Indices 1 2 3 4 5 6 
#
# 1 77.7588 17.2029 11.5582 2.0934 -10.4798 -5.3331
# 2 17.2029 108.7893 19.7110 -12.0847 1.2838 2.2623
# 3 11.5582 19.7110 102.6903 -18.7369 -0.9527 2.4095
# 4 2.0934 -12.0847 -18.7369 39.6142 4.7538 8.6220
# 5 -10.4798 1.2838 -0.9527 4.7538 35.4936 2.2767
# 6 -5.3331 2.2623 2.4095 8.6220 2.2767 42.3832
#
#
#
# Elastic Compliance Matrix: (Units=1/GPa)
#
#
# Indices 1 2 3 4 5 6 
#
# 1 0.014571 -0.002470 -0.001819 -0.003492 0.004648 0.002530
# 2 -0.002470 0.010178 -0.001073 0.003201 -0.001467 -0.001365
# 3 -0.001819 -0.001073 0.011204 0.005580 -0.000823 -0.001900
# 4 -0.003492 0.003201 0.005580 0.031135 -0.004718 -0.007008
# 5 0.004648 -0.001467 -0.000823 -0.004718 0.030206 0.000047
# 6 0.002530 -0.001365 -0.001900 -0.007008 0.000047 0.025517
#
#
# Mechanical properties :
#
#
# Convention : Reuss Voigt Hill
#
# Bulk Modulus (GPa) = 39.63775 42.90918 41.27346
# Shear Modulus (GPa) = 35.22467 39.54931 37.38699
#
# Velocity S-wave (km/s) = 3.86710 4.09762 3.98403
# Velocity P-wave (km/s) = 6.06360 6.37214 6.21979
#
# Compressibility (1/GPa) = 0.02522848
#
# Stress axis : x y z
#
# Youngs Moduli (GPa) = 68.62904 98.24727 89.25467
#
# Poissons Ratio (x) = 0.24266 0.16239
# Poissons Ratio (y) = 0.16951 0.09579
# Poissons Ratio (z) = 0.12486 0.10544
#
# Static dielectric constant tensor:
#      x y z
#    x 2.046530 0.008480 -0.015640 
#    y 0.008480 1.916140 0.024460 
#    z -0.015640 0.024460 1.893820 
# 
# From -- ./inp_files/617902.got.cif
#   From: 2010.05.17/outbox.cif.g08.bks.cpg/sg2_309_cif.got.tgz:617902.got - 2010.06.03 11:33:40.
