data_PCOD9042462
_publ_section_title
;
Structure prediction by ZEFSAII (Michael W. Deem and Ramdas Pophale) SiO2 
 PCOD9042462
Probable space group: P -1
;
_chemical_formula_sum "Si O2"
_cell_formula_units_Z 14
_cell_length_a 9.175282
_cell_length_b 8.308255
_cell_length_c 17.930907
_cell_angle_alpha 64.566798
_cell_angle_beta 148.454907
_cell_angle_gamma 101.693677
_cell_volume 605.997744
_symmetry_space_group_name_H-M "P -1"
_symmetry_group_IT_number 2
_symmetry_cell_setting 'triclinic'
loop_
_space_group_symop_operation_xyz
x,y,z
-x,-y,-z
loop_
_atom_site_type_symbol
_atom_site_label
_atom_site_fract_x
_atom_site_fract_y
_atom_site_fract_z
Si Si1 0.347383 0.942398 0.179765
Si Si2 0.696230 0.504451 0.402459
Si Si3 0.640689 0.201600 0.188971
Si Si4 0.723679 0.118208 0.074535
Si Si5 0.302955 0.511885 0.096309
Si Si6 0.680637 0.934615 0.472936
Si Si7 0.674682 0.196451 0.557657
O O1 0.491153 0.716966 0.288906
O O2 0.458159 0.005614 0.293020
O O3 0.507591 0.032247 0.171471
O O4 0.000000 0.000000 0.000000
O O5 0.534968 0.436561 0.279118
O O6 0.740215 0.377050 0.520326
O O7 0.000000 0.500000 0.500000
O O8 0.678168 0.227242 0.112544
O O9 0.419291 0.377763 0.102151
O O10 0.971978 0.136931 0.381347
O O11 0.706916 0.276125 0.973346
O O12 0.046635 0.955792 0.249951
O O13 0.500000 0.000000 0.000000
O O14 0.000000 0.500000 0.000000
O O15 0.600758 0.768651 0.514323
O O16 0.627030 0.093262 0.481806
#
# Coordination Sequence:
#
# PCOD9042462 Si02
#       7
#     2   2   2   2   2   2   2
#     4  12  26  44  68 109 145 183 234 310 366 422
#     4  12  25  45  70 103 140 192 241 292 368 433
#     4  11  24  45  72 103 143 194 241 291 364 439
#     4  11  25  46  72 110 149 186 238 310 370 422
#     4  12  27  45  75 105 146 189 247 300 359 439
#     4  10  23  44  71  97 144 184 247 281 362 433
#     4  10  24  43  74  99 140 193 239 290 358 441
#
# _framework density 23.102398000000001
#
# number of rings (size 3 to 8) (size 9 to 14) (size 15 to 20)
#    0.000    0.857    0.000    6.857   12.000    0.571 
#    2.571    0.000    0.000    0.000    0.000    0.000 
#    0.000    0.000    0.000    0.000    0.000    0.000 
#
# Total GULP energy -78353.748097 kJ/mol
# GULP energy per Si atom -5596.696293 kJ/mol
# Density = 2.304982 g / cm^3
# Si number density = 23.102398 Si / 1000 Ang^3
#
#
#
# Elastic Constant Matrix: (Units=GPa)
#
#
# Indices 1 2 3 4 5 6 
#
# 1 96.4150 37.3971 58.5135 -6.7838 25.9233 34.5357
# 2 37.3971 88.7249 27.4154 -16.4573 12.0254 23.9099
# 3 58.5135 27.4154 121.3672 15.0377 18.3781 17.9203
# 4 -6.7838 -16.4573 15.0377 48.3919 11.1842 -5.4676
# 5 25.9233 12.0254 18.3781 11.1842 42.3056 -0.1062
# 6 34.5357 23.9099 17.9203 -5.4676 -0.1062 56.3468
#
#
#
# Elastic Compliance Matrix: (Units=1/GPa)
#
#
# Indices 1 2 3 4 5 6 
#
# 1 0.023737 -0.001541 -0.008565 0.007120 -0.012295 -0.010503
# 2 -0.001541 0.015499 -0.002267 0.006227 -0.004134 -0.004315
# 3 -0.008565 -0.002267 0.013178 -0.006334 0.001846 0.001409
# 4 0.007120 0.006227 -0.006334 0.027982 -0.010785 -0.002297
# 5 -0.012295 -0.004134 0.001846 -0.010785 0.034415 0.007721
# 6 -0.010503 -0.004315 0.001409 -0.002297 0.007721 0.025359
#
#
# Mechanical properties :
#
#
# Convention : Reuss Voigt Hill
#
# Bulk Modulus (GPa) = 36.14324 61.46213 48.80268
# Shear Modulus (GPa) = 28.71302 41.62094 35.16698
#
# Velocity S-wave (km/s) = 3.52925 4.24911 3.90580
# Velocity P-wave (km/s) = 5.68209 7.12287 6.44288
#
# Compressibility (1/GPa) = 0.02766769
#
# Stress axis : x y z
#
# Youngs Moduli (GPa) = 42.12921 64.52144 75.88301
#
# Poissons Ratio (x) = 0.09941 0.64997
# Poissons Ratio (y) = 0.06491 0.17200
# Poissons Ratio (z) = 0.36086 0.14624
#
# Static dielectric constant tensor:
#      x y z
#    x 1.866580 -0.006410 -0.011720 
#    y -0.006410 1.919690 0.021480 
#    z -0.011720 0.021480 1.837840 
# 
# From -- ./inp_files/328652.got.cif
#   From: 2010.05.17/outbox.cif.g08.bks.cpg/sg2_165_cif.got.tgz:328652.got - 2010.06.03 11:33:40.
