data_PCOD9042504
_publ_section_title
;
Structure prediction by ZEFSAII (Michael W. Deem and Ramdas Pophale) SiO2 
 PCOD9042504
Probable space group: P -1
;
_chemical_formula_sum "Si O2"
_cell_formula_units_Z 12
_cell_length_a 9.336290
_cell_length_b 9.476651
_cell_length_c 7.623694
_cell_angle_alpha 56.439269
_cell_angle_beta 111.163716
_cell_angle_gamma 94.055847
_cell_volume 516.910314
_symmetry_space_group_name_H-M "P -1"
_symmetry_group_IT_number 2
_symmetry_cell_setting 'triclinic'
loop_
_space_group_symop_operation_xyz
x,y,z
-x,-y,-z
loop_
_atom_site_type_symbol
_atom_site_label
_atom_site_fract_x
_atom_site_fract_y
_atom_site_fract_z
Si Si1 0.363656 0.157160 0.276593
Si Si2 0.175549 0.455106 0.041176
Si Si3 0.316561 0.005367 0.886638
Si Si4 0.208498 0.860421 0.279684
Si Si5 0.340888 0.753151 0.777851
Si Si6 0.089907 0.314324 0.730373
O O1 0.472525 0.259804 0.132720
O O2 0.500000 0.000000 0.500000
O O3 0.233998 0.048299 0.227085
O O4 0.287370 0.295640 0.291289
O O5 0.264645 0.613230 0.945689
O O6 0.161412 0.368822 0.904832
O O7 0.000000 0.500000 0.000000
O O8 0.219671 0.194303 0.753432
O O9 0.281646 0.931411 0.732257
O O10 0.500000 0.000000 0.000000
O O11 0.275402 0.868762 0.108236
O O12 0.290192 0.746645 0.555878
O O13 0.041206 0.806735 0.226355
O O14 0.000000 0.500000 0.500000
#
# Coordination Sequence:
#
# PCOD9042504 Si02
#       6
#     2   2   2   2   2   2
#     4  10  23  44  72 102 139 189 234 290 352 421
#     4  12  25  45  73 106 141 184 239 294 354 420
#     4  12  25  46  75 105 139 187 241 289 353 425
#     4  11  23  45  71 100 146 181 237 285 358 415
#     4  11  24  45  74 103 143 187 234 291 360 419
#     4  12  26  47  69 103 147 184 233 298 353 421
#
# _framework density 23.214859000000001
#
# number of rings (size 3 to 8) (size 9 to 14) (size 15 to 20)
#    0.000    0.667    5.000    2.000    2.333    3.333 
#    0.000    0.833    0.000    0.000    0.000    0.000 
#    0.000    0.000    0.000    0.000    0.000    0.000 
#
# Total GULP energy -66842.213129 kJ/mol
# GULP energy per Si atom -5570.184427 kJ/mol
# Density = 2.316202 g / cm^3
# Si number density = 23.214859 Si / 1000 Ang^3
#
#
#
# Elastic Constant Matrix: (Units=GPa)
#
#
# Indices 1 2 3 4 5 6 
#
# 1 206.9730 76.6782 46.1039 -32.5799 10.2377 14.5703
# 2 76.6782 135.2437 36.3479 -18.4276 12.7502 2.2869
# 3 46.1039 36.3479 67.1198 -10.7938 -1.3241 -3.9272
# 4 -32.5799 -18.4276 -10.7938 53.0716 -1.7938 -1.0372
# 5 10.2377 12.7502 -1.3241 -1.7938 33.8878 -3.5042
# 6 14.5703 2.2869 -3.9272 -1.0372 -3.5042 57.1533
#
#
#
# Elastic Compliance Matrix: (Units=1/GPa)
#
#
# Indices 1 2 3 4 5 6 
#
# 1 0.007167 -0.002677 -0.003174 0.002741 -0.001341 -0.001971
# 2 -0.002677 0.010348 -0.003661 0.001094 -0.003186 -0.000159
# 3 -0.003174 -0.003661 0.019420 0.000894 0.003403 0.002515
# 4 0.002741 0.001094 0.000894 0.021077 -0.000121 -0.000306
# 5 -0.001341 -0.003186 0.003403 -0.000121 0.031512 0.002633
# 6 -0.001971 -0.000159 0.002515 -0.000306 0.002633 0.018334
#
#
# Mechanical properties :
#
#
# Convention : Reuss Voigt Hill
#
# Bulk Modulus (GPa) = 55.83516 80.84405 68.33960
# Shear Modulus (GPa) = 37.63596 45.50297 41.56946
#
# Velocity S-wave (km/s) = 4.03078 4.43208 4.23619
# Velocity P-wave (km/s) = 6.76510 7.81607 7.30950
#
# Compressibility (1/GPa) = 0.01790986
#
# Stress axis : x y z
#
# Youngs Moduli (GPa) = 139.53164 96.63698 51.49425
#
# Poissons Ratio (x) = 0.25871 0.16345
# Poissons Ratio (y) = 0.37355 0.18853
# Poissons Ratio (z) = 0.44288 0.35380
#
# Static dielectric constant tensor:
#      x y z
#    x 2.011930 -0.081340 0.350430 
#    y -0.081340 1.869760 -0.110750 
#    z 0.350430 -0.110750 2.967750 
# 
# From -- ./inp_files/153108.got.cif
#   From: 2010.05.17/outbox.cif.g08.bks.cpg/sg2_77_cif.got.tgz:153108.got - 2010.06.03 11:33:40.
