data_PCOD9042812
_publ_section_title
;
Structure prediction by ZEFSAII (Michael W. Deem and Ramdas Pophale) SiO2 
 PCOD9042812
Probable space group: P -1
;
_chemical_formula_sum "Si O2"
_cell_formula_units_Z 14
_cell_length_a 12.874123
_cell_length_b 7.557590
_cell_length_c 7.594838
_cell_angle_alpha 111.459972
_cell_angle_beta 58.923067
_cell_angle_gamma 78.724083
_cell_volume 516.010601
_symmetry_space_group_name_H-M "P -1"
_symmetry_group_IT_number 2
_symmetry_cell_setting 'triclinic'
loop_
_space_group_symop_operation_xyz
x,y,z
-x,-y,-z
loop_
_atom_site_type_symbol
_atom_site_label
_atom_site_fract_x
_atom_site_fract_y
_atom_site_fract_z
Si Si1 0.780589 0.401378 0.461893
Si Si2 0.907507 0.685079 0.316895
Si Si3 0.648307 0.295077 0.235272
Si Si4 0.219014 0.384803 0.909506
Si Si5 0.566368 0.665119 0.989112
Si Si6 0.165035 0.878945 0.330874
Si Si7 0.536620 0.896296 0.624730
O O1 0.884717 0.491762 0.350994
O O2 0.756074 0.264926 0.282926
O O3 0.808802 0.259777 0.563436
O O4 0.636205 0.615233 0.719583
O O5 0.850824 0.740780 0.184147
O O6 0.072011 0.599787 0.143450
O O7 0.823418 0.902351 0.577430
O O8 0.500000 0.500000 0.500000
O O9 0.729842 0.264416 0.969251
O O10 0.598733 0.116335 0.207021
O O11 0.311102 0.352964 0.990772
O O12 0.330883 0.333144 0.634926
O O13 0.454559 0.915045 0.205389
O O14 0.500000 0.500000 0.000000
O O15 0.000000 0.000000 0.500000
O O16 0.500000 0.000000 0.500000
#
# Coordination Sequence:
#
# PCOD9042812 Si02
#       7
#     2   2   2   2   2   2   2
#     4  12  29  49  87 120 166 227 276 347 437 497
#     4  11  27  52  81 118 167 224 275 348 422 509
#     4  12  30  53  81 126 171 216 284 357 424 508
#     4  10  24  48  79 115 167 210 278 351 409 502
#     4  11  25  44  78 119 157 212 271 343 419 494
#     4  12  32  53  81 125 170 220 291 347 417 519
#     4  10  23  44  81 113 157 217 267 344 421 489
#
# _framework density 27.131222000000001
#
# number of rings (size 3 to 8) (size 9 to 14) (size 15 to 20)
#    0.000    0.857    0.000    4.286   20.000    5.143 
#    0.000    2.857    0.000    0.000    0.000    0.000 
#    0.000    0.000    0.000    0.000    0.000    0.000 
#
# Total GULP energy -77981.634562 kJ/mol
# GULP energy per Si atom -5570.116754 kJ/mol
# Density = 2.706947 g / cm^3
# Si number density = 27.131222 Si / 1000 Ang^3
#
#
#
# Elastic Constant Matrix: (Units=GPa)
#
#
# Indices 1 2 3 4 5 6 
#
# 1 206.2394 63.6688 69.2822 -10.7760 4.2931 22.3067
# 2 63.6688 143.9934 72.3166 -7.6428 -7.5053 36.3856
# 3 69.2822 72.3166 237.0576 -2.2727 -0.3851 0.0387
# 4 -10.7760 -7.6428 -2.2727 46.1288 -3.6531 -2.0968
# 5 4.2931 -7.5053 -0.3851 -3.6531 46.9210 -13.8016
# 6 22.3067 36.3856 0.0387 -2.0968 -13.8016 38.4598
#
#
#
# Elastic Compliance Matrix: (Units=1/GPa)
#
#
# Indices 1 2 3 4 5 6 
#
# 1 0.006100 -0.001345 -0.001366 0.000888 -0.001528 -0.002764
# 2 -0.001345 0.011878 -0.003222 0.000916 -0.001109 -0.010802
# 3 -0.001366 -0.003222 0.005598 -0.000323 0.000842 0.004119
# 4 0.000888 0.000916 -0.000323 0.022200 0.001946 0.000527
# 5 -0.001528 -0.001109 0.000842 0.001946 0.024634 0.010881
# 6 -0.002764 -0.010802 0.004119 0.000527 0.010881 0.041753
#
#
# Mechanical properties :
#
#
# Convention : Reuss Voigt Hill
#
# Bulk Modulus (GPa) = 85.39473 110.86951 98.13212
# Shear Modulus (GPa) = 39.08331 51.77009 45.42670
#
# Velocity S-wave (km/s) = 3.79955 4.37296 4.09630
# Velocity P-wave (km/s) = 7.12684 8.15168 7.65643
#
# Compressibility (1/GPa) = 0.01171032
#
# Stress axis : x y z
#
# Youngs Moduli (GPa) = 163.93226 84.19004 178.63727
#
# Poissons Ratio (x) = 0.11327 0.24400
# Poissons Ratio (y) = 0.22055 0.57548
# Poissons Ratio (z) = 0.22392 0.27122
#
# Static dielectric constant tensor:
#      x y z
#    x 2.212980 0.007290 0.186860 
#    y 0.007290 2.310270 0.140390 
#    z 0.186860 0.140390 2.156200 
# 
# From -- ./inp_files/241343.got.cif
#   From: 2010.05.17/outbox.cif.g08.bks.cpg/sg2_121_cif.got.tgz:241343.got - 2010.06.03 11:33:40.
