data_PCOD9042117
_publ_section_title
;
Structure prediction by ZEFSAII (Michael W. Deem and Ramdas Pophale) SiO2 
 PCOD9042117
Probable space group: P -1
;
_chemical_formula_sum "Si O2"
_cell_formula_units_Z 16
_cell_length_a 10.539296
_cell_length_b 7.519076
_cell_length_c 18.262948
_cell_angle_alpha 130.388621
_cell_angle_beta 61.492937
_cell_angle_gamma 82.505975
_cell_volume 730.365385
_symmetry_space_group_name_H-M "P -1"
_symmetry_group_IT_number 2
_symmetry_cell_setting 'triclinic'
loop_
_space_group_symop_operation_xyz
x,y,z
-x,-y,-z
loop_
_atom_site_type_symbol
_atom_site_label
_atom_site_fract_x
_atom_site_fract_y
_atom_site_fract_z
Si Si1 0.815580 0.227867 0.060126
Si Si2 0.524868 0.505706 0.579012
Si Si3 0.203480 0.613109 0.057501
Si Si4 0.488783 0.232004 0.119454
Si Si5 0.761131 0.175277 0.750234
Si Si6 0.411467 0.098922 0.252913
Si Si7 0.686047 0.652752 0.332564
Si Si8 0.079806 0.179012 0.686754
O O1 0.686615 0.129893 0.068196
O O2 0.702792 0.565905 0.219381
O O3 0.853758 0.246698 0.969976
O O4 0.000000 0.000000 0.000000
O O5 0.500000 0.500000 0.500000
O O6 0.545511 0.748506 0.660286
O O7 0.346899 0.563664 0.680492
O O8 0.721057 0.167856 0.456025
O O9 0.392165 0.253794 0.907058
O O10 0.257966 0.759950 0.139569
O O11 0.026828 0.683959 0.168840
O O12 0.403217 0.534757 0.176259
O O13 0.370095 0.272507 0.233610
O O14 0.500000 0.000000 0.000000
O O15 0.940741 0.150661 0.674141
O O16 0.748490 0.911629 0.677392
O O17 0.866110 0.617619 0.298754
O O18 0.500000 0.000000 0.500000
#
# Coordination Sequence:
#
# PCOD9042117 Si02
#       8
#     2   2   2   2   2   2   2   2
#     4  12  27  41  71 112 141 183 245 295 355 430
#     4  11  26  46  69  98 139 193 239 288 359 427
#     4  10  23  44  69 107 141 182 232 296 358 416
#     4  12  23  43  71 108 144 188 235 295 365 424
#     4  10  23  45  73 103 144 184 235 296 362 422
#     4  12  23  43  75 102 141 188 233 292 362 428
#     4  10  24  46  66  92 143 182 232 289 352 421
#     4   9  24  45  67  99 139 182 237 294 351 417
#
# _framework density 21.906842999999999
#
# number of rings (size 3 to 8) (size 9 to 14) (size 15 to 20)
#    0.750    0.500    3.750    1.125    8.750    1.000 
#    2.250    0.625    0.000    0.000    0.000    0.000 
#    0.000    0.000    0.000    0.000    0.000    0.000 
#
# Total GULP energy -89239.123112 kJ/mol
# GULP energy per Si atom -5577.445194 kJ/mol
# Density = 2.185698 g / cm^3
# Si number density = 21.906843 Si / 1000 Ang^3
#
#
#
# Elastic Constant Matrix: (Units=GPa)
#
#
# Indices 1 2 3 4 5 6 
#
# 1 192.1680 24.1966 53.2399 -0.3328 20.6641 -9.5267
# 2 24.1966 146.4178 -23.2280 -19.5211 -3.1674 71.9610
# 3 53.2399 -23.2280 57.5922 8.1189 11.4730 -17.3942
# 4 -0.3328 -19.5211 8.1189 24.8004 8.1236 -3.6778
# 5 20.6641 -3.1674 11.4730 8.1236 41.3201 -9.4473
# 6 -9.5267 71.9610 -17.3942 -3.6778 -9.4473 113.5968
#
#
#
# Elastic Compliance Matrix: (Units=1/GPa)
#
#
# Indices 1 2 3 4 5 6 
#
# 1 0.008154 -0.003191 -0.008191 0.001119 -0.001965 0.001324
# 2 -0.003191 0.012929 0.005172 0.008024 -0.002161 -0.007586
# 3 -0.008191 0.005172 0.028135 -0.004449 -0.002445 -0.000003
# 4 0.001119 0.008024 -0.004449 0.050589 -0.009763 -0.004844
# 5 -0.001965 -0.002161 -0.002445 -0.009763 0.028272 0.002865
# 6 0.001324 -0.007586 -0.000003 -0.004844 0.002865 0.013800
#
#
# Mechanical properties :
#
#
# Convention : Reuss Voigt Hill
#
# Bulk Modulus (GPa) = 27.17472 56.06611 41.62041
# Shear Modulus (GPa) = 30.01869 58.74142 44.38006
#
# Velocity S-wave (km/s) = 3.70576 5.18386 4.50583
# Velocity P-wave (km/s) = 5.54453 7.84082 6.79044
#
# Compressibility (1/GPa) = 0.03679891
#
# Stress axis : x y z
#
# Youngs Moduli (GPa) = 122.64360 77.34705 35.54309
#
# Poissons Ratio (x) = 0.24679 0.29113
# Poissons Ratio (y) = 0.39131 -0.18384
# Poissons Ratio (z) = 1.00456 -0.40007
#
# Static dielectric constant tensor:
#      x y z
#    x 1.794880 0.031630 -0.019200 
#    y 0.031630 1.805890 0.018180 
#    z -0.019200 0.018180 1.804390 
# 
# From -- ./inp_files/588201.got.cif
#   From: 2010.05.17/outbox.cif.g08.bks.cpg/sg2_295_cif.got.tgz:588201.got - 2010.06.03 11:33:40.
