data_PCOD9042764
_publ_section_title
;
Structure prediction by ZEFSAII (Michael W. Deem and Ramdas Pophale) SiO2 
 PCOD9042764
Probable space group: P -1
;
_chemical_formula_sum "Si O2"
_cell_formula_units_Z 14
_cell_length_a 6.160448
_cell_length_b 18.410272
_cell_length_c 7.500209
_cell_angle_alpha 134.163610
_cell_angle_beta 109.417087
_cell_angle_gamma 92.513557
_cell_volume 525.637110
_symmetry_space_group_name_H-M "P -1"
_symmetry_group_IT_number 2
_symmetry_cell_setting 'triclinic'
loop_
_space_group_symop_operation_xyz
x,y,z
-x,-y,-z
loop_
_atom_site_type_symbol
_atom_site_label
_atom_site_fract_x
_atom_site_fract_y
_atom_site_fract_z
Si Si1 0.134904 0.698516 0.943128
Si Si2 0.867330 0.993692 0.174972
Si Si3 0.527617 0.407739 0.110510
Si Si4 0.301465 0.561243 0.197766
Si Si5 0.393013 0.088741 0.666696
Si Si6 0.995385 0.235504 0.607765
Si Si7 0.210406 0.245139 0.316921
O O1 0.371629 0.799821 0.104433
O O2 0.124296 0.717606 0.186940
O O3 0.226233 0.600917 0.754085
O O4 0.904288 0.717336 0.821537
O O5 0.712664 0.932241 0.200243
O O6 0.848585 0.884175 0.876196
O O7 0.156233 0.058218 0.421631
O O8 0.815704 0.103541 0.312515
O O9 0.400570 0.494564 0.253913
O O10 0.618854 0.440296 0.988341
O O11 0.289066 0.288427 0.847887
O O12 0.487693 0.689156 0.507031
O O13 0.000000 0.500000 0.000000
O O14 0.500000 0.000000 0.500000
O O15 0.066938 0.278411 0.497553
#
# Coordination Sequence:
#
# PCOD9042764 Si02
#       7
#     2   2   2   2   2   2   2
#     4  12  23  44  73 109 148 192 237 296 369 429
#     4  11  21  41  67 105 153 192 240 291 354 436
#     4  10  23  44  76 101 138 199 234 294 378 424
#     4  10  23  51  73 101 146 188 244 309 360 422
#     4  11  20  39  68 101 153 199 228 290 363 429
#     4  11  23  44  70 104 156 193 232 298 361 428
#     4  11  26  44  73 116 141 189 255 294 355 446
#
# _framework density 26.634342
#
# number of rings (size 3 to 8) (size 9 to 14) (size 15 to 20)
#    0.000    1.143    4.286    2.143    0.000    0.571 
#   12.857    4.286    0.000    2.571    0.000    0.000 
#    0.000    0.000    0.000    0.000    0.000    0.000 
#
# Total GULP energy -77962.251035 kJ/mol
# GULP energy per Si atom -5568.732217 kJ/mol
# Density = 2.657372 g / cm^3
# Si number density = 26.634342 Si / 1000 Ang^3
#
#
#
# Elastic Constant Matrix: (Units=GPa)
#
#
# Indices 1 2 3 4 5 6 
#
# 1 390.6706 29.6168 -211.0540 100.8021 -187.6562 430.8006
# 2 29.6168 86.2563 52.7169 4.0299 16.9682 -17.1335
# 3 -211.0540 52.7169 340.3029 -63.1414 225.0837 -376.4247
# 4 100.8021 4.0299 -63.1414 81.1122 -50.3188 146.5996
# 5 -187.6562 16.9682 225.0837 -50.3188 197.0571 -298.8466
# 6 430.8006 -17.1335 -376.4247 146.5996 -298.8466 671.7232
#
#
#
# Elastic Compliance Matrix: (Units=1/GPa)
#
#
# Indices 1 2 3 4 5 6 
#
# 1 0.010715 -0.004332 -0.001712 -0.000632 0.001648 -0.007071
# 2 -0.004332 0.016305 -0.005749 -0.000736 0.003232 0.001571
# 3 -0.001712 -0.005749 0.016131 -0.001060 -0.013306 0.004302
# 4 -0.000632 -0.000736 -0.001060 0.022206 -0.004063 -0.006862
# 5 0.001648 0.003232 -0.013306 -0.004063 0.027930 0.004882
# 6 -0.007071 0.001571 0.004302 -0.006862 0.004882 0.012144
#
#
# Mechanical properties :
#
#
# Convention : Reuss Voigt Hill
#
# Bulk Modulus (GPa) = 51.11225 62.19881 56.65553
# Shear Modulus (GPa) = 36.89040 253.04184 144.96612
#
# Velocity S-wave (km/s) = 3.72569 9.75767 7.38556
# Velocity P-wave (km/s) = 6.14326 12.26185 9.69775
#
# Compressibility (1/GPa) = 0.01956478
#
# Stress axis : x y z
#
# Youngs Moduli (GPa) = 93.33138 61.33122 61.99432
#
# Poissons Ratio (x) = 0.26567 0.10613
# Poissons Ratio (y) = 0.40428 0.35640
# Poissons Ratio (z) = 0.15978 0.35259
#
# Static dielectric constant tensor:
#      x y z
#    x 2.142040 -0.123220 -0.125110 
#    y -0.123220 2.065510 0.048240 
#    z -0.125110 0.048240 2.150260 
# 
# From -- ./inp_files/141760.got.cif
#   From: 2010.05.17/outbox.cif.g08.bks.cpg/sg2_71_cif.got.tgz:141760.got - 2010.06.03 11:33:40.
