data_PCOD9042752
_publ_section_title
;
Structure prediction by ZEFSAII (Michael W. Deem and Ramdas Pophale) SiO2 
 PCOD9042752
Probable space group: P -1
;
_chemical_formula_sum "Si O2"
_cell_formula_units_Z 16
_cell_length_a 7.343790
_cell_length_b 17.852121
_cell_length_c 11.861702
_cell_angle_alpha 30.975350
_cell_angle_beta 83.134650
_cell_angle_gamma 63.021427
_cell_volume 577.232779
_symmetry_space_group_name_H-M "P -1"
_symmetry_group_IT_number 2
_symmetry_cell_setting 'triclinic'
loop_
_space_group_symop_operation_xyz
x,y,z
-x,-y,-z
loop_
_atom_site_type_symbol
_atom_site_label
_atom_site_fract_x
_atom_site_fract_y
_atom_site_fract_z
Si Si1 0.945276 0.852734 0.188601
Si Si2 0.679254 0.542019 0.449677
Si Si3 0.783373 0.514200 0.953808
Si Si4 0.408574 0.913287 0.831926
Si Si5 0.142357 0.780158 0.498613
Si Si6 0.695979 0.167098 0.273330
Si Si7 0.657504 0.024352 0.778760
Si Si8 0.849393 0.368868 0.888631
O O1 0.062244 0.664403 0.344743
O O2 0.091471 0.725860 0.456100
O O3 0.000000 0.000000 0.000000
O O4 0.688383 0.994203 0.951294
O O5 0.500000 0.500000 0.500000
O O6 0.718962 0.537656 0.584976
O O7 0.590014 0.720888 0.146851
O O8 0.819103 0.342611 0.239727
O O9 0.422767 0.064710 0.692053
O O10 0.000000 0.500000 0.000000
O O11 0.861098 0.445078 0.907588
O O12 0.414439 0.899021 0.715592
O O13 0.132993 0.994761 0.764883
O O14 0.334237 0.806609 0.449255
O O15 0.490966 0.286679 0.233990
O O16 0.678940 0.322569 0.997293
O O17 0.000000 0.000000 0.500000
O O18 0.886196 0.836185 0.921257
#
# Coordination Sequence:
#
# PCOD9042752 Si02
#       8
#     2   2   2   2   2   2   2   2
#     4   9  20  40  68 106 156 204 251 321 395 462
#     4  11  21  42  73 112 151 199 258 317 399 470
#     4  12  29  52  79 118 153 207 270 327 393 483
#     4  12  24  45  79 111 151 210 261 324 396 476
#     4  11  24  49  75 110 162 199 262 326 393 472
#     4  12  26  51  81 109 158 210 262 329 404 471
#     4  10  23  44  75 112 156 209 260 321 402 466
#     4  11  24  46  74 110 156 205 255 323 396 461
#
# _framework density 27.718456
#
# number of rings (size 3 to 8) (size 9 to 14) (size 15 to 20)
#    0.000    1.000    2.500    4.125    0.000    4.500 
#    2.250    3.750    0.000    0.000    0.000    0.000 
#    0.000    0.000    0.000    0.000    0.000    0.000 
#
# Total GULP energy -89252.936193 kJ/mol
# GULP energy per Si atom -5578.308512 kJ/mol
# Density = 2.765537 g / cm^3
# Si number density = 27.718456 Si / 1000 Ang^3
#
#
#
# Elastic Constant Matrix: (Units=GPa)
#
#
# Indices 1 2 3 4 5 6 
#
# 1 122.2639 48.1395 39.3571 9.7951 -0.0447 31.2216
# 2 48.1395 201.7748 66.9664 48.6496 20.4741 30.5899
# 3 39.3571 66.9664 143.3374 24.6469 6.8893 2.4745
# 4 9.7951 48.6496 24.6469 58.2141 7.3985 19.3610
# 5 -0.0447 20.4741 6.8893 7.3985 33.7616 0.2717
# 6 31.2216 30.5899 2.4745 19.3610 0.2717 52.4057
#
#
#
# Elastic Compliance Matrix: (Units=1/GPa)
#
#
# Indices 1 2 3 4 5 6 
#
# 1 0.011117 -0.001460 -0.002747 0.002588 0.000946 -0.006602
# 2 -0.001460 0.007694 -0.002290 -0.004145 -0.003276 -0.001965
# 3 -0.002747 -0.002290 0.009201 -0.002706 0.000072 0.003538
# 4 0.002588 -0.004145 -0.002706 0.024274 -0.002186 -0.007951
# 5 0.000946 -0.003276 0.000072 -0.002186 0.032056 0.001987
# 6 -0.006602 -0.001965 0.003538 -0.007951 0.001987 0.026923
#
#
# Mechanical properties :
#
#
# Convention : Reuss Voigt Hill
#
# Bulk Modulus (GPa) = 66.57998 86.25580 76.41789
# Shear Modulus (GPa) = 38.68041 49.73715 44.20878
#
# Velocity S-wave (km/s) = 3.73966 4.24060 3.99798
# Velocity P-wave (km/s) = 6.53597 7.42718 6.99578
#
# Compressibility (1/GPa) = 0.01501953
#
# Stress axis : x y z
#
# Youngs Moduli (GPa) = 89.95180 129.97319 108.68078
#
# Poissons Ratio (x) = 0.18972 0.29855
# Poissons Ratio (y) = 0.13130 0.24884
# Poissons Ratio (z) = 0.24710 0.29759
#
# Static dielectric constant tensor:
#      x y z
#    x 2.172740 -0.073490 -0.033940 
#    y -0.073490 2.428930 0.062790 
#    z -0.033940 0.062790 2.335710 
# 
# From -- ./inp_files/434594.got.cif
#   From: 2010.05.17/outbox.cif.g08.bks.cpg/sg2_218_cif.got.tgz:434594.got - 2010.06.03 11:33:40.
