data_PCOD9042372
_publ_section_title
;
Structure prediction by ZEFSAII (Michael W. Deem and Ramdas Pophale) SiO2 
 PCOD9042372
Probable space group: P -1
;
_chemical_formula_sum "Si O2"
_cell_formula_units_Z 8
_cell_length_a 18.325048
_cell_length_b 11.159283
_cell_length_c 8.855391
_cell_angle_alpha 40.950916
_cell_angle_beta 30.997582
_cell_angle_gamma 20.583039
_cell_volume 316.534927
_symmetry_space_group_name_H-M "P -1"
_symmetry_group_IT_number 2
_symmetry_cell_setting 'triclinic'
loop_
_space_group_symop_operation_xyz
x,y,z
-x,-y,-z
loop_
_atom_site_type_symbol
_atom_site_label
_atom_site_fract_x
_atom_site_fract_y
_atom_site_fract_z
Si Si1 0.408449 0.877575 0.183288
Si Si2 0.987473 0.802145 0.164183
Si Si3 0.715526 0.724020 0.248038
Si Si4 0.490461 0.432391 0.250653
O O1 0.422650 0.668361 0.265363
O O2 0.159838 0.140206 0.491559
O O3 0.693914 0.594765 0.032277
O O4 0.381520 0.059733 0.931483
O O5 0.779950 0.024751 0.179768
O O6 0.000000 0.000000 0.000000
O O7 0.723581 0.496982 0.430961
O O8 0.500000 0.000000 0.500000
O O9 0.000000 0.500000 0.000000
O O10 0.500000 0.500000 0.000000
#
# Coordination Sequence:
#
# PCOD9042372 Si02
#       4
#     2   2   2   2
#     4  11  24  47  70  98 141 174 228 284 334 405
#     4  10  23  44  71 101 134 179 226 279 340 403
#     4  12  27  44  68 105 138 177 229 284 335 401
#     4  11  24  45  73 101 136 185 224 279 345 401
#
# _framework density 25.273672999999999
#
# number of rings (size 3 to 8) (size 9 to 14) (size 15 to 20)
#    0.000    1.000    2.500    4.500    3.500    9.000 
#    0.000    0.000    0.000    0.000    0.000    0.000 
#    0.000    0.000    0.000    0.000    0.000    0.000 
#
# Total GULP energy -44907.320050 kJ/mol
# GULP energy per Si atom -5613.415006 kJ/mol
# Density = 2.521615 g / cm^3
# Si number density = 25.273673 Si / 1000 Ang^3
#
#
#
# Elastic Constant Matrix: (Units=GPa)
#
#
# Indices 1 2 3 4 5 6 
#
# 1 156.9873 55.7604 79.3512 -1.0595 -11.5351 3.2394
# 2 55.7604 84.1149 55.8510 -9.3525 -4.7114 -11.3179
# 3 79.3512 55.8510 210.3949 -8.6701 -8.6977 4.8440
# 4 -1.0595 -9.3525 -8.6701 61.2214 -2.7606 3.3906
# 5 -11.5351 -4.7114 -8.6977 -2.7606 56.5254 -4.4288
# 6 3.2394 -11.3179 4.8440 3.3906 -4.4288 47.8878
#
#
#
# Elastic Compliance Matrix: (Units=1/GPa)
#
#
# Indices 1 2 3 4 5 6 
#
# 1 0.009324 -0.004975 -0.002153 -0.000778 0.001006 -0.001441
# 2 -0.004975 0.018018 -0.002913 0.002011 0.000512 0.004795
# 3 -0.002153 -0.002913 0.006396 0.000501 0.000232 -0.001204
# 4 -0.000778 0.002011 0.000501 0.016772 0.000856 -0.000631
# 5 0.001006 0.000512 0.000232 0.000856 0.018146 0.001647
# 6 -0.001441 0.004795 -0.001204 -0.000631 0.001647 0.022432
#
#
# Mechanical properties :
#
#
# Convention : Reuss Voigt Hill
#
# Bulk Modulus (GPa) = 73.22991 92.60249 82.91620
# Shear Modulus (GPa) = 43.20679 50.49587 46.85133
#
# Velocity S-wave (km/s) = 4.13916 4.47471 4.31020
# Velocity P-wave (km/s) = 7.20286 7.96347 7.59270
#
# Compressibility (1/GPa) = 0.01365562
#
# Stress axis : x y z
#
# Youngs Moduli (GPa) = 107.25236 55.49917 156.34162
#
# Poissons Ratio (x) = 0.27612 0.33662
# Poissons Ratio (y) = 0.53361 0.45542
# Poissons Ratio (z) = 0.23093 0.16167
#
# Static dielectric constant tensor:
#      x y z
#    x 1.998500 0.051830 -0.008230 
#    y 0.051830 2.086630 0.008830 
#    z -0.008230 0.008830 1.918860 
# 
# From -- ./inp_files/15086.got.cif
#   From: 2010.05.17/outbox.cif.g08.bks.cpg/sg2_8_cif.got.tgz:15086.got - 2010.06.03 11:33:40.
