data_PCOD9042427
_publ_section_title
;
Structure prediction by ZEFSAII (Michael W. Deem and Ramdas Pophale) SiO2 
 PCOD9042427
Probable space group: P -1
;
_chemical_formula_sum "Si O2"
_cell_formula_units_Z 16
_cell_length_a 11.644651
_cell_length_b 5.943520
_cell_length_c 11.595379
_cell_angle_alpha 62.528754
_cell_angle_beta 104.824573
_cell_angle_gamma 109.788626
_cell_volume 665.188585
_symmetry_space_group_name_H-M "P -1"
_symmetry_group_IT_number 2
_symmetry_cell_setting 'triclinic'
loop_
_space_group_symop_operation_xyz
x,y,z
-x,-y,-z
loop_
_atom_site_type_symbol
_atom_site_label
_atom_site_fract_x
_atom_site_fract_y
_atom_site_fract_z
Si Si1 0.442327 0.746647 0.960941
Si Si2 0.429105 0.303358 0.378694
Si Si3 0.128682 0.916068 0.662793
Si Si4 0.377391 0.886114 0.657720
Si Si5 0.219309 0.959170 0.237802
Si Si6 0.094021 0.423021 0.454652
Si Si7 0.290655 0.647501 0.160910
Si Si8 0.033720 0.281759 0.137922
O O1 0.418166 0.868301 0.804128
O O2 0.500000 0.500000 0.000000
O O3 0.326082 0.620222 0.044088
O O4 0.500000 0.000000 0.000000
O O5 0.559229 0.297501 0.359217
O O6 0.391274 0.572300 0.288304
O O7 0.414017 0.162465 0.531897
O O8 0.325060 0.127512 0.307734
O O9 0.230563 0.805666 0.651924
O O10 0.996458 0.767804 0.612685
O O11 0.094685 0.855463 0.800694
O O12 0.163535 0.226219 0.576898
O O13 0.176704 0.684645 0.359739
O O14 0.277978 0.925326 0.137449
O O15 0.096754 0.057799 0.162546
O O16 0.000000 0.500000 0.500000
O O17 0.156261 0.455261 0.192648
O O18 0.000000 0.500000 0.000000
#
# Coordination Sequence:
#
# PCOD9042427 Si02
#       8
#     2   2   2   2   2   2   2   2
#     4  12  27  52  75 106 152 201 249 303 378 454
#     4  10  23  44  71 106 143 181 245 311 373 439
#     4  11  23  41  65 101 141 181 232 295 361 435
#     4  11  23  46  70 105 145 185 244 307 368 450
#     4  11  22  42  71 103 138 195 240 301 381 440
#     4  11  21  40  65  98 139 180 231 290 367 433
#     4  11  23  45  74 100 142 195 240 303 371 444
#     4  11  24  42  65  99 142 185 240 301 357 444
#
# _framework density 24.053331
#
# number of rings (size 3 to 8) (size 9 to 14) (size 15 to 20)
#    0.000    1.000    3.750    3.000    5.250    0.500 
#    6.750    3.750    0.000    0.000    0.000    0.000 
#    0.000    0.000    0.000    0.000    0.000    0.000 
#
# Total GULP energy -89252.244768 kJ/mol
# GULP energy per Si atom -5578.265298 kJ/mol
# Density = 2.399858 g / cm^3
# Si number density = 24.053331 Si / 1000 Ang^3
#
#
#
# Elastic Constant Matrix: (Units=GPa)
#
#
# Indices 1 2 3 4 5 6 
#
# 1 159.8235 27.4932 65.9064 -12.1845 -20.4630 -21.9701
# 2 27.4932 67.3421 24.7777 -12.0831 -9.2790 -8.5675
# 3 65.9064 24.7777 146.6382 -8.9775 -7.2547 -28.2702
# 4 -12.1845 -12.0831 -8.9775 34.0157 -11.1042 -1.8406
# 5 -20.4630 -9.2790 -7.2547 -11.1042 34.6633 5.7802
# 6 -21.9701 -8.5675 -28.2702 -1.8406 5.7802 26.9839
#
#
#
# Elastic Compliance Matrix: (Units=1/GPa)
#
#
# Indices 1 2 3 4 5 6 
#
# 1 0.008969 -0.000760 -0.002746 0.004122 0.005281 0.003334
# 2 -0.000760 0.018364 -0.001383 0.008096 0.006276 0.002971
# 3 -0.002746 -0.001383 0.009849 0.001279 -0.000840 0.007911
# 4 0.004122 0.008096 0.001279 0.039842 0.016558 0.006437
# 5 0.005281 0.006276 -0.000840 0.016558 0.039080 -0.001829
# 6 0.003334 0.002971 0.007911 0.006437 -0.001829 0.049836
#
#
# Mechanical properties :
#
#
# Convention : Reuss Voigt Hill
#
# Bulk Modulus (GPa) = 36.48974 67.79537 52.14256
# Shear Modulus (GPa) = 27.04873 36.17434 31.61154
#
# Velocity S-wave (km/s) = 3.35704 3.88225 3.62916
# Velocity P-wave (km/s) = 5.49814 6.95287 6.26786
#
# Compressibility (1/GPa) = 0.02740496
#
# Stress axis : x y z
#
# Youngs Moduli (GPa) = 111.49766 54.45505 101.52988
#
# Poissons Ratio (x) = 0.04137 0.27883
# Poissons Ratio (y) = 0.08470 0.14037
# Poissons Ratio (z) = 0.30620 0.07529
#
# Static dielectric constant tensor:
#      x y z
#    x 1.885810 0.005220 -0.061370 
#    y 0.005220 2.041460 0.047560 
#    z -0.061370 0.047560 2.021060 
# 
# From -- ./inp_files/409893.got.cif
#   From: 2010.05.17/outbox.cif.g08.bks.cpg/sg2_205_cif.got.tgz:409893.got - 2010.06.03 11:33:40.
