data_PCOD9042631
_publ_section_title
;
Structure prediction by ZEFSAII (Michael W. Deem and Ramdas Pophale) SiO2 
 PCOD9042631
Probable space group: P -1
;
_chemical_formula_sum "Si O2"
_cell_formula_units_Z 14
_cell_length_a 13.600229
_cell_length_b 9.216339
_cell_length_c 5.107809
_cell_angle_alpha 54.563533
_cell_angle_beta 74.267467
_cell_angle_gamma 72.603352
_cell_volume 493.822756
_symmetry_space_group_name_H-M "P -1"
_symmetry_group_IT_number 2
_symmetry_cell_setting 'triclinic'
loop_
_space_group_symop_operation_xyz
x,y,z
-x,-y,-z
loop_
_atom_site_type_symbol
_atom_site_label
_atom_site_fract_x
_atom_site_fract_y
_atom_site_fract_z
Si Si1 0.477661 0.705097 0.406918
Si Si2 0.254529 0.240672 0.251703
Si Si3 0.598539 0.974271 0.259837
Si Si4 0.686704 0.413446 0.028534
Si Si5 0.887215 0.906491 0.838586
Si Si6 0.818387 0.315004 0.536569
Si Si7 0.963422 0.719896 0.480357
O O1 0.500000 0.500000 0.500000
O O2 0.411196 0.679636 0.742507
O O3 0.782083 0.827988 0.925711
O O4 0.410870 0.854879 0.106541
O O5 0.144331 0.350546 0.327100
O O6 0.423865 0.201175 0.702437
O O7 0.333427 0.377713 0.081646
O O8 0.500000 0.000000 0.500000
O O9 0.699295 0.926328 0.421106
O O10 0.773252 0.327745 0.265818
O O11 0.732209 0.396057 0.723960
O O12 0.939994 0.884757 0.536497
O O13 0.145194 0.897692 0.221139
O O14 0.960272 0.785824 0.118150
O O15 0.925197 0.392859 0.408136
#
# Coordination Sequence:
#
# PCOD9042631 Si02
#       7
#     2   2   2   2   2   2   2
#     4  11  29  53  83 117 160 205 265 329 406 481
#     4  10  28  46  76 113 159 207 264 317 405 463
#     4  11  27  52  84 117 154 208 262 331 406 478
#     4  12  30  46  77 117 160 203 262 334 393 472
#     4  10  23  44  73 105 152 211 261 324 382 466
#     4  12  26  46  74 115 157 208 269 322 394 459
#     4  10  23  44  78 104 160 208 268 320 385 469
#
# _framework density 28.350252999999999
#
# number of rings (size 3 to 8) (size 9 to 14) (size 15 to 20)
#    0.857    0.286    0.000    3.429   10.000    3.429 
#    0.000    0.000    0.000    0.000    0.000    0.000 
#    0.000    0.000    0.000    0.000    0.000    0.000 
#
# Total GULP energy -78463.737233 kJ/mol
# GULP energy per Si atom -5604.552660 kJ/mol
# Density = 2.828573 g / cm^3
# Si number density = 28.350253 Si / 1000 Ang^3
#
#
#
# Elastic Constant Matrix: (Units=GPa)
#
#
# Indices 1 2 3 4 5 6 
#
# 1 149.6268 25.9596 45.3373 -7.5366 10.4557 -3.3279
# 2 25.9596 135.1574 28.1068 4.8809 -13.4837 25.6396
# 3 45.3373 28.1068 95.0670 -1.4637 -5.0221 1.0467
# 4 -7.5366 4.8809 -1.4637 43.2995 -0.5106 -0.2481
# 5 10.4557 -13.4837 -5.0221 -0.5106 58.2039 0.0021
# 6 -3.3279 25.6396 1.0467 -0.2481 0.0021 45.2246
#
#
#
# Elastic Compliance Matrix: (Units=1/GPa)
#
#
# Indices 1 2 3 4 5 6 
#
# 1 0.008281 -0.001376 -0.003648 0.001457 -0.002108 0.001482
# 2 -0.001376 0.009361 -0.001955 -0.001365 0.002235 -0.005371
# 3 -0.003648 -0.001955 0.012901 0.000040 0.001316 0.000542
# 4 0.001457 -0.001365 0.000040 0.023505 -0.000368 0.001009
# 5 -0.002108 0.002235 0.001316 -0.000368 0.018188 -0.001456
# 6 0.001482 -0.005371 0.000542 0.001009 -0.001456 0.025259
#
#
# Mechanical properties :
#
#
# Convention : Reuss Voigt Hill
#
# Bulk Modulus (GPa) = 60.29614 64.29542 62.29578
# Shear Modulus (GPa) = 42.74234 48.04210 45.39222
#
# Velocity S-wave (km/s) = 3.88706 4.12101 4.00574
# Velocity P-wave (km/s) = 6.43895 6.73586 6.58908
#
# Compressibility (1/GPa) = 0.01658481
#
# Stress axis : x y z
#
# Youngs Moduli (GPa) = 120.75925 106.82888 77.51559
#
# Poissons Ratio (x) = 0.14700 0.28275
# Poissons Ratio (y) = 0.16617 0.15155
# Poissons Ratio (z) = 0.44048 0.20886
#
# Static dielectric constant tensor:
#      x y z
#    x 2.277470 -0.016680 -0.082500 
#    y -0.016680 2.222270 0.005270 
#    z -0.082500 0.005270 2.228070 
# 
# From -- ./inp_files/97446.got.cif
#   From: 2010.05.17/outbox.cif.g08.bks.cpg/sg2_49_cif.got.tgz:97446.got - 2010.06.03 11:33:40.
