data_PCOD9042182
_publ_section_title
;
Structure prediction by ZEFSAII (Michael W. Deem and Ramdas Pophale) SiO2 
 PCOD9042182
Probable space group: P -1
;
_chemical_formula_sum "Si O2"
_cell_formula_units_Z 10
_cell_length_a 11.754556
_cell_length_b 7.338356
_cell_length_c 5.343724
_cell_angle_alpha 110.106814
_cell_angle_beta 109.420291
_cell_angle_gamma 70.848091
_cell_volume 396.153916
_symmetry_space_group_name_H-M "P -1"
_symmetry_group_IT_number 2
_symmetry_cell_setting 'triclinic'
loop_
_space_group_symop_operation_xyz
x,y,z
-x,-y,-z
loop_
_atom_site_type_symbol
_atom_site_label
_atom_site_fract_x
_atom_site_fract_y
_atom_site_fract_z
Si Si1 0.946903 0.768375 0.820839
Si Si2 0.634959 0.406050 0.281139
Si Si3 0.900749 0.327332 0.612002
Si Si4 0.313016 0.927705 0.204253
Si Si5 0.534424 0.797748 0.656478
O O1 0.902688 0.561055 0.702933
O O2 0.027792 0.766750 0.629932
O O3 0.826193 0.948996 0.808668
O O4 0.026846 0.760986 0.127929
O O5 0.757944 0.316679 0.495092
O O6 0.604363 0.641850 0.420998
O O7 0.510595 0.339075 0.236558
O O8 0.673450 0.294842 0.995278
O O9 0.404969 0.918754 0.500317
O O10 0.377617 0.062009 0.127976
#
# Coordination Sequence:
#
# PCOD9042182 Si02
#       5
#     2   2   2   2   2
#     4  10  23  44  69  99 136 179 224 283 342 399
#     4  11  23  42  68  96 133 176 227 280 336 409
#     4  10  23  44  69  99 136 179 224 283 342 399
#     4  11  23  42  68  96 133 176 227 280 336 409
#     4  10  24  44  62 100 132 176 224 282 340 398
#
# _framework density 25.242713999999999
#
# number of rings (size 3 to 8) (size 9 to 14) (size 15 to 20)
#    0.000    1.600    2.000    1.200    5.600    1.600 
#    0.000    0.000    0.000    0.000    0.000    0.000 
#    0.000    0.000    0.000    0.000    0.000    0.000 
#
# Total GULP energy -55971.161369 kJ/mol
# GULP energy per Si atom -5597.116137 kJ/mol
# Density = 2.518526 g / cm^3
# Si number density = 25.242714 Si / 1000 Ang^3
#
#
#
# Elastic Constant Matrix: (Units=GPa)
#
#
# Indices 1 2 3 4 5 6 
#
# 1 130.6001 49.9226 50.2494 -1.2950 7.8890 -16.6891
# 2 49.9226 144.8155 54.3529 16.9944 -6.0386 -42.5020
# 3 50.2494 54.3529 130.4611 -5.2450 -11.9912 -25.4808
# 4 -1.2950 16.9944 -5.2450 39.3885 -0.5979 17.4352
# 5 7.8890 -6.0386 -11.9912 -0.5979 37.1504 1.0822
# 6 -16.6891 -42.5020 -25.4808 17.4352 1.0822 39.2597
#
#
#
# Elastic Compliance Matrix: (Units=1/GPa)
#
#
# Indices 1 2 3 4 5 6 
#
# 1 0.010133 -0.003483 -0.003179 0.002476 -0.003631 -0.002526
# 2 -0.003483 0.019526 -0.002055 -0.020993 0.002109 0.027589
# 3 -0.003179 -0.002055 0.010675 0.001023 0.003722 0.002795
# 4 0.002476 -0.020993 0.001023 0.054672 -0.001410 -0.045251
# 5 -0.003631 0.002109 0.003722 -0.001410 0.029123 0.002978
# 6 -0.002526 0.027589 0.002795 -0.045251 0.002978 0.076093
#
#
# Mechanical properties :
#
#
# Convention : Reuss Voigt Hill
#
# Bulk Modulus (GPa) = 43.67047 79.43627 61.55337
# Shear Modulus (GPa) = 22.19365 39.91650 31.05508
#
# Velocity S-wave (km/s) = 2.96836 3.98088 3.51131
# Velocity P-wave (km/s) = 5.39315 7.25722 6.39348
#
# Compressibility (1/GPa) = 0.02289877
#
# Stress axis : x y z
#
# Youngs Moduli (GPa) = 98.69048 51.21382 93.67696
#
# Poissons Ratio (x) = 0.17839 0.29782
# Poissons Ratio (y) = 0.34376 0.19251
# Poissons Ratio (z) = 0.31376 0.10524
#
# Static dielectric constant tensor:
#      x y z
#    x 2.052220 0.106520 -0.071150 
#    y 0.106520 2.027570 0.002250 
#    z -0.071150 0.002250 1.980060 
# 
# From -- ./inp_files/18048.got.cif
#   From: 2010.05.17/outbox.cif.g08.bks.cpg/sg2_10_cif.got.tgz:18048.got - 2010.06.03 11:33:40.
