data_PCOD9042360
_publ_section_title
;
Structure prediction by ZEFSAII (Michael W. Deem and Ramdas Pophale) SiO2 
 PCOD9042360
Probable space group: P -1
;
_chemical_formula_sum "Si O2"
_cell_formula_units_Z 12
_cell_length_a 11.663790
_cell_length_b 11.788283
_cell_length_c 6.986033
_cell_angle_alpha 138.995660
_cell_angle_beta 124.313322
_cell_angle_gamma 46.678162
_cell_volume 456.372860
_symmetry_space_group_name_H-M "P -1"
_symmetry_group_IT_number 2
_symmetry_cell_setting 'triclinic'
loop_
_space_group_symop_operation_xyz
x,y,z
-x,-y,-z
loop_
_atom_site_type_symbol
_atom_site_label
_atom_site_fract_x
_atom_site_fract_y
_atom_site_fract_z
Si Si1 0.096790 0.402489 0.270463
Si Si2 0.452805 0.664366 0.943935
Si Si3 0.087553 0.716336 0.361410
Si Si4 0.395375 0.751839 0.589651
Si Si5 0.658846 0.803875 0.469285
Si Si6 0.784331 0.004259 0.597946
O O1 0.123419 0.550510 0.345154
O O2 0.263615 0.231941 0.295198
O O3 0.000000 0.500000 0.500000
O O4 0.002314 0.322213 0.948642
O O5 0.452355 0.765660 0.870296
O O6 0.477743 0.450963 0.646013
O O7 0.607636 0.639738 0.168513
O O8 0.295423 0.810669 0.097393
O O9 0.243204 0.720935 0.447659
O O10 0.962165 0.927757 0.601967
O O11 0.333980 0.927641 0.606860
O O12 0.500000 0.000000 0.500000
O O13 0.782292 0.819030 0.460588
#
# Coordination Sequence:
#
# PCOD9042360 Si02
#       6
#     2   2   2   2   2   2
#     4  11  23  45  70  99 143 179 233 285 343 413
#     4  10  25  46  66  99 141 191 226 275 355 408
#     4  11  26  42  73 105 132 186 234 282 352 401
#     4  11  25  44  69 100 145 181 227 284 346 427
#     4  10  23  44  71 100 134 182 231 284 338 406
#     4  11  24  44  68 104 136 180 230 290 341 403
#
# _framework density 26.294288000000002
#
# number of rings (size 3 to 8) (size 9 to 14) (size 15 to 20)
#    0.000    1.333    1.667    2.000    7.000    9.333 
#    0.000    0.000    0.000    0.000    0.000    0.000 
#    0.000    0.000    0.000    0.000    0.000    0.000 
#
# Total GULP energy -67202.679617 kJ/mol
# GULP energy per Si atom -5600.223301 kJ/mol
# Density = 2.623444 g / cm^3
# Si number density = 26.294288 Si / 1000 Ang^3
#
#
#
# Elastic Constant Matrix: (Units=GPa)
#
#
# Indices 1 2 3 4 5 6 
#
# 1 100.9430 34.0879 57.3238 -0.6411 -15.5134 -8.5594
# 2 34.0879 155.3344 51.5165 -38.3637 -16.8669 14.4320
# 3 57.3238 51.5165 135.5809 -21.0978 -21.4063 -3.6946
# 4 -0.6411 -38.3637 -21.0978 54.5984 -7.7112 -19.9351
# 5 -15.5134 -16.8669 -21.4063 -7.7112 38.4318 -7.1841
# 6 -8.5594 14.4320 -3.6946 -19.9351 -7.1841 48.8036
#
#
#
# Elastic Compliance Matrix: (Units=1/GPa)
#
#
# Indices 1 2 3 4 5 6 
#
# 1 0.013904 -0.001851 -0.005158 -0.002136 0.001873 0.001999
# 2 -0.001851 0.009290 -0.001029 0.006781 0.004161 0.000233
# 3 -0.005158 -0.001029 0.011926 0.005998 0.005992 0.003635
# 4 -0.002136 0.006781 0.005998 0.032303 0.014440 0.013395
# 5 0.001873 0.004161 0.005992 0.014440 0.036870 0.010878
# 6 0.001999 0.000233 0.003635 0.013395 0.010878 0.028120
#
#
# Mechanical properties :
#
#
# Convention : Reuss Voigt Hill
#
# Bulk Modulus (GPa) = 52.50618 75.30165 63.90392
# Shear Modulus (GPa) = 32.29203 44.96210 38.62707
#
# Velocity S-wave (km/s) = 3.50823 4.13965 3.83695
# Velocity P-wave (km/s) = 6.03508 7.17977 6.63217
#
# Compressibility (1/GPa) = 0.01904538
#
# Stress axis : x y z
#
# Youngs Moduli (GPa) = 71.92059 107.64225 83.85137
#
# Poissons Ratio (x) = 0.19920 0.43249
# Poissons Ratio (y) = 0.13309 0.08628
# Poissons Ratio (z) = 0.37096 0.11076
#
# Static dielectric constant tensor:
#      x y z
#    x 2.102400 -0.025500 -0.003180 
#    y -0.025500 2.104380 0.012200 
#    z -0.003180 0.012200 2.054430 
# 
# From -- ./inp_files/39400.got.cif
#   From: 2010.05.17/outbox.cif.g08.bks.cpg/sg2_20_cif.got.tgz:39400.got - 2010.06.03 11:33:40.
