data_PCOD9042846
_publ_section_title
;
Structure prediction by ZEFSAII (Michael W. Deem and Ramdas Pophale) SiO2 
 PCOD9042846
Probable space group: P -1
;
_chemical_formula_sum "Si O2"
_cell_formula_units_Z 14
_cell_length_a 5.790158
_cell_length_b 14.285351
_cell_length_c 10.659291
_cell_angle_alpha 138.051886
_cell_angle_beta 68.835965
_cell_angle_gamma 113.653069
_cell_volume 537.018932
_symmetry_space_group_name_H-M "P -1"
_symmetry_group_IT_number 2
_symmetry_cell_setting 'triclinic'
loop_
_space_group_symop_operation_xyz
x,y,z
-x,-y,-z
loop_
_atom_site_type_symbol
_atom_site_label
_atom_site_fract_x
_atom_site_fract_y
_atom_site_fract_z
Si Si1 0.107995 0.917237 0.288988
Si Si2 0.141292 0.362451 0.006851
Si Si3 0.580409 0.953353 0.073255
Si Si4 0.594554 0.642308 0.453799
Si Si5 0.385042 0.677794 0.255979
Si Si6 0.299246 0.651640 0.754557
Si Si7 0.913811 0.112454 0.351856
O O1 0.393058 0.971396 0.243708
O O2 0.045260 0.748607 0.157029
O O3 0.000000 0.000000 0.500000
O O4 0.950336 0.960900 0.247021
O O5 0.409584 0.316624 0.888863
O O6 0.183547 0.528761 0.130606
O O7 0.984413 0.335875 0.140431
O O8 0.825690 0.067882 0.184194
O O9 0.512502 0.781405 0.899435
O O10 0.500000 0.000000 0.000000
O O11 0.531529 0.650686 0.328965
O O12 0.351651 0.649323 0.594333
O O13 0.665808 0.494882 0.334471
O O14 0.821028 0.773825 0.577976
O O15 0.266541 0.812790 0.450027
#
# Coordination Sequence:
#
# PCOD9042846 Si02
#       7
#     2   2   2   2   2   2   2
#     4  11  25  45  68 102 141 179 230 283 339 411
#     4  10  23  45  65 101 134 178 227 282 338 404
#     4  11  25  45  68 102 141 179 230 283 339 411
#     4  11  24  44  69  98 138 179 228 282 339 407
#     4  11  24  44  69  98 138 179 228 282 339 407
#     4  10  23  45  65 101 134 178 227 282 338 404
#     4  12  24  44  74 102 138 186 224 284 350 400
#
# _framework density 26.069845000000001
#
# number of rings (size 3 to 8) (size 9 to 14) (size 15 to 20)
#    0.000    1.143    1.429    4.286    2.000    5.714 
#   15.429    0.000    0.000    0.000    0.000    0.000 
#    0.000    0.000    0.000    0.000    0.000    0.000 
#
# Total GULP energy -78299.560883 kJ/mol
# GULP energy per Si atom -5592.825777 kJ/mol
# Density = 2.601051 g / cm^3
# Si number density = 26.069845 Si / 1000 Ang^3
#
#
#
# Elastic Constant Matrix: (Units=GPa)
#
#
# Indices 1 2 3 4 5 6 
#
# 1 50.9195 44.5073 38.5675 1.7757 8.8650 3.2458
# 2 44.5073 108.3710 63.2475 13.7141 5.8939 21.2183
# 3 38.5675 63.2475 145.0429 4.9312 -2.6642 27.2273
# 4 1.7757 13.7141 4.9312 68.4974 19.6504 -7.4154
# 5 8.8650 5.8939 -2.6642 19.6504 58.7190 -10.0078
# 6 3.2458 21.2183 27.2273 -7.4154 -10.0078 38.7628
#
#
#
# Elastic Compliance Matrix: (Units=1/GPa)
#
#
# Indices 1 2 3 4 5 6 
#
# 1 0.035315 -0.013211 -0.005292 0.004186 -0.004339 0.007672
# 2 -0.013211 0.018351 -0.002921 -0.003961 0.000044 -0.007634
# 3 -0.005292 -0.002921 0.010627 -0.000898 0.000964 -0.005345
# 4 0.004186 -0.003961 -0.000898 0.017354 -0.005334 0.004391
# 5 -0.004339 0.000044 0.000964 -0.005334 0.020166 0.003848
# 6 0.007672 -0.007634 -0.005345 0.004391 0.003848 0.034922
#
#
# Mechanical properties :
#
#
# Convention : Reuss Voigt Hill
#
# Bulk Modulus (GPa) = 46.62963 66.33088 56.48025
# Shear Modulus (GPa) = 26.77655 43.72993 35.25324
#
# Velocity S-wave (km/s) = 3.20833 4.10007 3.68130
# Velocity P-wave (km/s) = 5.62581 6.92191 6.30724
#
# Compressibility (1/GPa) = 0.02144559
#
# Stress axis : x y z
#
# Youngs Moduli (GPa) = 28.31690 54.49173 94.09971
#
# Poissons Ratio (x) = 0.71989 0.49794
# Poissons Ratio (y) = 0.37410 0.27487
# Poissons Ratio (z) = 0.14984 0.15917
#
# Static dielectric constant tensor:
#      x y z
#    x 2.116410 0.023900 -0.032050 
#    y 0.023900 2.032170 -0.019040 
#    z -0.032050 -0.019040 2.034470 
# 
# From -- ./inp_files/368153.got.cif
#   From: 2010.05.17/outbox.cif.g08.bks.cpg/sg2_185_cif.got.tgz:368153.got - 2010.06.03 11:33:40.
