data_PCOD9042370
_publ_section_title
;
Structure prediction by ZEFSAII (Michael W. Deem and Ramdas Pophale) SiO2 
 PCOD9042370
Probable space group: P -1
;
_chemical_formula_sum "Si O2"
_cell_formula_units_Z 16
_cell_length_a 18.223331
_cell_length_b 11.581372
_cell_length_c 14.885859
_cell_angle_alpha 149.328071
_cell_angle_beta 150.848653
_cell_angle_gamma 50.913798
_cell_volume 682.445477
_symmetry_space_group_name_H-M "P -1"
_symmetry_group_IT_number 2
_symmetry_cell_setting 'triclinic'
loop_
_space_group_symop_operation_xyz
x,y,z
-x,-y,-z
loop_
_atom_site_type_symbol
_atom_site_label
_atom_site_fract_x
_atom_site_fract_y
_atom_site_fract_z
Si Si1 0.960124 0.711119 0.257689
Si Si2 0.355928 0.537824 0.928937
Si Si3 0.672533 0.264153 0.338294
Si Si4 0.191904 0.283080 0.318716
Si Si5 0.301106 0.364554 0.226029
Si Si6 0.333308 0.696914 0.212808
Si Si7 0.826162 0.958400 0.677176
Si Si8 0.687941 0.995437 0.874287
O O1 0.150503 0.745167 0.476908
O O2 0.829484 0.609956 0.965116
O O3 0.841901 0.546110 0.104130
O O4 0.000000 0.000000 0.500000
O O5 0.216396 0.231518 0.579445
O O6 0.500000 0.500000 0.000000
O O7 0.384381 0.650236 0.136380
O O8 0.302497 0.728324 0.945745
O O9 0.670690 0.417321 0.348786
O O10 0.696153 0.476422 0.578179
O O11 0.500000 0.000000 0.000000
O O12 0.225420 0.071010 0.161493
O O13 0.165817 0.213446 0.347885
O O14 0.007480 0.215700 0.035067
O O15 0.500000 0.500000 0.500000
O O16 0.250224 0.074799 0.013780
O O17 0.303820 0.944145 0.362045
O O18 0.490370 0.770818 0.498125
#
# Coordination Sequence:
#
# PCOD9042370 Si02
#       8
#     2   2   2   2   2   2   2   2
#     4  12  27  49  72 107 150 203 255 312 375 451
#     4  12  25  42  76 114 144 193 252 303 384 461
#     4  11  25  46  77 108 148 200 254 313 379 447
#     4  10  23  44  71 100 153 188 240 317 376 439
#     4  11  24  47  72 105 148 201 249 312 375 442
#     4  12  24  48  73 103 157 194 244 316 372 454
#     4  11  23  45  71 108 145 194 241 306 386 445
#     4  11  23  44  72 103 149 189 243 310 374 443
#
# _framework density 23.445097000000001
#
# number of rings (size 3 to 8) (size 9 to 14) (size 15 to 20)
#    0.000    0.750    5.000    2.250    1.750    4.500 
#    4.500    0.000    0.000    0.000    0.000    0.000 
#    0.000    0.000    0.000    0.000    0.000    0.000 
#
# Total GULP energy -89250.818616 kJ/mol
# GULP energy per Si atom -5578.176163 kJ/mol
# Density = 2.339173 g / cm^3
# Si number density = 23.445097 Si / 1000 Ang^3
#
#
#
# Elastic Constant Matrix: (Units=GPa)
#
#
# Indices 1 2 3 4 5 6 
#
# 1 92.9811 58.5093 33.9246 5.4431 10.9680 -12.0000
# 2 58.5093 111.0676 27.9966 19.5235 3.9121 -22.8409
# 3 33.9246 27.9966 80.6499 13.1410 13.3499 -3.3070
# 4 5.4431 19.5235 13.1410 42.7933 -3.8303 6.5285
# 5 10.9680 3.9121 13.3499 -3.8303 41.3902 2.0650
# 6 -12.0000 -22.8409 -3.3070 6.5285 2.0650 43.6807
#
#
#
# Elastic Compliance Matrix: (Units=1/GPa)
#
#
# Indices 1 2 3 4 5 6 
#
# 1 0.018076 -0.008886 -0.004680 0.003060 -0.002138 -0.000391
# 2 -0.008886 0.016630 -0.000506 -0.007429 -0.000107 0.007332
# 3 -0.004680 -0.000506 0.016027 -0.004567 -0.004332 0.000551
# 4 0.003060 -0.007429 -0.004567 0.029392 0.004483 -0.007995
# 5 -0.002138 -0.000107 -0.004332 0.004483 0.026694 -0.002903
# 6 -0.000391 0.007332 0.000551 -0.007995 -0.002903 0.027994
#
#
# Mechanical properties :
#
#
# Convention : Reuss Voigt Hill
#
# Bulk Modulus (GPa) = 44.26792 58.39550 51.33171
# Shear Modulus (GPa) = 29.32792 36.52404 32.92598
#
# Velocity S-wave (km/s) = 3.54067 3.95125 3.75158
# Velocity P-wave (km/s) = 5.96973 6.76594 6.38026
#
# Compressibility (1/GPa) = 0.02258972
#
# Stress axis : x y z
#
# Youngs Moduli (GPa) = 55.32058 60.13389 62.39388
#
# Poissons Ratio (x) = 0.53434 0.29199
# Poissons Ratio (y) = 0.49157 0.03158
# Poissons Ratio (z) = 0.25889 0.03043
#
# Static dielectric constant tensor:
#      x y z
#    x 2.004010 -0.041830 0.127300 
#    y -0.041830 1.740620 0.021210 
#    z 0.127300 0.021210 2.000100 
# 
# From -- ./inp_files/538493.got.cif
#   From: 2010.05.17/outbox.cif.g08.bks.cpg/sg2_270_cif.got.tgz:538493.got - 2010.06.03 11:33:40.
