data_PCOD9042907
_publ_section_title
;
Structure prediction by ZEFSAII (Michael W. Deem and Ramdas Pophale) SiO2 
 PCOD9042907
Probable space group: P -1
;
_chemical_formula_sum "Si O2"
_cell_formula_units_Z 16
_cell_length_a 5.182624
_cell_length_b 26.254002
_cell_length_c 5.152246
_cell_angle_alpha 122.406607
_cell_angle_beta 89.296194
_cell_angle_gamma 101.463791
_cell_volume 576.281760
_symmetry_space_group_name_H-M "P -1"
_symmetry_group_IT_number 2
_symmetry_cell_setting 'triclinic'
loop_
_space_group_symop_operation_xyz
x,y,z
-x,-y,-z
loop_
_atom_site_type_symbol
_atom_site_label
_atom_site_fract_x
_atom_site_fract_y
_atom_site_fract_z
Si Si1 0.958692 0.226841 0.686369
Si Si2 0.628105 0.097985 0.315179
Si Si3 0.294466 0.164766 0.133121
Si Si4 0.898617 0.653998 0.751423
Si Si5 0.498872 0.589169 0.215578
Si Si6 0.028680 0.447699 0.154443
Si Si7 0.873704 0.058918 0.676983
Si Si8 0.356369 0.711071 0.502372
O O1 0.109411 0.203753 0.383627
O O2 0.792524 0.162238 0.612165
O O3 0.748141 0.264093 0.689122
O O4 0.151410 0.279118 0.990619
O O5 0.396138 0.121553 0.229315
O O6 0.647418 0.054969 0.446812
O O7 0.768856 0.071273 0.998746
O O8 0.520006 0.222084 0.184445
O O9 0.129192 0.117258 0.801460
O O10 0.630149 0.604866 0.537698
O O11 0.024371 0.616220 0.857392
O O12 0.110320 0.673271 0.570119
O O13 0.532715 0.661036 0.316451
O O14 0.683650 0.551155 0.963440
O O15 0.196090 0.557598 0.077342
O O16 0.000000 0.500000 0.500000
O O17 0.000000 0.000000 0.500000
#
# Coordination Sequence:
#
# PCOD9042907 Si02
#       8
#     2   2   2   2   2   2   2   2
#     4  10  23  45  66 105 147 189 236 311 386 458
#     4  10  25  42  71 105 144 192 260 311 392 462
#     4  10  24  45  69 106 150 193 249 320 387 468
#     4  12  25  44  77 103 149 194 241 315 386 452
#     4  12  26  49  72 110 144 189 255 304 378 456
#     4  12  29  52  74 106 151 198 252 308 375 462
#     4  11  25  48  71 105 151 203 259 321 386 467
#     4  11  23  45  69 109 146 183 252 306 385 461
#
# _framework density 27.764196999999999
#
# number of rings (size 3 to 8) (size 9 to 14) (size 15 to 20)
#    0.000    1.000    2.500    2.250    8.750    6.000 
#    2.250    0.000    0.000    0.000    0.000    0.000 
#    0.000    0.000    0.000    0.000    0.000    0.000 
#
# Total GULP energy -89531.185593 kJ/mol
# GULP energy per Si atom -5595.699100 kJ/mol
# Density = 2.770100 g / cm^3
# Si number density = 27.764197 Si / 1000 Ang^3
#
#
#
# Elastic Constant Matrix: (Units=GPa)
#
#
# Indices 1 2 3 4 5 6 
#
# 1 127.7729 39.5462 52.8444 9.5312 3.9441 -26.8256
# 2 39.5462 122.1219 42.0995 0.2810 4.8012 -46.6354
# 3 52.8444 42.0995 138.2628 34.7180 -4.0365 -21.6039
# 4 9.5312 0.2810 34.7180 54.3231 -8.0447 4.8384
# 5 3.9441 4.8012 -4.0365 -8.0447 51.7420 9.9246
# 6 -26.8256 -46.6354 -21.6039 4.8384 9.9246 50.5334
#
#
#
# Elastic Compliance Matrix: (Units=1/GPa)
#
#
# Indices 1 2 3 4 5 6 
#
# 1 0.010191 -0.000725 -0.003008 -0.000464 -0.001753 0.003843
# 2 -0.000725 0.014065 -0.002095 -0.000289 -0.003853 0.012484
# 3 -0.003008 -0.002095 0.010971 -0.006650 -0.000103 0.001817
# 4 -0.000464 -0.000289 -0.006650 0.023995 0.004529 -0.006543
# 5 -0.001753 -0.003853 -0.000103 0.004529 0.022306 -0.009345
# 6 0.003843 0.012484 0.001817 -0.006543 -0.009345 0.036588
#
#
# Mechanical properties :
#
#
# Convention : Reuss Voigt Hill
#
# Bulk Modulus (GPa) = 42.42723 73.01532 57.72127
# Shear Modulus (GPa) = 36.32954 48.23084 42.28019
#
# Velocity S-wave (km/s) = 3.62125 4.17245 3.90658
# Velocity P-wave (km/s) = 5.72704 7.04045 6.41743
#
# Compressibility (1/GPa) = 0.02356977
#
# Stress axis : x y z
#
# Youngs Moduli (GPa) = 98.12986 71.09890 91.14995
#
# Poissons Ratio (x) = 0.05158 0.27421
# Poissons Ratio (y) = 0.07119 0.19092
# Poissons Ratio (z) = 0.29521 0.14892
#
# Static dielectric constant tensor:
#      x y z
#    x 2.244360 0.085820 0.091620 
#    y 0.085820 2.188770 0.028250 
#    z 0.091620 0.028250 2.284370 
# 
# From -- ./inp_files/14811.got.cif
#   From: 2010.05.17/outbox.cif.g08.bks.cpg/sg2_8_cif.got.tgz:14811.got - 2010.06.03 11:33:40.
