data_PCOD9042239
_publ_section_title
;
Structure prediction by ZEFSAII (Michael W. Deem and Ramdas Pophale) SiO2 
 PCOD9042239
Probable space group: P -1
;
_chemical_formula_sum "Si O2"
_cell_formula_units_Z 16
_cell_length_a 9.568546
_cell_length_b 13.757112
_cell_length_c 8.912613
_cell_angle_alpha 37.543782
_cell_angle_beta 83.430574
_cell_angle_gamma 70.630126
_cell_volume 651.542109
_symmetry_space_group_name_H-M "P -1"
_symmetry_group_IT_number 2
_symmetry_cell_setting 'triclinic'
loop_
_space_group_symop_operation_xyz
x,y,z
-x,-y,-z
loop_
_atom_site_type_symbol
_atom_site_label
_atom_site_fract_x
_atom_site_fract_y
_atom_site_fract_z
Si Si1 0.806405 0.747738 0.620212
Si Si2 0.590125 0.041120 0.077274
Si Si3 0.019091 0.940709 0.400543
Si Si4 0.836526 0.507988 0.466835
Si Si5 0.313784 0.482931 0.210624
Si Si6 0.348609 0.298641 0.011905
Si Si7 0.344256 0.664086 0.701478
Si Si8 0.145141 0.847161 0.104620
O O1 0.822311 0.558103 0.799979
O O2 0.950455 0.794378 0.567287
O O3 0.710368 0.864372 0.351529
O O4 0.710530 0.778578 0.747670
O O5 0.495951 0.155338 0.089954
O O6 0.695273 0.142202 0.891417
O O7 0.500000 0.000000 0.000000
O O8 0.199732 0.840665 0.462062
O O9 0.000000 0.000000 0.500000
O O10 0.906010 0.111354 0.113880
O O11 0.725783 0.512375 0.615153
O O12 0.765779 0.652925 0.174393
O O13 0.860569 0.324626 0.619634
O O14 0.000000 0.500000 0.500000
O O15 0.487696 0.336698 0.345753
O O16 0.324661 0.634314 0.918879
O O17 0.355423 0.481971 0.842852
O O18 0.000000 0.000000 0.000000
#
# Coordination Sequence:
#
# PCOD9042239 Si02
#       8
#     2   2   2   2   2   2   2   2
#     4  10  25  43  70 105 139 183 238 296 351 441
#     4  11  25  46  73 104 144 188 237 302 368 425
#     4  11  25  43  71 100 140 183 235 294 367 416
#     4  12  28  43  71 102 148 191 242 295 362 434
#     4  10  23  44  70 102 144 182 247 293 359 429
#     4  11  25  42  70 101 141 188 238 287 362 422
#     4  10  23  44  72 102 136 191 235 304 363 423
#     4  11  27  46  68 102 143 183 242 295 355 435
#
# _framework density 24.557124999999999
#
# number of rings (size 3 to 8) (size 9 to 14) (size 15 to 20)
#    0.000    1.250    0.000    3.375   10.500   12.000 
#    0.000    0.000    0.000    0.000    0.000    0.000 
#    0.000    0.000    0.000    0.000    0.000    0.000 
#
# Total GULP energy -89403.564568 kJ/mol
# GULP energy per Si atom -5587.722786 kJ/mol
# Density = 2.450123 g / cm^3
# Si number density = 24.557125 Si / 1000 Ang^3
#
#
#
# Elastic Constant Matrix: (Units=GPa)
#
#
# Indices 1 2 3 4 5 6 
#
# 1 83.9970 -6.7273 21.3187 7.3044 4.5865 3.3169
# 2 -6.7273 88.2596 -0.8407 28.0639 3.6520 -12.3261
# 3 21.3187 -0.8407 62.8858 16.3373 7.2491 8.6627
# 4 7.3044 28.0639 16.3373 43.9559 3.0793 4.4399
# 5 4.5865 3.6520 7.2491 3.0793 37.1606 5.8577
# 6 3.3169 -12.3261 8.6627 4.4399 5.8577 31.8934
#
#
#
# Elastic Compliance Matrix: (Units=1/GPa)
#
#
# Indices 1 2 3 4 5 6 
#
# 1 0.013234 0.001700 -0.003988 -0.001814 -0.000998 0.000800
# 2 0.001700 0.016562 0.002027 -0.012229 -0.002453 0.007827
# 3 -0.003988 0.002027 0.019914 -0.007583 -0.002539 -0.002689
# 4 -0.001814 -0.012229 -0.007583 0.034347 0.001239 -0.007487
# 5 -0.000998 -0.002453 -0.002539 0.001239 0.028545 -0.005570
# 6 0.000800 0.007827 -0.002689 -0.007487 -0.005570 0.037092
#
#
# Mechanical properties :
#
#
# Convention : Reuss Voigt Hill
#
# Bulk Modulus (GPa) = 20.32989 29.18264 24.75627
# Shear Modulus (GPa) = 30.00997 37.36144 33.68570
#
# Velocity S-wave (km/s) = 3.49957 3.90476 3.70770
# Velocity P-wave (km/s) = 4.96245 5.67793 5.33220
#
# Compressibility (1/GPa) = 0.04918865
#
# Stress axis : x y z
#
# Youngs Moduli (GPa) = 75.56237 60.37925 50.21594
#
# Poissons Ratio (x) = -0.10267 0.20024
# Poissons Ratio (y) = -0.12849 -0.10176
# Poissons Ratio (z) = 0.30132 -0.12236
#
# Static dielectric constant tensor:
#      x y z
#    x 1.899030 0.050670 -0.043480 
#    y 0.050670 1.757240 -0.064510 
#    z -0.043480 -0.064510 1.941610 
# 
# From -- ./inp_files/205156.got.cif
#   From: 2010.05.17/outbox.cif.g08.bks.cpg/sg2_103_cif.got.tgz:205156.got - 2010.06.03 11:33:40.
