data_PCOD9042972
_publ_section_title
;
Structure prediction by ZEFSAII (Michael W. Deem and Ramdas Pophale) SiO2 
 PCOD9042972
Probable space group: P -1
;
_chemical_formula_sum "Si O2"
_cell_formula_units_Z 16
_cell_length_a 12.926592
_cell_length_b 15.330378
_cell_length_c 12.163114
_cell_angle_alpha 30.158668
_cell_angle_beta 37.482025
_cell_angle_gamma 36.387783
_cell_volume 678.874328
_symmetry_space_group_name_H-M "P -1"
_symmetry_group_IT_number 2
_symmetry_cell_setting 'triclinic'
loop_
_space_group_symop_operation_xyz
x,y,z
-x,-y,-z
loop_
_atom_site_type_symbol
_atom_site_label
_atom_site_fract_x
_atom_site_fract_y
_atom_site_fract_z
Si Si1 0.585906 0.698625 0.651901
Si Si2 0.546847 0.340010 0.971842
Si Si3 0.812878 0.071765 0.188167
Si Si4 0.554817 0.916746 0.164565
Si Si5 0.108747 0.247019 0.806370
Si Si6 0.992643 0.651001 0.576582
Si Si7 0.302494 0.296573 0.046114
Si Si8 0.652531 0.541786 0.391992
O O1 0.599384 0.509910 0.784056
O O2 0.737146 0.763525 0.402774
O O3 0.371742 0.843686 0.672264
O O4 0.605087 0.662059 0.806578
O O5 0.722203 0.148697 0.061053
O O6 0.453208 0.357382 0.915059
O O7 0.909653 0.850131 0.367673
O O8 0.950728 0.175329 0.985517
O O9 0.557703 0.709109 0.377063
O O10 0.762203 0.880446 0.065957
O O11 0.406852 0.070809 0.196185
O O12 0.500000 0.000000 0.000000
O O13 0.026132 0.465177 0.677912
O O14 0.867935 0.651495 0.785880
O O15 0.190711 0.620100 0.497296
O O16 0.258596 0.380510 0.868797
O O17 0.500000 0.500000 0.500000
#
# Coordination Sequence:
#
# PCOD9042972 Si02
#       8
#     2   2   2   2   2   2   2   2
#     4   9  21  45  67  98 144 189 238 281 350 405
#     4   9  22  43  72 103 140 190 239 278 351 422
#     4  10  23  45  67 107 142 180 249 276 345 425
#     4   9  22  41  68  97 132 179 229 285 356 413
#     4  11  23  43  72  97 147 187 231 299 348 406
#     4  11  25  43  70 110 134 183 243 285 355 424
#     4  11  22  45  74  94 144 185 228 295 351 412
#     4  10  24  45  72 101 135 177 234 291 355 423
#
# _framework density 23.568425000000001
#
# number of rings (size 3 to 8) (size 9 to 14) (size 15 to 20)
#    0.750    1.250    0.000    1.875    7.000    1.000 
#    2.250    1.875    0.000    0.000    0.000    0.000 
#    0.000    0.000    0.000    0.000    0.000    0.000 
#
# Total GULP energy -89436.918916 kJ/mol
# GULP energy per Si atom -5589.807432 kJ/mol
# Density = 2.351478 g / cm^3
# Si number density = 23.568425 Si / 1000 Ang^3
#
#
#
# Elastic Constant Matrix: (Units=GPa)
#
#
# Indices 1 2 3 4 5 6 
#
# 1 117.9454 39.6552 30.6152 -12.4101 2.4404 -21.0301
# 2 39.6552 146.1625 66.9519 -4.4027 -6.6036 -13.3081
# 3 30.6152 66.9519 94.9486 3.1470 -3.2948 -4.7745
# 4 -12.4101 -4.4027 3.1470 43.6290 -4.3686 6.6131
# 5 2.4404 -6.6036 -3.2948 -4.3686 45.2744 -2.7642
# 6 -21.0301 -13.3081 -4.7745 6.6131 -2.7642 44.0899
#
#
#
# Elastic Compliance Matrix: (Units=1/GPa)
#
#
# Indices 1 2 3 4 5 6 
#
# 1 0.010508 -0.001382 -0.002309 0.002369 -0.000466 0.003960
# 2 -0.001382 0.010660 -0.006973 0.001057 0.001329 0.001728
# 3 -0.002309 -0.006973 0.016217 -0.002365 -0.000008 -0.001096
# 4 0.002369 0.001057 -0.002365 0.024434 0.002069 -0.002342
# 5 -0.000466 0.001329 -0.000008 0.002069 0.022584 0.001284
# 6 0.003960 0.001728 -0.001096 -0.002342 0.001284 0.025405
#
#
# Mechanical properties :
#
#
# Convention : Reuss Voigt Hill
#
# Bulk Modulus (GPa) = 62.28366 70.38901 66.33633
# Shear Modulus (GPa) = 36.63347 41.38760 39.01054
#
# Velocity S-wave (km/s) = 3.94680 4.19508 4.07283
# Velocity P-wave (km/s) = 6.87413 7.30723 7.09399
#
# Compressibility (1/GPa) = 0.01605558
#
# Stress axis : x y z
#
# Youngs Moduli (GPa) = 95.16945 93.80763 61.66534
#
# Poissons Ratio (x) = 0.12967 0.14238
# Poissons Ratio (y) = 0.13155 0.43000
# Poissons Ratio (z) = 0.21974 0.65414
#
# Static dielectric constant tensor:
#      x y z
#    x 1.914350 -0.006710 0.019230 
#    y -0.006710 1.916550 0.014870 
#    z 0.019230 0.014870 1.948020 
# 
# From -- ./inp_files/521292.got.cif
#   From: 2010.05.17/outbox.cif.g08.bks.cpg/sg2_261_cif.got.tgz:521292.got - 2010.06.03 11:33:40.
