data_PCOD9042319
_publ_section_title
;
Structure prediction by ZEFSAII (Michael W. Deem and Ramdas Pophale) SiO2 
 PCOD9042319
Probable space group: P -1
;
_chemical_formula_sum "Si O2"
_cell_formula_units_Z 14
_cell_length_a 16.400454
_cell_length_b 9.574988
_cell_length_c 12.690427
_cell_angle_alpha 124.645011
_cell_angle_beta 134.538290
_cell_angle_gamma 28.440684
_cell_volume 669.621926
_symmetry_space_group_name_H-M "P -1"
_symmetry_group_IT_number 2
_symmetry_cell_setting 'triclinic'
loop_
_space_group_symop_operation_xyz
x,y,z
-x,-y,-z
loop_
_atom_site_type_symbol
_atom_site_label
_atom_site_fract_x
_atom_site_fract_y
_atom_site_fract_z
Si Si1 0.801225 0.475179 0.537029
Si Si2 0.728960 0.276514 0.130024
Si Si3 0.151599 0.304761 0.152066
Si Si4 0.512068 0.842264 0.850077
Si Si5 0.241052 0.850837 0.657027
Si Si6 0.596758 0.794327 0.279596
Si Si7 0.024804 0.808102 0.014655
O O1 0.827056 0.552734 0.698402
O O2 0.709559 0.399816 0.445043
O O3 0.675382 0.723829 0.439390
O O4 0.021280 0.172297 0.558619
O O5 0.778445 0.150639 0.236399
O O6 0.725516 0.484795 0.215269
O O7 0.500000 0.500000 0.000000
O O8 0.893448 0.009875 0.084756
O O9 0.370051 0.003638 0.175388
O O10 0.000000 0.500000 0.000000
O O11 0.074502 0.249070 0.134948
O O12 0.398042 0.808227 0.761434
O O13 0.742766 0.515551 0.897878
O O14 0.414377 0.038901 0.740488
O O15 0.500000 0.000000 0.000000
O O16 0.000000 0.000000 0.000000
#
# Coordination Sequence:
#
# PCOD9042319 Si02
#       7
#     2   2   2   2   2   2   2
#     4  10  24  44  70  99 137 192 234 277 359 421
#     4  11  21  41  69  98 137 182 232 279 345 417
#     4  12  23  44  72 103 137 182 237 289 346 425
#     4  12  25  43  70 112 142 180 236 294 346 410
#     4  10  23  44  70  95 144 186 229 288 350 421
#     4  11  24  42  69 103 138 184 226 290 354 409
#     4  12  25  40  69 108 140 176 234 294 351 403
#
# _framework density 20.907319999999999
#
# number of rings (size 3 to 8) (size 9 to 14) (size 15 to 20)
#    0.000    0.857    2.857    4.714    2.000    0.571 
#    0.000    5.000    0.000    0.000    0.000    0.000 
#    0.000    0.000    0.000    0.000    0.000    0.000 
#
# Total GULP energy -78236.915830 kJ/mol
# GULP energy per Si atom -5588.351131 kJ/mol
# Density = 2.085973 g / cm^3
# Si number density = 20.907320 Si / 1000 Ang^3
#
#
#
# Elastic Constant Matrix: (Units=GPa)
#
#
# Indices 1 2 3 4 5 6 
#
# 1 141.4642 58.9610 56.5732 12.6526 18.2968 19.3572
# 2 58.9610 129.1187 60.3322 -0.5321 -6.4580 -0.4949
# 3 56.5732 60.3322 135.5321 6.6847 -0.7147 8.4595
# 4 12.6526 -0.5321 6.6847 37.3575 13.2733 2.2224
# 5 18.2968 -6.4580 -0.7147 13.2733 34.5197 -6.9736
# 6 19.3572 -0.4949 8.4595 2.2224 -6.9736 36.1018
#
#
#
# Elastic Compliance Matrix: (Units=1/GPa)
#
#
# Indices 1 2 3 4 5 6 
#
# 1 0.012422 -0.004983 -0.002516 -0.000119 -0.009118 -0.007893
# 2 -0.004983 0.011971 -0.003524 0.000182 0.005698 0.004751
# 3 -0.002516 -0.003524 0.010120 -0.001420 0.001282 -0.000735
# 4 -0.000119 0.000182 -0.001420 0.031942 -0.013040 -0.004086
# 5 -0.009118 0.005698 0.001282 -0.013040 0.042678 0.013713
# 6 -0.007893 0.004751 -0.000735 -0.004086 0.013713 0.035070
#
#
# Mechanical properties :
#
#
# Convention : Reuss Voigt Hill
#
# Bulk Modulus (GPa) = 80.22205 84.20532 82.21369
# Shear Modulus (GPa) = 29.34155 36.94573 33.14364
#
# Velocity S-wave (km/s) = 3.75028 4.20827 3.98586
# Velocity P-wave (km/s) = 7.56349 7.99848 7.78402
#
# Compressibility (1/GPa) = 0.01246540
#
# Stress axis : x y z
#
# Youngs Moduli (GPa) = 80.50046 83.53375 98.81156
#
# Poissons Ratio (x) = 0.41629 0.24865
# Poissons Ratio (y) = 0.40117 0.34824
# Poissons Ratio (z) = 0.20257 0.29440
#
# Static dielectric constant tensor:
#      x y z
#    x 1.746610 0.026830 0.016640 
#    y 0.026830 1.813200 0.013610 
#    z 0.016640 0.013610 1.798310 
# 
# From -- ./inp_files/185163.got.cif
#   From: 2010.05.17/outbox.cif.g08.bks.cpg/sg2_93_cif.got.tgz:185163.got - 2010.06.03 11:33:40.
