data_PCOD9042580
_publ_section_title
;
Structure prediction by ZEFSAII (Michael W. Deem and Ramdas Pophale) SiO2 
 PCOD9042580
Probable space group: P -1
;
_chemical_formula_sum "Si O2"
_cell_formula_units_Z 14
_cell_length_a 17.979791
_cell_length_b 16.371653
_cell_length_c 5.211433
_cell_angle_alpha 99.758564
_cell_angle_beta 63.432468
_cell_angle_gamma 150.175102
_cell_volume 594.381971
_symmetry_space_group_name_H-M "P -1"
_symmetry_group_IT_number 2
_symmetry_cell_setting 'triclinic'
loop_
_space_group_symop_operation_xyz
x,y,z
-x,-y,-z
loop_
_atom_site_type_symbol
_atom_site_label
_atom_site_fract_x
_atom_site_fract_y
_atom_site_fract_z
Si Si1 0.777412 0.182849 0.124408
Si Si2 0.349156 0.747432 0.702074
Si Si3 0.318124 0.611928 0.185804
Si Si4 0.469312 0.547675 0.369105
Si Si5 0.922893 0.226337 0.405285
Si Si6 0.343935 0.165630 0.434073
Si Si7 0.202438 0.193986 0.408456
O O1 0.909816 0.276108 0.209169
O O2 0.232091 0.727554 0.858818
O O3 0.830786 0.185786 0.777975
O O4 0.566675 0.965337 0.416050
O O5 0.284615 0.627375 0.513753
O O6 0.345390 0.704524 0.967415
O O7 0.135892 0.397713 0.257814
O O8 0.512314 0.734164 0.956910
O O9 0.500000 0.500000 0.500000
O O10 0.507191 0.670914 0.494840
O O11 0.258971 0.337257 0.484229
O O12 0.631074 0.678342 0.979713
O O13 0.801705 0.038197 0.407800
O O14 0.225258 0.142519 0.556306
O O15 0.000000 0.000000 0.500000
#
# Coordination Sequence:
#
# PCOD9042580 Si02
#       7
#     2   2   2   2   2   2   2
#     4  11  23  45  70 100 136 187 237 285 339 406
#     4  11  23  45  72  95 141 186 233 289 341 401
#     4  12  26  43  68 102 137 188 228 286 349 394
#     4   9  22  43  68  95 131 169 212 272 330 410
#     4  12  26  42  68 103 139 182 236 281 345 402
#     4  11  25  43  65  96 143 169 222 280 341 408
#     4  10  23  44  73 100 127 173 223 271 334 412
#
# _framework density 23.553878000000001
#
# number of rings (size 3 to 8) (size 9 to 14) (size 15 to 20)
#    0.000    1.143    2.857    1.714    4.000   12.571 
#    0.000    0.000    0.000    0.000    0.000    0.000 
#    0.000    0.000    0.000    0.000    0.000    0.000 
#
# Total GULP energy -78290.239634 kJ/mol
# GULP energy per Si atom -5592.159974 kJ/mol
# Density = 2.350027 g / cm^3
# Si number density = 23.553878 Si / 1000 Ang^3
#
#
#
# Elastic Constant Matrix: (Units=GPa)
#
#
# Indices 1 2 3 4 5 6 
#
# 1 86.5358 29.8673 7.2297 -0.5786 8.4593 8.2014
# 2 29.8673 140.0520 2.6048 -16.6087 -15.3866 -2.9463
# 3 7.2297 2.6048 41.7811 0.6260 16.5574 -6.5129
# 4 -0.5786 -16.6087 0.6260 40.5093 9.4713 -1.5994
# 5 8.4593 -15.3866 16.5574 9.4713 27.2959 6.7566
# 6 8.2014 -2.9463 -6.5129 -1.5994 6.7566 26.9054
#
#
#
# Elastic Compliance Matrix: (Units=1/GPa)
#
#
# Indices 1 2 3 4 5 6 
#
# 1 0.013639 -0.003521 -0.000812 -0.000268 -0.004744 -0.003564
# 2 -0.003521 0.008978 -0.002965 0.001936 0.007378 -0.000399
# 3 -0.000812 -0.002965 0.039729 0.006397 -0.032196 0.018005
# 4 -0.000268 0.001936 0.006397 0.029072 -0.014584 0.007233
# 5 -0.004744 0.007378 -0.032196 -0.014584 0.072977 -0.024733
# 6 -0.003564 -0.000399 0.018005 0.007233 -0.024733 0.049209
#
#
# Mechanical properties :
#
#
# Convention : Reuss Voigt Hill
#
# Bulk Modulus (GPa) = 20.94314 38.64140 29.79227
# Shear Modulus (GPa) = 20.48178 34.18659 27.33419
#
# Velocity S-wave (km/s) = 2.95205 3.81389 3.41030
# Velocity P-wave (km/s) = 4.53104 5.98627 5.30876
#
# Compressibility (1/GPa) = 0.04774834
#
# Stress axis : x y z
#
# Youngs Moduli (GPa) = 73.31947 111.38206 25.17026
#
# Poissons Ratio (x) = 0.39223 0.02044
# Poissons Ratio (y) = 0.25819 0.07464
# Poissons Ratio (z) = 0.05954 0.33030
#
# Static dielectric constant tensor:
#      x y z
#    x 1.947200 0.045930 0.009470 
#    y 0.045930 1.956960 0.018260 
#    z 0.009470 0.018260 1.874720 
# 
# From -- ./inp_files/124990.got.cif
#   From: 2010.05.17/outbox.cif.g08.bks.cpg/sg2_63_cif.got.tgz:124990.got - 2010.06.03 11:33:40.
