data_PCOD9042857
_publ_section_title
;
Structure prediction by ZEFSAII (Michael W. Deem and Ramdas Pophale) SiO2 
 PCOD9042857
Probable space group: P -1
;
_chemical_formula_sum "Si O2"
_cell_formula_units_Z 16
_cell_length_a 7.760679
_cell_length_b 16.996063
_cell_length_c 9.229778
_cell_angle_alpha 58.284462
_cell_angle_beta 126.405404
_cell_angle_gamma 85.725203
_cell_volume 687.955219
_symmetry_space_group_name_H-M "P -1"
_symmetry_group_IT_number 2
_symmetry_cell_setting 'triclinic'
loop_
_space_group_symop_operation_xyz
x,y,z
-x,-y,-z
loop_
_atom_site_type_symbol
_atom_site_label
_atom_site_fract_x
_atom_site_fract_y
_atom_site_fract_z
Si Si1 0.533245 0.890209 0.685898
Si Si2 0.707134 0.434766 0.390708
Si Si3 0.575262 0.331059 0.866723
Si Si4 0.009151 0.352710 0.925767
Si Si5 0.735354 0.585766 0.672326
Si Si6 0.521317 0.076407 0.054714
Si Si7 0.095787 0.873254 0.577095
Si Si8 0.091165 0.280064 0.479869
O O1 0.623096 0.890054 0.895617
O O2 0.265561 0.898624 0.537587
O O3 0.500000 0.000000 0.500000
O O4 0.732474 0.769958 0.832119
O O5 0.584795 0.567956 0.195510
O O6 0.475952 0.416194 0.330130
O O7 0.878275 0.371675 0.396743
O O8 0.896165 0.387304 0.671472
O O9 0.406440 0.370824 0.597993
O O10 0.808895 0.338866 0.926525
O O11 0.705920 0.207116 0.117590
O O12 0.982023 0.460457 0.879141
O O13 0.837150 0.665417 0.663585
O O14 0.819870 0.992299 0.338918
O O15 0.364228 0.192977 0.778925
O O16 0.500000 0.000000 0.000000
O O17 0.019790 0.791229 0.557014
#
# Coordination Sequence:
#
# PCOD9042857 Si02
#       8
#     2   2   2   2   2   2   2   2
#     4  12  24  41  67  94 124 168 212 271 322 379
#     4   9  19  37  62  95 126 164 213 256 311 380
#     4   9  19  38  63  91 126 161 206 267 309 376
#     4   9  19  38  63  96 124 159 215 257 316 385
#     4   9  20  38  66  94 128 167 206 263 316 379
#     4  10  23  45  65  88 124 169 216 259 318 384
#     4  11  25  41  60  93 127 165 213 262 321 377
#     4  11  22  41  64  91 129 173 210 255 318 388
#
# _framework density 23.257327
#
# number of rings (size 3 to 8) (size 9 to 14) (size 15 to 20)
#    0.000    2.000    1.250    3.375    1.750    3.500 
#    6.750    2.500    0.000    0.000    0.000    0.000 
#    0.000    0.000    0.000    0.000    0.000    0.000 
#
# Total GULP energy -89242.102770 kJ/mol
# GULP energy per Si atom -5577.631423 kJ/mol
# Density = 2.320439 g / cm^3
# Si number density = 23.257327 Si / 1000 Ang^3
#
#
#
# Elastic Constant Matrix: (Units=GPa)
#
#
# Indices 1 2 3 4 5 6 
#
# 1 49.6582 29.8739 33.9737 -22.0398 0.0966 12.8357
# 2 29.8739 78.1659 38.1583 -18.8422 9.0577 10.3018
# 3 33.9737 38.1583 156.6812 -27.9356 -4.1508 -0.2039
# 4 -22.0398 -18.8422 -27.9356 54.9401 -2.5909 4.1364
# 5 0.0966 9.0577 -4.1508 -2.5909 44.2056 -12.5927
# 6 12.8357 10.3018 -0.2039 4.1364 -12.5927 41.7385
#
#
#
# Elastic Compliance Matrix: (Units=1/GPa)
#
#
# Indices 1 2 3 4 5 6 
#
# 1 0.034237 -0.007299 -0.003920 0.009940 -0.001244 -0.010107
# 2 -0.007299 0.018537 -0.002692 0.002129 -0.005074 -0.004085
# 3 -0.003920 -0.002692 0.008234 0.001611 0.002108 0.002386
# 4 0.009940 0.002129 0.001611 0.024172 -0.000646 -0.006165
# 5 -0.001244 -0.005074 0.002108 -0.000646 0.026597 0.009734
# 6 -0.010107 -0.004085 0.002386 -0.006165 0.009734 0.031634
#
#
# Mechanical properties :
#
#
# Convention : Reuss Voigt Hill
#
# Bulk Modulus (GPa) = 30.13316 54.27966 42.20641
# Shear Modulus (GPa) = 27.42808 40.34347 33.88577
#
# Velocity S-wave (km/s) = 3.43786 4.16944 3.82120
# Velocity P-wave (km/s) = 5.36126 6.82410 6.13643
#
# Compressibility (1/GPa) = 0.03318604
#
# Stress axis : x y z
#
# Youngs Moduli (GPa) = 29.20800 53.94742 121.44634
#
# Poissons Ratio (x) = 0.39377 0.47606
# Poissons Ratio (y) = 0.21319 0.32693
# Poissons Ratio (z) = 0.11449 0.14522
#
# Static dielectric constant tensor:
#      x y z
#    x 1.849640 -0.013140 0.049930 
#    y -0.013140 2.037340 0.098430 
#    z 0.049930 0.098430 2.273120 
# 
# From -- ./inp_files/403055.got.cif
#   From: 2010.05.17/outbox.cif.g08.bks.cpg/sg2_202_cif.got.tgz:403055.got - 2010.06.03 11:33:40.
