data_PCOD9042059
_publ_section_title
;
Structure prediction by ZEFSAII (Michael W. Deem and Ramdas Pophale) SiO2 
 PCOD9042059
Probable space group: P -1
;
_chemical_formula_sum "Si O2"
_cell_formula_units_Z 16
_cell_length_a 24.075226
_cell_length_b 19.468721
_cell_length_c 7.858173
_cell_angle_alpha 30.999378
_cell_angle_beta 34.179761
_cell_angle_gamma 21.772748
_cell_volume 694.155532
_symmetry_space_group_name_H-M "P -1"
_symmetry_group_IT_number 2
_symmetry_cell_setting 'triclinic'
loop_
_space_group_symop_operation_xyz
x,y,z
-x,-y,-z
loop_
_atom_site_type_symbol
_atom_site_label
_atom_site_fract_x
_atom_site_fract_y
_atom_site_fract_z
Si Si1 0.695821 0.078277 0.440562
Si Si2 0.926636 0.400576 0.225126
Si Si3 0.355055 0.555258 0.765395
Si Si4 0.123412 0.957373 0.668892
Si Si5 0.298275 0.343911 0.205010
Si Si6 0.980853 0.653243 0.498702
Si Si7 0.392927 0.367241 0.424814
Si Si8 0.562132 0.947433 0.198630
O O1 0.750168 0.130625 0.326791
O O2 0.535904 0.284026 0.331325
O O3 0.833793 0.899820 0.340975
O O4 0.664303 0.968972 0.845233
O O5 0.947585 0.388412 0.405335
O O6 0.771444 0.484617 0.391750
O O7 0.056717 0.166945 0.332068
O O8 0.935227 0.544236 0.840371
O O9 0.500000 0.500000 0.500000
O O10 0.199922 0.796983 0.664131
O O11 0.351620 0.442242 0.875268
O O12 0.366940 0.467879 0.100412
O O13 0.000000 0.000000 0.000000
O O14 0.116765 0.531416 0.278701
O O15 0.360005 0.199991 0.520419
O O16 0.392816 0.173062 0.183767
O O17 0.442402 0.165740 0.684016
#
# Coordination Sequence:
#
# PCOD9042059 Si02
#       8
#     2   2   2   2   2   2   2   2
#     4  11  22  34  61  86 120 151 187 234 302 343
#     4  10  18  33  58  86 112 144 197 236 278 336
#     4  11  22  38  59  82 115 156 199 238 275 334
#     4  11  21  37  59  85 109 155 204 234 270 332
#     4  10  19  35  58  86 117 145 198 240 277 336
#     4  10  17  33  58  85 113 146 183 242 289 334
#     4  11  21  38  57  89 122 147 185 246 290 342
#     4  10  19  34  59  89 115 150 184 236 297 351
#
# _framework density 23.049590999999999
#
# number of rings (size 3 to 8) (size 9 to 14) (size 15 to 20)
#    0.000    1.500    5.000    3.375    0.000    2.500 
#    0.000    0.625    2.750    1.500    0.000    0.000 
#    0.000    0.000    0.000    0.000    0.000    0.000 
#
# Total GULP energy -89465.989264 kJ/mol
# GULP energy per Si atom -5591.624329 kJ/mol
# Density = 2.299713 g / cm^3
# Si number density = 23.049591 Si / 1000 Ang^3
#
#
#
# Elastic Constant Matrix: (Units=GPa)
#
#
# Indices 1 2 3 4 5 6 
#
# 1 49.7327 12.2033 -5.0547 -2.8178 -10.4301 -16.2265
# 2 12.2033 124.6787 1.8782 3.7805 -3.0672 5.8209
# 3 -5.0547 1.8782 54.9535 7.6226 -16.2670 3.4075
# 4 -2.8178 3.7805 7.6226 41.5565 -5.2104 -11.3562
# 5 -10.4301 -3.0672 -16.2670 -5.2104 20.5871 3.3630
# 6 -16.2265 5.8209 3.4075 -11.3562 3.3630 40.4363
#
#
#
# Elastic Compliance Matrix: (Units=1/GPa)
#
#
# Indices 1 2 3 4 5 6 
#
# 1 0.030330 -0.003364 0.007182 0.006955 0.020288 0.012316
# 2 -0.003364 0.008535 -0.000365 -0.001847 -0.000697 -0.003008
# 3 0.007182 -0.000365 0.026425 -0.001774 0.024312 -0.001812
# 4 0.006955 -0.001847 -0.001774 0.028882 0.007408 0.010701
# 5 0.020288 -0.000697 0.024312 0.007408 0.079564 0.001656
# 6 0.012316 -0.003008 -0.001812 0.010701 0.001656 0.033126
#
#
# Mechanical properties :
#
#
# Convention : Reuss Voigt Hill
#
# Bulk Modulus (GPa) = 13.85078 27.49093 20.67086
# Shear Modulus (GPa) = 22.31949 35.20517 28.76233
#
# Velocity S-wave (km/s) = 3.11517 3.91239 3.53632
# Velocity P-wave (km/s) = 4.35445 5.68875 5.06572
#
# Compressibility (1/GPa) = 0.07219808
#
# Stress axis : x y z
#
# Youngs Moduli (GPa) = 32.97048 117.16933 37.84248
#
# Poissons Ratio (x) = 0.39411 -0.27179
# Poissons Ratio (y) = 0.11090 0.01380
# Poissons Ratio (z) = -0.23680 0.04271
#
# Static dielectric constant tensor:
#      x y z
#    x 1.933820 -0.013500 0.041750 
#    y -0.013500 1.919350 0.003950 
#    z 0.041750 0.003950 1.847530 
# 
# From -- ./inp_files/357711.got.cif
#   From: 2010.05.17/outbox.cif.g08.bks.cpg/sg2_179_cif.got.tgz:357711.got - 2010.06.03 11:33:40.
