data_PCOD9042277
_publ_section_title
;
Structure prediction by ZEFSAII (Michael W. Deem and Ramdas Pophale) SiO2 
 PCOD9042277
Probable space group: P -1
;
_chemical_formula_sum "Si O2"
_cell_formula_units_Z 15
_cell_length_a 8.506128
_cell_length_b 19.965400
_cell_length_c 10.847130
_cell_angle_alpha 32.362925
_cell_angle_beta 43.517447
_cell_angle_gamma 39.867801
_cell_volume 616.026555
_symmetry_space_group_name_H-M "P -1"
_symmetry_group_IT_number 2
_symmetry_cell_setting 'triclinic'
loop_
_space_group_symop_operation_xyz
x,y,z
-x,-y,-z
loop_
_atom_site_type_symbol
_atom_site_label
_atom_site_fract_x
_atom_site_fract_y
_atom_site_fract_z
Si Si1 0.500000 0.500000 0.500000
Si Si2 0.710217 0.916797 0.607348
Si Si3 0.628165 0.854082 0.012449
Si Si4 0.874092 0.368844 0.902491
Si Si5 0.742662 0.629431 0.962769
Si Si6 0.117736 0.012415 0.148049
Si Si7 0.026047 0.716593 0.304466
Si Si8 0.571839 0.672479 0.712753
O O1 0.198523 0.612350 0.471496
O O2 0.418798 0.410526 0.784906
O O3 0.602316 0.935856 0.775202
O O4 0.796268 0.757583 0.774650
O O5 0.927267 0.967483 0.394235
O O6 0.500000 0.000000 0.500000
O O7 0.758377 0.915441 0.942035
O O8 0.351535 0.878962 0.171376
O O9 0.832392 0.697059 0.125104
O O10 0.883871 0.356453 0.767478
O O11 0.717331 0.523935 0.794867
O O12 0.728081 0.287431 0.181609
O O13 0.613250 0.662958 0.850485
O O14 0.000000 0.500000 0.000000
O O15 0.973625 0.132613 0.943358
O O16 0.730700 0.749672 0.445127
#
# Coordination Sequence:
#
# PCOD9042277 Si02
#       8
#     1   2   2   2   2   2   2   2
#     4  12  24  42  70 100 146 182 236 286 370 430
#     4  12  28  46  74 106 150 191 242 299 369 436
#     4  10  24  46  76 103 141 191 247 300 354 428
#     4  10  23  44  70 105 140 186 247 303 358 430
#     4  12  26  46  69 105 142 193 233 302 366 435
#     4  10  25  49  73 107 140 196 244 298 360 430
#     4  11  23  42  73 102 144 184 235 305 358 433
#     4  11  23  43  70 101 141 189 241 296 366 426
#
# _framework density 24.349599000000001
#
# number of rings (size 3 to 8) (size 9 to 14) (size 15 to 20)
#    0.000    1.067    2.667    2.400    3.733    4.800 
#    0.000    0.000    0.000    0.000    0.000    0.000 
#    0.000    0.000    0.000    0.000    0.000    0.000 
#
# Total GULP energy -83690.808157 kJ/mol
# GULP energy per Si atom -5579.387210 kJ/mol
# Density = 2.429418 g / cm^3
# Si number density = 24.349599 Si / 1000 Ang^3
#
#
#
# Elastic Constant Matrix: (Units=GPa)
#
#
# Indices 1 2 3 4 5 6 
#
# 1 43.0020 -16.3188 -39.1901 -18.4041 25.8790 10.2908
# 2 -16.3188 50.6372 -47.9889 -25.7740 1.1094 26.3184
# 3 -39.1901 -47.9889 0.1042 -20.8179 7.5844 59.2199
# 4 -18.4041 -25.7740 -20.8179 31.4733 -3.5291 18.9563
# 5 25.8790 1.1094 7.5844 -3.5291 29.0229 -3.0254
# 6 10.2908 26.3184 59.2199 18.9563 -3.0254 -6.8445
#
#
#
# Elastic Compliance Matrix: (Units=1/GPa)
#
#
# Indices 1 2 3 4 5 6 
#
# 1 0.028887 -0.002966 -0.002266 -0.001234 -0.023195 0.019254
# 2 -0.002966 0.011682 -0.003993 0.001200 0.004159 0.007400
# 3 -0.002266 -0.003993 0.005476 -0.006692 0.000937 0.009669
# 4 -0.001234 0.001200 -0.006692 0.023714 0.006486 0.007674
# 5 -0.023195 0.004159 0.000937 0.006486 0.053793 -0.016591
# 6 0.019254 0.007400 0.009669 0.007674 -0.016591 0.023544
#
#
# Mechanical properties :
#
#
# Convention : Reuss Voigt Hill
#
# Bulk Modulus (GPa) = 36.23861 -12.58357 11.82752
# Shear Modulus (GPa) = 28.61315 23.87974 26.24645
#
# Velocity S-wave (km/s) = 3.43169 3.13502 3.28670
# Velocity P-wave (km/s) = 5.53326 2.81520 4.38989
#
# Compressibility (1/GPa) = 0.02759488
#
# Stress axis : x y z
#
# Youngs Moduli (GPa) = 34.61761 85.60084 182.62484
#
# Poissons Ratio (x) = 0.25386 0.41391
# Poissons Ratio (y) = 0.10266 0.72920
# Poissons Ratio (z) = 0.07846 0.34179
#
# Static dielectric constant tensor:
#      x y z
#    x 1.992080 0.007190 -0.035930 
#    y 0.007190 2.307980 -0.078320 
#    z -0.035930 -0.078320 1.953120 
# 
# From -- ./inp_files/404431.got.cif
#   From: 2010.05.17/outbox.cif.g08.bks.cpg/sg2_203_cif.got.tgz:404431.got - 2010.06.03 11:33:40.
