data_PCOD9042042
_publ_section_title
;
Structure prediction by ZEFSAII (Michael W. Deem and Ramdas Pophale) SiO2 
 PCOD9042042
Probable space group: P -1
;
_chemical_formula_sum "Si O2"
_cell_formula_units_Z 16
_cell_length_a 21.662923
_cell_length_b 9.415842
_cell_length_c 12.772468
_cell_angle_alpha 47.747583
_cell_angle_beta 26.025928
_cell_angle_gamma 34.900889
_cell_volume 632.042325
_symmetry_space_group_name_H-M "P -1"
_symmetry_group_IT_number 2
_symmetry_cell_setting 'triclinic'
loop_
_space_group_symop_operation_xyz
x,y,z
-x,-y,-z
loop_
_atom_site_type_symbol
_atom_site_label
_atom_site_fract_x
_atom_site_fract_y
_atom_site_fract_z
Si Si1 0.253537 0.527682 0.973848
Si Si2 0.672924 0.152676 0.348533
Si Si3 0.612746 0.583375 0.851720
Si Si4 0.210202 0.309051 0.319443
Si Si5 0.783979 0.760172 0.198725
Si Si6 0.841800 0.052493 0.365283
Si Si7 0.640388 0.488092 0.625829
Si Si8 0.344833 0.141079 0.886971
O O1 0.329659 0.313178 0.050111
O O2 0.064312 0.810017 0.156594
O O3 0.395668 0.575165 0.718211
O O4 0.193811 0.425648 0.027180
O O5 0.512429 0.146687 0.625490
O O6 0.766148 0.954794 0.208029
O O7 0.797662 0.096652 0.286956
O O8 0.762840 0.589840 0.669564
O O9 0.702894 0.427768 0.682682
O O10 0.431133 0.881046 0.946981
O O11 0.546483 0.474981 0.086383
O O12 0.258592 0.048461 0.392198
O O13 0.000000 0.500000 0.500000
O O14 0.650925 0.703782 0.470236
O O15 0.727974 0.852811 0.118498
O O16 0.000000 0.500000 0.000000
O O17 0.767696 0.280982 0.443371
#
# Coordination Sequence:
#
# PCOD9042042 Si02
#       8
#     2   2   2   2   2   2   2   2
#     4  11  25  40  67 102 135 182 225 284 349 408
#     4  12  24  42  68 102 137 178 236 287 343 412
#     4  11  25  46  71 105 143 182 235 291 345 420
#     4  10  23  44  69 100 139 183 229 285 344 413
#     4  12  26  47  70  99 144 187 231 286 351 420
#     4  11  22  45  68 101 140 177 233 284 348 414
#     4  11  25  44  74 102 140 188 233 289 353 409
#     4  12  25  44  68 103 136 182 231 288 352 411
#
# _framework density 25.31476
#
# number of rings (size 3 to 8) (size 9 to 14) (size 15 to 20)
#    0.000    0.750    2.500    4.125    3.500    3.000 
#    0.000    3.125    0.000    0.000    0.000    0.000 
#    0.000    0.000    0.000    0.000    0.000    0.000 
#
# Total GULP energy -89372.400473 kJ/mol
# GULP energy per Si atom -5585.775030 kJ/mol
# Density = 2.525714 g / cm^3
# Si number density = 25.314760 Si / 1000 Ang^3
#
#
#
# Elastic Constant Matrix: (Units=GPa)
#
#
# Indices 1 2 3 4 5 6 
#
# 1 138.7925 66.8560 22.4501 14.2652 8.0611 32.2636
# 2 66.8560 109.4089 50.7564 -17.1085 1.4909 39.0393
# 3 22.4501 50.7564 88.6824 -19.1374 -0.8670 2.6161
# 4 14.2652 -17.1085 -19.1374 59.3237 -2.1529 3.0209
# 5 8.0611 1.4909 -0.8670 -2.1529 41.0888 7.0815
# 6 32.2636 39.0393 2.6161 3.0209 7.0815 51.4065
#
#
#
# Elastic Compliance Matrix: (Units=1/GPa)
#
#
# Indices 1 2 3 4 5 6 
#
# 1 0.011731 -0.007803 0.000430 -0.004965 -0.002119 -0.000875
# 2 -0.007803 0.024736 -0.010326 0.006518 0.003202 -0.014186
# 3 0.000430 -0.010326 0.017345 0.002164 -0.000370 0.006613
# 4 -0.004965 0.006518 0.002164 0.020897 0.002484 -0.003514
# 5 -0.002119 0.003202 -0.000370 0.002484 0.025578 -0.004753
# 6 -0.000875 -0.014186 0.006613 -0.003514 -0.004753 0.031300
#
#
# Mechanical properties :
#
#
# Convention : Reuss Voigt Hill
#
# Bulk Modulus (GPa) = 54.30440 68.55654 61.43047
# Shear Modulus (GPa) = 28.88102 43.48524 36.18313
#
# Velocity S-wave (km/s) = 3.38135 4.14911 3.78475
# Velocity P-wave (km/s) = 6.06160 7.07771 6.58927
#
# Compressibility (1/GPa) = 0.01841471
#
# Stress axis : x y z
#
# Youngs Moduli (GPa) = 85.24463 40.42683 57.65203
#
# Poissons Ratio (x) = 0.31546 -0.02479
# Poissons Ratio (y) = 0.66518 0.59530
# Poissons Ratio (z) = -0.03666 0.41744
#
# Static dielectric constant tensor:
#      x y z
#    x 2.092970 0.046460 0.116460 
#    y 0.046460 2.046770 0.044990 
#    z 0.116460 0.044990 2.279890 
# 
# From -- ./inp_files/469816.got.cif
#   From: 2010.05.17/outbox.cif.g08.bks.cpg/sg2_235_cif.got.tgz:469816.got - 2010.06.03 11:33:40.
