data_PCOD9042254
_publ_section_title
;
Structure prediction by ZEFSAII (Michael W. Deem and Ramdas Pophale) SiO2 
 PCOD9042254
Probable space group: P -1
;
_chemical_formula_sum "Si O2"
_cell_formula_units_Z 14
_cell_length_a 5.107957
_cell_length_b 11.714093
_cell_length_c 9.169360
_cell_angle_alpha 85.187127
_cell_angle_beta 101.929923
_cell_angle_gamma 104.043560
_cell_volume 520.425991
_symmetry_space_group_name_H-M "P -1"
_symmetry_group_IT_number 2
_symmetry_cell_setting 'triclinic'
loop_
_space_group_symop_operation_xyz
x,y,z
-x,-y,-z
loop_
_atom_site_type_symbol
_atom_site_label
_atom_site_fract_x
_atom_site_fract_y
_atom_site_fract_z
Si Si1 0.012435 0.734149 0.586158
Si Si2 0.771197 0.487797 0.661389
Si Si3 0.670256 0.219787 0.658698
Si Si4 0.399521 0.190186 0.245982
Si Si5 0.399201 0.031572 0.820232
Si Si6 0.891694 0.804248 0.091303
Si Si7 0.666420 0.542968 0.159714
O O1 0.132670 0.800336 0.445985
O O2 0.289461 0.730319 0.710436
O O3 0.870630 0.596513 0.553209
O O4 0.798254 0.790297 0.646218
O O5 0.661559 0.353511 0.614334
O O6 0.530456 0.515985 0.727599
O O7 0.032794 0.481665 0.793035
O O8 0.410727 0.118372 0.667732
O O9 0.796817 0.202855 0.838091
O O10 0.490133 0.068745 0.242695
O O11 0.220143 0.209150 0.083040
O O12 0.137361 0.074240 0.855022
O O13 0.500000 0.000000 0.000000
O O14 0.717185 0.685322 0.160895
O O15 0.500000 0.500000 0.000000
#
# Coordination Sequence:
#
# PCOD9042254 Si02
#       7
#     2   2   2   2   2   2   2
#     4  12  27  47  68 107 146 183 227 288 353 412
#     4  11  23  42  66 100 140 183 223 278 347 422
#     4  11  26  44  75 102 139 185 237 282 350 419
#     4  11  28  45  73 100 145 184 233 289 349 406
#     4  10  24  46  73  99 138 184 239 287 346 407
#     4  10  23  44  70 103 136 183 237 284 342 417
#     4  11  21  37  66 103 137 177 226 284 342 404
#
# _framework density 26.901036999999999
#
# number of rings (size 3 to 8) (size 9 to 14) (size 15 to 20)
#    0.000    1.143    1.429    3.429    8.000    3.429 
#    0.000    3.571    0.000    0.000    0.000    0.000 
#    0.000    0.000    0.000    0.000    0.000    0.000 
#
# Total GULP energy -78016.337245 kJ/mol
# GULP energy per Si atom -5572.595518 kJ/mol
# Density = 2.683981 g / cm^3
# Si number density = 26.901037 Si / 1000 Ang^3
#
#
#
# Elastic Constant Matrix: (Units=GPa)
#
#
# Indices 1 2 3 4 5 6 
#
# 1 160.3559 83.6968 23.3278 5.4900 14.0991 4.0513
# 2 83.6968 137.3749 27.5299 -3.8765 -13.0247 17.5391
# 3 23.3278 27.5299 116.8118 -7.6857 -9.4547 -11.9489
# 4 5.4900 -3.8765 -7.6857 34.2606 0.3915 -20.3357
# 5 14.0991 -13.0247 -9.4547 0.3915 66.5301 -3.1798
# 6 4.0513 17.5391 -11.9489 -20.3357 -3.1798 62.2261
#
#
#
# Elastic Compliance Matrix: (Units=1/GPa)
#
#
# Indices 1 2 3 4 5 6 
#
# 1 0.010088 -0.006346 -0.000978 -0.002556 -0.003508 -0.000070
# 2 -0.006346 0.012196 -0.001647 0.000134 0.003348 -0.003126
# 3 -0.000978 -0.001647 0.009974 0.004573 0.001467 0.004013
# 4 -0.002556 0.000134 0.004573 0.038792 0.001647 0.013768
# 5 -0.003508 0.003348 0.001467 0.001647 0.016674 0.000957
# 6 -0.000070 -0.003126 0.004013 0.013768 0.000957 0.022275
#
#
# Mechanical properties :
#
#
# Convention : Reuss Voigt Hill
#
# Bulk Modulus (GPa) = 69.85105 75.96128 72.90617
# Shear Modulus (GPa) = 37.67462 51.26923 44.47193
#
# Velocity S-wave (km/s) = 3.74637 4.37034 4.07033
# Velocity P-wave (km/s) = 6.68850 7.33247 7.01787
#
# Compressibility (1/GPa) = 0.01431618
#
# Stress axis : x y z
#
# Youngs Moduli (GPa) = 99.12312 81.99318 100.25645
#
# Poissons Ratio (x) = 0.52034 0.09809
# Poissons Ratio (y) = 0.62905 0.16512
# Poissons Ratio (z) = 0.09698 0.13504
#
# Static dielectric constant tensor:
#      x y z
#    x 1.861180 -0.232700 0.057320 
#    y -0.232700 1.826370 0.022850 
#    z 0.057320 0.022850 2.113750 
# 
# From -- ./inp_files/26964.got.cif
#   From: 2010.05.17/outbox.cif.g08.bks.cpg/sg2_14_cif.got.tgz:26964.got - 2010.06.03 11:33:40.
