data_PCOD9042607
_publ_section_title
;
Structure prediction by ZEFSAII (Michael W. Deem and Ramdas Pophale) SiO2 
 PCOD9042607
Probable space group: P -1
;
_chemical_formula_sum "Si O2"
_cell_formula_units_Z 16
_cell_length_a 14.926304
_cell_length_b 9.787589
_cell_length_c 8.227557
_cell_angle_alpha 63.615511
_cell_angle_beta 110.599929
_cell_angle_gamma 143.500438
_cell_volume 640.451755
_symmetry_space_group_name_H-M "P -1"
_symmetry_group_IT_number 2
_symmetry_cell_setting 'triclinic'
loop_
_space_group_symop_operation_xyz
x,y,z
-x,-y,-z
loop_
_atom_site_type_symbol
_atom_site_label
_atom_site_fract_x
_atom_site_fract_y
_atom_site_fract_z
Si Si1 0.820562 0.537479 0.880865
Si Si2 0.723562 0.979014 0.909420
Si Si3 0.049051 0.475099 0.337242
Si Si4 0.798015 0.844762 0.774136
Si Si5 0.556399 0.722539 0.496563
Si Si6 0.096480 0.354877 0.761497
Si Si7 0.441965 0.771842 0.671514
Si Si8 0.274761 0.883479 0.834286
O O1 0.924237 0.665169 0.043814
O O2 0.710171 0.260191 0.993266
O O3 0.896981 0.582333 0.735274
O O4 0.754547 0.625694 0.796955
O O5 0.843368 0.244966 0.765240
O O6 0.737870 0.829681 0.918490
O O7 0.564042 0.860562 0.829779
O O8 0.745977 0.013916 0.096342
O O9 0.062991 0.431259 0.551422
O O10 0.879450 0.308247 0.265709
O O11 0.718022 0.873665 0.596341
O O12 0.978466 0.079413 0.775571
O O13 0.500000 0.500000 0.500000
O O14 0.445016 0.647144 0.600356
O O15 0.587998 0.899706 0.302689
O O16 0.276995 0.571430 0.747026
O O17 0.500000 0.000000 0.500000
#
# Coordination Sequence:
#
# PCOD9042607 Si02
#       8
#     2   2   2   2   2   2   2   2
#     4  11  26  43  70 110 140 177 241 293 348 419
#     4  10  23  44  73 102 146 179 237 296 350 420
#     4  11  23  43  73 108 140 185 240 293 347 422
#     4  11  25  46  69 105 141 182 233 297 351 419
#     4  11  27  45  70 100 145 181 233 288 353 421
#     4  12  24  43  74 101 145 187 233 290 359 408
#     4  11  24  44  67 105 139 187 233 284 352 422
#     4  11  23  47  73 105 135 191 236 290 351 419
#
# _framework density 24.982365999999999
#
# number of rings (size 3 to 8) (size 9 to 14) (size 15 to 20)
#    0.000    1.000    2.500    4.125    3.500    4.500 
#    0.000    5.000    0.000    0.000    0.000    0.000 
#    0.000    0.000    0.000    0.000    0.000    0.000 
#
# Total GULP energy -89437.549926 kJ/mol
# GULP energy per Si atom -5589.846870 kJ/mol
# Density = 2.492550 g / cm^3
# Si number density = 24.982366 Si / 1000 Ang^3
#
#
#
# Elastic Constant Matrix: (Units=GPa)
#
#
# Indices 1 2 3 4 5 6 
#
# 1 113.2936 39.6386 31.7525 2.9605 1.0896 -17.3124
# 2 39.6386 74.5594 -2.0349 16.3823 -9.2046 0.9421
# 3 31.7525 -2.0349 86.0259 10.0198 -14.3527 -0.6500
# 4 2.9605 16.3823 10.0198 30.7107 -10.1515 2.3996
# 5 1.0896 -9.2046 -14.3527 -10.1515 36.1038 9.0195
# 6 -17.3124 0.9421 -0.6500 2.3996 9.0195 54.7404
#
#
#
# Elastic Compliance Matrix: (Units=1/GPa)
#
#
# Indices 1 2 3 4 5 6 
#
# 1 0.015182 -0.009927 -0.007272 0.003677 -0.006285 0.005761
# 2 -0.009927 0.022015 0.006462 -0.010405 0.006572 -0.004068
# 3 -0.007272 0.006462 0.016335 -0.005280 0.007689 -0.003253
# 4 0.003677 -0.010405 -0.005280 0.042070 0.007413 -0.001786
# 5 -0.006285 0.006572 0.007689 0.007413 0.036802 -0.008398
# 6 0.005761 -0.004068 -0.003253 -0.001786 -0.008398 0.021583
#
#
# Mechanical properties :
#
#
# Convention : Reuss Voigt Hill
#
# Bulk Modulus (GPa) = 31.19234 45.84347 38.51790
# Shear Modulus (GPa) = 26.86056 37.94584 32.40320
#
# Velocity S-wave (km/s) = 3.28255 3.90154 3.60536
# Velocity P-wave (km/s) = 5.18457 6.21982 5.72564
#
# Compressibility (1/GPa) = 0.03205915
#
# Stress axis : x y z
#
# Youngs Moduli (GPa) = 65.86554 45.42413 61.21980
#
# Poissons Ratio (x) = 0.45091 0.44519
# Poissons Ratio (y) = 0.65382 -0.39562
# Poissons Ratio (z) = 0.47898 -0.29354
#
# Static dielectric constant tensor:
#      x y z
#    x 2.062950 -0.028540 0.034790 
#    y -0.028540 1.963870 -0.012400 
#    z 0.034790 -0.012400 1.994600 
# 
# From -- ./inp_files/297970.got.cif
#   From: 2010.05.17/outbox.cif.g08.bks.cpg/sg2_149_cif.got.tgz:297970.got - 2010.06.03 11:33:40.
