data_PCOD9042976
_publ_section_title
;
Structure prediction by ZEFSAII (Michael W. Deem and Ramdas Pophale) SiO2 
 PCOD9042976
Probable space group: P -1
;
_chemical_formula_sum "Si O2"
_cell_formula_units_Z 16
_cell_length_a 9.075001
_cell_length_b 12.676923
_cell_length_c 14.936276
_cell_angle_alpha 67.327945
_cell_angle_beta 30.305659
_cell_angle_gamma 57.640134
_cell_volume 720.493064
_symmetry_space_group_name_H-M "P -1"
_symmetry_group_IT_number 2
_symmetry_cell_setting 'triclinic'
loop_
_space_group_symop_operation_xyz
x,y,z
-x,-y,-z
loop_
_atom_site_type_symbol
_atom_site_label
_atom_site_fract_x
_atom_site_fract_y
_atom_site_fract_z
Si Si1 0.225507 0.651223 0.466833
Si Si2 0.677618 0.784667 0.952691
Si Si3 0.315557 0.218712 0.522328
Si Si4 0.147170 0.852725 0.586118
Si Si5 0.062891 0.883641 0.347170
Si Si6 0.670970 0.352960 0.928906
Si Si7 0.548180 0.667141 0.769884
Si Si8 0.773611 0.432695 0.163291
O O1 0.282417 0.734154 0.487122
O O2 0.185640 0.745580 0.373501
O O3 0.523095 0.515481 0.343192
O O4 0.897112 0.631595 0.644990
O O5 0.808342 0.852385 0.791078
O O6 0.977043 0.704083 0.887151
O O7 0.372228 0.881192 0.135820
O O8 0.556117 0.689575 0.998799
O O9 0.611520 0.178601 0.447023
O O10 0.422321 0.258728 0.358979
O O11 0.196559 0.113664 0.590078
O O12 0.000060 0.318453 0.711023
O O13 0.085529 0.996373 0.549049
O O14 0.500000 0.500000 0.000000
O O15 0.703302 0.280606 0.031987
O O16 0.444269 0.568156 0.806617
O O17 0.000000 0.500000 0.000000
#
# Coordination Sequence:
#
# PCOD9042976 Si02
#       8
#     2   2   2   2   2   2   2   2
#     4  11  25  41  68  96 130 172 218 269 333 388
#     4  11  23  42  64  99 127 170 216 266 332 389
#     4  10  25  42  68  97 129 175 220 270 328 387
#     4  12  23  43  67  96 132 167 226 272 316 396
#     4  10  23  45  67  91 130 179 214 267 333 382
#     4  11  25  40  66  97 138 172 212 269 337 394
#     4  11  24  44  64  95 140 171 213 268 334 398
#     4  12  24  41  68  97 133 168 217 274 327 398
#
# _framework density 22.207014000000001
#
# number of rings (size 3 to 8) (size 9 to 14) (size 15 to 20)
#    0.000    1.000    3.750    2.250    8.750    0.500 
#    0.000    0.000    0.000    3.750    0.000    0.000 
#    0.000    0.000    0.000    0.000    0.000    0.000 
#
# Total GULP energy -89199.875062 kJ/mol
# GULP energy per Si atom -5574.992191 kJ/mol
# Density = 2.215647 g / cm^3
# Si number density = 22.207014 Si / 1000 Ang^3
#
#
#
# Elastic Constant Matrix: (Units=GPa)
#
#
# Indices 1 2 3 4 5 6 
#
# 1 -7.6127 20.5061 58.4712 138.2633 34.2775 72.3382
# 2 20.5061 57.6287 11.3834 19.9463 -10.2892 33.9268
# 3 58.4712 11.3834 41.5706 -36.2418 -5.4448 -12.6024
# 4 138.2633 19.9463 -36.2418 -111.8374 -23.1140 -45.1369
# 5 34.2775 -10.2892 -5.4448 -23.1140 27.7279 -19.0538
# 6 72.3382 33.9268 -12.6024 -45.1369 -19.0538 14.7188
#
#
#
# Elastic Compliance Matrix: (Units=1/GPa)
#
#
# Indices 1 2 3 4 5 6 
#
# 1 0.008368 -0.007233 -0.001313 0.010325 -0.004524 0.000226
# 2 -0.007233 0.031881 -0.000769 0.002381 0.009936 -0.018436
# 3 -0.001313 -0.000769 0.019231 -0.007561 -0.001422 -0.000339
# 4 0.010325 0.002381 -0.007561 0.018690 -0.013465 -0.022819
# 5 -0.004524 0.009936 -0.001422 -0.013465 0.037759 0.005702
# 6 0.000226 -0.018436 -0.000339 -0.022819 0.005702 0.046437
#
#
# Mechanical properties :
#
#
# Convention : Reuss Voigt Hill
#
# Bulk Modulus (GPa) = 24.47850 30.25644 27.36747
# Shear Modulus (GPa) = 25.69203 -13.79641 5.94781
#
# Velocity S-wave (km/s) = 3.40506 -2.49522 1.63834
# Velocity P-wave (km/s) = 5.14840 2.31361 3.99117
#
# Compressibility (1/GPa) = 0.04085217
#
# Stress axis : x y z
#
# Youngs Moduli (GPa) = 119.50339 31.36626 51.99866
#
# Poissons Ratio (x) = 0.22686 0.06825
# Poissons Ratio (y) = 0.86432 0.03999
# Poissons Ratio (z) = 0.15685 0.02413
#
# Static dielectric constant tensor:
#      x y z
#    x 1.843560 -0.013000 0.055160 
#    y -0.013000 1.869980 -0.026910 
#    z 0.055160 -0.026910 1.849050 
# 
# From -- ./inp_files/184821.got.cif
#   From: 2010.05.17/outbox.cif.g08.bks.cpg/sg2_93_cif.got.tgz:184821.got - 2010.06.03 11:33:40.
