data_PCOD9042519
_publ_section_title
;
Structure prediction by ZEFSAII (Michael W. Deem and Ramdas Pophale) SiO2 
 PCOD9042519
Probable space group: P -1
;
_chemical_formula_sum "Si O2"
_cell_formula_units_Z 16
_cell_length_a 8.941273
_cell_length_b 9.074809
_cell_length_c 18.430514
_cell_angle_alpha 124.585905
_cell_angle_beta 43.147426
_cell_angle_gamma 97.923415
_cell_volume 733.613869
_symmetry_space_group_name_H-M "P -1"
_symmetry_group_IT_number 2
_symmetry_cell_setting 'triclinic'
loop_
_space_group_symop_operation_xyz
x,y,z
-x,-y,-z
loop_
_atom_site_type_symbol
_atom_site_label
_atom_site_fract_x
_atom_site_fract_y
_atom_site_fract_z
Si Si1 0.459492 0.267022 0.853265
Si Si2 0.354864 0.640144 0.488022
Si Si3 0.759795 0.225198 0.273652
Si Si4 0.658380 0.278447 0.975791
Si Si5 0.032150 0.993797 0.350973
Si Si6 0.209653 0.261199 0.657192
Si Si7 0.205713 0.268786 0.089721
Si Si8 0.838570 0.810150 0.175593
O O1 0.743834 0.084353 0.692727
O O2 0.274243 0.303190 0.863073
O O3 0.460897 0.478229 0.929446
O O4 0.337555 0.214994 0.950033
O O5 0.548317 0.398520 0.345705
O O6 0.246811 0.674379 0.617152
O O7 0.530917 0.745750 0.453335
O O8 0.133930 0.768100 0.544987
O O9 0.037718 0.161743 0.130253
O O10 0.703393 0.042851 0.259339
O O11 0.818778 0.131127 0.810369
O O12 0.871269 0.243966 0.948683
O O13 0.427787 0.235288 0.057213
O O14 0.848178 0.902064 0.407341
O O15 0.197949 0.227640 0.738160
O O16 0.992999 0.488095 0.775774
#
# Coordination Sequence:
#
# PCOD9042519 Si02
#       8
#     2   2   2   2   2   2   2   2
#     4  11  20  35  56  83 119 142 172 228 275 323
#     4  10  20  37  59  79 105 144 188 237 263 304
#     4  10  22  36  55  85 111 138 189 226 269 324
#     4  10  18  34  57  85 110 135 186 226 265 320
#     4  10  17  33  59  84 100 140 188 225 269 311
#     4  10  18  34  60  82 105 138 191 229 263 313
#     4  10  19  35  58  83 112 144 176 229 267 322
#     4  11  22  34  54  88 113 145 177 217 281 334
#
# _framework density 21.809837999999999
#
# number of rings (size 3 to 8) (size 9 to 14) (size 15 to 20)
#    0.000    1.750    6.250    1.500    0.000    1.000 
#    0.000    1.250    0.000    0.000    0.000    0.000 
#    0.000    0.000    0.000    0.000    0.000    0.000 
#
# Total GULP energy -89192.882111 kJ/mol
# GULP energy per Si atom -5574.555132 kJ/mol
# Density = 2.176020 g / cm^3
# Si number density = 21.809838 Si / 1000 Ang^3
#
#
#
# Elastic Constant Matrix: (Units=GPa)
#
#
# Indices 1 2 3 4 5 6 
#
# 1 83.2463 2.5102 14.5445 10.5295 -23.7071 -6.2488
# 2 2.5102 94.8428 21.0824 8.7139 -10.5485 -4.5902
# 3 14.5445 21.0824 50.7340 0.0392 -29.5167 -4.5588
# 4 10.5295 8.7139 0.0392 34.1194 -8.5249 -5.7825
# 5 -23.7071 -10.5485 -29.5167 -8.5249 27.2573 11.9507
# 6 -6.2488 -4.5902 -4.5588 -5.7825 11.9507 15.1323
#
#
#
# Elastic Compliance Matrix: (Units=1/GPa)
#
#
# Indices 1 2 3 4 5 6 
#
# 1 0.024610 -0.002464 0.036837 0.006136 0.079907 -0.040249
# 2 -0.002464 0.013116 -0.017938 -0.006289 -0.024986 0.014886
# 3 0.036837 -0.017938 0.172190 0.039813 0.291115 -0.153049
# 4 0.006136 -0.006289 0.039813 0.042111 0.071279 -0.027580
# 5 0.079907 -0.024986 0.291115 0.071279 0.569824 -0.309659
# 6 -0.040249 0.014886 -0.153049 -0.027580 -0.309659 0.241884
#
#
# Mechanical properties :
#
#
# Convention : Reuss Voigt Hill
#
# Bulk Modulus (GPa) = 4.11888 33.89969 19.00928
# Shear Modulus (GPa) = 4.49724 28.01419 16.25571
#
# Velocity S-wave (km/s) = 1.43753 3.58785 2.73305
# Velocity P-wave (km/s) = 2.15592 5.72194 4.32369
#
# Compressibility (1/GPa) = 0.24278469
#
# Stress axis : x y z
#
# Youngs Moduli (GPa) = 40.63454 76.24474 5.80754
#
# Poissons Ratio (x) = 0.18788 -0.21393
# Poissons Ratio (y) = 0.10013 0.10418
# Poissons Ratio (z) = -1.49685 1.36767
#
# Static dielectric constant tensor:
#      x y z
#    x 1.843650 -0.019830 -0.018440 
#    y -0.019830 1.804800 0.033240 
#    z -0.018440 0.033240 1.866420 
# 
# From -- ./inp_files/179076.got.cif
#   From: 2010.05.17/outbox.cif.g08.bks.cpg/sg2_90_cif.got.tgz:179076.got - 2010.06.03 11:33:40.
