data_PCOD9042208
_publ_section_title
;
Structure prediction by ZEFSAII (Michael W. Deem and Ramdas Pophale) SiO2 
 PCOD9042208
Probable space group: P -1
;
_chemical_formula_sum "Si O2"
_cell_formula_units_Z 16
_cell_length_a 6.680344
_cell_length_b 11.926248
_cell_length_c 21.291440
_cell_angle_alpha 38.560040
_cell_angle_beta 46.456928
_cell_angle_gamma 52.393931
_cell_volume 756.776528
_symmetry_space_group_name_H-M "P -1"
_symmetry_group_IT_number 2
_symmetry_cell_setting 'triclinic'
loop_
_space_group_symop_operation_xyz
x,y,z
-x,-y,-z
loop_
_atom_site_type_symbol
_atom_site_label
_atom_site_fract_x
_atom_site_fract_y
_atom_site_fract_z
Si Si1 0.728102 0.262617 0.513668
Si Si2 0.359674 0.088794 0.586369
Si Si3 0.904650 0.264282 0.064907
Si Si4 0.222180 0.922539 0.215904
Si Si5 0.591534 0.519849 0.126207
Si Si6 0.636580 0.730657 0.621336
Si Si7 0.710285 0.416231 0.589119
Si Si8 0.729252 0.135210 0.026821
O O1 0.576904 0.101479 0.590278
O O2 0.716228 0.293838 0.577270
O O3 0.546364 0.432081 0.443141
O O4 0.051947 0.247485 0.434397
O O5 0.376893 0.242684 0.462224
O O6 0.052607 0.093564 0.677042
O O7 0.429687 0.900992 0.617738
O O8 0.685379 0.359367 0.123783
O O9 0.776718 0.228378 0.041804
O O10 0.080876 0.065417 0.131697
O O11 0.125412 0.404083 0.950686
O O12 0.339981 0.705716 0.285903
O O13 0.477965 0.018241 0.141584
O O14 0.454393 0.441370 0.250408
O O15 0.382930 0.693943 0.068721
O O16 0.000000 0.500000 0.500000
O O17 0.000000 0.000000 0.000000
#
# Coordination Sequence:
#
# PCOD9042208 Si02
#       8
#     2   2   2   2   2   2   2   2
#     4  11  23  39  61  97 134 179 222 261 329 407
#     4  11  23  43  63 103 137 176 216 275 338 398
#     4  10  23  47  72  93 132 174 233 281 334 404
#     4  11  23  42  68  94 133 177 217 270 344 396
#     4  10  23  44  70 101 127 181 223 280 342 387
#     4  11  23  41  68  98 142 170 224 278 327 399
#     4  11  23  41  62  92 136 175 223 266 330 405
#     4  11  27  47  67 103 130 175 231 284 340 400
#
# _framework density 21.142302999999998
#
# number of rings (size 3 to 8) (size 9 to 14) (size 15 to 20)
#    0.000    1.250    3.750    0.750    3.500    3.000 
#    9.000    0.000    0.000    0.000    0.000    0.000 
#    0.000    0.000    0.000    0.000    0.000    0.000 
#
# Total GULP energy -89133.269512 kJ/mol
# GULP energy per Si atom -5570.829345 kJ/mol
# Density = 2.109418 g / cm^3
# Si number density = 21.142303 Si / 1000 Ang^3
#
#
#
# Elastic Constant Matrix: (Units=GPa)
#
#
# Indices 1 2 3 4 5 6 
#
# 1 108.5416 4.0640 52.1574 5.7353 -5.8398 13.4593
# 2 4.0640 4.1251 5.2996 6.5324 3.6561 24.6613
# 3 52.1574 5.2996 125.3608 -6.1791 0.8214 13.8941
# 4 5.7353 6.5324 -6.1791 32.3605 -13.0558 2.1943
# 5 -5.8398 3.6561 0.8214 -13.0558 14.4214 -3.5907
# 6 13.4593 24.6613 13.8941 2.1943 -3.5907 24.7564
#
#
#
# Elastic Compliance Matrix: (Units=1/GPa)
#
#
# Indices 1 2 3 4 5 6 
#
# 1 0.012061 -0.001940 -0.004875 -0.000682 0.004752 -0.001139
# 2 -0.001940 -0.032411 -0.001318 0.017139 0.032296 0.037246
# 3 -0.004875 -0.001318 0.010467 0.003396 0.000298 -0.002169
# 4 -0.000682 0.017139 0.003396 0.040446 0.027260 -0.018239
# 5 0.004752 0.032296 0.000298 0.027260 0.081382 -0.025535
# 6 -0.001139 0.037246 -0.002169 -0.018239 -0.025535 0.003041
#
#
# Mechanical properties :
#
#
# Convention : Reuss Voigt Hill
#
# Bulk Modulus (GPa) = -38.24442 40.11883 0.93720
# Shear Modulus (GPa) = 40.80492 26.07476 33.43984
#
# Velocity S-wave (km/s) = 4.39796 3.51564 3.98132
# Velocity P-wave (km/s) = 2.76786 5.95789 4.64530
#
# Compressibility (1/GPa) = -0.02614760
#
# Stress axis : x y z
#
# Youngs Moduli (GPa) = 82.91132 -30.85355 95.54169
#
# Poissons Ratio (x) = -0.05985 0.46573
# Poissons Ratio (y) = 0.16083 0.12589
# Poissons Ratio (z) = 0.40416 -0.04065
#
# Static dielectric constant tensor:
#      x y z
#    x 1.586800 0.041470 0.082290 
#    y 0.041470 1.825340 -0.055960 
#    z 0.082290 -0.055960 1.752510 
# 
# From -- ./inp_files/583249.got.cif
#   From: 2010.05.17/outbox.cif.g08.bks.cpg/sg2_292_cif.got.tgz:583249.got - 2010.06.03 11:33:40.
