data_PCOD9042014
_publ_section_title
;
Structure prediction by ZEFSAII (Michael W. Deem and Ramdas Pophale) SiO2 
 PCOD9042014
Probable space group: P -1
;
_chemical_formula_sum "Si O2"
_cell_formula_units_Z 16
_cell_length_a 10.140390
_cell_length_b 8.670138
_cell_length_c 12.127037
_cell_angle_alpha 123.419292
_cell_angle_beta 50.749802
_cell_angle_gamma 116.612521
_cell_volume 680.926471
_symmetry_space_group_name_H-M "P -1"
_symmetry_group_IT_number 2
_symmetry_cell_setting 'triclinic'
loop_
_space_group_symop_operation_xyz
x,y,z
-x,-y,-z
loop_
_atom_site_type_symbol
_atom_site_label
_atom_site_fract_x
_atom_site_fract_y
_atom_site_fract_z
Si Si1 0.549912 0.575754 0.624890
Si Si2 0.872455 0.119206 0.675399
Si Si3 0.928144 0.561756 0.444259
Si Si4 0.013045 0.103841 0.842011
Si Si5 0.982383 0.259067 0.146565
Si Si6 0.374788 0.309750 0.962012
Si Si7 0.416611 0.182936 0.649650
Si Si8 0.486769 0.972300 0.867502
O O1 0.500000 0.500000 0.500000
O O2 0.751133 0.647914 0.578714
O O3 0.503129 0.383885 0.640106
O O4 0.452602 0.752651 0.770354
O O5 0.670319 0.048933 0.743665
O O6 0.926072 0.308854 0.651898
O O7 0.912649 0.113228 0.783642
O O8 0.000000 0.000000 0.500000
O O9 0.000000 0.500000 0.500000
O O10 0.873793 0.387872 0.322309
O O11 0.212898 0.160817 0.722106
O O12 0.942891 0.225038 0.024783
O O13 0.024131 0.918826 0.838071
O O14 0.182048 0.351660 0.072648
O O15 0.428877 0.217386 0.785890
O O16 0.363018 0.125084 0.969869
O O17 0.500000 0.500000 0.000000
O O18 0.500000 0.000000 0.500000
O O19 0.500000 0.000000 0.000000
#
# Coordination Sequence:
#
# PCOD9042014 Si02
#       8
#     2   2   2   2   2   2   2   2
#     4  12  27  47  69 107 149 190 244 305 376 440
#     4  12  25  44  71 102 145 188 241 303 369 440
#     4  12  27  44  75 105 146 194 250 308 371 446
#     4  10  23  44  68  98 141 187 242 298 369 442
#     4  10  23  45  71 101 142 190 242 305 366 452
#     4  11  24  43  71 103 140 184 242 295 366 442
#     4  11  24  41  70  99 136 188 238 296 356 439
#     4  12  27  45  73 107 147 194 239 307 373 444
#
# _framework density 23.497395999999998
#
# number of rings (size 3 to 8) (size 9 to 14) (size 15 to 20)
#    0.000    0.750    1.250    5.250    7.000    4.500 
#    0.000    0.000    0.000    0.000    0.000    0.000 
#    0.000    0.000    0.000    0.000    0.000    0.000 
#
# Total GULP energy -89247.460849 kJ/mol
# GULP energy per Si atom -5577.966303 kJ/mol
# Density = 2.344392 g / cm^3
# Si number density = 23.497396 Si / 1000 Ang^3
#
#
#
# Elastic Constant Matrix: (Units=GPa)
#
#
# Indices 1 2 3 4 5 6 
#
# 1 88.2382 10.7419 27.0727 -0.8534 -0.5060 -7.6214
# 2 10.7419 104.6094 20.5162 -2.0279 -0.2685 -3.0440
# 3 27.0727 20.5162 109.6081 20.7833 5.5065 -11.4901
# 4 -0.8534 -2.0279 20.7833 51.6747 -3.7399 -0.0170
# 5 -0.5060 -0.2685 5.5065 -3.7399 47.6619 -19.0477
# 6 -7.6214 -3.0440 -11.4901 -0.0170 -19.0477 42.7146
#
#
#
# Elastic Compliance Matrix: (Units=1/GPa)
#
#
# Indices 1 2 3 4 5 6 
#
# 1 0.012565 -0.000581 -0.003153 0.001555 0.001408 0.001981
# 2 -0.000581 0.010036 -0.001957 0.001207 0.000493 0.000306
# 3 -0.003153 -0.001957 0.011430 -0.004795 -0.000966 0.001940
# 4 0.001555 0.001207 -0.004795 0.021521 0.002311 0.000113
# 5 0.001408 0.000493 -0.000966 0.002311 0.025922 0.011587
# 6 0.001981 0.000306 0.001940 0.000113 0.011587 0.029475
#
#
# Mechanical properties :
#
#
# Convention : Reuss Voigt Hill
#
# Bulk Modulus (GPa) = 44.14887 46.56860 45.35873
# Shear Modulus (GPa) = 38.49704 44.68523 41.59113
#
# Velocity S-wave (km/s) = 4.05205 4.36559 4.21174
# Velocity P-wave (km/s) = 6.38136 6.72851 6.55723
#
# Compressibility (1/GPa) = 0.02265064
#
# Stress axis : x y z
#
# Youngs Moduli (GPa) = 79.58486 99.63817 87.49272
#
# Poissons Ratio (x) = 0.05784 0.27585
# Poissons Ratio (y) = 0.04620 0.17121
# Poissons Ratio (z) = 0.25092 0.19497
#
# Static dielectric constant tensor:
#      x y z
#    x 1.912530 0.073450 -0.045200 
#    y 0.073450 1.959930 0.067600 
#    z -0.045200 0.067600 1.887820 
# 
# From -- ./inp_files/419917.got.cif
#   From: 2010.05.17/outbox.cif.g08.bks.cpg/sg2_210_cif.got.tgz:419917.got - 2010.06.03 11:33:40.
