data_PCOD9042315
_publ_section_title
;
Structure prediction by ZEFSAII (Michael W. Deem and Ramdas Pophale) SiO2 
 PCOD9042315
Probable space group: P -1
;
_chemical_formula_sum "Si O2"
_cell_formula_units_Z 16
_cell_length_a 7.148458
_cell_length_b 11.782304
_cell_length_c 9.065323
_cell_angle_alpha 61.185189
_cell_angle_beta 103.010109
_cell_angle_gamma 83.812588
_cell_volume 630.551812
_symmetry_space_group_name_H-M "P -1"
_symmetry_group_IT_number 2
_symmetry_cell_setting 'triclinic'
loop_
_space_group_symop_operation_xyz
x,y,z
-x,-y,-z
loop_
_atom_site_type_symbol
_atom_site_label
_atom_site_fract_x
_atom_site_fract_y
_atom_site_fract_z
Si Si1 0.425319 0.461841 0.855356
Si Si2 0.184552 0.063746 0.017803
Si Si3 0.680350 0.400390 0.681523
Si Si4 0.626315 0.887881 0.277498
Si Si5 0.230408 0.285282 0.087869
Si Si6 0.625960 0.087468 0.382583
Si Si7 0.202038 0.730701 0.502946
Si Si8 0.164220 0.354784 0.367445
O O1 0.585200 0.364830 0.838749
O O2 0.365728 0.602823 0.674112
O O3 0.500000 0.500000 0.000000
O O4 0.244505 0.398957 0.902504
O O5 0.134717 0.175642 0.066983
O O6 0.281200 0.010177 0.672897
O O7 0.746196 0.868952 0.158069
O O8 0.000000 0.000000 0.000000
O O9 0.500000 0.500000 0.500000
O O10 0.782975 0.283087 0.662148
O O11 0.819685 0.497534 0.685612
O O12 0.394404 0.958609 0.163913
O O13 0.646057 0.754302 0.461480
O O14 0.461915 0.210117 0.206401
O O15 0.147183 0.337305 0.199956
O O16 0.764195 0.140470 0.487290
O O17 0.500000 0.000000 0.500000
O O18 0.005889 0.693828 0.548864
#
# Coordination Sequence:
#
# PCOD9042315 Si02
#       8
#     2   2   2   2   2   2   2   2
#     4  11  21  45  70  96 136 183 238 288 356 410
#     4  10  25  48  69 106 142 188 241 287 362 418
#     4  10  23  44  70  95 138 181 238 287 350 420
#     4  10  25  45  72 100 148 184 234 296 350 425
#     4  11  23  43  73 101 140 184 233 295 350 425
#     4  11  22  42  71  98 135 184 236 279 351 420
#     4  11  26  41  69 108 139 184 236 292 355 426
#     4  12  24  44  69 107 143 179 236 291 361 425
#
# _framework density 25.374599
#
# number of rings (size 3 to 8) (size 9 to 14) (size 15 to 20)
#    0.000    1.250    3.750    1.125    5.250    3.000 
#    0.000    0.000    0.000    0.000    0.000    0.000 
#    0.000    0.000    0.000    0.000    0.000    0.000 
#
# Total GULP energy -89602.333978 kJ/mol
# GULP energy per Si atom -5600.145874 kJ/mol
# Density = 2.531684 g / cm^3
# Si number density = 25.374599 Si / 1000 Ang^3
#
#
#
# Elastic Constant Matrix: (Units=GPa)
#
#
# Indices 1 2 3 4 5 6 
#
# 1 99.0716 63.3867 36.0454 16.1497 -14.9188 26.8111
# 2 63.3867 181.8063 57.7524 31.5736 -10.8755 35.2910
# 3 36.0454 57.7524 125.4688 17.2634 -22.8901 4.5457
# 4 16.1497 31.5736 17.2634 46.6576 -4.9480 -4.4731
# 5 -14.9188 -10.8755 -22.8901 -4.9480 29.7274 -3.2587
# 6 26.8111 35.2910 4.5457 -4.4731 -3.2587 38.1466
#
#
#
# Elastic Compliance Matrix: (Units=1/GPa)
#
#
# Indices 1 2 3 4 5 6 
#
# 1 0.015888 -0.002336 -0.001929 -0.003623 0.004060 -0.008854
# 2 -0.002336 0.009627 -0.003044 -0.005504 -0.001754 -0.007697
# 3 -0.001929 -0.003044 0.011083 -0.000330 0.006769 0.003391
# 4 -0.003623 -0.005504 -0.000330 0.027782 0.001753 0.011085
# 5 0.004060 -0.001754 0.006769 0.001753 0.040719 0.001647
# 6 -0.008854 -0.007697 0.003391 0.011085 0.001647 0.040595
#
#
# Mechanical properties :
#
#
# Convention : Reuss Voigt Hill
#
# Bulk Modulus (GPa) = 45.49666 80.07953 62.78810
# Shear Modulus (GPa) = 29.82617 39.51713 34.67165
#
# Velocity S-wave (km/s) = 3.43218 3.95061 3.70048
# Velocity P-wave (km/s) = 5.80305 7.24135 6.56173
#
# Compressibility (1/GPa) = 0.02197963
#
# Stress axis : x y z
#
# Youngs Moduli (GPa) = 62.93970 103.87972 90.22891
#
# Poissons Ratio (x) = 0.24264 0.17409
# Poissons Ratio (y) = 0.14701 0.27465
# Poissons Ratio (z) = 0.12143 0.31620
#
# Static dielectric constant tensor:
#      x y z
#    x 2.117980 -0.058180 0.067740 
#    y -0.058180 2.040320 -0.021950 
#    z 0.067740 -0.021950 2.079120 
# 
# From -- ./inp_files/175214.got.cif
#   From: 2010.05.17/outbox.cif.g08.bks.cpg/sg2_88_cif.got.tgz:175214.got - 2010.06.03 11:33:40.
