data_PCOD9042829
_publ_section_title
;
Structure prediction by ZEFSAII (Michael W. Deem and Ramdas Pophale) SiO2 
 PCOD9042829
Probable space group: P -1
;
_chemical_formula_sum "Si O2"
_cell_formula_units_Z 16
_cell_length_a 5.250718
_cell_length_b 21.228320
_cell_length_c 7.826149
_cell_angle_alpha 45.006963
_cell_angle_beta 77.089003
_cell_angle_gamma 74.413051
_cell_volume 593.502880
_symmetry_space_group_name_H-M "P -1"
_symmetry_group_IT_number 2
_symmetry_cell_setting 'triclinic'
loop_
_space_group_symop_operation_xyz
x,y,z
-x,-y,-z
loop_
_atom_site_type_symbol
_atom_site_label
_atom_site_fract_x
_atom_site_fract_y
_atom_site_fract_z
Si Si1 0.707721 0.961716 0.839298
Si Si2 0.530180 0.853730 0.609658
Si Si3 0.667518 0.380324 0.577624
Si Si4 0.936537 0.692219 0.766823
Si Si5 0.735423 0.118109 0.738538
Si Si6 0.478084 0.394152 0.239925
Si Si7 0.817364 0.548758 0.287691
Si Si8 0.152516 0.817569 0.029867
O O1 0.515770 0.037534 0.614974
O O2 0.870613 0.024288 0.810233
O O3 0.535872 0.909127 0.089312
O O4 0.912044 0.887670 0.853052
O O5 0.812230 0.794937 0.634846
O O6 0.355002 0.826955 0.526293
O O7 0.407938 0.829899 0.854083
O O8 0.437843 0.375236 0.482516
O O9 0.808913 0.462245 0.334590
O O10 0.490956 0.412604 0.706940
O O11 0.854191 0.287974 0.764414
O O12 0.732701 0.646838 0.764937
O O13 0.230572 0.665329 0.707072
O O14 0.940640 0.633072 0.049125
O O15 0.848240 0.157363 0.815596
O O16 0.500000 0.500000 0.000000
O O17 0.000000 0.500000 0.500000
#
# Coordination Sequence:
#
# PCOD9042829 Si02
#       8
#     2   2   2   2   2   2   2   2
#     4   9  22  44  65  98 143 176 238 294 357 429
#     4  10  23  45  64 103 138 181 240 293 357 434
#     4  11  26  41  68 103 138 183 247 290 369 435
#     4  12  26  48  71 106 146 186 245 299 366 432
#     4   9  22  43  65  95 140 179 233 291 365 415
#     4  12  26  46  75 104 141 192 243 305 364 434
#     4  11  25  46  68  95 145 188 228 303 360 435
#     4  12  22  42  69 101 132 190 233 294 361 433
#
# _framework density 26.958586
#
# number of rings (size 3 to 8) (size 9 to 14) (size 15 to 20)
#    0.750    0.500    2.500    2.625    5.250    1.500 
#    4.500    0.000    0.000    0.000    0.000    0.000 
#    0.000    0.000    0.000    0.000    0.000    0.000 
#
# Total GULP energy -89367.098683 kJ/mol
# GULP energy per Si atom -5585.443668 kJ/mol
# Density = 2.689723 g / cm^3
# Si number density = 26.958586 Si / 1000 Ang^3
#
#
#
# Elastic Constant Matrix: (Units=GPa)
#
#
# Indices 1 2 3 4 5 6 
#
# 1 106.8133 48.0344 11.9819 -14.8241 16.1046 -10.6239
# 2 48.0344 165.7203 35.8808 -37.0820 13.0179 -27.4420
# 3 11.9819 35.8808 79.2185 -14.7088 22.6033 -0.5593
# 4 -14.8241 -37.0820 -14.7088 47.0406 -6.4342 7.8193
# 5 16.1046 13.0179 22.6033 -6.4342 28.6349 -0.2629
# 6 -10.6239 -27.4420 -0.5593 7.8193 -0.2629 44.1179
#
#
#
# Elastic Compliance Matrix: (Units=1/GPa)
#
#
# Indices 1 2 3 4 5 6 
#
# 1 0.011625 -0.002867 0.001477 0.000878 -0.006196 0.000843
# 2 -0.002867 0.009233 -0.003101 0.004849 0.000991 0.004160
# 3 0.001477 -0.003101 0.017929 0.002133 -0.013110 -0.001802
# 4 0.000878 0.004849 0.002133 0.026474 0.001554 -0.001428
# 5 -0.006196 0.000991 -0.013110 0.001554 0.048645 -0.001028
# 6 0.000843 0.004160 -0.001802 -0.001428 -0.001028 0.025681
#
#
# Mechanical properties :
#
#
# Convention : Reuss Voigt Hill
#
# Bulk Modulus (GPa) = 33.55174 60.39403 46.97289
# Shear Modulus (GPa) = 31.54498 41.01568 36.28033
#
# Velocity S-wave (km/s) = 3.42442 3.90479 3.67247
# Velocity P-wave (km/s) = 5.30172 6.54072 5.95354
#
# Compressibility (1/GPa) = 0.02980471
#
# Stress axis : x y z
#
# Youngs Moduli (GPa) = 86.01807 108.31099 55.77690
#
# Poissons Ratio (x) = 0.31050 -0.08238
# Poissons Ratio (y) = 0.24659 0.17297
# Poissons Ratio (z) = -0.12704 0.33589
#
# Static dielectric constant tensor:
#      x y z
#    x 2.252990 0.049970 -0.031290 
#    y 0.049970 2.176170 0.041600 
#    z -0.031290 0.041600 2.200290 
# 
# From -- ./inp_files/142231.got.cif
#   From: 2010.05.17/outbox.cif.g08.bks.cpg/sg2_72_cif.got.tgz:142231.got - 2010.06.03 11:33:40.
