data_PCOD9042399
_publ_section_title
;
Structure prediction by ZEFSAII (Michael W. Deem and Ramdas Pophale) SiO2 
 PCOD9042399
Probable space group: P -1
;
_chemical_formula_sum "Si O2"
_cell_formula_units_Z 16
_cell_length_a 23.521877
_cell_length_b 5.282282
_cell_length_c 11.131298
_cell_angle_alpha 82.605663
_cell_angle_beta 36.604750
_cell_angle_gamma 105.791141
_cell_volume 631.852787
_symmetry_space_group_name_H-M "P -1"
_symmetry_group_IT_number 2
_symmetry_cell_setting 'triclinic'
loop_
_space_group_symop_operation_xyz
x,y,z
-x,-y,-z
loop_
_atom_site_type_symbol
_atom_site_label
_atom_site_fract_x
_atom_site_fract_y
_atom_site_fract_z
Si Si1 0.906924 0.885077 0.774261
Si Si2 0.242498 0.989531 0.391834
Si Si3 0.028299 0.538528 0.199255
Si Si4 0.124910 0.055486 0.806008
Si Si5 0.667842 0.279477 0.105892
Si Si6 0.578864 0.810126 0.488289
Si Si7 0.664314 0.234708 0.552314
Si Si8 0.562733 0.835256 0.108624
O O1 0.928592 0.673520 0.833378
O O2 0.774110 0.639264 0.952883
O O3 0.000000 0.000000 0.500000
O O4 0.931259 0.186317 0.786316
O O5 0.120069 0.712144 0.543038
O O6 0.288458 0.838145 0.408336
O O7 0.193106 0.114872 0.561271
O O8 0.362833 0.245427 0.090635
O O9 0.083500 0.733533 0.967698
O O10 0.228192 0.382603 0.685251
O O11 0.000000 0.000000 0.000000
O O12 0.542604 0.226525 0.321417
O O13 0.662572 0.029310 0.221194
O O14 0.668930 0.174220 0.975499
O O15 0.525616 0.439140 0.622759
O O16 0.641117 0.005093 0.494728
O O17 0.535076 0.160871 0.797245
#
# Coordination Sequence:
#
# PCOD9042399 Si02
#       8
#     2   2   2   2   2   2   2   2
#     4  12  28  48  78 112 151 198 259 323 392 459
#     4  12  27  45  74 105 157 196 253 316 382 462
#     4  12  28  47  76 111 153 203 257 316 391 464
#     4  12  26  48  74 107 150 204 254 314 382 467
#     4  10  24  44  72 102 147 194 253 317 375 455
#     4  10  23  44  71 103 142 194 253 308 382 446
#     4  11  25  44  73 107 150 189 254 308 386 453
#     4  11  25  45  73 109 147 198 251 314 388 450
#
# _framework density 25.322357
#
# number of rings (size 3 to 8) (size 9 to 14) (size 15 to 20)
#    0.000    0.750    1.250    4.500    8.750    4.000 
#    0.000    0.000    0.000    0.000    0.000    0.000 
#    0.000    0.000    0.000    0.000    0.000    0.000 
#
# Total GULP energy -89672.430461 kJ/mol
# GULP energy per Si atom -5604.526904 kJ/mol
# Density = 2.526472 g / cm^3
# Si number density = 25.322357 Si / 1000 Ang^3
#
#
#
# Elastic Constant Matrix: (Units=GPa)
#
#
# Indices 1 2 3 4 5 6 
#
# 1 67.8449 19.3919 35.4862 -1.6053 -19.2420 -7.5901
# 2 19.3919 108.6126 35.9522 2.7075 -20.8148 12.3634
# 3 35.4862 35.9522 90.6192 12.5311 -22.6399 16.7848
# 4 -1.6053 2.7075 12.5311 44.2030 1.6539 -4.3482
# 5 -19.2420 -20.8148 -22.6399 1.6539 40.5827 -10.6214
# 6 -7.5901 12.3634 16.7848 -4.3482 -10.6214 33.4907
#
#
#
# Elastic Compliance Matrix: (Units=1/GPa)
#
#
# Indices 1 2 3 4 5 6 
#
# 1 0.024890 -0.001038 -0.010515 0.005067 0.009078 0.014831
# 2 -0.001038 0.011165 -0.002842 -0.000227 0.003144 -0.001965
# 3 -0.010515 -0.002842 0.019881 -0.007057 0.001896 -0.011612
# 4 0.005067 -0.000227 -0.007057 0.025622 -0.000628 0.007896
# 5 0.009078 0.003144 0.001896 -0.000628 0.034466 0.010796
# 6 0.014831 -0.001965 -0.011612 0.007896 0.010796 0.044214
#
#
# Mechanical properties :
#
#
# Convention : Reuss Voigt Hill
#
# Bulk Modulus (GPa) = 36.83890 49.85969 43.34929
# Shear Modulus (GPa) = 25.24278 35.40506 30.32392
#
# Velocity S-wave (km/s) = 3.16073 3.74327 3.46427
# Velocity P-wave (km/s) = 5.28203 6.19803 5.75827
#
# Compressibility (1/GPa) = 0.02714522
#
# Stress axis : x y z
#
# Youngs Moduli (GPa) = 40.17748 89.56553 50.29983
#
# Poissons Ratio (x) = 0.09298 0.52888
# Poissons Ratio (y) = 0.04171 0.14297
# Poissons Ratio (z) = 0.42245 0.25458
#
# Static dielectric constant tensor:
#      x y z
#    x 2.014430 0.028720 0.057340 
#    y 0.028720 2.011620 -0.001090 
#    z 0.057340 -0.001090 2.006980 
# 
# From -- ./inp_files/473412.got.cif
#   From: 2010.05.17/outbox.cif.g08.bks.cpg/sg2_237_cif.got.tgz:473412.got - 2010.06.03 11:33:40.
