data_PCOD9042009
_publ_section_title
;
Structure prediction by ZEFSAII (Michael W. Deem and Ramdas Pophale) SiO2 
 PCOD9042009
Probable space group: P -1
;
_chemical_formula_sum "Si O2"
_cell_formula_units_Z 14
_cell_length_a 9.143638
_cell_length_b 8.974034
_cell_length_c 9.165467
_cell_angle_alpha 115.575444
_cell_angle_beta 82.058023
_cell_angle_gamma 96.063316
_cell_volume 670.987992
_symmetry_space_group_name_H-M "P -1"
_symmetry_group_IT_number 2
_symmetry_cell_setting 'triclinic'
loop_
_space_group_symop_operation_xyz
x,y,z
-x,-y,-z
loop_
_atom_site_type_symbol
_atom_site_label
_atom_site_fract_x
_atom_site_fract_y
_atom_site_fract_z
Si Si1 0.953305 0.483458 0.668977
Si Si2 0.904102 0.847273 0.514536
Si Si3 0.025434 0.848456 0.822144
Si Si4 0.443292 0.146354 0.468217
Si Si5 0.352014 0.927471 0.845877
Si Si6 0.479625 0.748396 0.011295
Si Si7 0.608077 0.413766 0.744054
O O1 0.778798 0.444420 0.692338
O O2 0.000000 0.500000 0.500000
O O3 0.039134 0.322383 0.634246
O O4 0.995121 0.662396 0.809868
O O5 0.732142 0.858568 0.510594
O O6 0.931402 0.853445 0.688482
O O7 0.000000 0.000000 0.500000
O O8 0.199122 0.870691 0.768563
O O9 0.000000 0.000000 0.000000
O O10 0.509385 0.124002 0.289801
O O11 0.515360 0.315935 0.592523
O O12 0.500000 0.000000 0.500000
O O13 0.366608 0.842114 0.964430
O O14 0.378102 0.124525 0.936679
O O15 0.533596 0.584564 0.859583
O O16 0.409272 0.696684 0.153559
#
# Coordination Sequence:
#
# PCOD9042009 Si02
#       7
#     2   2   2   2   2   2   2
#     4  10  23  44  68  98 139 177 225 278 340 407
#     4  11  26  44  67  99 136 178 226 282 341 405
#     4  11  25  44  69  99 138 178 223 279 345 403
#     4  12  24  42  71  98 132 179 231 278 334 403
#     4  11  24  43  69  98 137 177 231 271 345 401
#     4  10  25  41  71  99 134 174 228 285 333 396
#     4  11  23  45  70  97 137 173 232 278 339 399
#
# _framework density 20.864751999999999
#
# number of rings (size 3 to 8) (size 9 to 14) (size 15 to 20)
#    0.000    1.143    1.429    4.286   10.000    0.571 
#    0.000    1.429    0.000    0.000    0.000    0.000 
#    0.000    0.000    0.000    0.000    0.000    0.000 
#
# Total GULP energy -78281.843045 kJ/mol
# GULP energy per Si atom -5591.560217 kJ/mol
# Density = 2.081726 g / cm^3
# Si number density = 20.864752 Si / 1000 Ang^3
#
#
#
# Elastic Constant Matrix: (Units=GPa)
#
#
# Indices 1 2 3 4 5 6 
#
# 1 137.4969 38.0261 15.8783 23.0039 3.3242 20.6992
# 2 38.0261 133.2395 41.8640 27.8552 2.6423 11.2615
# 3 15.8783 41.8640 89.2052 33.4855 3.3563 1.2276
# 4 23.0039 27.8552 33.4855 39.4774 4.9694 5.2920
# 5 3.3242 2.6423 3.3563 4.9694 28.7497 1.9869
# 6 20.6992 11.2615 1.2276 5.2920 1.9869 23.1606
#
#
#
# Elastic Compliance Matrix: (Units=1/GPa)
#
#
# Indices 1 2 3 4 5 6 
#
# 1 0.009282 -0.001435 0.000627 -0.004046 0.000149 -0.006719
# 2 -0.001435 0.009762 -0.003150 -0.003072 0.000349 -0.002625
# 3 0.000627 -0.003150 0.017599 -0.013523 0.000285 0.003104
# 4 -0.004046 -0.003072 -0.013523 0.042388 -0.004760 -0.003451
# 5 0.000149 0.000349 0.000285 -0.004760 0.035681 -0.002292
# 6 -0.006719 -0.002625 0.003104 -0.003451 -0.002292 0.051279
#
#
# Mechanical properties :
#
#
# Convention : Reuss Voigt Hill
#
# Bulk Modulus (GPa) = 34.80957 61.27538 48.04247
# Shear Modulus (GPa) = 27.25038 35.88911 31.56974
#
# Velocity S-wave (km/s) = 3.61785 4.15189 3.89403
# Velocity P-wave (km/s) = 5.84563 7.23988 6.57979
#
# Compressibility (1/GPa) = 0.02872773
#
# Stress axis : x y z
#
# Youngs Moduli (GPa) = 107.73188 102.44156 56.82010
#
# Poissons Ratio (x) = 0.14703 -0.03563
# Poissons Ratio (y) = 0.15463 0.17896
# Poissons Ratio (z) = -0.06755 0.32264
#
# Static dielectric constant tensor:
#      x y z
#    x 1.710290 -0.024510 0.010190 
#    y -0.024510 1.786480 0.011980 
#    z 0.010190 0.011980 1.769610 
# 
# From -- ./inp_files/158579.got.cif
#   From: 2010.05.17/outbox.cif.g08.bks.cpg/sg2_80_cif.got.tgz:158579.got - 2010.06.03 11:33:40.
