data_PCOD9042007
_publ_section_title
;
Structure prediction by ZEFSAII (Michael W. Deem and Ramdas Pophale) SiO2 
 PCOD9042007
Probable space group: P -1
;
_chemical_formula_sum "Si O2"
_cell_formula_units_Z 16
_cell_length_a 11.664672
_cell_length_b 16.007560
_cell_length_c 13.536928
_cell_angle_alpha 47.732460
_cell_angle_beta 144.549963
_cell_angle_gamma 155.038772
_cell_volume 595.795806
_symmetry_space_group_name_H-M "P -1"
_symmetry_group_IT_number 2
_symmetry_cell_setting 'triclinic'
loop_
_space_group_symop_operation_xyz
x,y,z
-x,-y,-z
loop_
_atom_site_type_symbol
_atom_site_label
_atom_site_fract_x
_atom_site_fract_y
_atom_site_fract_z
Si Si1 0.807189 0.888231 0.320756
Si Si2 0.711987 0.183812 0.576995
Si Si3 0.430729 0.584199 0.938410
Si Si4 0.909577 0.146776 0.290914
Si Si5 0.147081 0.524227 0.464989
Si Si6 0.884667 0.525899 0.744260
Si Si7 0.266158 0.134976 0.925397
Si Si8 0.842192 0.161079 0.908529
O O1 0.394344 0.690036 0.226827
O O2 0.810870 0.845331 0.247563
O O3 0.015030 0.903782 0.526202
O O4 0.949594 0.084464 0.274742
O O5 0.054931 0.382412 0.590566
O O6 0.738246 0.137645 0.739641
O O7 0.607992 0.261905 0.482230
O O8 0.500000 0.000000 0.500000
O O9 0.224675 0.581611 0.733832
O O10 0.129917 0.392492 0.955970
O O11 0.500000 0.500000 0.000000
O O12 0.765369 0.795361 0.062192
O O13 0.139672 0.367643 0.297975
O O14 0.499359 0.988681 0.142132
O O15 0.235184 0.524857 0.415265
O O16 0.308451 0.697363 0.906440
O O17 0.042812 0.913803 0.951207
#
# Coordination Sequence:
#
# PCOD9042007 Si02
#       8
#     2   2   2   2   2   2   2   2
#     4  11  22  38  60  93 124 156 204 250 302 363
#     4  10  17  33  58  84 114 152 197 244 294 352
#     4  10  21  41  61  83 125 163 200 256 303 349
#     4  10  22  39  60  88 125 160 196 252 309 358
#     4   9  20  35  57  90 113 153 210 237 299 365
#     4  10  20  39  64  84 123 163 199 254 297 358
#     4  10  22  39  61  92 120 161 210 241 301 368
#     4  10  22  41  62  86 123 161 198 253 303 361
#
# _framework density 26.854839999999999
#
# number of rings (size 3 to 8) (size 9 to 14) (size 15 to 20)
#    0.000    2.000    0.000    5.250    0.000    3.500 
#   13.500    0.000    0.000    0.000    0.000    0.000 
#    0.000    0.000    0.000    0.000    0.000    0.000 
#
# Total GULP energy -89445.023364 kJ/mol
# GULP energy per Si atom -5590.313960 kJ/mol
# Density = 2.679372 g / cm^3
# Si number density = 26.854840 Si / 1000 Ang^3
#
#
#
# Elastic Constant Matrix: (Units=GPa)
#
#
# Indices 1 2 3 4 5 6 
#
# 1 96.1121 24.5155 18.9869 0.8369 -12.9155 -37.3477
# 2 24.5155 120.6702 6.4254 -5.9638 -9.9599 -42.7179
# 3 18.9869 6.4254 64.4245 -2.6221 -7.6927 -7.2129
# 4 0.8369 -5.9638 -2.6221 28.4073 3.5327 6.0461
# 5 -12.9155 -9.9599 -7.6927 3.5327 42.5742 2.3501
# 6 -37.3477 -42.7179 -7.2129 6.0461 2.3501 56.0160
#
#
#
# Elastic Compliance Matrix: (Units=1/GPa)
#
#
# Indices 1 2 3 4 5 6 
#
# 1 0.015606 0.001063 -0.003122 -0.003376 0.004092 0.011007
# 2 0.001063 0.011633 -0.000114 0.000078 0.002495 0.009452
# 3 -0.003122 -0.000114 0.016715 0.001423 0.001942 -0.000251
# 4 -0.003376 0.000078 0.001423 0.037135 -0.003506 -0.005869
# 5 0.004092 0.002495 0.001942 -0.003506 0.025724 0.004180
# 6 0.011007 0.009452 -0.000251 -0.005869 0.004180 0.032824
#
#
# Mechanical properties :
#
#
# Convention : Reuss Voigt Hill
#
# Bulk Modulus (GPa) = 25.24731 42.34028 33.79380
# Shear Modulus (GPa) = 31.80912 40.81810 36.31361
#
# Velocity S-wave (km/s) = 3.44537 3.90289 3.68124
# Velocity P-wave (km/s) = 5.02486 6.00921 5.53895
#
# Compressibility (1/GPa) = 0.03960818
#
# Stress axis : x y z
#
# Youngs Moduli (GPa) = 64.07654 85.96119 59.82567
#
# Poissons Ratio (x) = -0.09136 0.18678
# Poissons Ratio (y) = -0.06810 0.00683
# Poissons Ratio (z) = 0.20005 0.00981
#
# Static dielectric constant tensor:
#      x y z
#    x 2.190780 0.017360 0.079510 
#    y 0.017360 2.121810 0.060130 
#    z 0.079510 0.060130 2.129610 
# 
# From -- ./inp_files/521564.got.cif
#   From: 2010.05.17/outbox.cif.g08.bks.cpg/sg2_261_cif.got.tgz:521564.got - 2010.06.03 11:33:40.
