data_PCOD9042300
_publ_section_title
;
Structure prediction by ZEFSAII (Michael W. Deem and Ramdas Pophale) SiO2 
 PCOD9042300
Probable space group: P -1
;
_chemical_formula_sum "Si O2"
_cell_formula_units_Z 13
_cell_length_a 9.960073
_cell_length_b 5.874165
_cell_length_c 10.694910
_cell_angle_alpha 65.416454
_cell_angle_beta 70.840363
_cell_angle_gamma 66.242168
_cell_volume 511.002324
_symmetry_space_group_name_H-M "P -1"
_symmetry_group_IT_number 2
_symmetry_cell_setting 'triclinic'
loop_
_space_group_symop_operation_xyz
x,y,z
-x,-y,-z
loop_
_atom_site_type_symbol
_atom_site_label
_atom_site_fract_x
_atom_site_fract_y
_atom_site_fract_z
Si Si1 0.020331 0.049436 0.838531
Si Si2 0.663414 0.717274 0.680480
Si Si3 0.500000 0.000000 0.500000
Si Si4 0.571146 0.889577 0.200479
Si Si5 0.688976 0.158580 0.886663
Si Si6 0.751384 0.292335 0.343177
Si Si7 0.994929 0.603297 0.619301
O O1 0.863164 0.049460 0.825046
O O2 0.031606 0.339900 0.751812
O O3 0.158556 0.843426 0.777394
O O4 0.000000 0.000000 0.000000
O O5 0.638357 0.693686 0.547273
O O6 0.650124 0.474503 0.821598
O O7 0.819518 0.753242 0.659038
O O8 0.500854 0.953190 0.687340
O O9 0.365289 0.855663 0.552109
O O10 0.422305 0.908980 0.161908
O O11 0.665376 0.594450 0.266195
O O12 0.658899 0.043315 0.055170
O O13 0.883622 0.260286 0.410985
O O14 0.000000 0.500000 0.500000
#
# Coordination Sequence:
#
# PCOD9042300 Si02
#       7
#     2   2   1   2   2   2   2
#     4  11  26  47  78 112 159 206 257 327 393 475
#     4  11  25  45  70 107 149 197 251 314 385 461
#     4  12  28  46  74 106 156 198 260 324 380 458
#     4  11  24  42  77 108 149 199 248 329 384 456
#     4  10  23  44  70 109 149 192 251 311 394 462
#     4  12  28  49  76 119 157 204 269 322 393 469
#     4  11  27  50  79 112 156 213 263 323 393 474
#
# _framework density 25.440197000000001
#
# number of rings (size 3 to 8) (size 9 to 14) (size 15 to 20)
#    0.000    0.923    1.538    3.231    6.462   12.923 
#    0.000    0.000    0.000    0.000    0.000    0.000 
#    0.000    0.000    0.000    0.000    0.000    0.000 
#
# Total GULP energy -72682.245358 kJ/mol
# GULP energy per Si atom -5590.941951 kJ/mol
# Density = 2.538229 g / cm^3
# Si number density = 25.440197 Si / 1000 Ang^3
#
#
#
# Elastic Constant Matrix: (Units=GPa)
#
#
# Indices 1 2 3 4 5 6 
#
# 1 200.1973 50.8768 45.6448 -9.2608 -23.4465 22.8952
# 2 50.8768 96.0942 49.5649 -16.3680 -3.6133 -30.7134
# 3 45.6448 49.5649 150.4706 -33.7570 -12.9805 4.0504
# 4 -9.2608 -16.3680 -33.7570 39.4605 5.6804 4.8425
# 5 -23.4465 -3.6133 -12.9805 5.6804 48.3046 -2.8415
# 6 22.8952 -30.7134 4.0504 4.8425 -2.8415 47.0621
#
#
#
# Elastic Compliance Matrix: (Units=1/GPa)
#
#
# Indices 1 2 3 4 5 6 
#
# 1 0.007962 -0.006914 0.000304 -0.000158 0.002965 -0.008217
# 2 -0.006914 0.023298 -0.006090 0.000838 -0.002238 0.018871
# 3 0.000304 -0.006090 0.010381 0.006927 0.001335 -0.005648
# 4 -0.000158 0.000838 0.006927 0.032308 -0.002154 -0.003427
# 5 0.002965 -0.002238 0.001335 -0.002154 0.022501 -0.001438
# 6 -0.008217 0.018871 -0.005648 -0.003427 -0.001438 0.038313
#
#
# Mechanical properties :
#
#
# Convention : Reuss Voigt Hill
#
# Bulk Modulus (GPa) = 61.57412 82.10389 71.83901
# Shear Modulus (GPa) = 30.19705 47.01048 38.60376
#
# Velocity S-wave (km/s) = 3.44900 4.30336 3.89965
# Velocity P-wave (km/s) = 6.33378 7.55217 6.96965
#
# Compressibility (1/GPa) = 0.01624059
#
# Stress axis : x y z
#
# Youngs Moduli (GPa) = 125.58883 42.92131 96.33022
#
# Poissons Ratio (x) = 0.29675 -0.02924
# Poissons Ratio (y) = 0.86831 0.58668
# Poissons Ratio (z) = -0.03812 0.26140
#
# Static dielectric constant tensor:
#      x y z
#    x 1.981350 -0.018610 0.066950 
#    y -0.018610 2.061740 0.042430 
#    z 0.066950 0.042430 2.054340 
# 
# From -- ./inp_files/61130.got.cif
#   From: 2010.05.17/outbox.cif.g08.bks.cpg/sg2_31_cif.got.tgz:61130.got - 2010.06.03 11:33:40.
