data_PCOD9042748
_publ_section_title
;
Structure prediction by ZEFSAII (Michael W. Deem and Ramdas Pophale) SiO2 
 PCOD9042748
Probable space group: P -1
;
_chemical_formula_sum "Si O2"
_cell_formula_units_Z 14
_cell_length_a 10.843146
_cell_length_b 9.154983
_cell_length_c 5.358363
_cell_angle_alpha 100.432235
_cell_angle_beta 95.618124
_cell_angle_gamma 91.136985
_cell_volume 520.229089
_symmetry_space_group_name_H-M "P -1"
_symmetry_group_IT_number 2
_symmetry_cell_setting 'triclinic'
loop_
_space_group_symop_operation_xyz
x,y,z
-x,-y,-z
loop_
_atom_site_type_symbol
_atom_site_label
_atom_site_fract_x
_atom_site_fract_y
_atom_site_fract_z
Si Si1 0.427555 0.203585 0.079735
Si Si2 0.263093 0.479648 0.047992
Si Si3 0.614553 0.407343 0.407828
Si Si4 0.163940 0.875813 0.550576
Si Si5 0.949801 0.382483 0.242049
Si Si6 0.403247 0.916862 0.281595
Si Si7 0.943922 0.868801 0.120364
O O1 0.316310 0.316174 0.065737
O O2 0.539868 0.252087 0.305010
O O3 0.379050 0.039377 0.097551
O O4 0.511690 0.208385 0.851439
O O5 0.290008 0.565649 0.338748
O O6 0.126751 0.523305 0.942881
O O7 0.338983 0.530592 0.830141
O O8 0.500000 0.500000 0.500000
O O9 0.276276 0.877646 0.380821
O O10 0.151941 0.743665 0.710629
O O11 0.040892 0.841237 0.351895
O O12 0.160605 0.041128 0.723691
O O13 0.000000 0.500000 0.500000
O O14 0.052350 0.275373 0.105483
O O15 0.500000 0.000000 0.500000
O O16 0.000000 0.000000 0.000000
#
# Coordination Sequence:
#
# PCOD9042748 Si02
#       7
#     2   2   2   2   2   2   2
#     4  10  25  46  71 120 163 205 273 328 408 498
#     4  11  26  46  80 113 161 216 256 349 414 495
#     4  10  23  44  75 110 155 210 260 318 413 498
#     4  10  24  51  81 110 158 217 274 345 408 492
#     4  11  27  49  80 122 160 210 280 347 424 495
#     4  11  27  45  78 117 159 213 271 332 407 503
#     4   9  22  49  81 109 148 212 280 336 414 478
#
# _framework density 26.911223
#
# number of rings (size 3 to 8) (size 9 to 14) (size 15 to 20)
#    0.000    1.714    0.000    1.714   12.000    4.000 
#   10.286    1.429   12.571    0.000    0.000    0.000 
#    0.000    0.000    0.000    0.000    0.000    0.000 
#
# Total GULP energy -78235.156725 kJ/mol
# GULP energy per Si atom -5588.225480 kJ/mol
# Density = 2.684997 g / cm^3
# Si number density = 26.911223 Si / 1000 Ang^3
#
#
#
# Elastic Constant Matrix: (Units=GPa)
#
#
# Indices 1 2 3 4 5 6 
#
# 1 143.6314 52.3699 52.1224 5.4710 -11.6445 -19.5090
# 2 52.3699 166.9850 43.3572 3.2965 -20.7343 -18.6587
# 3 52.1224 43.3572 148.4317 28.7555 -2.2001 -8.8658
# 4 5.4710 3.2965 28.7555 69.4647 -2.1249 -5.7756
# 5 -11.6445 -20.7343 -2.2001 -2.1249 76.5765 -4.4503
# 6 -19.5090 -18.6587 -8.8658 -5.7756 -4.4503 39.3076
#
#
#
# Elastic Compliance Matrix: (Units=1/GPa)
#
#
# Indices 1 2 3 4 5 6 
#
# 1 0.009028 -0.001662 -0.002617 0.000761 0.001062 0.003333
# 2 -0.001662 0.007427 -0.001532 0.000693 0.001889 0.002670
# 3 -0.002617 -0.001532 0.008715 -0.003403 -0.000694 -0.000639
# 4 0.000761 0.000693 -0.003403 0.015933 0.000785 0.002369
# 5 0.001062 0.001889 -0.000694 0.000785 0.013905 0.002957
# 6 0.003333 0.002670 -0.000639 0.002369 0.002957 0.028901
#
#
# Mechanical properties :
#
#
# Convention : Reuss Voigt Hill
#
# Bulk Modulus (GPa) = 73.82478 83.86081 78.84279
# Shear Modulus (GPa) = 49.97603 57.81634 53.89619
#
# Velocity S-wave (km/s) = 4.31405 4.64012 4.48005
# Velocity P-wave (km/s) = 7.23235 7.74192 7.49147
#
# Compressibility (1/GPa) = 0.01354559
#
# Stress axis : x y z
#
# Youngs Moduli (GPa) = 110.76529 134.64337 114.75091
#
# Poissons Ratio (x) = 0.22384 0.30033
# Poissons Ratio (y) = 0.18415 0.17584
# Poissons Ratio (z) = 0.28989 0.20632
#
# Static dielectric constant tensor:
#      x y z
#    x 2.182650 0.045260 -0.024170 
#    y 0.045260 2.366590 0.042400 
#    z -0.024170 0.042400 1.877000 
# 
# From -- ./inp_files/60937.got.cif
#   From: 2010.05.17/outbox.cif.g08.bks.cpg/sg2_31_cif.got.tgz:60937.got - 2010.06.03 11:33:40.
