data_PCOD9042999
_publ_section_title
;
Structure prediction by ZEFSAII (Michael W. Deem and Ramdas Pophale) SiO2 
 PCOD9042999
Probable space group: P -1
;
_chemical_formula_sum "Si O2"
_cell_formula_units_Z 16
_cell_length_a 16.169632
_cell_length_b 9.415021
_cell_length_c 26.173860
_cell_angle_alpha 47.742043
_cell_angle_beta 25.477625
_cell_angle_gamma 31.528469
_cell_volume 808.645959
_symmetry_space_group_name_H-M "P -1"
_symmetry_group_IT_number 2
_symmetry_cell_setting 'triclinic'
loop_
_space_group_symop_operation_xyz
x,y,z
-x,-y,-z
loop_
_atom_site_type_symbol
_atom_site_label
_atom_site_fract_x
_atom_site_fract_y
_atom_site_fract_z
Si Si1 0.637368 0.689168 0.015050
Si Si2 0.684353 0.803932 0.206037
Si Si3 0.508014 0.699182 0.974051
Si Si4 0.200015 0.675486 0.787239
Si Si5 0.410734 0.240200 0.455664
Si Si6 0.564147 0.330214 0.765134
Si Si7 0.341953 0.289252 0.368726
Si Si8 0.761951 0.807881 0.727931
O O1 0.635097 0.578729 0.989602
O O2 0.964106 0.443197 0.918385
O O3 0.450193 0.740314 0.152748
O O4 0.500000 0.000000 0.000000
O O5 0.656380 0.595545 0.264530
O O6 0.525736 0.041232 0.282405
O O7 0.528440 0.997188 0.194155
O O8 0.708202 0.696532 0.830531
O O9 0.500000 0.500000 0.000000
O O10 0.159162 0.037491 0.089465
O O11 0.371244 0.743348 0.664862
O O12 0.273003 0.561310 0.833281
O O13 0.442912 0.144117 0.403162
O O14 0.063572 0.553330 0.587853
O O15 0.500000 0.000000 0.500000
O O16 0.643934 0.490906 0.688640
O O17 0.766250 0.020273 0.696975
O O18 0.000000 0.500000 0.500000
#
# Coordination Sequence:
#
# PCOD9042999 Si02
#       8
#     2   2   2   2   2   2   2   2
#     4  12  24  44  66 101 134 167 224 280 331 394
#     4  11  24  42  69  93 134 171 225 268 331 391
#     4  12  26  41  68  97 137 171 221 274 340 392
#     4  10  23  45  67  97 132 180 218 266 339 402
#     4  11  25  43  67  97 134 171 223 274 333 393
#     4  10  24  41  69  93 134 170 223 266 330 396
#     4  11  25  43  65  98 131 175 228 275 321 397
#     4  11  23  44  68  95 132 184 213 270 339 398
#
# _framework density 19.786162000000001
#
# number of rings (size 3 to 8) (size 9 to 14) (size 15 to 20)
#    0.000    1.000    3.750    1.500    8.750    5.000 
#    0.000    0.625    0.000    0.000    0.000    0.000 
#    0.000    0.000    0.000    0.000    0.000    0.000 
#
# Total GULP energy -89243.038276 kJ/mol
# GULP energy per Si atom -5577.689892 kJ/mol
# Density = 1.974113 g / cm^3
# Si number density = 19.786162 Si / 1000 Ang^3
#
#
#
# Elastic Constant Matrix: (Units=GPa)
#
#
# Indices 1 2 3 4 5 6 
#
# 1 146.5343 40.9147 17.9279 -13.5663 17.8797 13.4391
# 2 40.9147 74.5165 8.6726 -7.4762 20.1719 5.6989
# 3 17.9279 8.6726 47.3184 0.3815 6.9625 0.0862
# 4 -13.5663 -7.4762 0.3815 23.7427 -7.8194 8.5100
# 5 17.8797 20.1719 6.9625 -7.8194 29.2641 1.1200
# 6 13.4391 5.6989 0.0862 8.5100 1.1200 42.7218
#
#
#
# Elastic Compliance Matrix: (Units=1/GPa)
#
#
# Indices 1 2 3 4 5 6 
#
# 1 0.009044 -0.003657 -0.002654 0.004941 -0.000927 -0.003312
# 2 -0.003657 0.018382 -0.000509 0.000828 -0.010048 -0.001202
# 3 -0.002654 -0.000509 0.022954 -0.004245 -0.004693 0.001825
# 4 0.004941 0.000828 -0.004245 0.053878 0.012303 -0.012711
# 5 -0.000927 -0.010048 -0.004693 0.012303 0.046145 -0.002019
# 6 -0.003312 -0.001202 0.001825 -0.012711 -0.002019 0.027191
#
#
# Mechanical properties :
#
#
# Convention : Reuss Voigt Hill
#
# Bulk Modulus (GPa) = 27.21897 44.82218 36.02058
# Shear Modulus (GPa) = 24.57219 32.53599 28.55409
#
# Velocity S-wave (km/s) = 3.52787 4.05950 3.80298
# Velocity P-wave (km/s) = 5.51189 6.68395 6.12601
#
# Compressibility (1/GPa) = 0.03673908
#
# Stress axis : x y z
#
# Youngs Moduli (GPa) = 110.56532 54.40006 43.56592
#
# Poissons Ratio (x) = 0.19896 0.11562
# Poissons Ratio (y) = 0.40437 0.02220
# Poissons Ratio (z) = 0.29343 0.02772
#
# Static dielectric constant tensor:
#      x y z
#    x 1.795210 0.089560 0.068410 
#    y 0.089560 1.775970 0.079060 
#    z 0.068410 0.079060 1.759710 
# 
# From -- ./inp_files/206834.got.cif
#   From: 2010.05.17/outbox.cif.g08.bks.cpg/sg2_104_cif.got.tgz:206834.got - 2010.06.03 11:33:40.
