data_PCOD9042451
_publ_section_title
;
Structure prediction by ZEFSAII (Michael W. Deem and Ramdas Pophale) SiO2 
 PCOD9042451
Probable space group: P -1
;
_chemical_formula_sum "Si O2"
_cell_formula_units_Z 14
_cell_length_a 13.345831
_cell_length_b 13.126289
_cell_length_c 9.022902
_cell_angle_alpha 82.420644
_cell_angle_beta 119.976543
_cell_angle_gamma 146.600779
_cell_volume 603.988327
_symmetry_space_group_name_H-M "P -1"
_symmetry_group_IT_number 2
_symmetry_cell_setting 'triclinic'
loop_
_space_group_symop_operation_xyz
x,y,z
-x,-y,-z
loop_
_atom_site_type_symbol
_atom_site_label
_atom_site_fract_x
_atom_site_fract_y
_atom_site_fract_z
Si Si1 0.780380 0.709858 0.787137
Si Si2 0.279060 0.842254 0.248616
Si Si3 0.178659 0.643674 0.925659
Si Si4 0.335156 0.121135 0.153268
Si Si5 0.652909 0.905540 0.162933
Si Si6 0.156109 0.420098 0.376966
Si Si7 0.276071 0.220780 0.572182
O O1 0.795295 0.612034 0.725887
O O2 0.515646 0.491478 0.728593
O O3 0.770967 0.786285 0.632782
O O4 0.050996 0.932267 0.030234
O O5 0.996465 0.598088 0.157375
O O6 0.500000 0.000000 0.500000
O O7 0.319530 0.985422 0.181960
O O8 0.283970 0.759407 0.142103
O O9 0.988080 0.585425 0.753168
O O10 0.437999 0.822736 0.995738
O O11 0.580508 0.352645 0.383091
O O12 0.350809 0.158916 0.982669
O O13 0.605767 0.794682 0.288528
O O14 0.935017 0.179062 0.343072
O O15 0.000000 0.000000 0.500000
#
# Coordination Sequence:
#
# PCOD9042451 Si02
#       7
#     2   2   2   2   2   2   2
#     4  10  23  44  71  94 127 170 216 271 326 384
#     4  11  22  37  59  89 128 171 213 260 320 386
#     4  11  23  39  62  92 130 171 214 265 322 387
#     4  11  22  40  62  96 132 170 215 261 324 390
#     4  11  24  40  63  94 130 172 216 270 322 380
#     4  11  22  40  64  95 132 170 212 262 326 390
#     4  11  21  45  74  91 125 173 216 272 331 376
#
# _framework density 23.179255999999999
#
# number of rings (size 3 to 8) (size 9 to 14) (size 15 to 20)
#    0.000    1.143    7.143    1.286    2.000    1.714 
#    0.000    7.143    0.000    0.000    0.000    0.000 
#    0.000    0.000    0.000    0.000    0.000    0.000 
#
# Total GULP energy -78132.949651 kJ/mol
# GULP energy per Si atom -5580.924975 kJ/mol
# Density = 2.312650 g / cm^3
# Si number density = 23.179256 Si / 1000 Ang^3
#
#
#
# Elastic Constant Matrix: (Units=GPa)
#
#
# Indices 1 2 3 4 5 6 
#
# 1 78.0037 39.9892 36.0734 15.1878 20.4834 -6.7775
# 2 39.9892 159.3924 63.4447 8.9284 8.0854 -0.2076
# 3 36.0734 63.4447 185.5345 39.8632 8.0170 -0.7954
# 4 15.1878 8.9284 39.8632 44.9522 -8.1263 16.7096
# 5 20.4834 8.0854 8.0170 -8.1263 29.4476 6.4034
# 6 -6.7775 -0.2076 -0.7954 16.7096 6.4034 30.3145
#
#
#
# Elastic Compliance Matrix: (Units=1/GPa)
#
#
# Indices 1 2 3 4 5 6 
#
# 1 0.035442 -0.006746 0.005369 -0.037008 -0.042612 0.037419
# 2 -0.006746 0.008613 -0.003650 0.007816 0.007076 -0.007348
# 3 0.005369 -0.003650 0.009997 -0.017535 -0.013319 0.013916
# 4 -0.037008 0.007816 -0.017535 0.087556 0.068039 -0.071314
# 5 -0.042612 0.007076 -0.013319 0.068039 0.098893 -0.068221
# 6 0.037419 -0.007348 0.013916 -0.071314 -0.068221 0.095387
#
#
# Mechanical properties :
#
#
# Convention : Reuss Voigt Hill
#
# Bulk Modulus (GPa) = 22.72841 77.99390 50.36115
# Shear Modulus (GPa) = 13.86551 39.83774 26.85163
#
# Velocity S-wave (km/s) = 2.44844 4.15020 3.40727
# Velocity P-wave (km/s) = 4.22136 7.52906 6.10355
#
# Compressibility (1/GPa) = 0.04399780
#
# Stress axis : x y z
#
# Youngs Moduli (GPa) = 28.21523 116.10604 100.03246
#
# Poissons Ratio (x) = 0.78320 -0.53707
# Poissons Ratio (y) = 0.19033 0.36513
# Poissons Ratio (z) = -0.15149 0.42381
#
# Static dielectric constant tensor:
#      x y z
#    x 1.968010 0.039590 0.048480 
#    y 0.039590 1.938270 0.006850 
#    z 0.048480 0.006850 1.863260 
# 
# From -- ./inp_files/313210.got.cif
#   From: 2010.05.17/outbox.cif.g08.bks.cpg/sg2_157_cif.got.tgz:313210.got - 2010.06.03 11:33:40.
