data_PCOD9042100
_publ_section_title
;
Structure prediction by ZEFSAII (Michael W. Deem and Ramdas Pophale) SiO2 
 PCOD9042100
Probable space group: P -1
;
_chemical_formula_sum "Si O2"
_cell_formula_units_Z 14
_cell_length_a 30.302789
_cell_length_b 27.950824
_cell_length_c 10.109579
_cell_angle_alpha 153.374492
_cell_angle_beta 152.939790
_cell_angle_gamma 9.097954
_cell_volume 603.078888
_symmetry_space_group_name_H-M "P -1"
_symmetry_group_IT_number 2
_symmetry_cell_setting 'triclinic'
loop_
_space_group_symop_operation_xyz
x,y,z
-x,-y,-z
loop_
_atom_site_type_symbol
_atom_site_label
_atom_site_fract_x
_atom_site_fract_y
_atom_site_fract_z
Si Si1 0.848825 0.479115 0.538972
Si Si2 0.665102 0.882192 0.933659
Si Si3 0.801649 0.475264 0.695179
Si Si4 0.983341 0.925701 0.384510
Si Si5 0.796040 0.248496 0.185839
Si Si6 0.186507 0.224246 0.229699
Si Si7 0.544713 0.688259 0.009294
O O1 0.661468 0.776828 0.743942
O O2 0.790426 0.479315 0.518839
O O3 0.772348 0.480756 0.219335
O O4 0.145275 0.230731 0.751885
O O5 0.762570 0.771381 0.766814
O O6 0.369908 0.243329 0.028938
O O7 0.709642 0.460957 0.471860
O O8 0.091016 0.207377 0.873067
O O9 0.032297 0.938322 0.682564
O O10 0.258780 0.568269 0.210747
O O11 0.000000 0.000000 0.500000
O O12 0.704918 0.135805 0.172799
O O13 0.500000 0.500000 0.000000
O O14 0.000000 0.000000 0.000000
O O15 0.000000 0.500000 0.500000
O O16 0.419539 0.931416 0.225428
#
# Coordination Sequence:
#
# PCOD9042100 Si02
#       7
#     2   2   2   2   2   2   2
#     4  10  25  40  71 106 144 189 240 290 370 437
#     4  10  23  44  69 104 147 190 244 294 358 446
#     4  11  24  45  71 101 147 184 248 296 362 441
#     4  12  29  51  76 109 148 189 253 319 371 439
#     4  12  29  48  78 105 143 194 250 301 371 435
#     4  11  25  43  72 105 147 194 237 298 367 445
#     4  12  27  47  76 110 150 191 245 304 381 435
#
# _framework density 23.214210999999999
#
# number of rings (size 3 to 8) (size 9 to 14) (size 15 to 20)
#    0.000    0.857    1.429    3.429   12.000    2.286 
#    0.000    0.000    0.000    0.000    0.000    0.000 
#    0.000    0.000    0.000    0.000    0.000    0.000 
#
# Total GULP energy -78050.327245 kJ/mol
# GULP energy per Si atom -5575.023375 kJ/mol
# Density = 2.316137 g / cm^3
# Si number density = 23.214211 Si / 1000 Ang^3
#
#
#
# Elastic Constant Matrix: (Units=GPa)
#
#
# Indices 1 2 3 4 5 6 
#
# 1 -9.9349 -11.8215 27.0541 -85.1505 6.3118 -6.4787
# 2 -11.8215 26.9835 -1.5571 -28.8088 -8.8102 -11.6259
# 3 27.0541 -1.5571 82.5446 -57.7018 -18.1686 -6.0043
# 4 -85.1505 -28.8088 -57.7018 16.6847 4.6362 -12.5454
# 5 6.3118 -8.8102 -18.1686 4.6362 58.8303 -0.9914
# 6 -6.4787 -11.6259 -6.0043 -12.5454 -0.9914 34.0363
#
#
#
# Elastic Compliance Matrix: (Units=1/GPa)
#
#
# Indices 1 2 3 4 5 6 
#
# 1 0.021943 -0.022172 -0.024441 -0.018742 -0.011998 -0.014966
# 2 -0.022172 0.038330 0.012316 0.001171 0.012030 0.011827
# 3 -0.024441 0.012316 0.032223 0.011638 0.013668 0.009927
# 4 -0.018742 0.001171 0.011638 0.006021 0.005327 0.001260
# 5 -0.011998 0.012030 0.013668 0.005327 0.024004 0.006899
# 6 -0.014966 0.011827 0.009927 0.001260 0.006899 0.032988
#
#
# Mechanical properties :
#
#
# Convention : Reuss Voigt Hill
#
# Bulk Modulus (GPa) = 41.83635 14.10490 27.97062
# Shear Modulus (GPa) = 21.54520 27.63811 24.59165
#
# Velocity S-wave (km/s) = 3.04978 3.45420 3.25828
# Velocity P-wave (km/s) = 5.51929 4.69019 5.12155
#
# Compressibility (1/GPa) = 0.02390266
#
# Stress axis : x y z
#
# Youngs Moduli (GPa) = 45.57246 26.08931 31.03352
#
# Poissons Ratio (x) = 0.57846 0.75849
# Poissons Ratio (y) = 1.01045 -0.38222
# Poissons Ratio (z) = 1.11383 -0.32133
#
# Static dielectric constant tensor:
#      x y z
#    x 1.908870 -0.033130 -0.020630 
#    y -0.033130 1.967800 -0.066980 
#    z -0.020630 -0.066980 1.882650 
# 
# From -- ./inp_files/95600.got.cif
#   From: 2010.05.17/outbox.cif.g08.bks.cpg/sg2_48_cif.got.tgz:95600.got - 2010.06.03 11:33:40.
