data_PCOD9042883
_publ_section_title
;
Structure prediction by ZEFSAII (Michael W. Deem and Ramdas Pophale) SiO2 
 PCOD9042883
Probable space group: P -1
;
_chemical_formula_sum "Si O2"
_cell_formula_units_Z 14
_cell_length_a 9.655002
_cell_length_b 14.098391
_cell_length_c 6.424178
_cell_angle_alpha 50.360410
_cell_angle_beta 90.002200
_cell_angle_gamma 90.001047
_cell_volume 673.396979
_symmetry_space_group_name_H-M "P -1"
_symmetry_group_IT_number 2
_symmetry_cell_setting 'triclinic'
loop_
_space_group_symop_operation_xyz
x,y,z
-x,-y,-z
loop_
_atom_site_type_symbol
_atom_site_label
_atom_site_fract_x
_atom_site_fract_y
_atom_site_fract_z
Si Si1 0.533805 0.645656 0.829007
Si Si2 0.079757 0.932859 0.779163
Si Si3 0.533795 0.854340 0.171024
Si Si4 0.920229 0.432879 0.779126
Si Si5 0.845584 0.641157 0.816074
Si Si6 0.688031 0.250006 0.999981
Si Si7 0.845573 0.858868 0.183896
O O1 0.535944 0.750003 0.500015
O O2 0.692704 0.647160 0.906143
O O3 0.500000 0.500000 0.000000
O O4 0.413483 0.695415 0.905860
O O5 0.141843 0.021247 0.835490
O O6 0.205640 0.857042 0.785777
O O7 0.000000 0.000000 0.500000
O O8 0.964925 0.857109 0.014519
O O9 0.413468 0.804579 0.094188
O O10 0.692687 0.852831 0.093886
O O11 0.500000 0.000000 0.000000
O O12 0.858159 0.521299 0.835364
O O13 0.794341 0.357066 0.785733
O O14 0.000000 0.500000 0.500000
O O15 0.035044 0.357115 0.014523
O O16 0.865329 0.750030 0.499994
#
# Coordination Sequence:
#
# PCOD9042883 Si02
#       7
#     2   2   2   2   2   2   2
#     4  11  26  47  72 103 144 184 237 293 350 420
#     4  11  24  41  71 100 137 179 241 282 355 419
#     4  11  26  47  72 103 144 184 237 293 350 420
#     4  11  24  41  71 100 137 179 241 282 355 419
#     4  10  23  45  65  97 141 181 225 299 349 410
#     4  12  26  42  72 104 134 190 234 286 358 420
#     4  10  23  45  65  97 141 181 225 299 349 410
#
# _framework density 20.790113000000002
#
# number of rings (size 3 to 8) (size 9 to 14) (size 15 to 20)
#    0.000    1.143    2.857    1.714    4.000    8.000 
#    0.000    0.000    0.000    0.000    0.000    0.000 
#    0.000    0.000    0.000    0.000    0.000    0.000 
#
# Total GULP energy -78099.308417 kJ/mol
# GULP energy per Si atom -5578.522030 kJ/mol
# Density = 2.074279 g / cm^3
# Si number density = 20.790113 Si / 1000 Ang^3
#
#
#
# Elastic Constant Matrix: (Units=GPa)
#
#
# Indices 1 2 3 4 5 6 
#
# 1 205.2400 70.1020 69.2932 -2.9656 -0.0301 -0.0043
# 2 70.1020 120.2702 28.0380 -10.7750 -0.0085 0.0027
# 3 69.2932 28.0380 82.1108 -13.5927 -0.0254 -0.0020
# 4 -2.9656 -10.7750 -13.5927 25.5996 0.0026 -0.0003
# 5 -0.0301 -0.0085 -0.0254 0.0026 27.0743 -6.8320
# 6 -0.0043 0.0027 -0.0020 -0.0003 -6.8320 51.1906
#
#
#
# Elastic Compliance Matrix: (Units=1/GPa)
#
#
# Indices 1 2 3 4 5 6 
#
# 1 0.008200 -0.003659 -0.006324 -0.003948 0.000003 0.000001
# 2 -0.003659 0.010800 0.000090 0.004170 -0.000001 -0.000001
# 3 -0.006324 0.000090 0.019044 0.009417 0.000010 0.000002
# 4 -0.003948 0.004170 0.009417 0.045361 0.000001 0.000000
# 5 0.000003 -0.000001 0.000010 0.000001 0.038223 0.005101
# 6 0.000001 -0.000001 0.000002 0.000000 0.005101 0.020216
#
#
# Mechanical properties :
#
#
# Convention : Reuss Voigt Hill
#
# Bulk Modulus (GPa) = 54.77080 82.49859 68.63470
# Shear Modulus (GPa) = 29.81236 36.78542 33.29889
#
# Velocity S-wave (km/s) = 3.79089 4.21095 4.00643
# Velocity P-wave (km/s) = 6.75003 7.96308 7.38151
#
# Compressibility (1/GPa) = 0.01825790
#
# Stress axis : x y z
#
# Youngs Moduli (GPa) = 121.94608 92.59353 52.51027
#
# Poissons Ratio (x) = 0.33881 0.33210
# Poissons Ratio (y) = 0.44621 -0.00475
# Poissons Ratio (z) = 0.77124 -0.00837
#
# Static dielectric constant tensor:
#      x y z
#    x 1.719330 -0.000010 0.000020 
#    y -0.000010 1.871520 -0.075270 
#    z 0.000020 -0.075270 1.735530 
# 
# From -- ./inp_files/26976.got.cif
#   From: 2010.05.17/outbox.cif.g08.bks.cpg/sg2_14_cif.got.tgz:26976.got - 2010.06.03 11:33:40.
