data_PCOD9042468
_publ_section_title
;
Structure prediction by ZEFSAII (Michael W. Deem and Ramdas Pophale) SiO2 
 PCOD9042468
Probable space group: P -1
;
_chemical_formula_sum "Si O2"
_cell_formula_units_Z 16
_cell_length_a 13.868277
_cell_length_b 8.861757
_cell_length_c 19.891926
_cell_angle_alpha 129.162719
_cell_angle_beta 161.303509
_cell_angle_gamma 50.670238
_cell_volume 601.347507
_symmetry_space_group_name_H-M "P -1"
_symmetry_group_IT_number 2
_symmetry_cell_setting 'triclinic'
loop_
_space_group_symop_operation_xyz
x,y,z
-x,-y,-z
loop_
_atom_site_type_symbol
_atom_site_label
_atom_site_fract_x
_atom_site_fract_y
_atom_site_fract_z
Si Si1 0.685260 0.150322 0.344693
Si Si2 0.757655 0.257167 0.850693
Si Si3 0.978165 0.184349 0.294762
Si Si4 0.401841 0.798695 0.078222
Si Si5 0.210765 0.201598 0.242575
Si Si6 0.584556 0.470645 0.192094
Si Si7 0.418595 0.407046 0.555796
Si Si8 0.711014 0.843617 0.050275
O O1 0.699697 0.362392 0.446250
O O2 0.484391 0.190090 0.154989
O O3 0.502982 0.002739 0.223209
O O4 0.000000 0.000000 0.500000
O O5 0.498013 0.394167 0.760020
O O6 0.739139 0.337155 0.785203
O O7 0.688712 0.033433 0.751398
O O8 0.082210 0.266821 0.102817
O O9 0.877760 0.305797 0.330396
O O10 0.215611 0.272366 0.428726
O O11 0.678634 0.206249 0.054275
O O12 0.004627 0.950754 0.261086
O O13 0.629304 0.612324 0.199361
O O14 0.103742 0.777886 0.917251
O O15 0.407210 0.335688 0.451955
O O16 0.288341 0.355647 0.963427
O O17 0.500000 0.000000 0.000000
#
# Coordination Sequence:
#
# PCOD9042468 Si02
#       8
#     2   2   2   2   2   2   2   2
#     4  11  22  37  55  88 125 153 194 243 294 361
#     4  10  20  37  64  87 113 153 212 241 301 351
#     4   9  19  33  56  85 120 152 192 232 298 367
#     4   9  19  36  58  81 119 156 196 235 300 354
#     4   9  21  40  63  83 115 159 200 257 294 344
#     4  10  17  33  59  82 114 154 191 242 291 353
#     4  11  21  38  63  88 120 159 199 243 301 355
#     4   9  19  36  53  80 120 153 191 230 290 360
#
# _framework density 26.606911
#
# number of rings (size 3 to 8) (size 9 to 14) (size 15 to 20)
#    0.000    2.250    1.250    1.500    0.000    8.500 
#    9.000    0.625    2.750    3.750    0.000    0.000 
#    0.000    0.000    0.000    0.000    0.000    0.000 
#
# Total GULP energy -89299.567035 kJ/mol
# GULP energy per Si atom -5581.222940 kJ/mol
# Density = 2.654635 g / cm^3
# Si number density = 26.606911 Si / 1000 Ang^3
#
#
#
# Elastic Constant Matrix: (Units=GPa)
#
#
# Indices 1 2 3 4 5 6 
#
# 1 50.5460 35.3800 29.4932 6.0942 -4.8566 -2.6754
# 2 35.3800 169.6327 65.7411 26.7337 -13.0510 1.7420
# 3 29.4932 65.7411 100.1389 8.8752 -32.5782 -2.4814
# 4 6.0942 26.7337 8.8752 33.2804 -3.6816 -0.3011
# 5 -4.8566 -13.0510 -32.5782 -3.6816 34.9167 7.5469
# 6 -2.6754 1.7420 -2.4814 -0.3011 7.5469 50.4098
#
#
#
# Elastic Compliance Matrix: (Units=1/GPa)
#
#
# Indices 1 2 3 4 5 6 
#
# 1 0.025656 -0.002825 -0.007049 -0.001037 -0.004560 0.001789
# 2 -0.002825 0.009420 -0.005745 -0.005827 -0.002764 -0.000379
# 3 -0.007049 -0.005745 0.021218 0.002141 0.017263 -0.001703
# 4 -0.001037 -0.005827 0.002141 0.034717 0.003345 -0.000042
# 5 -0.004560 -0.002764 0.017263 0.003345 0.044723 -0.005972
# 6 0.001789 -0.000379 -0.001703 -0.000042 -0.005972 0.020755
#
#
# Mechanical properties :
#
#
# Convention : Reuss Voigt Hill
#
# Bulk Modulus (GPa) = 39.90943 64.61626 52.26284
# Shear Modulus (GPa) = 25.50005 36.36826 30.93416
#
# Velocity S-wave (km/s) = 3.09916 3.70114 3.41344
# Velocity P-wave (km/s) = 5.27623 6.52708 5.93470
#
# Compressibility (1/GPa) = 0.02505674
#
# Stress axis : x y z
#
# Youngs Moduli (GPa) = 38.97737 106.15573 47.13047
#
# Poissons Ratio (x) = 0.29988 0.33223
# Poissons Ratio (y) = 0.11011 0.27074
# Poissons Ratio (z) = 0.27475 0.60981
#
# Static dielectric constant tensor:
#      x y z
#    x 2.137850 0.059980 -0.042940 
#    y 0.059980 2.151090 -0.008840 
#    z -0.042940 -0.008840 2.270910 
# 
# From -- ./inp_files/554160.got.cif
#   From: 2010.05.17/outbox.cif.g08.bks.cpg/sg2_278_cif.got.tgz:554160.got - 2010.06.03 11:33:40.
