data_PCOD9042565
_publ_section_title
;
Structure prediction by ZEFSAII (Michael W. Deem and Ramdas Pophale) SiO2 
 PCOD9042565
Probable space group: P -1
;
_chemical_formula_sum "Si O2"
_cell_formula_units_Z 12
_cell_length_a 7.993504
_cell_length_b 15.117307
_cell_length_c 5.070262
_cell_angle_alpha 98.743999
_cell_angle_beta 118.011208
_cell_angle_gamma 54.347036
_cell_volume 433.156445
_symmetry_space_group_name_H-M "P -1"
_symmetry_group_IT_number 2
_symmetry_cell_setting 'triclinic'
loop_
_space_group_symop_operation_xyz
x,y,z
-x,-y,-z
loop_
_atom_site_type_symbol
_atom_site_label
_atom_site_fract_x
_atom_site_fract_y
_atom_site_fract_z
Si Si1 0.092560 0.759697 0.961934
Si Si2 0.409618 0.678144 0.665331
Si Si3 0.717117 0.952959 0.436049
Si Si4 0.164203 0.507795 0.322939
Si Si5 0.470422 0.160553 0.033696
Si Si6 0.195421 0.315638 0.499063
O O1 0.297179 0.690668 0.868840
O O2 0.938913 0.879315 0.757248
O O3 0.921742 0.719598 0.811683
O O4 0.213331 0.739307 0.321846
O O5 0.598299 0.548920 0.687711
O O6 0.542167 0.738426 0.790931
O O7 0.500000 0.000000 0.500000
O O8 0.683515 0.052643 0.289358
O O9 0.699609 0.878961 0.165588
O O10 0.228934 0.411697 0.533832
O O11 0.010920 0.625469 0.401447
O O12 0.000000 0.500000 0.000000
O O13 0.437019 0.206594 0.731366
#
# Coordination Sequence:
#
# PCOD9042565 Si02
#       6
#     2   2   2   2   2   2
#     4  11  29  45  70 108 152 176 232 297 367 401
#     4  12  27  45  69 109 148 183 224 305 357 411
#     4  10  25  44  75 100 132 194 242 279 344 431
#     4  11  24  44  76  99 135 190 250 272 351 424
#     4  10  23  44  72  97 139 182 240 280 343 423
#     4  10  24  45  73 102 136 191 239 290 334 435
#
# _framework density 27.703614999999999
#
# number of rings (size 3 to 8) (size 9 to 14) (size 15 to 20)
#    0.000    1.333    1.667    1.000   18.667    2.667 
#    0.000    0.000    0.000    0.000    0.000    0.000 
#    0.000    0.000    0.000    0.000    0.000    0.000 
#
# Total GULP energy -66983.729983 kJ/mol
# GULP energy per Si atom -5581.977499 kJ/mol
# Density = 2.764056 g / cm^3
# Si number density = 27.703615 Si / 1000 Ang^3
#
#
#
# Elastic Constant Matrix: (Units=GPa)
#
#
# Indices 1 2 3 4 5 6 
#
# 1 88.3347 21.3198 13.6145 -5.7914 0.0556 -2.6671
# 2 21.3198 82.7203 24.8682 27.3949 4.1304 2.4617
# 3 13.6145 24.8682 173.5936 9.3569 15.0782 3.6521
# 4 -5.7914 27.3949 9.3569 52.4460 3.9428 1.3184
# 5 0.0556 4.1304 15.0782 3.9428 40.2937 -1.9367
# 6 -2.6671 2.4617 3.6521 1.3184 -1.9367 45.4896
#
#
#
# Elastic Compliance Matrix: (Units=1/GPa)
#
#
# Indices 1 2 3 4 5 6 
#
# 1 0.012751 -0.004390 -0.000624 0.003763 0.000343 0.000941
# 2 -0.004390 0.016654 -0.001520 -0.008870 -0.000302 -0.000792
# 3 -0.000624 -0.001520 0.006240 -0.000210 -0.002184 -0.000542
# 4 0.003763 -0.008870 -0.000210 0.024259 -0.001393 -0.000045
# 5 0.000343 -0.000302 -0.002184 -0.001393 0.025867 0.001353
# 6 0.000941 -0.000792 -0.000542 -0.000045 0.001353 0.022184
#
#
# Mechanical properties :
#
#
# Convention : Reuss Voigt Hill
#
# Bulk Modulus (GPa) = 44.29458 51.58373 47.93915
# Shear Modulus (GPa) = 38.89595 46.63561 42.76578
#
# Velocity S-wave (km/s) = 3.75107 4.10735 3.93324
# Velocity P-wave (km/s) = 5.89781 6.41514 6.16190
#
# Compressibility (1/GPa) = 0.02257613
#
# Stress axis : x y z
#
# Youngs Moduli (GPa) = 78.42399 60.04669 160.26434
#
# Poissons Ratio (x) = 0.26363 0.09993
# Poissons Ratio (y) = 0.34431 0.24366
# Poissons Ratio (z) = 0.04890 0.09129
#
# Static dielectric constant tensor:
#      x y z
#    x 2.434270 0.015720 -0.102930 
#    y 0.015720 2.286290 -0.129920 
#    z -0.102930 -0.129920 2.313420 
# 
# From -- ./inp_files/39567.got.cif
#   From: 2010.05.17/outbox.cif.g08.bks.cpg/sg2_20_cif.got.tgz:39567.got - 2010.06.03 11:33:40.
