data_PCOD9042146
_publ_section_title
;
Structure prediction by ZEFSAII (Michael W. Deem and Ramdas Pophale) SiO2 
 PCOD9042146
Probable space group: P -1
;
_chemical_formula_sum "Si O2"
_cell_formula_units_Z 16
_cell_length_a 14.139544
_cell_length_b 15.910220
_cell_length_c 12.638460
_cell_angle_alpha 48.374170
_cell_angle_beta 158.789215
_cell_angle_gamma 134.092571
_cell_volume 737.475510
_symmetry_space_group_name_H-M "P -1"
_symmetry_group_IT_number 2
_symmetry_cell_setting 'triclinic'
loop_
_space_group_symop_operation_xyz
x,y,z
-x,-y,-z
loop_
_atom_site_type_symbol
_atom_site_label
_atom_site_fract_x
_atom_site_fract_y
_atom_site_fract_z
Si Si1 0.342955 0.748100 0.464885
Si Si2 0.717203 0.258275 0.955863
Si Si3 0.089995 0.305910 0.491248
Si Si4 0.774669 0.503333 0.349262
Si Si5 0.941718 0.862493 0.077962
Si Si6 0.957951 0.929124 0.271789
Si Si7 0.572759 0.085631 0.784051
Si Si8 0.297274 0.383839 0.429091
O O1 0.264562 0.609084 0.519859
O O2 0.380888 0.803351 0.340345
O O3 0.129331 0.802248 0.257116
O O4 0.632688 0.799556 0.779944
O O5 0.700367 0.134681 0.989006
O O6 0.431428 0.283218 0.617750
O O7 0.801912 0.275953 0.152431
O O8 0.978449 0.351338 0.095330
O O9 0.123099 0.380867 0.568886
O O10 0.293946 0.383817 0.552742
O O11 0.135361 0.178434 0.655170
O O12 0.000000 0.500000 0.500000
O O13 0.500000 0.500000 0.000000
O O14 0.986585 0.862616 0.249016
O O15 0.000000 0.000000 0.000000
O O16 0.255339 0.018856 0.523540
O O17 0.733683 0.999562 0.975035
O O18 0.500000 0.500000 0.500000
#
# Coordination Sequence:
#
# PCOD9042146 Si02
#       8
#     2   2   2   2   2   2   2   2
#     4  12  24  43  70 100 138 174 230 287 339 403
#     4  10  25  44  67 100 133 172 233 275 346 398
#     4  10  28  46  71  99 136 190 222 278 353 402
#     4  12  28  48  70 104 140 180 230 287 339 408
#     4  12  22  44  66 102 135 181 225 275 351 403
#     4  12  25  41  70  96 142 176 232 275 341 420
#     4  12  25  42  67 106 131 179 225 290 337 393
#     4  10  23  44  69  96 130 183 228 275 330 410
#
# _framework density 21.695636
#
# number of rings (size 3 to 8) (size 9 to 14) (size 15 to 20)
#    0.750    0.000    2.500    4.500    5.250    1.000 
#    0.000    0.000    0.000    0.000    0.000    0.000 
#    0.000    0.000    0.000    0.000    0.000    0.000 
#
# Total GULP energy -89310.807041 kJ/mol
# GULP energy per Si atom -5581.925440 kJ/mol
# Density = 2.164626 g / cm^3
# Si number density = 21.695636 Si / 1000 Ang^3
#
#
#
# Elastic Constant Matrix: (Units=GPa)
#
#
# Indices 1 2 3 4 5 6 
#
# 1 83.4975 40.5288 23.2824 7.6532 0.3356 -4.4566
# 2 40.5288 111.3383 24.6308 -6.7082 -17.5706 9.9810
# 3 23.2824 24.6308 96.5640 10.9422 11.7059 -5.0090
# 4 7.6532 -6.7082 10.9422 35.5988 -1.6410 -8.2931
# 5 0.3356 -17.5706 11.7059 -1.6410 26.2754 -1.4875
# 6 -4.4566 9.9810 -5.0090 -8.2931 -1.4875 47.2159
#
#
#
# Elastic Compliance Matrix: (Units=1/GPa)
#
#
# Indices 1 2 3 4 5 6 
#
# 1 0.016032 -0.006719 -0.001051 -0.004135 -0.004377 0.001958
# 2 -0.006719 0.014935 -0.004448 0.005512 0.012234 -0.002910
# 3 -0.001051 -0.004448 0.013475 -0.004919 -0.009209 0.001117
# 4 -0.004135 0.005512 -0.004919 0.032828 0.008204 0.003947
# 5 -0.004377 0.012234 -0.009209 0.008204 0.050857 -0.000933
# 6 0.001958 -0.002910 0.001117 0.003947 -0.000933 0.022761
#
#
# Mechanical properties :
#
#
# Convention : Reuss Voigt Hill
#
# Bulk Modulus (GPa) = 49.98359 52.03153 51.00756
# Shear Modulus (GPa) = 27.47347 35.34855 31.41101
#
# Velocity S-wave (km/s) = 3.56239 4.04083 3.80913
# Velocity P-wave (km/s) = 6.32530 6.76798 6.55038
#
# Compressibility (1/GPa) = 0.02000657
#
# Stress axis : x y z
#
# Youngs Moduli (GPa) = 62.37628 66.95654 74.20920
#
# Poissons Ratio (x) = 0.44986 0.07799
# Poissons Ratio (y) = 0.41909 0.33010
# Poissons Ratio (z) = 0.06555 0.29784
#
# Static dielectric constant tensor:
#      x y z
#    x 1.855400 0.035440 -0.037190 
#    y 0.035440 1.788930 -0.029330 
#    z -0.037190 -0.029330 1.778610 
# 
# From -- ./inp_files/534353.got.cif
#   From: 2010.05.17/outbox.cif.g08.bks.cpg/sg2_268_cif.got.tgz:534353.got - 2010.06.03 11:33:40.
