data_PCOD9042538
_publ_section_title
;
Structure prediction by ZEFSAII (Michael W. Deem and Ramdas Pophale) SiO2 
 PCOD9042538
Probable space group: P -1
;
_chemical_formula_sum "Si O2"
_cell_formula_units_Z 13
_cell_length_a 19.373926
_cell_length_b 5.417327
_cell_length_c 16.161290
_cell_angle_alpha 99.794913
_cell_angle_beta 160.280205
_cell_angle_gamma 86.740144
_cell_volume 536.094278
_symmetry_space_group_name_H-M "P -1"
_symmetry_group_IT_number 2
_symmetry_cell_setting 'triclinic'
loop_
_space_group_symop_operation_xyz
x,y,z
-x,-y,-z
loop_
_atom_site_type_symbol
_atom_site_label
_atom_site_fract_x
_atom_site_fract_y
_atom_site_fract_z
Si Si1 0.500000 0.500000 0.500000
Si Si2 0.894379 0.698226 0.845806
Si Si3 0.404134 0.052980 0.226818
Si Si4 0.021126 0.151388 0.692460
Si Si5 0.371200 0.598875 0.054329
Si Si6 0.248805 0.602773 0.479792
Si Si7 0.431059 0.200517 0.874591
O O1 0.653963 0.623579 0.604463
O O2 0.420234 0.200993 0.340996
O O3 0.900931 0.645217 0.753317
O O4 0.000000 0.500000 0.000000
O O5 0.000000 0.000000 0.000000
O O6 0.630443 0.189915 0.442494
O O7 0.366677 0.744978 0.145590
O O8 0.207193 0.098563 0.955067
O O9 0.890839 0.290431 0.611206
O O10 0.829107 0.899775 0.432095
O O11 0.149968 0.362926 0.782183
O O12 0.565880 0.477397 0.270367
O O13 0.440654 0.796487 0.067077
O O14 0.500000 0.500000 0.000000
O O15 0.500000 0.000000 0.000000
#
# Coordination Sequence:
#
# PCOD9042538 Si02
#       7
#     1   2   2   2   2   2   2
#     4  10  24  44  68 108 154 190 254 304 350 424
#     4  11  26  42  67 104 147 196 252 305 360 421
#     4  10  23  44  72 107 146 200 249 300 365 440
#     4  11  25  46  75 103 148 197 241 302 382 442
#     4  11  26  45  76 107 144 196 248 300 381 446
#     4  10  23  45  69 103 147 199 244 303 365 441
#     4  12  29  51  78 111 149 188 245 318 380 456
#
# _framework density 24.249464
#
# number of rings (size 3 to 8) (size 9 to 14) (size 15 to 20)
#    0.000    1.231    1.538    1.846   12.923    1.846 
#    0.000    0.000    0.000    0.000    0.000    0.000 
#    0.000    0.000    0.000    0.000    0.000    0.000 
#
# Total GULP energy -72448.683469 kJ/mol
# GULP energy per Si atom -5572.975651 kJ/mol
# Density = 2.419427 g / cm^3
# Si number density = 24.249464 Si / 1000 Ang^3
#
#
#
# Elastic Constant Matrix: (Units=GPa)
#
#
# Indices 1 2 3 4 5 6 
#
# 1 86.5330 33.3655 32.0260 0.4034 -2.3967 -5.2463
# 2 33.3655 108.6799 53.6400 15.1140 1.2166 -13.1359
# 3 32.0260 53.6400 130.7801 29.8872 5.5181 -1.8344
# 4 0.4034 15.1140 29.8872 52.7542 -10.0541 -2.3307
# 5 -2.3967 1.2166 5.5181 -10.0541 29.6712 11.0749
# 6 -5.2463 -13.1359 -1.8344 -2.3307 11.0749 36.9661
#
#
#
# Elastic Compliance Matrix: (Units=1/GPa)
#
#
# Indices 1 2 3 4 5 6 
#
# 1 0.013960 -0.003322 -0.002860 0.003002 0.002811 0.000006
# 2 -0.003322 0.012988 -0.003965 -0.001693 -0.002332 0.004539
# 3 -0.002860 -0.003965 0.011562 -0.006206 -0.004180 -0.000380
# 4 0.003002 -0.001693 -0.006206 0.024877 0.010686 -0.002117
# 5 0.002811 -0.002332 -0.004180 0.010686 0.043246 -0.012920
# 6 0.000006 0.004539 -0.000380 -0.002117 -0.012920 0.032384
#
#
# Mechanical properties :
#
#
# Convention : Reuss Voigt Hill
#
# Bulk Modulus (GPa) = 54.89614 62.67288 58.78451
# Shear Modulus (GPa) = 30.23263 37.67573 33.95418
#
# Velocity S-wave (km/s) = 3.53474 3.94594 3.74599
# Velocity P-wave (km/s) = 6.27267 6.83094 6.55775
#
# Compressibility (1/GPa) = 0.01821622
#
# Stress axis : x y z
#
# Youngs Moduli (GPa) = 71.63249 76.99263 86.48782
#
# Poissons Ratio (x) = 0.25579 0.24739
# Poissons Ratio (y) = 0.23798 0.34289
# Poissons Ratio (z) = 0.20490 0.30524
#
# Static dielectric constant tensor:
#      x y z
#    x 1.943330 0.050440 -0.046880 
#    y 0.050440 2.044800 0.068310 
#    z -0.046880 0.068310 1.989990 
# 
# From -- ./inp_files/5283.got.cif
#   From: 2010.05.17/outbox.cif.g08.bks.cpg/sg2_3_cif.got.tgz:5283.got - 2010.06.03 11:33:40.
