data_PCOD9042033
_publ_section_title
;
Structure prediction by ZEFSAII (Michael W. Deem and Ramdas Pophale) SiO2 
 PCOD9042033
Probable space group: P -1
;
_chemical_formula_sum "Si O2"
_cell_formula_units_Z 14
_cell_length_a 5.634776
_cell_length_b 7.080594
_cell_length_c 21.044280
_cell_angle_alpha 65.608099
_cell_angle_beta 71.417625
_cell_angle_gamma 45.117058
_cell_volume 541.325897
_symmetry_space_group_name_H-M "P -1"
_symmetry_group_IT_number 2
_symmetry_cell_setting 'triclinic'
loop_
_space_group_symop_operation_xyz
x,y,z
-x,-y,-z
loop_
_atom_site_type_symbol
_atom_site_label
_atom_site_fract_x
_atom_site_fract_y
_atom_site_fract_z
Si Si1 0.607633 0.715649 0.511412
Si Si2 0.387010 0.778173 0.210309
Si Si3 0.747790 0.332643 0.341687
Si Si4 0.527176 0.159129 0.637315
Si Si5 0.437768 0.032017 0.927784
Si Si6 0.386649 0.916794 0.776232
Si Si7 0.692261 0.502011 0.922333
O O1 0.489128 0.642926 0.589932
O O2 0.457462 0.773098 0.445950
O O3 0.000000 0.500000 0.500000
O O4 0.500000 0.000000 0.500000
O O5 0.585115 0.485203 0.268178
O O6 0.511391 0.768336 0.131735
O O7 0.497239 0.932213 0.217246
O O8 0.002205 0.927123 0.217191
O O9 0.771064 0.545317 0.345697
O O10 0.089462 0.019429 0.347726
O O11 0.477294 0.946572 0.692432
O O12 0.048468 0.193844 0.925054
O O13 0.709695 0.725127 0.918682
O O14 0.500000 0.000000 0.000000
O O15 0.546515 0.647009 0.844460
O O16 0.500000 0.500000 0.000000
#
# Coordination Sequence:
#
# PCOD9042033 Si02
#       7
#     2   2   2   2   2   2   2
#     4  12  24  40  64  98 134 178 225 280 337 402
#     4  10  23  44  69 100 136 178 226 280 338 402
#     4  11  23  43  66  95 132 179 225 278 337 403
#     4  11  23  43  66  95 132 179 225 278 337 403
#     4  11  23  42  66 100 136 179 226 280 338 403
#     4  10  23  44  69 100 136 178 226 280 338 402
#     4  11  23  42  66 100 136 179 226 280 338 403
#
# _framework density 25.862425000000002
#
# number of rings (size 3 to 8) (size 9 to 14) (size 15 to 20)
#    0.000    1.143    0.000    6.000    0.000    4.571 
#    0.000   12.857    0.000    0.000    0.000    0.000 
#    0.000    0.000    0.000    0.000    0.000    0.000 
#
# Total GULP energy -78134.616944 kJ/mol
# GULP energy per Si atom -5581.044067 kJ/mol
# Density = 2.580356 g / cm^3
# Si number density = 25.862425 Si / 1000 Ang^3
#
#
#
# Elastic Constant Matrix: (Units=GPa)
#
#
# Indices 1 2 3 4 5 6 
#
# 1 82.1281 28.3770 33.0216 -13.9657 -8.1398 -21.8088
# 2 28.3770 111.4283 15.7332 -11.5971 -3.9748 -18.9814
# 3 33.0216 15.7332 254.6974 -13.5147 -10.7356 -28.7041
# 4 -13.9657 -11.5971 -13.5147 45.8338 -10.3274 -3.2016
# 5 -8.1398 -3.9748 -10.7356 -10.3274 50.8888 -2.5442
# 6 -21.8088 -18.9814 -28.7041 -3.2016 -2.5442 55.6905
#
#
#
# Elastic Compliance Matrix: (Units=1/GPa)
#
#
# Indices 1 2 3 4 5 6 
#
# 1 0.016038 -0.002358 -0.000892 0.005204 0.003523 0.005477
# 2 -0.002358 0.010328 0.000164 0.002390 0.001092 0.002868
# 3 -0.000892 0.000164 0.004400 0.001486 0.001206 0.002115
# 4 0.005204 0.002390 0.001486 0.026396 0.006962 0.005454
# 5 0.003523 0.001092 0.001206 0.006962 0.022156 0.003786
# 6 0.005477 0.002868 0.002115 0.005454 0.003786 0.022656
#
#
# Mechanical properties :
#
#
# Convention : Reuss Voigt Hill
#
# Bulk Modulus (GPa) = 40.66089 66.94638 53.80364
# Shear Modulus (GPa) = 42.97621 55.22409 49.10015
#
# Velocity S-wave (km/s) = 4.08085 4.62595 4.36192
# Velocity P-wave (km/s) = 6.16121 7.38067 6.79834
#
# Compressibility (1/GPa) = 0.02459366
#
# Stress axis : x y z
#
# Youngs Moduli (GPa) = 62.35220 96.82345 227.28457
#
# Poissons Ratio (x) = 0.22832 0.20269
# Poissons Ratio (y) = 0.14704 -0.03724
# Poissons Ratio (z) = 0.05560 -0.01587
#
# Static dielectric constant tensor:
#      x y z
#    x 2.187840 0.088300 0.043960 
#    y 0.088300 1.966150 0.075000 
#    z 0.043960 0.075000 2.115650 
# 
# From -- ./inp_files/10261.got.cif
#   From: 2010.05.17/outbox.cif.g08.bks.cpg/sg2_6_cif.got.tgz:10261.got - 2010.06.03 11:33:40.
