data_PCOD9042603
_publ_section_title
;
Structure prediction by ZEFSAII (Michael W. Deem and Ramdas Pophale) SiO2 
 PCOD9042603
Probable space group: P -1
;
_chemical_formula_sum "Si O2"
_cell_formula_units_Z 16
_cell_length_a 8.449965
_cell_length_b 12.206445
_cell_length_c 14.232731
_cell_angle_alpha 68.238988
_cell_angle_beta 88.320994
_cell_angle_gamma 36.745097
_cell_volume 714.694360
_symmetry_space_group_name_H-M "P -1"
_symmetry_group_IT_number 2
_symmetry_cell_setting 'triclinic'
loop_
_space_group_symop_operation_xyz
x,y,z
-x,-y,-z
loop_
_atom_site_type_symbol
_atom_site_label
_atom_site_fract_x
_atom_site_fract_y
_atom_site_fract_z
Si Si1 0.155081 0.319268 0.133861
Si Si2 0.111800 0.557731 0.366232
Si Si3 0.652675 0.641842 0.365063
Si Si4 0.197635 0.747385 0.380582
Si Si5 0.387224 0.394880 0.811649
Si Si6 0.699373 0.944801 0.940566
Si Si7 0.388552 0.542765 0.093717
Si Si8 0.569498 0.205157 0.302428
O O1 0.300395 0.120257 0.138228
O O2 0.392006 0.232870 0.224578
O O3 0.884897 0.448768 0.162353
O O4 0.000000 0.500000 0.000000
O O5 0.221631 0.459600 0.501041
O O6 0.093473 0.713197 0.317022
O O7 0.361133 0.358426 0.348795
O O8 0.813263 0.665142 0.326821
O O9 0.306964 0.809059 0.325927
O O10 0.751148 0.494271 0.324020
O O11 0.500000 0.500000 0.500000
O O12 0.910695 0.943259 0.392008
O O13 0.595139 0.358881 0.867219
O O14 0.576864 0.154704 0.873498
O O15 0.044708 0.720010 0.038434
O O16 0.500000 0.000000 0.000000
O O17 0.587466 0.315758 0.209874
O O18 0.500000 0.500000 0.000000
#
# Coordination Sequence:
#
# PCOD9042603 Si02
#       8
#     2   2   2   2   2   2   2   2
#     4  12  23  45  65 103 145 187 246 291 357 445
#     4  10  23  49  71 105 143 190 251 304 371 447
#     4  10  23  44  73 102 143 185 247 305 362 444
#     4  10  25  47  72 108 145 191 250 308 373 441
#     4  12  24  44  71 102 146 187 243 305 364 429
#     4  12  26  43  71 100 145 200 238 299 360 436
#     4  12  26  46  67 109 150 191 247 299 365 448
#     4  12  25  45  77 102 150 201 235 309 378 433
#
# _framework density 22.387191000000001
#
# number of rings (size 3 to 8) (size 9 to 14) (size 15 to 20)
#    0.000    0.750    5.000    1.125    3.500    3.000 
#    0.000    8.125    0.000    0.000    0.000    0.000 
#    0.000    0.000    0.000    0.000    0.000    0.000 
#
# Total GULP energy -89269.472597 kJ/mol
# GULP energy per Si atom -5579.342037 kJ/mol
# Density = 2.233624 g / cm^3
# Si number density = 22.387191 Si / 1000 Ang^3
#
#
#
# Elastic Constant Matrix: (Units=GPa)
#
#
# Indices 1 2 3 4 5 6 
#
# 1 137.4436 45.3789 20.9923 5.3923 18.1639 -1.4293
# 2 45.3789 150.2786 57.3906 8.3541 0.4572 -2.6848
# 3 20.9923 57.3906 96.0089 18.8310 5.7950 -6.2314
# 4 5.3923 8.3541 18.8310 42.4219 6.7866 4.9860
# 5 18.1639 0.4572 5.7950 6.7866 27.8233 10.7923
# 6 -1.4293 -2.6848 -6.2314 4.9860 10.7923 51.8393
#
#
#
# Elastic Compliance Matrix: (Units=1/GPa)
#
#
# Indices 1 2 3 4 5 6 
#
# 1 0.009025 -0.002731 0.000103 0.000212 -0.006482 0.001449
# 2 -0.002731 0.009494 -0.005417 0.000511 0.002981 -0.000905
# 3 0.000103 -0.005417 0.015048 -0.005489 -0.002798 0.002642
# 4 0.000212 0.000511 -0.005489 0.026896 -0.004696 -0.002237
# 5 -0.006482 0.002981 -0.002798 -0.004696 0.045490 -0.009380
# 6 0.001449 -0.000905 0.002642 -0.002237 -0.009380 0.021769
#
#
# Mechanical properties :
#
#
# Convention : Reuss Voigt Hill
#
# Bulk Modulus (GPa) = 57.21692 70.13941 63.67817
# Shear Modulus (GPa) = 33.41405 41.74820 37.58112
#
# Velocity S-wave (km/s) = 3.86755 4.32305 4.10163
# Velocity P-wave (km/s) = 6.74961 7.50443 7.13701
#
# Compressibility (1/GPa) = 0.01747735
#
# Stress axis : x y z
#
# Youngs Moduli (GPa) = 110.80388 105.33044 66.45266
#
# Poissons Ratio (x) = 0.28762 -0.00683
# Poissons Ratio (y) = 0.30256 0.35998
# Poissons Ratio (z) = -0.01138 0.57058
#
# Static dielectric constant tensor:
#      x y z
#    x 2.025990 0.095320 -0.032420 
#    y 0.095320 1.826570 -0.001790 
#    z -0.032420 -0.001790 1.930330 
# 
# From -- ./inp_files/500358.got.cif
#   From: 2010.05.17/outbox.cif.g08.bks.cpg/sg2_251_cif.got.tgz:500358.got - 2010.06.03 11:33:40.
