data_PCOD9042825
_publ_section_title
;
Structure prediction by ZEFSAII (Michael W. Deem and Ramdas Pophale) SiO2 
 PCOD9042825
Probable space group: P -1
;
_chemical_formula_sum "Si O2"
_cell_formula_units_Z 14
_cell_length_a 9.124140
_cell_length_b 4.897004
_cell_length_c 16.962107
_cell_angle_alpha 102.549865
_cell_angle_beta 113.677518
_cell_angle_gamma 115.392589
_cell_volume 553.196958
_symmetry_space_group_name_H-M "P -1"
_symmetry_group_IT_number 2
_symmetry_cell_setting 'triclinic'
loop_
_space_group_symop_operation_xyz
x,y,z
-x,-y,-z
loop_
_atom_site_type_symbol
_atom_site_label
_atom_site_fract_x
_atom_site_fract_y
_atom_site_fract_z
Si Si1 0.746711 0.277546 0.020763
Si Si2 0.252981 0.142471 0.879126
Si Si3 0.670694 0.296286 0.613669
Si Si4 0.461785 0.392897 0.168284
Si Si5 0.183780 0.754822 0.504394
Si Si6 0.415985 0.531834 0.623588
Si Si7 0.866096 0.552327 0.823798
O O1 0.701696 0.558278 0.031578
O O2 0.982071 0.461816 0.089169
O O3 0.314355 0.914748 0.919070
O O4 0.646981 0.984023 0.916270
O O5 0.366325 0.317888 0.834066
O O6 0.015936 0.883985 0.820740
O O7 0.846089 0.407193 0.598405
O O8 0.598311 0.541250 0.626791
O O9 0.741844 0.264743 0.712841
O O10 0.500000 0.000000 0.500000
O O11 0.555961 0.415752 0.274215
O O12 0.286894 0.432387 0.155321
O O13 0.356895 0.765606 0.588840
O O14 0.000000 0.500000 0.500000
O O15 0.240201 0.136750 0.540336
#
# Coordination Sequence:
#
# PCOD9042825 Si02
#       7
#     2   2   2   2   2   2   2
#     4  10  23  45  63  99 132 173 217 272 324 385
#     4  10  24  42  63  95 134 170 221 265 327 380
#     4   9  20  44  64  91 130 168 211 267 320 385
#     4  11  22  44  68  95 136 173 217 271 324 394
#     4  11  23  41  64  94 124 161 212 263 316 378
#     4  10  24  41  61  95 120 170 208 254 324 381
#     4   9  23  43  65 100 127 178 218 269 325 389
#
# _framework density 25.307441000000001
#
# number of rings (size 3 to 8) (size 9 to 14) (size 15 to 20)
#    0.857    1.143    0.000    2.143    2.000    4.000 
#   23.143    0.000    0.000    0.000    0.000    0.000 
#    0.000    0.000    0.000    0.000    0.000    0.000 
#
# Total GULP energy -78183.011686 kJ/mol
# GULP energy per Si atom -5584.500835 kJ/mol
# Density = 2.524984 g / cm^3
# Si number density = 25.307441 Si / 1000 Ang^3
#
#
#
# Elastic Constant Matrix: (Units=GPa)
#
#
# Indices 1 2 3 4 5 6 
#
# 1 130.4976 26.6602 54.6873 3.1398 -25.2064 25.2850
# 2 26.6602 74.5696 24.1857 7.7163 -4.0140 3.7686
# 3 54.6873 24.1857 108.2933 3.5703 -29.3518 7.2706
# 4 3.1398 7.7163 3.5703 35.7376 5.4824 3.4907
# 5 -25.2064 -4.0140 -29.3518 5.4824 42.2704 -1.4245
# 6 25.2850 3.7686 7.2706 3.4907 -1.4245 42.2192
#
#
#
# Elastic Compliance Matrix: (Units=1/GPa)
#
#
# Indices 1 2 3 4 5 6 
#
# 1 0.011700 -0.002387 -0.003930 -0.000125 0.003836 -0.005977
# 2 -0.002387 0.015254 -0.002526 -0.002690 -0.001357 0.000679
# 3 -0.003930 -0.002526 0.013748 -0.001644 0.007196 0.000590
# 4 -0.000125 -0.002690 -0.001644 0.029766 -0.005401 -0.002045
# 5 0.003836 -0.001357 0.007196 -0.005401 0.031449 -0.001908
# 6 -0.005977 0.000679 0.000590 -0.002045 -0.001908 0.027208
#
#
# Mechanical properties :
#
#
# Convention : Reuss Voigt Hill
#
# Bulk Modulus (GPa) = 43.44927 58.26965 50.85946
# Shear Modulus (GPa) = 32.36616 37.90058 35.13337
#
# Velocity S-wave (km/s) = 3.58008 3.87409 3.72998
# Velocity P-wave (km/s) = 5.85620 6.56400 6.22018
#
# Compressibility (1/GPa) = 0.02301534
#
# Stress axis : x y z
#
# Youngs Moduli (GPa) = 85.47293 65.55713 72.73752
#
# Poissons Ratio (x) = 0.15647 0.28587
# Poissons Ratio (y) = 0.20400 0.18375
# Poissons Ratio (z) = 0.33592 0.16561
#
# Static dielectric constant tensor:
#      x y z
#    x 2.382880 0.285610 0.229010 
#    y 0.285610 2.180780 0.155860 
#    z 0.229010 0.155860 2.091370 
# 
# From -- ./inp_files/584992.got.cif
#   From: 2010.05.17/outbox.cif.g08.bks.cpg/sg2_293_cif.got.tgz:584992.got - 2010.06.03 11:33:40.
