data_PCOD9042699
_publ_section_title
;
Structure prediction by ZEFSAII (Michael W. Deem and Ramdas Pophale) SiO2 
 PCOD9042699
Probable space group: P -1
;
_chemical_formula_sum "Si O2"
_cell_formula_units_Z 10
_cell_length_a 19.979948
_cell_length_b 10.661212
_cell_length_c 8.747389
_cell_angle_alpha 57.779021
_cell_angle_beta 37.449926
_cell_angle_gamma 26.035598
_cell_volume 366.957397
_symmetry_space_group_name_H-M "P -1"
_symmetry_group_IT_number 2
_symmetry_cell_setting 'triclinic'
loop_
_space_group_symop_operation_xyz
x,y,z
-x,-y,-z
loop_
_atom_site_type_symbol
_atom_site_label
_atom_site_fract_x
_atom_site_fract_y
_atom_site_fract_z
Si Si1 0.597228 0.782137 0.319236
Si Si2 0.478259 0.703480 0.371355
Si Si3 0.005198 0.950554 0.778307
Si Si4 0.569019 0.097418 0.994141
Si Si5 0.131420 0.029375 0.282101
O O1 0.381696 0.930166 0.536636
O O2 0.847492 0.365584 0.196836
O O3 0.500000 0.000000 0.500000
O O4 0.668510 0.806699 0.037135
O O5 0.500000 0.500000 0.500000
O O6 0.358012 0.917212 0.290998
O O7 0.822654 0.290808 0.988647
O O8 0.811795 0.112012 0.893991
O O9 0.212271 0.800815 0.405386
O O10 0.219754 0.521190 0.367944
O O11 0.720799 0.005456 0.910174
#
# Coordination Sequence:
#
# PCOD9042699 Si02
#       5
#     2   2   2   2   2
#     4  12  25  45  72 111 149 189 244 308 373 427
#     4  11  26  46  73 107 147 199 247 298 362 447
#     4  10  23  44  74 105 147 192 252 291 368 437
#     4  11  25  47  75 107 151 185 249 301 375 420
#     4  10  23  45  76 107 140 200 241 303 354 451
#
# _framework density 27.251117000000001
#
# number of rings (size 3 to 8) (size 9 to 14) (size 15 to 20)
#    0.000    1.200    2.000    2.400    2.800   11.200 
#    0.000    6.000    0.000    0.000    0.000    0.000 
#    0.000    0.000    0.000    0.000    0.000    0.000 
#
# Total GULP energy -55919.304036 kJ/mol
# GULP energy per Si atom -5591.930404 kJ/mol
# Density = 2.718909 g / cm^3
# Si number density = 27.251117 Si / 1000 Ang^3
#
#
#
# Elastic Constant Matrix: (Units=GPa)
#
#
# Indices 1 2 3 4 5 6 
#
# 1 185.0746 52.4054 41.9448 -14.5368 1.0491 19.3646
# 2 52.4054 204.8846 38.0582 -45.1162 0.5218 -1.0182
# 3 41.9448 38.0582 68.8476 -15.4985 -7.6311 3.0648
# 4 -14.5368 -45.1162 -15.4985 63.2731 2.5575 -2.5781
# 5 1.0491 0.5218 -7.6311 2.5575 49.0553 -5.3198
# 6 19.3646 -1.0182 3.0648 -2.5781 -5.3198 48.6253
#
#
#
# Elastic Compliance Matrix: (Units=1/GPa)
#
#
# Indices 1 2 3 4 5 6 
#
# 1 0.006791 -0.001129 -0.003544 -0.000181 -0.000959 -0.002619
# 2 -0.001129 0.006411 -0.002079 0.003857 -0.000474 0.000868
# 3 -0.003544 -0.002079 0.018621 0.002171 0.002950 0.000632
# 4 -0.000181 0.003857 0.002171 0.019108 -0.000591 0.000964
# 5 -0.000959 -0.000474 0.002950 -0.000591 0.021168 0.002471
# 6 -0.002619 0.000868 0.000632 0.000964 0.002471 0.021908
#
#
# Mechanical properties :
#
#
# Convention : Reuss Voigt Hill
#
# Bulk Modulus (GPa) = 54.58787 80.40263 67.49525
# Shear Modulus (GPa) = 44.00739 53.95062 48.97901
#
# Velocity S-wave (km/s) = 4.02292 4.45427 4.24408
# Velocity P-wave (km/s) = 6.45395 7.48482 6.98842
#
# Compressibility (1/GPa) = 0.01831909
#
# Stress axis : x y z
#
# Youngs Moduli (GPa) = 147.24392 155.99204 53.70411
#
# Poissons Ratio (x) = 0.17615 0.19032
# Poissons Ratio (y) = 0.16627 0.11163
# Poissons Ratio (z) = 0.52181 0.32426
#
# Static dielectric constant tensor:
#      x y z
#    x 2.198990 -0.027190 0.023710 
#    y -0.027190 2.128790 0.020890 
#    z 0.023710 0.020890 2.326360 
# 
# From -- ./inp_files/16276.got.cif
#   From: 2010.05.17/outbox.cif.g08.bks.cpg/sg2_9_cif.got.tgz:16276.got - 2010.06.03 11:33:40.
