data_PCOD9042746
_publ_section_title
;
Structure prediction by ZEFSAII (Michael W. Deem and Ramdas Pophale) SiO2 
 PCOD9042746
Probable space group: P -1
;
_chemical_formula_sum "Si O2"
_cell_formula_units_Z 14
_cell_length_a 12.602080
_cell_length_b 8.443485
_cell_length_c 9.319187
_cell_angle_alpha 62.292420
_cell_angle_beta 71.611661
_cell_angle_gamma 43.297436
_cell_volume 601.625727
_symmetry_space_group_name_H-M "P -1"
_symmetry_group_IT_number 2
_symmetry_cell_setting 'triclinic'
loop_
_space_group_symop_operation_xyz
x,y,z
-x,-y,-z
loop_
_atom_site_type_symbol
_atom_site_label
_atom_site_fract_x
_atom_site_fract_y
_atom_site_fract_z
Si Si1 0.820011 0.722222 0.358719
Si Si2 0.245489 0.075440 0.377336
Si Si3 0.314202 0.659443 0.703261
Si Si4 0.129230 0.003842 0.917880
Si Si5 0.599845 0.401263 0.854309
Si Si6 0.942167 0.258713 0.365516
Si Si7 0.472315 0.114782 0.307634
O O1 0.815745 0.779452 0.503223
O O2 0.867619 0.464832 0.432612
O O3 0.927184 0.737698 0.213558
O O4 0.651748 0.938955 0.262297
O O5 0.370691 0.085482 0.274646
O O6 0.100433 0.188798 0.290563
O O7 0.314733 0.808559 0.514757
O O8 0.229296 0.836849 0.804619
O O9 0.491568 0.432995 0.766906
O O10 0.201839 0.620881 0.727677
O O11 0.239028 0.869274 0.066431
O O12 0.000000 0.000000 0.000000
O O13 0.610491 0.604125 0.748359
O O14 0.500000 0.500000 0.000000
O O15 0.000000 0.000000 0.500000
O O16 0.500000 0.000000 0.500000
#
# Coordination Sequence:
#
# PCOD9042746 Si02
#       7
#     2   2   2   2   2   2   2
#     4  10  19  36  56  85 110 146 199 226 271 343
#     4   9  18  34  59  86 110 144 187 233 281 327
#     4   9  18  38  54  80 115 144 183 230 284 331
#     4  10  21  36  59  84 105 145 198 234 270 333
#     4  10  17  35  59  78 111 146 182 231 284 326
#     4  10  21  36  54  80 121 152 173 234 294 325
#     4  10  17  33  59  88 107 137 193 241 271 326
#
# _framework density 23.27028
#
# number of rings (size 3 to 8) (size 9 to 14) (size 15 to 20)
#    0.000    2.286    5.714    0.429    2.000    0.000 
#    5.143    5.714    0.000    0.000    0.000    0.000 
#    0.000    0.000    0.000    0.000    0.000    0.000 
#
# Total GULP energy -78022.077178 kJ/mol
# GULP energy per Si atom -5573.005513 kJ/mol
# Density = 2.321732 g / cm^3
# Si number density = 23.270280 Si / 1000 Ang^3
#
#
#
# Elastic Constant Matrix: (Units=GPa)
#
#
# Indices 1 2 3 4 5 6 
#
# 1 211.4297 13.6221 27.3372 -8.9496 4.5126 -20.8400
# 2 13.6221 50.0532 21.7186 -10.4066 0.7009 11.3666
# 3 27.3372 21.7186 67.9158 -14.1638 -14.7653 -1.7321
# 4 -8.9496 -10.4066 -14.1638 22.0042 -3.4979 -3.0122
# 5 4.5126 0.7009 -14.7653 -3.4979 37.5700 -4.9634
# 6 -20.8400 11.3666 -1.7321 -3.0122 -4.9634 27.9372
#
#
#
# Elastic Compliance Matrix: (Units=1/GPa)
#
#
# Indices 1 2 3 4 5 6 
#
# 1 0.005557 -0.001751 -0.001424 0.001101 -0.000457 0.004807
# 2 -0.001751 0.028496 -0.009052 0.004180 -0.005334 -0.013958
# 3 -0.001424 -0.009052 0.023777 0.013392 0.011943 0.007661
# 4 0.001101 0.004180 0.013392 0.059508 0.011709 0.008448
# 5 -0.000457 -0.005334 0.011943 0.011709 0.033856 0.009847
# 6 0.004807 -0.013958 0.007661 0.008448 0.009847 0.048194
#
#
# Mechanical properties :
#
#
# Convention : Reuss Voigt Hill
#
# Bulk Modulus (GPa) = 29.96118 50.52827 40.24472
# Shear Modulus (GPa) = 21.27953 35.28368 28.28161
#
# Velocity S-wave (km/s) = 3.02727 3.89814 3.48997
# Velocity P-wave (km/s) = 5.01223 6.48239 5.79413
#
# Compressibility (1/GPa) = 0.03337652
#
# Stress axis : x y z
#
# Youngs Moduli (GPa) = 179.96170 35.09213 42.05785
#
# Poissons Ratio (x) = 0.06143 0.05989
# Poissons Ratio (y) = 0.31505 0.38071
# Poissons Ratio (z) = 0.25627 0.31766
#
# Static dielectric constant tensor:
#      x y z
#    x 1.981610 -0.076440 0.002360 
#    y -0.076440 1.939150 -0.011310 
#    z 0.002360 -0.011310 1.876200 
# 
# From -- ./inp_files/200281.got.cif
#   From: 2010.05.17/outbox.cif.g08.bks.cpg/sg2_101_cif.got.tgz:200281.got - 2010.06.03 11:33:40.
