data_PCOD9042397
_publ_section_title
;
Structure prediction by ZEFSAII (Michael W. Deem and Ramdas Pophale) SiO2 
 PCOD9042397
Probable space group: P -1
;
_chemical_formula_sum "Si O2"
_cell_formula_units_Z 16
_cell_length_a 11.121936
_cell_length_b 11.602828
_cell_length_c 11.484674
_cell_angle_alpha 75.918554
_cell_angle_beta 75.467020
_cell_angle_gamma 140.249506
_cell_volume 650.830915
_symmetry_space_group_name_H-M "P -1"
_symmetry_group_IT_number 2
_symmetry_cell_setting 'triclinic'
loop_
_space_group_symop_operation_xyz
x,y,z
-x,-y,-z
loop_
_atom_site_type_symbol
_atom_site_label
_atom_site_fract_x
_atom_site_fract_y
_atom_site_fract_z
Si Si1 0.145168 0.797446 0.590753
Si Si2 0.091651 0.057773 0.163704
Si Si3 0.458410 0.631054 0.182239
Si Si4 0.653578 0.861918 0.356916
Si Si5 0.607006 0.824923 0.757665
Si Si6 0.605894 0.526056 0.294233
Si Si7 0.131137 0.537795 0.562810
Si Si8 0.357778 0.000390 0.070541
O O1 0.189824 0.694804 0.598534
O O2 0.839549 0.580880 0.715056
O O3 0.262639 0.950330 0.640787
O O4 0.280553 0.980249 0.404640
O O5 0.925399 0.037757 0.198486
O O6 0.897292 0.804205 0.202660
O O7 0.160259 0.063974 0.273138
O O8 0.378896 0.304300 0.973041
O O9 0.480241 0.550185 0.296377
O O10 0.621739 0.893132 0.070188
O O11 0.560675 0.682365 0.515352
O O12 0.376074 0.671748 0.417349
O O13 0.417692 0.581160 0.785315
O O14 0.508922 0.814289 0.898738
O O15 0.000000 0.500000 0.500000
O O16 0.926619 0.278267 0.740718
O O17 0.500000 0.000000 0.000000
#
# Coordination Sequence:
#
# PCOD9042397 Si02
#       8
#     2   2   2   2   2   2   2   2
#     4  11  23  43  72  99 140 188 235 286 338 421
#     4  11  24  42  68 104 147 177 225 289 352 413
#     4  11  24  42  72 104 143 184 224 277 365 410
#     4  11  25  43  69 106 138 178 242 291 341 411
#     4  10  23  44  71 103 139 183 235 281 347 415
#     4  11  24  43  70 104 143 182 227 289 346 422
#     4  12  25  45  74  96 134 190 242 285 347 409
#     4  11  23  43  70 103 135 185 233 284 341 416
#
# _framework density 24.583959
#
# number of rings (size 3 to 8) (size 9 to 14) (size 15 to 20)
#    0.000    1.000    2.500    4.125    1.750    6.500 
#    0.000    0.000    0.000    6.750    0.000    0.000 
#    0.000    0.000    0.000    0.000    0.000    0.000 
#
# Total GULP energy -89373.355141 kJ/mol
# GULP energy per Si atom -5585.834696 kJ/mol
# Density = 2.452800 g / cm^3
# Si number density = 24.583959 Si / 1000 Ang^3
#
#
#
# Elastic Constant Matrix: (Units=GPa)
#
#
# Indices 1 2 3 4 5 6 
#
# 1 140.8924 5.7329 17.7957 9.8150 -9.1150 -21.3823
# 2 5.7329 99.8124 0.9406 17.2733 7.5661 -12.4144
# 3 17.7957 0.9406 63.7092 10.0729 -0.4321 -11.9305
# 4 9.8150 17.2733 10.0729 19.9078 -16.3136 -5.7060
# 5 -9.1150 7.5661 -0.4321 -16.3136 49.2402 -6.0789
# 6 -21.3823 -12.4144 -11.9305 -5.7060 -6.0789 39.4423
#
#
#
# Elastic Compliance Matrix: (Units=1/GPa)
#
#
# Indices 1 2 3 4 5 6 
#
# 1 0.008057 0.000059 -0.001349 -0.000727 0.001741 0.004142
# 2 0.000059 0.014549 0.003318 -0.021569 -0.009209 0.001075
# 3 -0.001349 0.003318 0.018970 -0.015269 -0.005278 0.003029
# 4 -0.000727 -0.021569 -0.015269 0.115254 0.042643 0.011444
# 5 0.001741 -0.009209 -0.005278 0.042643 0.037157 0.008345
# 6 0.004142 0.001075 0.003029 0.011444 0.008345 0.031795
#
#
# Mechanical properties :
#
#
# Convention : Reuss Voigt Hill
#
# Bulk Modulus (GPa) = 21.91496 39.26140 30.58818
# Shear Modulus (GPa) = 21.10265 40.38106 30.74186
#
# Velocity S-wave (km/s) = 2.93301 4.05727 3.54006
# Velocity P-wave (km/s) = 4.51705 6.16065 5.40173
#
# Compressibility (1/GPa) = 0.04563092
#
# Stress axis : x y z
#
# Youngs Moduli (GPa) = 124.10838 68.73530 52.71580
#
# Poissons Ratio (x) = -0.00405 0.07112
# Poissons Ratio (y) = -0.00731 -0.17490
# Poissons Ratio (z) = 0.16744 -0.22805
#
# Static dielectric constant tensor:
#      x y z
#    x 1.940490 0.034100 0.003970 
#    y 0.034100 2.144570 0.086770 
#    z 0.003970 0.086770 1.989010 
# 
# From -- ./inp_files/428152.got.cif
#   From: 2010.05.17/outbox.cif.g08.bks.cpg/sg2_215_cif.got.tgz:428152.got - 2010.06.03 11:33:40.
