data_PCOD9042492
_publ_section_title
;
Structure prediction by ZEFSAII (Michael W. Deem and Ramdas Pophale) SiO2 
 PCOD9042492
Probable space group: P -1
;
_chemical_formula_sum "Si O2"
_cell_formula_units_Z 15
_cell_length_a 19.370438
_cell_length_b 9.095414
_cell_length_c 8.463376
_cell_angle_alpha 146.672906
_cell_angle_beta 122.402695
_cell_angle_gamma 48.538512
_cell_volume 613.389218
_symmetry_space_group_name_H-M "P -1"
_symmetry_group_IT_number 2
_symmetry_cell_setting 'triclinic'
loop_
_space_group_symop_operation_xyz
x,y,z
-x,-y,-z
loop_
_atom_site_type_symbol
_atom_site_label
_atom_site_fract_x
_atom_site_fract_y
_atom_site_fract_z
Si Si1 0.219616 0.560898 0.228210
Si Si2 0.272788 0.325852 0.630117
Si Si3 0.535790 0.726642 0.174167
Si Si4 0.500000 0.000000 0.000000
Si Si5 0.326061 0.926277 0.641711
Si Si6 0.129443 0.286069 0.266768
Si Si7 0.102840 0.890776 0.089413
Si Si8 0.916534 0.124373 0.389572
O O1 0.258078 0.208312 0.922502
O O2 0.135195 0.754937 0.179653
O O3 0.176438 0.679885 0.450824
O O4 0.302461 0.648504 0.377867
O O5 0.353794 0.415338 0.797907
O O6 0.235941 0.218159 0.337614
O O7 0.303966 0.064110 0.563501
O O8 0.183141 0.624736 0.847044
O O9 0.500000 0.000000 0.500000
O O10 0.500000 0.500000 0.000000
O O11 0.512628 0.848649 0.072497
O O12 0.572032 0.128899 0.244388
O O13 0.066803 0.635478 0.475428
O O14 0.116230 0.182193 0.330505
O O15 0.099298 0.114490 0.947175
O O16 0.000000 0.000000 0.000000
O O17 0.000000 0.000000 0.500000
#
# Coordination Sequence:
#
# PCOD9042492 Si02
#       8
#     2   2   2   1   2   2   2   2
#     4  11  24  43  66  99 137 177 234 290 351 426
#     4  10  24  45  72 109 146 185 245 317 360 448
#     4  11  28  48  80 116 156 203 260 320 395 470
#     4  10  26  50  78 108 154 198 252 316 390 458
#     4  10  23  44  72 101 139 180 232 302 364 433
#     4  12  24  44  69  95 137 191 229 297 365 421
#     4  11  24  45  74 101 136 191 247 294 365 434
#     4  12  27  44  63  98 142 184 233 295 354 429
#
# _framework density 24.454291000000001
#
# number of rings (size 3 to 8) (size 9 to 14) (size 15 to 20)
#    0.000    1.067    2.667    2.000    1.867   11.200 
#    0.000    0.000    0.000    0.000    0.000    0.000 
#    0.000    0.000    0.000    0.000    0.000    0.000 
#
# Total GULP energy -83560.524599 kJ/mol
# GULP energy per Si atom -5570.701640 kJ/mol
# Density = 2.439863 g / cm^3
# Si number density = 24.454291 Si / 1000 Ang^3
#
#
#
# Elastic Constant Matrix: (Units=GPa)
#
#
# Indices 1 2 3 4 5 6 
#
# 1 93.1546 27.2554 38.9596 -15.8010 10.6850 4.6021
# 2 27.2554 115.7399 53.9869 -28.9010 11.7251 -0.9558
# 3 38.9596 53.9869 148.2934 -16.3296 9.9528 -1.6194
# 4 -15.8010 -28.9010 -16.3296 46.1936 -9.1836 17.5286
# 5 10.6850 11.7251 9.9528 -9.1836 40.5982 -6.4163
# 6 4.6021 -0.9558 -1.6194 17.5286 -6.4163 31.9723
#
#
#
# Elastic Compliance Matrix: (Units=1/GPa)
#
#
# Indices 1 2 3 4 5 6 
#
# 1 0.013356 -0.000484 -0.002697 0.004796 -0.002450 -0.005195
# 2 -0.000484 0.012422 -0.003492 0.007680 -0.001539 -0.004255
# 3 -0.002697 -0.003492 0.008710 -0.000442 -0.000376 0.000892
# 4 0.004796 0.007680 -0.000442 0.035754 0.001592 -0.019766
# 5 -0.002450 -0.001539 -0.000376 0.001592 0.026935 0.004820
# 6 -0.005195 -0.004255 0.000892 -0.019766 0.004820 0.043746
#
#
# Mechanical properties :
#
#
# Convention : Reuss Voigt Hill
#
# Bulk Modulus (GPa) = 47.30320 66.39907 56.85114
# Shear Modulus (GPa) = 30.99510 39.55189 35.27349
#
# Velocity S-wave (km/s) = 3.56402 4.02603 3.80205
# Velocity P-wave (km/s) = 6.02676 6.98736 6.52476
#
# Compressibility (1/GPa) = 0.02114022
#
# Stress axis : x y z
#
# Youngs Moduli (GPa) = 74.87543 80.50429 114.81582
#
# Poissons Ratio (x) = 0.03899 0.30961
# Poissons Ratio (y) = 0.03626 0.40098
# Poissons Ratio (z) = 0.20191 0.28115
#
# Static dielectric constant tensor:
#      x y z
#    x 2.106830 0.002420 0.017600 
#    y 0.002420 2.069810 -0.017020 
#    z 0.017600 -0.017020 1.976280 
# 
# From -- ./inp_files/344012.got.cif
#   From: 2010.05.17/outbox.cif.g08.bks.cpg/sg2_173_cif.got.tgz:344012.got - 2010.06.03 11:33:40.
