data_PCOD9042237
_publ_section_title
;
Structure prediction by ZEFSAII (Michael W. Deem and Ramdas Pophale) SiO2 
 PCOD9042237
Probable space group: P -1
;
_chemical_formula_sum "Si O2"
_cell_formula_units_Z 14
_cell_length_a 11.872177
_cell_length_b 8.918896
_cell_length_c 9.022800
_cell_angle_alpha 126.018561
_cell_angle_beta 53.574621
_cell_angle_gamma 105.256678
_cell_volume 616.321586
_symmetry_space_group_name_H-M "P -1"
_symmetry_group_IT_number 2
_symmetry_cell_setting 'triclinic'
loop_
_space_group_symop_operation_xyz
x,y,z
-x,-y,-z
loop_
_atom_site_type_symbol
_atom_site_label
_atom_site_fract_x
_atom_site_fract_y
_atom_site_fract_z
Si Si1 0.866883 0.156184 0.358603
Si Si2 0.576190 0.655340 0.947665
Si Si3 0.661111 0.892294 0.284704
Si Si4 0.172674 0.457397 0.869320
Si Si5 0.087284 0.078615 0.344594
Si Si6 0.177874 0.473432 0.539918
Si Si7 0.278813 0.788299 0.167061
O O1 0.904591 0.335528 0.346405
O O2 0.786641 0.197219 0.605559
O O3 0.012204 0.036700 0.227283
O O4 0.761343 0.051661 0.286565
O O5 0.650845 0.772564 0.076081
O O6 0.445216 0.774220 0.041984
O O7 0.500000 0.500000 0.000000
O O8 0.687184 0.562067 0.690695
O O9 0.747392 0.743915 0.249827
O O10 0.500000 0.000000 0.500000
O O11 0.225337 0.483395 0.677164
O O12 0.220956 0.612101 0.031937
O O13 0.000000 0.500000 0.000000
O O14 0.092171 0.297767 0.485615
O O15 0.236222 0.964861 0.196258
O O16 0.000000 0.000000 0.500000
#
# Coordination Sequence:
#
# PCOD9042237 Si02
#       7
#     2   2   2   2   2   2   2
#     4  11  22  44  73 106 142 190 242 293 362 427
#     4  12  24  48  72 106 146 194 238 295 363 430
#     4  12  24  46  77 103 146 196 242 296 360 430
#     4  12  26  46  73 107 143 192 245 301 361 426
#     4  10  23  44  70 102 141 187 237 298 355 423
#     4  12  26  44  74 109 144 191 242 297 362 433
#     4  11  22  45  71  99 150 188 237 298 358 425
#
# _framework density 22.715411
#
# number of rings (size 3 to 8) (size 9 to 14) (size 15 to 20)
#    0.000    0.571    4.286    4.714    0.000    3.429 
#    0.000    2.143    0.000    0.000    0.000    0.000 
#    0.000    0.000    0.000    0.000    0.000    0.000 
#
# Total GULP energy -78218.049865 kJ/mol
# GULP energy per Si atom -5587.003562 kJ/mol
# Density = 2.266371 g / cm^3
# Si number density = 22.715411 Si / 1000 Ang^3
#
#
#
# Elastic Constant Matrix: (Units=GPa)
#
#
# Indices 1 2 3 4 5 6 
#
# 1 155.8709 53.7375 23.8401 8.0221 -2.5098 -19.1867
# 2 53.7375 125.1559 12.5539 13.4737 -4.8665 -4.3326
# 3 23.8401 12.5539 90.3237 -14.1716 11.2203 -2.7747
# 4 8.0221 13.4737 -14.1716 27.6729 2.6298 -3.6494
# 5 -2.5098 -4.8665 11.2203 2.6298 32.2220 22.3238
# 6 -19.1867 -4.3326 -2.7747 -3.6494 22.3238 48.6544
#
#
#
# Elastic Compliance Matrix: (Units=1/GPa)
#
#
# Indices 1 2 3 4 5 6 
#
# 1 0.008224 -0.003211 -0.001559 -0.000987 -0.001696 0.003573
# 2 -0.003211 0.010325 -0.002227 -0.006095 0.004731 -0.003102
# 3 -0.001559 -0.002227 0.014993 0.010964 -0.010515 0.005689
# 4 -0.000987 -0.006095 0.010964 0.047949 -0.016138 0.010694
# 5 -0.001696 0.004731 -0.010515 -0.016138 0.055740 -0.027632
# 6 0.003573 -0.003102 0.005689 0.010694 -0.027632 0.035491
#
#
# Mechanical properties :
#
#
# Convention : Reuss Voigt Hill
#
# Bulk Modulus (GPa) = 51.15267 61.29040 56.22154
# Shear Modulus (GPa) = 25.87567 40.45780 33.16674
#
# Velocity S-wave (km/s) = 3.37875 4.22485 3.82527
# Velocity P-wave (km/s) = 6.14728 7.13019 6.65690
#
# Compressibility (1/GPa) = 0.01954932
#
# Stress axis : x y z
#
# Youngs Moduli (GPa) = 121.59264 96.85390 66.69593
#
# Poissons Ratio (x) = 0.31099 0.10396
# Poissons Ratio (y) = 0.39042 0.14853
# Poissons Ratio (z) = 0.18954 0.21568
#
# Static dielectric constant tensor:
#      x y z
#    x -0.055230 1.322440 0.862170 
#    y 1.322440 0.980500 -0.708380 
#    z 0.862170 -0.708380 1.564830 
# 
# From -- ./inp_files/245327.got.cif
#   From: 2010.05.17/outbox.cif.g08.bks.cpg/sg2_123_cif.got.tgz:245327.got - 2010.06.03 11:33:40.
