data_PCOD9042465
_publ_section_title
;
Structure prediction by ZEFSAII (Michael W. Deem and Ramdas Pophale) SiO2 
 PCOD9042465
Probable space group: P -1
;
_chemical_formula_sum "Si O2"
_cell_formula_units_Z 16
_cell_length_a 11.639428
_cell_length_b 11.759644
_cell_length_c 11.539314
_cell_angle_alpha 114.274549
_cell_angle_beta 40.327513
_cell_angle_gamma 87.494836
_cell_volume 741.654040
_symmetry_space_group_name_H-M "P -1"
_symmetry_group_IT_number 2
_symmetry_cell_setting 'triclinic'
loop_
_space_group_symop_operation_xyz
x,y,z
-x,-y,-z
loop_
_atom_site_type_symbol
_atom_site_label
_atom_site_fract_x
_atom_site_fract_y
_atom_site_fract_z
Si Si1 0.751072 0.244620 0.549594
Si Si2 0.102916 0.185164 0.425190
Si Si3 0.126014 0.318410 0.131436
Si Si4 0.619322 0.381289 0.251943
Si Si5 0.573111 0.140037 0.825299
Si Si6 0.698037 0.626698 0.679408
Si Si7 0.273787 0.526987 0.016819
Si Si8 0.894836 0.178929 0.153017
O O1 0.704174 0.139381 0.614472
O O2 0.531197 0.421560 0.815982
O O3 0.984991 0.191927 0.399910
O O4 0.750712 0.238394 0.408073
O O5 0.237645 0.256565 0.340756
O O6 0.264235 0.013500 0.286470
O O7 0.892041 0.310238 0.720612
O O8 0.034307 0.247019 0.092220
O O9 0.928157 0.449803 0.425547
O O10 0.348803 0.173355 0.961288
O O11 0.193330 0.418471 0.055547
O O12 0.500000 0.500000 0.500000
O O13 0.445602 0.369991 0.311989
O O14 0.724723 0.431607 0.100421
O O15 0.795678 0.226158 0.120705
O O16 0.461336 0.297710 0.054625
O O17 0.000000 0.000000 0.000000
#
# Coordination Sequence:
#
# PCOD9042465 Si02
#       8
#     2   2   2   2   2   2   2   2
#     4  11  23  44  65  98 135 174 221 267 336 392
#     4  11  24  40  69 102 135 170 218 283 330 387
#     4  10  23  46  66 101 131 175 220 270 332 392
#     4  12  24  46  70  95 130 177 228 264 322 400
#     4  11  24  40  69 100 139 168 219 280 332 389
#     4  11  23  42  68  99 131 177 221 269 331 392
#     4  10  23  44  71  98 130 174 222 272 326 393
#     4  12  28  44  69  96 135 177 217 275 328 392
#
# _framework density 21.573399999999999
#
# number of rings (size 3 to 8) (size 9 to 14) (size 15 to 20)
#    0.000    1.000    2.500    3.000    5.250    4.500 
#    0.000    2.500    0.000    0.000    0.000    0.000 
#    0.000    0.000    0.000    0.000    0.000    0.000 
#
# Total GULP energy -89346.069445 kJ/mol
# GULP energy per Si atom -5584.129340 kJ/mol
# Density = 2.152430 g / cm^3
# Si number density = 21.573400 Si / 1000 Ang^3
#
#
#
# Elastic Constant Matrix: (Units=GPa)
#
#
# Indices 1 2 3 4 5 6 
#
# 1 81.2841 25.9485 30.1978 -14.2068 -13.6199 -8.3725
# 2 25.9485 123.8645 50.1911 5.4873 -20.1185 -20.0535
# 3 30.1978 50.1911 89.8913 -0.0792 -11.4252 -3.2971
# 4 -14.2068 5.4873 -0.0792 41.3695 -9.4934 -1.9472
# 5 -13.6199 -20.1185 -11.4252 -9.4934 35.4802 1.4242
# 6 -8.3725 -20.0535 -3.2971 -1.9472 1.4242 42.6527
#
#
#
# Elastic Compliance Matrix: (Units=1/GPa)
#
#
# Indices 1 2 3 4 5 6 
#
# 1 0.016819 -0.000540 -0.004396 0.007493 0.006626 0.002829
# 2 -0.000540 0.012094 -0.005827 -0.000551 0.004427 0.004957
# 3 -0.004396 -0.005827 0.015760 -0.000830 -0.000042 -0.002421
# 4 0.007493 -0.000551 -0.000830 0.029219 0.010028 0.002146
# 5 0.006626 0.004427 -0.000042 0.010028 0.035803 0.002641
# 6 0.002829 0.004957 -0.002421 0.002146 0.002641 0.026153
#
#
# Mechanical properties :
#
#
# Convention : Reuss Voigt Hill
#
# Bulk Modulus (GPa) = 43.20281 56.41274 49.80778
# Shear Modulus (GPa) = 30.28640 36.48064 33.38352
#
# Velocity S-wave (km/s) = 3.75090 4.11664 3.93802
# Velocity P-wave (km/s) = 6.23125 6.98581 6.61929
#
# Compressibility (1/GPa) = 0.02314664
#
# Stress axis : x y z
#
# Youngs Moduli (GPa) = 59.45538 82.68817 63.45098
#
# Poissons Ratio (x) = 0.04464 0.27895
# Poissons Ratio (y) = 0.03210 0.36974
# Poissons Ratio (z) = 0.26138 0.48184
#
# Static dielectric constant tensor:
#      x y z
#    x 2.592970 -0.747350 -0.347000 
#    y -0.747350 2.505710 0.305510 
#    z -0.347000 0.305510 2.016360 
# 
# From -- ./inp_files/428525.got.cif
#   From: 2010.05.17/outbox.cif.g08.bks.cpg/sg2_215_cif.got.tgz:428525.got - 2010.06.03 11:33:40.
