data_PCOD9042551
_publ_section_title
;
Structure prediction by ZEFSAII (Michael W. Deem and Ramdas Pophale) SiO2 
 PCOD9042551
Probable space group: P -1
;
_chemical_formula_sum "Si O2"
_cell_formula_units_Z 10
_cell_length_a 9.001893
_cell_length_b 15.417945
_cell_length_c 9.371512
_cell_angle_alpha 141.681712
_cell_angle_beta 70.869015
_cell_angle_gamma 139.198627
_cell_volume 397.282914
_symmetry_space_group_name_H-M "P -1"
_symmetry_group_IT_number 2
_symmetry_cell_setting 'triclinic'
loop_
_space_group_symop_operation_xyz
x,y,z
-x,-y,-z
loop_
_atom_site_type_symbol
_atom_site_label
_atom_site_fract_x
_atom_site_fract_y
_atom_site_fract_z
Si Si1 0.212157 0.263087 0.185932
Si Si2 0.218598 0.101577 0.683774
Si Si3 0.170190 0.758010 0.354787
Si Si4 0.726727 0.395421 0.690999
Si Si5 0.736763 0.074559 0.954772
O O1 0.500000 0.500000 0.500000
O O2 0.995130 0.229034 0.182858
O O3 0.271876 0.244720 0.985620
O O4 0.000000 0.000000 0.000000
O O5 0.535451 0.313611 0.776615
O O6 0.087637 0.856296 0.476467
O O7 0.000000 0.000000 0.500000
O O8 0.206171 0.718570 0.449316
O O9 0.500000 0.000000 0.500000
O O10 0.000000 0.500000 0.000000
O O11 0.051015 0.709108 0.962402
O O12 0.478687 0.212761 0.406427
O O13 0.500000 0.000000 0.000000
#
# Coordination Sequence:
#
# PCOD9042551 Si02
#       5
#     2   2   2   2   2
#     4  12  30  53  80 119 171 221 273 346 431 493
#     4  11  25  51  87 123 164 217 286 351 410 503
#     4  10  23  44  72 117 159 198 262 344 411 473
#     4  11  24  48  80 116 155 212 282 337 410 484
#     4  12  27  51  78 113 166 220 273 332 417 504
#
# _framework density 25.170981000000001
#
# number of rings (size 3 to 8) (size 9 to 14) (size 15 to 20)
#    0.000    0.800    2.000    4.200    2.800    5.600 
#    0.000    0.000    0.000    0.000    0.000    0.000 
#    0.000    0.000    0.000    0.000    0.000    0.000 
#
# Total GULP energy -55874.284472 kJ/mol
# GULP energy per Si atom -5587.428447 kJ/mol
# Density = 2.511369 g / cm^3
# Si number density = 25.170981 Si / 1000 Ang^3
#
#
#
# Elastic Constant Matrix: (Units=GPa)
#
#
# Indices 1 2 3 4 5 6 
#
# 1 188.1551 58.2378 63.9733 -7.7898 22.4682 6.0642
# 2 58.2378 151.2136 67.8706 -0.0494 3.1120 33.0431
# 3 63.9733 67.8706 187.8227 0.7332 35.9567 26.5532
# 4 -7.7898 -0.0494 0.7332 66.1685 -3.4379 -7.3907
# 5 22.4682 3.1120 35.9567 -3.4379 42.7970 -4.6648
# 6 6.0642 33.0431 26.5532 -7.3907 -4.6648 46.4839
#
#
#
# Elastic Compliance Matrix: (Units=1/GPa)
#
#
# Indices 1 2 3 4 5 6 
#
# 1 0.006682 -0.002268 -0.001261 0.000847 -0.002065 0.001388
# 2 -0.002268 0.009615 -0.002321 -0.000714 0.001824 -0.005143
# 3 -0.001261 -0.002321 0.008433 -0.001024 -0.006756 -0.003844
# 4 0.000847 -0.000714 -0.001024 0.015748 0.002136 0.003700
# 5 -0.002065 0.001824 -0.006756 0.002136 0.030848 0.006267
# 6 0.001388 -0.005143 -0.003844 0.003700 0.006267 0.028401
#
#
# Mechanical properties :
#
#
# Convention : Reuss Voigt Hill
#
# Bulk Modulus (GPa) = 76.74535 100.81719 88.78127
# Shear Modulus (GPa) = 43.18920 53.56387 48.37654
#
# Velocity S-wave (km/s) = 4.14676 4.61803 4.38872
# Velocity P-wave (km/s) = 7.31322 8.28099 7.81211
#
# Compressibility (1/GPa) = 0.01303011
#
# Stress axis : x y z
#
# Youngs Moduli (GPa) = 149.64747 104.00770 118.58313
#
# Poissons Ratio (x) = 0.23593 0.14949
# Poissons Ratio (y) = 0.33946 0.27522
# Poissons Ratio (z) = 0.18865 0.24139
#
# Static dielectric constant tensor:
#      x y z
#    x 2.124860 -0.119330 0.015550 
#    y -0.119330 2.024510 -0.074900 
#    z 0.015550 -0.074900 2.029760 
# 
# From -- ./inp_files/209236.got.cif
#   From: 2010.05.17/outbox.cif.g08.bks.cpg/sg2_105_cif.got.tgz:209236.got - 2010.06.03 11:33:40.
