data_PCOD9042228
_publ_section_title
;
Structure prediction by ZEFSAII (Michael W. Deem and Ramdas Pophale) SiO2 
 PCOD9042228
Probable space group: P -1
;
_chemical_formula_sum "Si O2"
_cell_formula_units_Z 14
_cell_length_a 11.758911
_cell_length_b 5.118514
_cell_length_c 13.142762
_cell_angle_alpha 111.554528
_cell_angle_beta 120.934563
_cell_angle_gamma 104.467304
_cell_volume 527.091103
_symmetry_space_group_name_H-M "P -1"
_symmetry_group_IT_number 2
_symmetry_cell_setting 'triclinic'
loop_
_space_group_symop_operation_xyz
x,y,z
-x,-y,-z
loop_
_atom_site_type_symbol
_atom_site_label
_atom_site_fract_x
_atom_site_fract_y
_atom_site_fract_z
Si Si1 0.367145 0.153075 0.779587
Si Si2 0.583582 0.912987 0.816051
Si Si3 0.612683 0.698906 0.486329
Si Si4 0.936035 0.235105 0.523714
Si Si5 0.718164 0.828163 0.039902
Si Si6 0.812703 0.475483 0.657652
Si Si7 0.150325 0.477627 0.087123
O O1 0.531732 0.512352 0.906770
O O2 0.430434 0.911340 0.776396
O O3 0.251594 0.035669 0.615184
O O4 0.261598 0.099817 0.822212
O O5 0.509871 0.534841 0.692417
O O6 0.701878 0.066113 0.988626
O O7 0.687884 0.159047 0.807841
O O8 0.500000 0.500000 0.500000
O O9 0.758731 0.653100 0.577333
O O10 0.673640 0.085465 0.558912
O O11 0.947553 0.434720 0.660492
O O12 0.000000 0.500000 0.500000
O O13 0.000000 0.000000 0.500000
O O14 0.830551 0.744534 0.020291
O O15 0.854537 0.630240 0.813005
O O16 0.000000 0.500000 0.000000
#
# Coordination Sequence:
#
# PCOD9042228 Si02
#       7
#     2   2   2   2   2   2   2
#     4  10  23  44  70 102 135 181 240 290 348 416
#     4  11  22  42  70 103 133 181 235 291 355 413
#     4  12  23  41  76 105 140 177 235 294 351 416
#     4  12  28  47  72 104 143 189 234 294 361 421
#     4  10  23  44  72  97 137 184 235 292 346 416
#     4  12  26  47  70 105 142 185 234 295 353 424
#     4  11  27  44  64 102 141 186 231 284 355 431
#
# _framework density 26.560873000000001
#
# number of rings (size 3 to 8) (size 9 to 14) (size 15 to 20)
#    0.000    0.857    2.857    3.429    6.000    1.714 
#    0.000    0.000    0.000    0.000    0.000    0.000 
#    0.000    0.000    0.000    0.000    0.000    0.000 
#
# Total GULP energy -78264.517908 kJ/mol
# GULP energy per Si atom -5590.322708 kJ/mol
# Density = 2.650042 g / cm^3
# Si number density = 26.560873 Si / 1000 Ang^3
#
#
#
# Elastic Constant Matrix: (Units=GPa)
#
#
# Indices 1 2 3 4 5 6 
#
# 1 187.8416 10.1852 34.1206 -15.4600 -10.6836 -2.6083
# 2 10.1852 82.0639 -8.5043 5.8630 13.3164 14.1971
# 3 34.1206 -8.5043 93.9936 -19.2079 -17.4634 2.1654
# 4 -15.4600 5.8630 -19.2079 36.1341 7.9393 9.8767
# 5 -10.6836 13.3164 -17.4634 7.9393 37.8991 -23.8154
# 6 -2.6083 14.1971 2.1654 9.8767 -23.8154 50.4085
#
#
#
# Elastic Compliance Matrix: (Units=1/GPa)
#
#
# Indices 1 2 3 4 5 6 
#
# 1 0.005967 -0.001706 -0.001728 0.000856 0.002479 0.001867
# 2 -0.001706 0.016730 0.000379 0.003383 -0.014701 -0.012425
# 3 -0.001728 0.000379 0.013195 0.005056 0.004691 0.000463
# 4 0.000856 0.003383 0.005056 0.038587 -0.017293 -0.016856
# 5 0.002479 -0.014701 0.004691 -0.017293 0.060757 0.036160
# 6 0.001867 -0.012425 0.000463 -0.016856 0.036160 0.043800
#
#
# Mechanical properties :
#
#
# Convention : Reuss Voigt Hill
#
# Bulk Modulus (GPa) = 33.57691 48.38913 40.98302
# Shear Modulus (GPa) = 25.63143 46.76153 36.19648
#
# Velocity S-wave (km/s) = 3.10983 4.20043 3.69558
# Velocity P-wave (km/s) = 5.05605 6.46395 5.80285
#
# Compressibility (1/GPa) = 0.02978237
#
# Stress axis : x y z
#
# Youngs Moduli (GPa) = 167.57563 59.77316 75.78782
#
# Poissons Ratio (x) = 0.10199 0.13096
# Poissons Ratio (y) = 0.28592 -0.02875
# Poissons Ratio (z) = 0.28957 -0.02267
#
# Static dielectric constant tensor:
#      x y z
#    x 2.134700 0.014310 -0.025230 
#    y 0.014310 2.134700 -0.058520 
#    z -0.025230 -0.058520 2.199460 
# 
# From -- ./inp_files/65591.got.cif
#   From: 2010.05.17/outbox.cif.g08.bks.cpg/sg2_33_cif.got.tgz:65591.got - 2010.06.03 11:33:40.
