data_PCOD9042849
_publ_section_title
;
Structure prediction by ZEFSAII (Michael W. Deem and Ramdas Pophale) SiO2 
 PCOD9042849
Probable space group: P -1
;
_chemical_formula_sum "Si O2"
_cell_formula_units_Z 16
_cell_length_a 19.775553
_cell_length_b 8.169560
_cell_length_c 5.368400
_cell_angle_alpha 60.948041
_cell_angle_beta 57.435840
_cell_angle_gamma 63.101835
_cell_volume 617.132674
_symmetry_space_group_name_H-M "P -1"
_symmetry_group_IT_number 2
_symmetry_cell_setting 'triclinic'
loop_
_space_group_symop_operation_xyz
x,y,z
-x,-y,-z
loop_
_atom_site_type_symbol
_atom_site_label
_atom_site_fract_x
_atom_site_fract_y
_atom_site_fract_z
Si Si1 0.232250 0.584833 0.729010
Si Si2 0.097736 0.799646 0.177389
Si Si3 0.076538 0.200107 0.667995
Si Si4 0.222995 0.002376 0.219598
Si Si5 0.091856 0.515065 0.752765
Si Si6 0.392047 0.365658 0.346799
Si Si7 0.550934 0.338424 0.330622
Si Si8 0.318150 0.044064 0.496712
O O1 0.232894 0.775355 0.424588
O O2 0.167801 0.475174 0.820095
O O3 0.323657 0.446537 0.636565
O O4 0.188306 0.675247 0.003238
O O5 0.082905 0.737228 0.528263
O O6 0.022125 0.740183 0.227723
O O7 0.090688 0.018766 0.961050
O O8 0.112153 0.367680 0.589564
O O9 0.127710 0.116915 0.380784
O O10 0.274254 0.064974 0.300365
O O11 0.257488 0.033544 0.858407
O O12 0.000000 0.500000 0.000000
O O13 0.481551 0.270399 0.358600
O O14 0.359167 0.217826 0.351149
O O15 0.402127 0.548992 0.031677
O O16 0.500000 0.500000 0.500000
O O17 0.612461 0.160703 0.477633
#
# Coordination Sequence:
#
# PCOD9042849 Si02
#       8
#     2   2   2   2   2   2   2   2
#     4  11  24  46  69 103 145 190 246 300 373 426
#     4  10  24  43  65  95 145 185 242 305 358 435
#     4  10  23  45  65 103 137 193 243 296 370 418
#     4  11  27  47  75 108 151 196 247 308 362 440
#     4  12  25  41  69 103 137 193 245 307 363 435
#     4  11  26  45  76 112 142 199 240 303 366 441
#     4  11  26  48  77 109 154 189 240 303 371 443
#     4  12  27  50  76 112 150 193 247 300 369 441
#
# _framework density 25.926352000000001
#
# number of rings (size 3 to 8) (size 9 to 14) (size 15 to 20)
#    0.000    1.000    2.500    2.250    8.750    3.000 
#    0.000    0.000    0.000    0.000    0.000    0.000 
#    0.000    0.000    0.000    0.000    0.000    0.000 
#
# Total GULP energy -89711.929595 kJ/mol
# GULP energy per Si atom -5606.995600 kJ/mol
# Density = 2.586734 g / cm^3
# Si number density = 25.926352 Si / 1000 Ang^3
#
#
#
# Elastic Constant Matrix: (Units=GPa)
#
#
# Indices 1 2 3 4 5 6 
#
# 1 136.7568 27.2554 41.2717 5.8361 -15.9190 25.5616
# 2 27.2554 97.3624 27.0297 12.5922 -16.2650 -2.0173
# 3 41.2717 27.0297 113.9460 3.3114 -17.0153 -10.8775
# 4 5.8361 12.5922 3.3114 47.6158 0.5930 -11.0312
# 5 -15.9190 -16.2650 -17.0153 0.5930 31.3015 2.1786
# 6 25.5616 -2.0173 -10.8775 -11.0312 2.1786 43.0028
#
#
#
# Elastic Compliance Matrix: (Units=1/GPa)
#
#
# Indices 1 2 3 4 5 6 
#
# 1 0.010764 -0.001209 -0.003817 -0.002696 0.003399 -0.008284
# 2 -0.001209 0.012293 -0.001667 -0.003087 0.004937 -0.000169
# 3 -0.003817 -0.001667 0.011473 0.001294 0.003038 0.005271
# 4 -0.002696 -0.003087 0.001294 0.023976 -0.003290 0.008102
# 5 0.003399 0.004937 0.003038 -0.003290 0.038219 -0.003801
# 6 -0.008284 -0.000169 0.005271 0.008102 -0.003801 0.031775
#
#
# Mechanical properties :
#
#
# Convention : Reuss Voigt Hill
#
# Bulk Modulus (GPa) = 47.29501 59.90875 53.60188
# Shear Modulus (GPa) = 33.57157 41.21790 37.39473
#
# Velocity S-wave (km/s) = 3.60235 3.99156 3.80194
# Velocity P-wave (km/s) = 5.96525 6.66340 6.32397
#
# Compressibility (1/GPa) = 0.02114388
#
# Stress axis : x y z
#
# Youngs Moduli (GPa) = 92.89978 81.34918 87.15834
#
# Poissons Ratio (x) = 0.09834 0.33269
# Poissons Ratio (y) = 0.11230 0.14532
# Poissons Ratio (z) = 0.35460 0.13564
#
# Static dielectric constant tensor:
#      x y z
#    x 2.060580 0.014390 0.038600 
#    y 0.014390 2.032740 0.025410 
#    z 0.038600 0.025410 2.035320 
# 
# From -- ./inp_files/52895.got.cif
#   From: 2010.05.17/outbox.cif.g08.bks.cpg/sg2_27_cif.got.tgz:52895.got - 2010.06.03 11:33:40.
