data_PCOD9042865
_publ_section_title
;
Structure prediction by ZEFSAII (Michael W. Deem and Ramdas Pophale) SiO2 
 PCOD9042865
Probable space group: P -1
;
_chemical_formula_sum "Si O2"
_cell_formula_units_Z 16
_cell_length_a 17.206892
_cell_length_b 10.073660
_cell_length_c 15.603430
_cell_angle_alpha 30.143820
_cell_angle_beta 152.339196
_cell_angle_gamma 145.314046
_cell_volume 611.827943
_symmetry_space_group_name_H-M "P -1"
_symmetry_group_IT_number 2
_symmetry_cell_setting 'triclinic'
loop_
_space_group_symop_operation_xyz
x,y,z
-x,-y,-z
loop_
_atom_site_type_symbol
_atom_site_label
_atom_site_fract_x
_atom_site_fract_y
_atom_site_fract_z
Si Si1 0.236935 0.499173 0.688904
Si Si2 0.424165 0.148898 0.267477
Si Si3 0.365396 0.626965 0.041492
Si Si4 0.415668 0.703156 0.250300
Si Si5 0.959947 0.694751 0.736416
Si Si6 0.833132 0.121165 0.966833
Si Si7 0.231817 0.899284 0.611638
Si Si8 0.225051 0.245457 0.647297
O O1 0.434452 0.660001 0.765021
O O2 0.182998 0.694123 0.598517
O O3 0.168472 0.430366 0.563208
O O4 0.184617 0.195334 0.848646
O O5 0.323834 0.336551 0.116359
O O6 0.500000 0.000000 0.500000
O O7 0.299064 0.923972 0.215471
O O8 0.379050 0.624547 0.159191
O O9 0.234056 0.769810 0.781746
O O10 0.428519 0.259099 0.842487
O O11 0.500000 0.500000 0.500000
O O12 0.247882 0.749161 0.106293
O O13 0.563565 0.975389 0.261190
O O14 0.984346 0.388536 0.942383
O O15 0.119826 0.938444 0.731088
O O16 0.868818 0.859923 0.624474
O O17 0.824019 0.664279 0.542771
#
# Coordination Sequence:
#
# PCOD9042865 Si02
#       8
#     2   2   2   2   2   2   2   2
#     4  11  24  40  66  93 135 172 210 276 329 390
#     4  11  21  36  61  96 132 167 211 264 330 389
#     4  11  23  39  66 102 126 173 211 280 327 380
#     4  12  21  35  61 100 132 160 213 278 321 378
#     4  11  25  43  68  94 131 179 217 269 316 403
#     4  12  22  40  62 100 134 165 217 269 334 385
#     4  12  23  41  64 101 129 166 217 271 333 372
#     4  10  23  45  65  93 129 181 222 255 327 400
#
# _framework density 26.151140999999999
#
# number of rings (size 3 to 8) (size 9 to 14) (size 15 to 20)
#    0.000    0.750    5.000    4.500    1.750    1.000 
#    0.000    0.000    0.000    3.000    0.000    0.000 
#    0.000    0.000    0.000    0.000    0.000    0.000 
#
# Total GULP energy -89326.555637 kJ/mol
# GULP energy per Si atom -5582.909727 kJ/mol
# Density = 2.609162 g / cm^3
# Si number density = 26.151141 Si / 1000 Ang^3
#
#
#
# Elastic Constant Matrix: (Units=GPa)
#
#
# Indices 1 2 3 4 5 6 
#
# 1 101.9941 64.9751 26.7996 -16.9313 3.9439 -40.1464
# 2 64.9751 187.7725 42.3727 -23.5679 -23.0024 -26.4880
# 3 26.7996 42.3727 133.7146 -13.6782 -21.2800 -24.9834
# 4 -16.9313 -23.5679 -13.6782 42.0079 -0.4794 -3.2478
# 5 3.9439 -23.0024 -21.2800 -0.4794 22.5907 5.4658
# 6 -40.1464 -26.4880 -24.9834 -3.2478 5.4658 58.9318
#
#
#
# Elastic Compliance Matrix: (Units=1/GPa)
#
#
# Indices 1 2 3 4 5 6 
#
# 1 0.020070 -0.005985 -0.001611 0.004965 -0.013880 0.011860
# 2 -0.005985 0.008858 0.000177 0.002669 0.010493 -0.000847
# 3 -0.001611 0.000177 0.010013 0.003013 0.009346 0.002526
# 4 0.004965 0.002669 0.003013 0.028876 0.003579 0.007119
# 5 -0.013880 0.010493 0.009346 0.003579 0.067918 -0.006879
# 6 0.011860 -0.000847 0.002526 0.007119 -0.006879 0.026769
#
#
# Mechanical properties :
#
#
# Convention : Reuss Voigt Hill
#
# Bulk Modulus (GPa) = 41.48913 76.86399 59.17656
# Shear Modulus (GPa) = 26.97239 43.99501 35.48370
#
# Velocity S-wave (km/s) = 3.21503 4.10608 3.68757
# Velocity P-wave (km/s) = 5.44807 7.20665 6.38817
#
# Compressibility (1/GPa) = 0.02410270
#
# Stress axis : x y z
#
# Youngs Moduli (GPa) = 49.82548 112.89803 99.87124
#
# Poissons Ratio (x) = 0.67574 0.16087
# Poissons Ratio (y) = 0.29823 -0.01771
# Poissons Ratio (z) = 0.08026 -0.02002
#
# Static dielectric constant tensor:
#      x y z
#    x 2.230170 0.057590 -0.065730 
#    y 0.057590 2.055320 -0.002920 
#    z -0.065730 -0.002920 2.211100 
# 
# From -- ./inp_files/222984.got.cif
#   From: 2010.05.17/outbox.cif.g08.bks.cpg/sg2_112_cif.got.tgz:222984.got - 2010.06.03 11:33:40.
