data_PCOD9042109
_publ_section_title
;
Structure prediction by ZEFSAII (Michael W. Deem and Ramdas Pophale) SiO2 
 PCOD9042109
Probable space group: P -1
;
_chemical_formula_sum "Si O2"
_cell_formula_units_Z 12
_cell_length_a 12.749351
_cell_length_b 8.291284
_cell_length_c 5.288522
_cell_angle_alpha 84.646878
_cell_angle_beta 62.537977
_cell_angle_gamma 62.855035
_cell_volume 436.527949
_symmetry_space_group_name_H-M "P -1"
_symmetry_group_IT_number 2
_symmetry_cell_setting 'triclinic'
loop_
_space_group_symop_operation_xyz
x,y,z
-x,-y,-z
loop_
_atom_site_type_symbol
_atom_site_label
_atom_site_fract_x
_atom_site_fract_y
_atom_site_fract_z
Si Si1 0.492852 0.312994 0.577933
Si Si2 0.137476 0.252624 0.028573
Si Si3 0.423615 0.923381 0.907915
Si Si4 0.737469 0.214425 0.602412
Si Si5 0.976004 0.830364 0.345008
Si Si6 0.221315 0.552705 0.881594
O O1 0.500000 0.500000 0.500000
O O2 0.468812 0.199052 0.402462
O O3 0.642929 0.174137 0.514438
O O4 0.358768 0.404430 0.881319
O O5 0.050922 0.266250 0.371479
O O6 0.085319 0.194811 0.847183
O O7 0.140049 0.441643 0.951661
O O8 0.286687 0.097880 0.955920
O O9 0.362465 0.779763 0.064400
O O10 0.500000 0.000000 0.000000
O O11 0.749515 0.380662 0.430491
O O12 0.885397 0.045809 0.468790
O O13 0.134264 0.731334 0.121917
#
# Coordination Sequence:
#
# PCOD9042109 Si02
#       6
#     2   2   2   2   2   2
#     4  10  23  44  69 105 147 179 248 298 370 423
#     4  11  25  46  73 102 147 187 249 297 365 435
#     4  11  24  44  76 106 143 199 241 302 366 441
#     4  10  23  46  69 100 147 185 248 293 368 434
#     4  11  24  49  70 104 141 196 241 300 361 443
#     4  11  24  42  69 105 142 187 239 305 366 428
#
# _framework density 27.489647999999999
#
# number of rings (size 3 to 8) (size 9 to 14) (size 15 to 20)
#    0.000    1.333    1.667    2.500    4.667    4.000 
#   15.000    2.500    0.000    0.000    0.000    0.000 
#    0.000    0.000    0.000    0.000    0.000    0.000 
#
# Total GULP energy -66974.479552 kJ/mol
# GULP energy per Si atom -5581.206629 kJ/mol
# Density = 2.742708 g / cm^3
# Si number density = 27.489648 Si / 1000 Ang^3
#
#
#
# Elastic Constant Matrix: (Units=GPa)
#
#
# Indices 1 2 3 4 5 6 
#
# 1 113.7861 23.3132 44.5805 19.2673 -12.7802 -16.3972
# 2 23.3132 93.4616 34.7352 6.3142 -16.2931 -3.9030
# 3 44.5805 34.7352 128.7368 1.2093 -13.1927 -2.7463
# 4 19.2673 6.3142 1.2093 76.2746 3.3642 -14.1776
# 5 -12.7802 -16.2931 -13.1927 3.3642 50.0442 11.4522
# 6 -16.3972 -3.9030 -2.7463 -14.1776 11.4522 40.6842
#
#
#
# Elastic Compliance Matrix: (Units=1/GPa)
#
#
# Indices 1 2 3 4 5 6 
#
# 1 0.011292 -0.001083 -0.003423 -0.002166 0.001050 0.003166
# 2 -0.001083 0.012589 -0.002685 -0.001004 0.003342 -0.000701
# 3 -0.003423 -0.002685 0.009752 0.000698 0.001009 -0.001019
# 4 -0.002166 -0.001004 0.000698 0.014790 -0.002842 0.005032
# 5 0.001050 0.003342 0.001009 -0.002842 0.023340 -0.006748
# 6 0.003166 -0.000701 -0.001019 0.005032 -0.006748 0.029373
#
#
# Mechanical properties :
#
#
# Convention : Reuss Voigt Hill
#
# Bulk Modulus (GPa) = 51.94083 60.13804 56.03943
# Shear Modulus (GPa) = 41.00560 48.95764 44.98162
#
# Velocity S-wave (km/s) = 3.86641 4.22471 4.04952
# Velocity P-wave (km/s) = 6.23441 6.76178 6.50344
#
# Compressibility (1/GPa) = 0.01925268
#
# Stress axis : x y z
#
# Youngs Moduli (GPa) = 88.55598 79.43682 102.53785
#
# Poissons Ratio (x) = 0.08604 0.35096
# Poissons Ratio (y) = 0.09591 0.27527
# Poissons Ratio (z) = 0.30310 0.21325
#
# Static dielectric constant tensor:
#      x y z
#    x 2.335330 -0.145490 0.205550 
#    y -0.145490 2.205840 -0.231380 
#    z 0.205550 -0.231380 2.452730 
# 
# From -- ./inp_files/76842.got.cif
#   From: 2010.05.17/outbox.cif.g08.bks.cpg/sg2_39_cif.got.tgz:76842.got - 2010.06.03 11:33:40.
