data_PCOD9042583
_publ_section_title
;
Structure prediction by ZEFSAII (Michael W. Deem and Ramdas Pophale) SiO2 
 PCOD9042583
Probable space group: P -1
;
_chemical_formula_sum "Si O2"
_cell_formula_units_Z 16
_cell_length_a 16.606288
_cell_length_b 11.709376
_cell_length_c 19.074213
_cell_angle_alpha 43.239908
_cell_angle_beta 21.797672
_cell_angle_gamma 32.491669
_cell_volume 711.497378
_symmetry_space_group_name_H-M "P -1"
_symmetry_group_IT_number 2
_symmetry_cell_setting 'triclinic'
loop_
_space_group_symop_operation_xyz
x,y,z
-x,-y,-z
loop_
_atom_site_type_symbol
_atom_site_label
_atom_site_fract_x
_atom_site_fract_y
_atom_site_fract_z
Si Si1 0.217989 0.813466 0.220514
Si Si2 0.683169 0.021631 0.738011
Si Si3 0.079045 0.226795 0.199548
Si Si4 0.273759 0.260815 0.583938
Si Si5 0.127755 0.322822 0.835457
Si Si6 0.680689 0.567661 0.845463
Si Si7 0.705855 0.885536 0.622619
Si Si8 0.474120 0.546028 0.276445
O O1 0.385460 0.640654 0.226381
O O2 0.969806 0.816238 0.393324
O O3 0.032343 0.065815 0.282228
O O4 0.465252 0.749267 0.997762
O O5 0.691207 0.220516 0.651531
O O6 0.839172 0.837670 0.756029
O O7 0.763444 0.917952 0.642197
O O8 0.354524 0.150900 0.967250
O O9 0.856132 0.485533 0.252274
O O10 0.165977 0.281560 0.740293
O O11 0.393739 0.392506 0.423333
O O12 0.994683 0.385240 0.704728
O O13 0.500000 0.000000 0.500000
O O14 0.395434 0.106937 0.753878
O O15 0.816727 0.405235 0.071534
O O16 0.699072 0.691460 0.714079
O O17 0.500000 0.500000 0.000000
#
# Coordination Sequence:
#
# PCOD9042583 Si02
#       8
#     2   2   2   2   2   2   2   2
#     4  11  23  44  72 103 136 184 230 282 342 418
#     4   9  19  40  70 102 136 184 228 276 341 418
#     4   9  19  39  72  98 140 184 226 275 345 412
#     4  12  28  49  73 100 133 184 240 284 343 415
#     4  11  26  44  66 108 146 178 225 290 343 409
#     4  12  28  50  73  98 139 182 234 294 339 410
#     4  12  26  42  69 108 144 181 228 283 352 407
#     4  10  23  44  73 100 135 185 228 282 344 412
#
# _framework density 22.487784000000001
#
# number of rings (size 3 to 8) (size 9 to 14) (size 15 to 20)
#    0.000    1.250    3.750    1.500    5.250    5.500 
#    0.000    0.000    0.000    0.000    0.000    0.000 
#    0.000    0.000    0.000    0.000    0.000    0.000 
#
# Total GULP energy -89396.372748 kJ/mol
# GULP energy per Si atom -5587.273297 kJ/mol
# Density = 2.243660 g / cm^3
# Si number density = 22.487784 Si / 1000 Ang^3
#
#
#
# Elastic Constant Matrix: (Units=GPa)
#
#
# Indices 1 2 3 4 5 6 
#
# 1 27.3744 30.1470 3.0415 -5.3299 -12.2386 -2.3390
# 2 30.1470 161.8108 52.3341 -5.4882 -28.1411 2.8213
# 3 3.0415 52.3341 117.6244 -6.9536 -18.3893 -2.9727
# 4 -5.3299 -5.4882 -6.9536 40.4481 2.6530 -11.2839
# 5 -12.2386 -28.1411 -18.3893 2.6530 33.5895 5.4433
# 6 -2.3390 2.8213 -2.9727 -11.2839 5.4433 24.6140
#
#
#
# Elastic Compliance Matrix: (Units=1/GPa)
#
#
# Indices 1 2 3 4 5 6 
#
# 1 0.054492 -0.009549 0.005549 0.008168 0.012981 0.007817
# 2 -0.009549 0.009796 -0.003789 -0.001970 0.003484 -0.004161
# 3 0.005549 -0.003789 0.010915 0.002514 0.004220 0.002499
# 4 0.008168 -0.001970 0.002514 0.030521 -0.002269 0.015799
# 5 0.012981 0.003484 0.004220 -0.002269 0.041341 -0.008839
# 6 0.007817 -0.004161 0.002499 0.015799 -0.008839 0.051346
#
#
# Mechanical properties :
#
#
# Convention : Reuss Voigt Hill
#
# Bulk Modulus (GPa) = 16.77099 53.09498 34.93298
# Shear Modulus (GPa) = 21.38001 34.48278 27.93139
#
# Velocity S-wave (km/s) = 3.08675 3.92011 3.52812
# Velocity P-wave (km/s) = 4.49200 6.64466 5.67140
#
# Compressibility (1/GPa) = 0.05962677
#
# Stress axis : x y z
#
# Youngs Moduli (GPa) = 18.35143 102.08191 91.61404
#
# Poissons Ratio (x) = 0.97477 -0.50840
# Poissons Ratio (y) = 0.17524 0.34709
# Poissons Ratio (z) = -0.10184 0.38675
#
# Static dielectric constant tensor:
#      x y z
#    x 1.889230 0.087230 -0.002310 
#    y 0.087230 1.851860 -0.013110 
#    z -0.002310 -0.013110 1.846220 
# 
# From -- ./inp_files/600052.got.cif
#   From: 2010.05.17/outbox.cif.g08.bks.cpg/sg2_301_cif.got.tgz:600052.got - 2010.06.03 11:33:40.
