data_PCOD9042142
_publ_section_title
;
Structure prediction by ZEFSAII (Michael W. Deem and Ramdas Pophale) SiO2 
 PCOD9042142
Probable space group: P -1
;
_chemical_formula_sum "Si O2"
_cell_formula_units_Z 16
_cell_length_a 9.248163
_cell_length_b 14.957710
_cell_length_c 8.328183
_cell_angle_alpha 82.832149
_cell_angle_beta 45.625354
_cell_angle_gamma 63.864745
_cell_volume 708.475301
_symmetry_space_group_name_H-M "P -1"
_symmetry_group_IT_number 2
_symmetry_cell_setting 'triclinic'
loop_
_space_group_symop_operation_xyz
x,y,z
-x,-y,-z
loop_
_atom_site_type_symbol
_atom_site_label
_atom_site_fract_x
_atom_site_fract_y
_atom_site_fract_z
Si Si1 0.393227 0.152149 0.086859
Si Si2 0.763641 0.425408 0.374557
Si Si3 0.733929 0.399694 0.778739
Si Si4 0.847984 0.597663 0.358152
Si Si5 0.116133 0.049236 0.291960
Si Si6 0.940675 0.113449 0.074535
Si Si7 0.542903 0.282089 0.139706
Si Si8 0.836836 0.758715 0.087500
O O1 0.198050 0.123094 0.296164
O O2 0.395342 0.243724 0.160679
O O3 0.340812 0.186015 0.933593
O O4 0.643010 0.048575 0.937692
O O5 0.500000 0.500000 0.500000
O O6 0.756595 0.392331 0.570784
O O7 0.897537 0.492025 0.258137
O O8 0.914512 0.326659 0.165613
O O9 0.942676 0.407526 0.699772
O O10 0.500000 0.500000 0.000000
O O11 0.705217 0.306254 0.895246
O O12 0.637978 0.621065 0.636905
O O13 0.773266 0.692415 0.271346
O O14 0.949083 0.110569 0.261050
O O15 0.000000 0.000000 0.500000
O O16 0.701375 0.193303 0.160883
O O17 0.121543 0.153774 0.881029
O O18 0.000000 0.000000 0.000000
#
# Coordination Sequence:
#
# PCOD9042142 Si02
#       8
#     2   2   2   2   2   2   2   2
#     4  10  24  42  65 100 136 178 230 288 340 418
#     4  12  26  46  73 104 142 187 234 292 354 420
#     4  12  26  47  73 102 146 184 234 287 350 422
#     4  12  26  46  71 103 143 185 234 290 352 418
#     4  10  23  44  69  95 136 180 233 286 352 400
#     4  11  23  47  68  99 141 181 233 292 337 423
#     4  12  25  44  72 103 139 186 236 283 353 414
#     4  11  25  44  69 102 143 180 236 281 352 418
#
# _framework density 22.583708000000001
#
# number of rings (size 3 to 8) (size 9 to 14) (size 15 to 20)
#    0.000    0.750    3.750    3.000    5.250    4.000 
#    0.000    1.250    0.000    0.000    0.000    0.000 
#    0.000    0.000    0.000    0.000    0.000    0.000 
#
# Total GULP energy -89537.759898 kJ/mol
# GULP energy per Si atom -5596.109994 kJ/mol
# Density = 2.253231 g / cm^3
# Si number density = 22.583708 Si / 1000 Ang^3
#
#
#
# Elastic Constant Matrix: (Units=GPa)
#
#
# Indices 1 2 3 4 5 6 
#
# 1 122.4116 38.1786 27.3326 -15.9134 -13.0996 -2.0081
# 2 38.1786 107.7106 32.2726 -22.7559 -2.5093 6.2783
# 3 27.3326 32.2726 85.5321 -34.4710 0.0853 -1.2563
# 4 -15.9134 -22.7559 -34.4710 44.9239 -2.5045 2.8910
# 5 -13.0996 -2.5093 0.0853 -2.5045 18.2193 -3.6608
# 6 -2.0081 6.2783 -1.2563 2.8910 -3.6608 47.3145
#
#
#
# Elastic Compliance Matrix: (Units=1/GPa)
#
#
# Indices 1 2 3 4 5 6 
#
# 1 0.010428 -0.002801 -0.001753 0.001269 0.007551 0.001274
# 2 -0.002801 0.011760 -0.002209 0.003379 -0.000315 -0.001969
# 3 -0.001753 -0.002209 0.017929 0.012019 -0.000004 -0.000040
# 4 0.001269 0.003379 0.012019 0.034070 0.005659 -0.001719
# 5 0.007551 -0.000315 -0.000004 0.005659 0.062018 0.004815
# 6 0.001274 -0.001969 -0.000040 -0.001719 0.004815 0.021927
#
#
# Mechanical properties :
#
#
# Convention : Reuss Voigt Hill
#
# Bulk Modulus (GPa) = 37.60732 56.80242 47.20487
# Shear Modulus (GPa) = 27.69755 36.61625 32.15690
#
# Velocity S-wave (km/s) = 3.50586 4.03098 3.77755
# Velocity P-wave (km/s) = 5.75123 6.84628 6.32251
#
# Compressibility (1/GPa) = 0.02659057
#
# Stress axis : x y z
#
# Youngs Moduli (GPa) = 95.89443 85.03223 55.77681
#
# Poissons Ratio (x) = 0.23821 0.09777
# Poissons Ratio (y) = 0.26864 0.12321
# Poissons Ratio (z) = 0.16809 0.18783
#
# Static dielectric constant tensor:
#      x y z
#    x 1.822280 0.017570 0.006220 
#    y 0.017570 1.853830 0.007030 
#    z 0.006220 0.007030 1.841580 
# 
# From -- ./inp_files/206644.got.cif
#   From: 2010.05.17/outbox.cif.g08.bks.cpg/sg2_104_cif.got.tgz:206644.got - 2010.06.03 11:33:40.
