data_PCOD9042569
_publ_section_title
;
Structure prediction by ZEFSAII (Michael W. Deem and Ramdas Pophale) SiO2 
 PCOD9042569
Probable space group: P -1
;
_chemical_formula_sum "Si O2"
_cell_formula_units_Z 16
_cell_length_a 19.523056
_cell_length_b 8.657346
_cell_length_c 15.142872
_cell_angle_alpha 138.186224
_cell_angle_beta 139.864704
_cell_angle_gamma 31.569841
_cell_volume 829.586974
_symmetry_space_group_name_H-M "P -1"
_symmetry_group_IT_number 2
_symmetry_cell_setting 'triclinic'
loop_
_space_group_symop_operation_xyz
x,y,z
-x,-y,-z
loop_
_atom_site_type_symbol
_atom_site_label
_atom_site_fract_x
_atom_site_fract_y
_atom_site_fract_z
Si Si1 0.301733 0.020915 0.497853
Si Si2 0.919328 0.370994 0.370478
Si Si3 0.615005 0.167166 0.225786
Si Si4 0.614778 0.769168 0.703706
Si Si5 0.203303 0.807715 0.463209
Si Si6 0.233522 0.542053 0.918494
Si Si7 0.690966 0.400890 0.798465
Si Si8 0.549620 0.398642 0.907654
O O1 0.213884 0.376413 0.590725
O O2 0.465746 0.848990 0.583680
O O3 0.267236 0.892987 0.488740
O O4 0.266019 0.913657 0.331606
O O5 0.881692 0.355180 0.226052
O O6 0.000000 0.500000 0.500000
O O7 0.035998 0.036674 0.385045
O O8 0.739096 0.154893 0.376956
O O9 0.469953 0.390099 0.234497
O O10 0.570638 0.323592 0.154259
O O11 0.668319 0.827503 0.136942
O O12 0.719337 0.538985 0.631540
O O13 0.681611 0.594149 0.789335
O O14 0.583228 0.082503 0.794169
O O15 0.213611 0.646315 0.045778
O O16 0.316218 0.636875 0.997246
O O17 0.500000 0.500000 0.000000
#
# Coordination Sequence:
#
# PCOD9042569 Si02
#       8
#     2   2   2   2   2   2   2   2
#     4  10  17  33  59  84 115 145 188 232 275 327
#     4  10  19  35  59  83 108 152 192 230 274 334
#     4  11  18  35  57  84 111 142 189 236 275 329
#     4  11  19  36  57  87 118 145 185 232 282 336
#     4  10  19  34  60  86 107 149 192 231 273 328
#     4  11  21  36  57  83 117 146 189 233 280 337
#     4  10  18  32  57  88 112 144 184 239 283 316
#     4  11  23  33  54  87 119 146 179 234 296 328
#
# _framework density 19.286705000000001
#
# number of rings (size 3 to 8) (size 9 to 14) (size 15 to 20)
#    0.000    1.500    5.000    4.500    0.000    0.500 
#    0.000    6.250    0.000    3.000    0.000    0.000 
#    0.000    0.000    0.000    0.000    0.000    0.000 
#
# Total GULP energy -89172.771399 kJ/mol
# GULP energy per Si atom -5573.298212 kJ/mol
# Density = 1.924281 g / cm^3
# Si number density = 19.286705 Si / 1000 Ang^3
#
#
#
# Elastic Constant Matrix: (Units=GPa)
#
#
# Indices 1 2 3 4 5 6 
#
# 1 26.9383 -2.2484 9.1964 -1.2964 -1.8150 11.5561
# 2 -2.2484 48.5446 9.7449 2.7564 14.9590 -12.7908
# 3 9.1964 9.7449 112.8079 -18.9131 0.7495 -0.1585
# 4 -1.2964 2.7564 -18.9131 37.9806 5.4146 -1.0076
# 5 -1.8150 14.9590 0.7495 5.4146 12.2927 9.1472
# 6 11.5561 -12.7908 -0.1585 -1.0076 9.1472 21.5962
#
#
#
# Elastic Compliance Matrix: (Units=1/GPa)
#
#
# Indices 1 2 3 4 5 6 
#
# 1 0.019101 0.033550 -0.002550 0.008198 -0.071425 0.040266
# 2 0.033550 -0.020473 -0.003865 -0.013322 0.085913 -0.067117
# 3 -0.002550 -0.003865 0.010186 0.004785 0.003015 -0.001904
# 4 0.008198 -0.013322 0.004785 0.026614 0.019849 -0.019408
# 5 -0.071425 0.085913 0.003015 0.019849 -0.160158 0.157888
# 6 0.040266 -0.067117 -0.001904 -0.019408 0.157888 -0.082787
#
#
# Mechanical properties :
#
#
# Convention : Reuss Voigt Hill
#
# Bulk Modulus (GPa) = 15.85158 24.63072 20.24115
# Shear Modulus (GPa) = -20.76775 25.81377 2.52301
#
# Velocity S-wave (km/s) = -3.28501 3.66242 1.14499
# Velocity P-wave (km/s) = 2.48025 5.53922 3.50224
#
# Compressibility (1/GPa) = 0.06308518
#
# Stress axis : x y z
#
# Youngs Moduli (GPa) = 52.35234 -48.84552 98.17389
#
# Poissons Ratio (x) = 1.63879 0.25033
# Poissons Ratio (y) = -1.75644 0.37947
# Poissons Ratio (z) = 0.13349 -0.18880
#
# Static dielectric constant tensor:
#      x y z
#    x 1.651930 -0.028310 -0.036010 
#    y -0.028310 1.654320 -0.024560 
#    z -0.036010 -0.024560 1.730940 
# 
# From -- ./inp_files/396113.got.cif
#   From: 2010.05.17/outbox.cif.g08.bks.cpg/sg2_199_cif.got.tgz:396113.got - 2010.06.03 11:33:40.
