data_PCOD9042814
_publ_section_title
;
Structure prediction by ZEFSAII (Michael W. Deem and Ramdas Pophale) SiO2 
 PCOD9042814
Probable space group: P -1
;
_chemical_formula_sum "Si O2"
_cell_formula_units_Z 16
_cell_length_a 8.931960
_cell_length_b 21.065162
_cell_length_c 11.200994
_cell_angle_alpha 31.240325
_cell_angle_beta 43.306360
_cell_angle_gamma 60.163568
_cell_volume 702.159074
_symmetry_space_group_name_H-M "P -1"
_symmetry_group_IT_number 2
_symmetry_cell_setting 'triclinic'
loop_
_space_group_symop_operation_xyz
x,y,z
-x,-y,-z
loop_
_atom_site_type_symbol
_atom_site_label
_atom_site_fract_x
_atom_site_fract_y
_atom_site_fract_z
Si Si1 0.451417 0.624468 0.883788
Si Si2 0.301716 0.700909 0.197183
Si Si3 0.090197 0.907856 0.945009
Si Si4 0.149667 0.188892 0.502918
Si Si5 0.777693 0.673331 0.985224
Si Si6 0.760356 0.404796 0.350906
Si Si7 0.078091 0.407349 0.721105
Si Si8 0.337934 0.257889 0.666541
O O1 0.627257 0.687561 0.787014
O O2 0.532880 0.720543 0.569672
O O3 0.500000 0.500000 0.000000
O O4 0.192703 0.610294 0.091632
O O5 0.243695 0.816840 0.981838
O O6 0.180461 0.663084 0.458481
O O7 0.204530 0.562251 0.411345
O O8 0.571756 0.731063 0.019434
O O9 0.990844 0.861187 0.211930
O O10 0.882193 0.873618 0.022226
O O11 0.210526 0.062509 0.631740
O O12 0.057655 0.242825 0.351841
O O13 0.666255 0.519472 0.263401
O O14 0.889685 0.668953 0.055285
O O15 0.555220 0.299235 0.565640
O O16 0.000000 0.500000 0.000000
O O17 0.198628 0.354777 0.629328
#
# Coordination Sequence:
#
# PCOD9042814 Si02
#       8
#     2   2   2   2   2   2   2   2
#     4  11  24  39  65  97 126 165 209 264 326 377
#     4  11  21  37  59  94 125 163 207 250 330 376
#     4  10  24  41  64  85 123 175 209 261 313 383
#     4  10  23  45  60  88 126 164 218 256 315 386
#     4  11  21  38  61  89 128 160 206 265 316 377
#     4  11  20  37  64  93 127 161 206 268 323 377
#     4  11  22  40  63  97 131 160 207 272 319 372
#     4  11  21  40  61  94 126 163 213 260 319 374
#
# _framework density 22.786860000000001
#
# number of rings (size 3 to 8) (size 9 to 14) (size 15 to 20)
#    0.000    1.250    2.500    5.250    1.750    1.500 
#    0.000    1.875    0.000    5.250    0.000    0.000 
#    0.000    0.000    0.000    0.000    0.000    0.000 
#
# Total GULP energy -89253.498900 kJ/mol
# GULP energy per Si atom -5578.343681 kJ/mol
# Density = 2.273500 g / cm^3
# Si number density = 22.786860 Si / 1000 Ang^3
#
#
#
# Elastic Constant Matrix: (Units=GPa)
#
#
# Indices 1 2 3 4 5 6 
#
# 1 102.4662 33.4423 40.1245 1.5232 4.8504 -3.2322
# 2 33.4423 88.3888 37.3082 2.2563 -11.6568 -4.8324
# 3 40.1245 37.3082 70.9351 -0.3837 5.2003 -4.3061
# 4 1.5232 2.2563 -0.3837 48.9590 -0.7467 3.1243
# 5 4.8504 -11.6568 5.2003 -0.7467 31.5830 8.1320
# 6 -3.2322 -4.8324 -4.3061 3.1243 8.1320 33.7980
#
#
#
# Elastic Compliance Matrix: (Units=1/GPa)
#
#
# Indices 1 2 3 4 5 6 
#
# 1 0.013036 -0.002775 -0.005706 -0.000402 -0.002279 0.000708
# 2 -0.002775 0.016722 -0.007867 -0.000574 0.008077 -0.000767
# 3 -0.005706 -0.007867 0.022089 0.000449 -0.006330 0.002625
# 4 -0.000402 -0.000574 0.000449 0.020619 0.000821 -0.002167
# 5 -0.002279 0.008077 -0.006330 0.000821 0.038422 -0.009190
# 6 0.000708 -0.000767 0.002625 -0.002167 -0.009190 0.032292
#
#
# Mechanical properties :
#
#
# Convention : Reuss Voigt Hill
#
# Bulk Modulus (GPa) = 52.22024 53.72668 52.97346
# Shear Modulus (GPa) = 27.43354 32.92898 30.18126
#
# Velocity S-wave (km/s) = 3.47352 3.80555 3.64332
# Velocity P-wave (km/s) = 6.24929 6.55277 6.40283
#
# Compressibility (1/GPa) = 0.01914966
#
# Stress axis : x y z
#
# Youngs Moduli (GPa) = 76.71241 59.80057 45.27200
#
# Poissons Ratio (x) = 0.16595 0.25833
# Poissons Ratio (y) = 0.21288 0.35616
# Poissons Ratio (z) = 0.43774 0.47046
#
# Static dielectric constant tensor:
#      x y z
#    x 1.912120 0.001390 -0.000620 
#    y 0.001390 1.956540 0.090270 
#    z -0.000620 0.090270 1.899250 
# 
# From -- ./inp_files/227332.got.cif
#   From: 2010.05.17/outbox.cif.g08.bks.cpg/sg2_114_cif.got.tgz:227332.got - 2010.06.03 11:33:40.
