data_PCOD9042993
_publ_section_title
;
Structure prediction by ZEFSAII (Michael W. Deem and Ramdas Pophale) SiO2 
 PCOD9042993
Probable space group: P -1
;
_chemical_formula_sum "Si O2"
_cell_formula_units_Z 13
_cell_length_a 14.760561
_cell_length_b 10.719389
_cell_length_c 6.889930
_cell_angle_alpha 96.762299
_cell_angle_beta 114.753128
_cell_angle_gamma 134.151222
_cell_volume 552.595317
_symmetry_space_group_name_H-M "P -1"
_symmetry_group_IT_number 2
_symmetry_cell_setting 'triclinic'
loop_
_space_group_symop_operation_xyz
x,y,z
-x,-y,-z
loop_
_atom_site_type_symbol
_atom_site_label
_atom_site_fract_x
_atom_site_fract_y
_atom_site_fract_z
Si Si1 0.000000 0.000000 0.500000
Si Si2 0.907519 0.534485 0.870152
Si Si3 0.514252 0.684445 0.610462
Si Si4 0.907441 0.021943 0.023775
Si Si5 0.587661 0.210317 0.216461
Si Si6 0.702031 0.477333 0.986460
Si Si7 0.314170 0.343274 0.709107
O O1 0.841588 0.916642 0.491633
O O2 0.028051 0.925071 0.690061
O O3 0.759682 0.363565 0.534605
O O4 0.814334 0.494499 0.971775
O O5 0.032598 0.779235 0.961264
O O6 0.000000 0.500000 0.000000
O O7 0.541693 0.848691 0.765019
O O8 0.440297 0.624476 0.317331
O O9 0.367772 0.470782 0.585166
O O10 0.694330 0.795941 0.790401
O O11 0.000000 0.000000 0.000000
O O12 0.628481 0.341052 0.091866
O O13 0.500000 0.000000 0.000000
O O14 0.790135 0.694983 0.200551
O O15 0.500000 0.500000 0.000000
#
# Coordination Sequence:
#
# PCOD9042993 Si02
#       7
#     1   2   2   2   2   2   2
#     4  12  24  44  70 100 152 182 254 300 370 442
#     4  11  27  48  72 111 148 190 253 315 368 452
#     4  10  24  44  70 103 141 193 249 301 375 451
#     4  12  27  44  72 110 147 198 249 306 381 446
#     4  10  24  46  72 101 137 196 249 308 377 444
#     4  10  23  45  67  95 145 186 242 305 368 444
#     4  11  23  43  66 102 139 194 241 308 366 444
#
# _framework density 23.525352999999999
#
# number of rings (size 3 to 8) (size 9 to 14) (size 15 to 20)
#    0.000    1.231    1.538    3.692    6.462    2.462 
#    2.769    0.000    0.000    0.000    0.000    0.000 
#    0.000    0.000    0.000    0.000    0.000    0.000 
#
# Total GULP energy -72494.039946 kJ/mol
# GULP energy per Si atom -5576.464611 kJ/mol
# Density = 2.347181 g / cm^3
# Si number density = 23.525353 Si / 1000 Ang^3
#
#
#
# Elastic Constant Matrix: (Units=GPa)
#
#
# Indices 1 2 3 4 5 6 
#
# 1 157.4011 66.8398 101.4390 2.5113 4.1466 5.0067
# 2 66.8398 121.2040 62.3267 -5.8920 0.9220 7.2928
# 3 101.4390 62.3267 196.1976 -24.6158 -3.1734 10.5012
# 4 2.5113 -5.8920 -24.6158 45.5816 -5.2923 3.9050
# 5 4.1466 0.9220 -3.1734 -5.2923 55.0052 10.0426
# 6 5.0067 7.2928 10.5012 3.9050 10.0426 48.3895
#
#
#
# Elastic Compliance Matrix: (Units=1/GPa)
#
#
# Indices 1 2 3 4 5 6 
#
# 1 0.011540 -0.003873 -0.005380 -0.004356 -0.001767 0.001275
# 2 -0.003873 0.011202 -0.001355 0.001067 0.000339 -0.001150
# 3 -0.005380 -0.001355 0.009131 0.005443 0.001852 -0.002044
# 4 -0.004356 0.001067 0.005443 0.026023 0.003819 -0.003784
# 5 -0.001767 0.000339 0.001852 0.003819 0.019631 -0.004653
# 6 0.001275 -0.001150 -0.002044 -0.003784 -0.004653 0.022422
#
#
# Mechanical properties :
#
#
# Convention : Reuss Voigt Hill
#
# Bulk Modulus (GPa) = 93.82982 104.00152 98.91567
# Shear Modulus (GPa) = 40.09069 46.07507 43.08288
#
# Velocity S-wave (km/s) = 4.13261 4.43033 4.28406
# Velocity P-wave (km/s) = 7.92101 8.39492 8.16141
#
# Compressibility (1/GPa) = 0.01065759
#
# Stress axis : x y z
#
# Youngs Moduli (GPa) = 86.65322 89.27291 109.51574
#
# Poissons Ratio (x) = 0.34573 0.58917
# Poissons Ratio (y) = 0.33558 0.14842
# Poissons Ratio (z) = 0.46617 0.12099
#
# Static dielectric constant tensor:
#      x y z
#    x 2.118670 0.027990 -0.025080 
#    y 0.027990 1.979880 0.085650 
#    z -0.025080 0.085650 1.964140 
# 
# From -- ./inp_files/93709.got.cif
#   From: 2010.05.17/outbox.cif.g08.bks.cpg/sg2_47_cif.got.tgz:93709.got - 2010.06.03 11:33:40.
