data_PCOD9042557
_publ_section_title
;
Structure prediction by ZEFSAII (Michael W. Deem and Ramdas Pophale) SiO2 
 PCOD9042557
Probable space group: P -1
;
_chemical_formula_sum "Si O2"
_cell_formula_units_Z 14
_cell_length_a 22.157819
_cell_length_b 14.074686
_cell_length_c 5.637459
_cell_angle_alpha 97.749762
_cell_angle_beta 106.653652
_cell_angle_gamma 21.815167
_cell_volume 581.874934
_symmetry_space_group_name_H-M "P -1"
_symmetry_group_IT_number 2
_symmetry_cell_setting 'triclinic'
loop_
_space_group_symop_operation_xyz
x,y,z
-x,-y,-z
loop_
_atom_site_type_symbol
_atom_site_label
_atom_site_fract_x
_atom_site_fract_y
_atom_site_fract_z
Si Si1 0.790561 0.773687 0.573823
Si Si2 0.915249 0.761915 0.997419
Si Si3 0.578327 0.349534 0.289773
Si Si4 0.612458 0.099687 0.087177
Si Si5 0.026424 0.819723 0.115643
Si Si6 0.609296 0.634822 0.462037
Si Si7 0.134981 0.910841 0.470996
O O1 0.914594 0.519197 0.754031
O O2 0.750595 0.829238 0.270354
O O3 0.585136 0.068493 0.540220
O O4 0.888897 0.734749 0.725558
O O5 0.938118 0.840870 0.014676
O O6 0.732767 0.990612 0.004179
O O7 0.500000 0.500000 0.500000
O O8 0.548087 0.278715 0.239152
O O9 0.780521 0.102803 0.432707
O O10 0.500000 0.500000 0.000000
O O11 0.445811 0.281709 0.848417
O O12 0.239170 0.513243 0.309240
O O13 0.947117 0.984273 0.320869
O O14 0.988195 0.918476 0.846137
O O15 0.702954 0.395980 0.494304
#
# Coordination Sequence:
#
# PCOD9042557 Si02
#       7
#     2   2   2   2   2   2   2
#     4  10  23  44  72  94 134 173 232 284 340 394
#     4  10  23  45  67 102 128 177 230 284 339 401
#     4  12  23  38  66 100 134 171 222 276 330 394
#     4  11  22  41  67  99 133 174 228 279 343 398
#     4  12  27  45  69 100 140 184 224 275 339 404
#     4  11  26  42  66 101 135 181 224 275 338 409
#     4  12  25  44  68  99 142 182 224 273 336 410
#
# _framework density 24.06015
#
# number of rings (size 3 to 8) (size 9 to 14) (size 15 to 20)
#    0.000    0.857    2.857    3.857    6.000    0.571 
#    0.000    0.714    0.000    0.000    0.000    0.000 
#    0.000    0.000    0.000    0.000    0.000    0.000 
#
# Total GULP energy -78163.445715 kJ/mol
# GULP energy per Si atom -5583.103265 kJ/mol
# Density = 2.400539 g / cm^3
# Si number density = 24.060150 Si / 1000 Ang^3
#
#
#
# Elastic Constant Matrix: (Units=GPa)
#
#
# Indices 1 2 3 4 5 6 
#
# 1 44.4523 1.9399 31.7807 2.5506 -8.7476 -9.1675
# 2 1.9399 97.1411 28.6433 -1.1295 -9.1184 -21.2249
# 3 31.7807 28.6433 194.9331 -17.2435 -10.7674 -7.4335
# 4 2.5506 -1.1295 -17.2435 32.6686 0.3007 -2.2270
# 5 -8.7476 -9.1184 -10.7674 0.3007 36.4397 -7.0409
# 6 -9.1675 -21.2249 -7.4335 -2.2270 -7.0409 25.6868
#
#
#
# Elastic Compliance Matrix: (Units=1/GPa)
#
#
# Indices 1 2 3 4 5 6 
#
# 1 0.031789 0.005583 -0.005096 -0.003912 0.010863 0.017123
# 2 0.005583 0.014959 -0.002091 -0.000014 0.007520 0.015808
# 3 -0.005096 -0.002091 0.006536 0.003683 -0.000110 -0.001366
# 4 -0.003912 -0.000014 0.003683 0.033035 0.000381 0.002627
# 5 0.010863 0.007520 -0.000110 0.000381 0.035740 0.019889
# 6 0.017123 0.015808 -0.001366 0.002627 0.019889 0.063388
#
#
# Mechanical properties :
#
#
# Convention : Reuss Voigt Hill
#
# Bulk Modulus (GPa) = 19.96973 51.25048 35.61010
# Shear Modulus (GPa) = 24.34902 37.23652 30.79277
#
# Velocity S-wave (km/s) = 3.18466 3.93828 3.58134
# Velocity P-wave (km/s) = 4.67340 6.48284 5.65101
#
# Compressibility (1/GPa) = 0.05007579
#
# Stress axis : x y z
#
# Youngs Moduli (GPa) = 31.45720 66.84809 153.00433
#
# Poissons Ratio (x) = -0.37323 0.77973
# Poissons Ratio (y) = -0.17564 0.31999
# Poissons Ratio (z) = 0.16031 0.13981
#
# Static dielectric constant tensor:
#      x y z
#    x 1.935810 -0.031200 -0.047160 
#    y -0.031200 2.044780 0.122650 
#    z -0.047160 0.122650 2.034030 
# 
# From -- ./inp_files/65980.got.cif
#   From: 2010.05.17/outbox.cif.g08.bks.cpg/sg2_33_cif.got.tgz:65980.got - 2010.06.03 11:33:40.
