data_PCOD9042238
_publ_section_title
;
Structure prediction by ZEFSAII (Michael W. Deem and Ramdas Pophale) SiO2 
 PCOD9042238
Probable space group: P -1
;
_chemical_formula_sum "Si O2"
_cell_formula_units_Z 16
_cell_length_a 9.184727
_cell_length_b 11.591601
_cell_length_c 10.404276
_cell_angle_alpha 63.085426
_cell_angle_beta 52.731916
_cell_angle_gamma 93.578182
_cell_volume 692.026282
_symmetry_space_group_name_H-M "P -1"
_symmetry_group_IT_number 2
_symmetry_cell_setting 'triclinic'
loop_
_space_group_symop_operation_xyz
x,y,z
-x,-y,-z
loop_
_atom_site_type_symbol
_atom_site_label
_atom_site_fract_x
_atom_site_fract_y
_atom_site_fract_z
Si Si1 0.370199 0.835784 0.766170
Si Si2 0.095694 0.425125 0.393299
Si Si3 0.601739 0.875826 0.356833
Si Si4 0.415111 0.355454 0.968603
Si Si5 0.942401 0.850544 0.291635
Si Si6 0.592820 0.905469 0.070870
Si Si7 0.874426 0.500571 0.940164
Si Si8 0.219597 0.106772 0.389825
O O1 0.438577 0.825963 0.587884
O O2 0.575500 0.912052 0.708483
O O3 0.276988 0.946144 0.776018
O O4 0.234710 0.668916 0.963565
O O5 0.345032 0.528060 0.203247
O O6 0.044313 0.277931 0.573007
O O7 0.019627 0.410912 0.292736
O O8 0.000000 0.500000 0.500000
O O9 0.764371 0.810002 0.300948
O O10 0.491759 0.840904 0.294811
O O11 0.403339 0.223731 0.951233
O O12 0.286584 0.441110 0.958776
O O13 0.306583 0.267652 0.201466
O O14 0.837943 0.906486 0.425408
O O15 0.170660 0.976955 0.079681
O O16 0.500000 0.000000 0.000000
O O17 0.000000 0.500000 0.000000
O O18 0.000000 0.000000 0.500000
#
# Coordination Sequence:
#
# PCOD9042238 Si02
#       8
#     2   2   2   2   2   2   2   2
#     4  10  23  44  70 102 143 188 240 302 361 438
#     4  12  27  49  74 107 150 201 248 306 375 448
#     4  10  24  43  70  98 140 183 236 303 366 425
#     4  12  24  46  73 104 149 193 243 303 368 445
#     4  11  24  42  69  99 136 191 238 289 368 433
#     4  12  26  42  69 108 144 185 245 311 368 434
#     4  12  28  45  76 109 151 200 252 299 374 453
#     4  11  20  39  71 103 134 181 239 291 356 433
#
# _framework density 23.120508999999998
#
# number of rings (size 3 to 8) (size 9 to 14) (size 15 to 20)
#    0.000    0.750    3.750    3.750    3.500    4.000 
#    0.000    1.875    0.000    0.000    0.000    0.000 
#    0.000    0.000    0.000    0.000    0.000    0.000 
#
# Total GULP energy -89270.602545 kJ/mol
# GULP energy per Si atom -5579.412659 kJ/mol
# Density = 2.306789 g / cm^3
# Si number density = 23.120509 Si / 1000 Ang^3
#
#
#
# Elastic Constant Matrix: (Units=GPa)
#
#
# Indices 1 2 3 4 5 6 
#
# 1 143.1072 44.2948 27.7061 7.8696 17.5741 -10.2029
# 2 44.2948 92.7961 21.3151 1.2924 10.5044 -13.9672
# 3 27.7061 21.3151 85.6773 -7.3256 -0.0687 6.4060
# 4 7.8696 1.2924 -7.3256 34.9682 0.8299 5.8920
# 5 17.5741 10.5044 -0.0687 0.8299 34.6469 -2.3555
# 6 -10.2029 -13.9672 6.4060 5.8920 -2.3555 31.9078
#
#
#
# Elastic Compliance Matrix: (Units=1/GPa)
#
#
# Indices 1 2 3 4 5 6 
#
# 1 0.009185 -0.002967 -0.002660 -0.002841 -0.003531 0.002436
# 2 -0.002967 0.014086 -0.003115 -0.001451 -0.002333 0.005938
# 3 -0.002660 -0.003115 0.014133 0.004603 0.001819 -0.005767
# 4 -0.002841 -0.001451 0.004603 0.031634 0.000570 -0.008267
# 5 -0.003531 -0.002333 0.001819 0.000570 0.031330 -0.000308
# 6 0.002436 0.005938 -0.005767 -0.008267 -0.000308 0.037380
#
#
# Mechanical properties :
#
#
# Convention : Reuss Voigt Hill
#
# Bulk Modulus (GPa) = 50.20037 56.46805 53.33421
# Shear Modulus (GPa) = 30.88859 35.52222 33.20541
#
# Velocity S-wave (km/s) = 3.65907 3.92394 3.79382
# Velocity P-wave (km/s) = 6.29376 6.70866 6.50452
#
# Compressibility (1/GPa) = 0.01992017
#
# Stress axis : x y z
#
# Youngs Moduli (GPa) = 108.87710 70.99105 70.75669
#
# Poissons Ratio (x) = 0.21065 0.18820
# Poissons Ratio (y) = 0.32307 0.22039
# Poissons Ratio (z) = 0.28959 0.22112
#
# Static dielectric constant tensor:
#      x y z
#    x 1.532760 -0.004600 0.242420 
#    y -0.004600 1.890900 0.017260 
#    z 0.242420 0.017260 1.769340 
# 
# From -- ./inp_files/392331.got.cif
#   From: 2010.05.17/outbox.cif.g08.bks.cpg/sg2_197_cif.got.tgz:392331.got - 2010.06.03 11:33:40.
