data_PCOD9042508
_publ_section_title
;
Structure prediction by ZEFSAII (Michael W. Deem and Ramdas Pophale) SiO2 
 PCOD9042508
Probable space group: P -1
;
_chemical_formula_sum "Si O2"
_cell_formula_units_Z 16
_cell_length_a 18.857689
_cell_length_b 23.394065
_cell_length_c 5.904737
_cell_angle_alpha 104.764566
_cell_angle_beta 96.614341
_cell_angle_gamma 18.789921
_cell_volume 741.893116
_symmetry_space_group_name_H-M "P -1"
_symmetry_group_IT_number 2
_symmetry_cell_setting 'triclinic'
loop_
_space_group_symop_operation_xyz
x,y,z
-x,-y,-z
loop_
_atom_site_type_symbol
_atom_site_label
_atom_site_fract_x
_atom_site_fract_y
_atom_site_fract_z
Si Si1 0.813538 0.449088 0.245275
Si Si2 0.572725 0.664217 0.875514
Si Si3 0.304244 0.660973 0.392623
Si Si4 0.878832 0.627273 0.373754
Si Si5 0.050085 0.029009 0.075920
Si Si6 0.619798 0.758902 0.089820
Si Si7 0.692038 0.884399 0.810342
Si Si8 0.733486 0.379696 0.062844
O O1 0.700572 0.555964 0.562711
O O2 0.832246 0.362970 0.173691
O O3 0.058133 0.293556 0.164550
O O4 0.693703 0.552869 0.054256
O O5 0.327427 0.821983 0.930349
O O6 0.513888 0.779607 0.013782
O O7 0.500000 0.500000 0.500000
O O8 0.449647 0.594004 0.230732
O O9 0.266585 0.629680 0.215429
O O10 0.048115 0.880746 0.617255
O O11 0.677602 0.738793 0.338602
O O12 0.762709 0.782765 0.535292
O O13 0.000000 0.500000 0.500000
O O14 0.108300 0.456979 0.126098
O O15 0.893206 0.198552 0.034631
O O16 0.000000 0.000000 0.000000
O O17 0.445164 0.947089 0.124052
O O18 0.500000 0.000000 0.000000
#
# Coordination Sequence:
#
# PCOD9042508 Si02
#       8
#     2   2   2   2   2   2   2   2
#     4  12  29  49  74 106 150 192 250 306 375 436
#     4  12  29  49  73 108 151 194 241 314 371 432
#     4   9  21  41  71 102 141 181 249 292 371 429
#     4  11  22  44  72 105 145 182 247 304 367 442
#     4  11  25  43  71 106 145 192 246 299 375 444
#     4  11  25  44  73 102 147 191 242 306 369 441
#     4  12  25  46  75 110 141 200 247 304 377 446
#     4  10  23  44  72 102 144 195 243 307 364 443
#
# _framework density 21.566448999999999
#
# number of rings (size 3 to 8) (size 9 to 14) (size 15 to 20)
#    0.000    1.000    2.500    2.625   12.250    1.500 
#    2.250    0.000    0.000    0.000    0.000    0.000 
#    0.000    0.000    0.000    0.000    0.000    0.000 
#
# Total GULP energy -89105.680353 kJ/mol
# GULP energy per Si atom -5569.105022 kJ/mol
# Density = 2.151736 g / cm^3
# Si number density = 21.566449 Si / 1000 Ang^3
#
#
#
# Elastic Constant Matrix: (Units=GPa)
#
#
# Indices 1 2 3 4 5 6 
#
# 1 149.6958 51.4010 39.4380 -9.1749 29.5153 -5.2790
# 2 51.4010 106.4879 44.1314 -2.8975 -4.3086 -11.5946
# 3 39.4380 44.1314 102.6011 3.6651 11.0359 -3.4688
# 4 -9.1749 -2.8975 3.6651 32.2448 -7.9800 0.2813
# 5 29.5153 -4.3086 11.0359 -7.9800 39.7862 5.0350
# 6 -5.2790 -11.5946 -3.4688 0.2813 5.0350 47.0978
#
#
#
# Elastic Compliance Matrix: (Units=1/GPa)
#
#
# Indices 1 2 3 4 5 6 
#
# 1 0.010149 -0.004672 -0.001063 0.000678 -0.007696 0.000728
# 2 -0.004672 0.014280 -0.005070 0.002149 0.006609 0.001899
# 3 -0.001063 -0.005070 0.012879 -0.003207 -0.003979 0.000026
# 4 0.000678 0.002149 -0.003207 0.033610 0.007440 -0.000627
# 5 -0.007696 0.006609 -0.003979 0.007440 0.034569 -0.003269
# 6 0.000728 0.001899 0.000026 -0.000627 -0.003269 0.022137
#
#
# Mechanical properties :
#
#
# Convention : Reuss Voigt Hill
#
# Bulk Modulus (GPa) = 63.70256 69.85840 66.78048
# Shear Modulus (GPa) = 32.36944 38.74670 35.55807
#
# Velocity S-wave (km/s) = 3.87837 4.24325 4.06491
# Velocity P-wave (km/s) = 7.04681 7.51461 7.28447
#
# Compressibility (1/GPa) = 0.01569796
#
# Stress axis : x y z
#
# Youngs Moduli (GPa) = 98.52908 70.03044 77.64420
#
# Poissons Ratio (x) = 0.32718 0.08257
# Poissons Ratio (y) = 0.46033 0.39363
# Poissons Ratio (z) = 0.10478 0.35503
#
# Static dielectric constant tensor:
#      x y z
#    x 1.796960 0.028210 -0.012560 
#    y 0.028210 1.793780 -0.068230 
#    z -0.012560 -0.068230 1.933360 
# 
# From -- ./inp_files/112952.got.cif
#   From: 2010.05.17/outbox.cif.g08.bks.cpg/sg2_57_cif.got.tgz:112952.got - 2010.06.03 11:33:40.
