data_PCOD9042851
_publ_section_title
;
Structure prediction by ZEFSAII (Michael W. Deem and Ramdas Pophale) SiO2 
 PCOD9042851
Probable space group: P -1
;
_chemical_formula_sum "Si O2"
_cell_formula_units_Z 16
_cell_length_a 16.226554
_cell_length_b 12.203049
_cell_length_c 9.027113
_cell_angle_alpha 134.669087
_cell_angle_beta 35.289892
_cell_angle_gamma 137.479215
_cell_volume 673.975165
_symmetry_space_group_name_H-M "P -1"
_symmetry_group_IT_number 2
_symmetry_cell_setting 'triclinic'
loop_
_space_group_symop_operation_xyz
x,y,z
-x,-y,-z
loop_
_atom_site_type_symbol
_atom_site_label
_atom_site_fract_x
_atom_site_fract_y
_atom_site_fract_z
Si Si1 0.993230 0.418139 0.588321
Si Si2 0.573514 0.524661 0.634829
Si Si3 0.878114 0.855552 0.434153
Si Si4 0.087617 0.655437 0.912823
Si Si5 0.638449 0.346441 0.081597
Si Si6 0.084701 0.926703 0.691392
Si Si7 0.383676 0.906323 0.354157
Si Si8 0.587686 0.238873 0.510106
O O1 0.024915 0.250987 0.387814
O O2 0.000000 0.500000 0.500000
O O3 0.115506 0.562758 0.641816
O O4 0.820145 0.384807 0.869327
O O5 0.718766 0.708491 0.589170
O O6 0.589210 0.407518 0.364254
O O7 0.413343 0.546337 0.860571
O O8 0.580588 0.417884 0.664313
O O9 0.842451 0.946536 0.430613
O O10 0.000000 0.000000 0.500000
O O11 0.981201 0.754837 0.134501
O O12 0.262303 0.772960 0.805416
O O13 0.000000 0.500000 0.000000
O O14 0.566331 0.162030 0.934480
O O15 0.204924 0.871384 0.551463
O O16 0.000000 0.000000 0.000000
O O17 0.417781 0.817877 0.365348
O O18 0.451145 0.099491 0.485635
#
# Coordination Sequence:
#
# PCOD9042851 Si02
#       8
#     2   2   2   2   2   2   2   2
#     4  11  22  42  70  94 130 177 228 277 338 406
#     4  11  25  43  70  98 140 177 230 286 339 415
#     4  12  26  44  66 104 136 179 229 288 349 398
#     4  12  22  42  66  96 135 175 228 276 341 408
#     4  10  23  45  65 104 129 181 228 279 344 402
#     4  11  25  45  70 100 136 178 229 291 341 410
#     4  10  25  46  69  99 138 181 231 277 348 408
#     4  11  24  44  67 100 136 182 225 287 339 407
#
# _framework density 23.739746
#
# number of rings (size 3 to 8) (size 9 to 14) (size 15 to 20)
#    0.000    1.000    2.500    3.750    5.250    2.000 
#    0.000    0.000    0.000    0.000    0.000    0.000 
#    0.000    0.000    0.000    0.000    0.000    0.000 
#
# Total GULP energy -89291.830919 kJ/mol
# GULP energy per Si atom -5580.739432 kJ/mol
# Density = 2.368571 g / cm^3
# Si number density = 23.739746 Si / 1000 Ang^3
#
#
#
# Elastic Constant Matrix: (Units=GPa)
#
#
# Indices 1 2 3 4 5 6 
#
# 1 77.1914 18.5550 0.2089 14.7259 6.8342 -10.1512
# 2 18.5550 111.5371 6.8938 23.2735 20.5158 -18.9613
# 3 0.2089 6.8938 80.5223 32.0540 3.9310 3.9065
# 4 14.7259 23.2735 32.0540 30.1837 -1.7905 -2.6459
# 5 6.8342 20.5158 3.9310 -1.7905 36.6161 6.3561
# 6 -10.1512 -18.9613 3.9065 -2.6459 6.3561 39.1241
#
#
#
# Elastic Compliance Matrix: (Units=1/GPa)
#
#
# Indices 1 2 3 4 5 6 
#
# 1 0.016897 0.002496 0.006735 -0.017305 -0.006969 0.004883
# 2 0.002496 0.016552 0.007585 -0.022064 -0.013117 0.008551
# 3 0.006735 0.007585 0.027747 -0.039082 -0.010700 0.001748
# 4 -0.017305 -0.022064 -0.039082 0.100882 0.026235 -0.008720
# 5 -0.006969 -0.013117 -0.010700 0.026235 0.040457 -0.011895
# 6 0.004883 0.008551 0.001748 -0.008720 -0.011895 0.032139
#
#
# Mechanical properties :
#
#
# Convention : Reuss Voigt Hill
#
# Bulk Modulus (GPa) = 10.54548 35.61846 23.08197
# Shear Modulus (GPa) = 21.49125 37.42432 29.45779
#
# Velocity S-wave (km/s) = 3.01206 3.97475 3.52641
# Velocity P-wave (km/s) = 4.06798 6.00842 5.13077
#
# Compressibility (1/GPa) = 0.09482736
#
# Stress axis : x y z
#
# Youngs Moduli (GPa) = 59.18135 60.41606 36.03944
#
# Poissons Ratio (x) = -0.15078 -0.24271
# Poissons Ratio (y) = -0.14770 -0.27336
# Poissons Ratio (z) = -0.39857 -0.45826
#
# Static dielectric constant tensor:
#      x y z
#    x 1.868260 0.024680 0.039900 
#    y 0.024680 1.912980 -0.008310 
#    z 0.039900 -0.008310 1.943910 
# 
# From -- ./inp_files/333877.got.cif
#   From: 2010.05.17/outbox.cif.g08.bks.cpg/sg2_167_cif.got.tgz:333877.got - 2010.06.03 11:33:40.
