data_PCOD9042726
_publ_section_title
;
Structure prediction by ZEFSAII (Michael W. Deem and Ramdas Pophale) SiO2 
 PCOD9042726
Probable space group: P -1
;
_chemical_formula_sum "Si O2"
_cell_formula_units_Z 14
_cell_length_a 11.558923
_cell_length_b 5.442416
_cell_length_c 15.747981
_cell_angle_alpha 75.081606
_cell_angle_beta 142.708283
_cell_angle_gamma 112.745219
_cell_volume 551.315821
_symmetry_space_group_name_H-M "P -1"
_symmetry_group_IT_number 2
_symmetry_cell_setting 'triclinic'
loop_
_space_group_symop_operation_xyz
x,y,z
-x,-y,-z
loop_
_atom_site_type_symbol
_atom_site_label
_atom_site_fract_x
_atom_site_fract_y
_atom_site_fract_z
Si Si1 0.682268 0.379460 0.953087
Si Si2 0.625997 0.250970 0.742704
Si Si3 0.668607 0.569473 0.166144
Si Si4 0.952011 0.098457 0.219803
Si Si5 0.030560 0.888075 0.119806
Si Si6 0.272424 0.782909 0.630690
Si Si7 0.216494 0.321837 0.507373
O O1 0.725117 0.357373 0.881265
O O2 0.449235 0.333974 0.835277
O O3 0.817832 0.670554 0.034916
O O4 0.758667 0.177780 0.070937
O O5 0.452782 0.387236 0.612679
O O6 0.795999 0.250563 0.775524
O O7 0.497728 0.940575 0.714623
O O8 0.865241 0.801899 0.233868
O O9 0.715863 0.318541 0.258223
O O10 0.500000 0.500000 0.000000
O O11 0.073133 0.092009 0.204503
O O12 0.082138 0.295303 0.348091
O O13 0.000000 0.000000 0.000000
O O14 0.188744 0.531799 0.541284
O O15 0.173620 0.018531 0.544241
#
# Coordination Sequence:
#
# PCOD9042726 Si02
#       7
#     2   2   2   2   2   2   2
#     4  12  24  45  73 106 140 190 240 304 364 424
#     4  10  23  44  75 100 138 194 238 291 360 434
#     4  12  23  44  75 106 146 183 245 303 358 429
#     4  12  28  43  70 112 141 190 242 300 358 437
#     4  12  25  43  73 105 144 182 246 302 366 421
#     4  10  23  47  73 102 148 194 236 287 372 423
#     4  10  26  46  73 106 150 193 241 289 368 438
#
# _framework density 25.393792999999999
#
# number of rings (size 3 to 8) (size 9 to 14) (size 15 to 20)
#    0.857    0.000    4.286    2.571    2.000    2.857 
#    0.000    1.429    0.000    0.000    0.000    0.000 
#    0.000    0.000    0.000    0.000    0.000    0.000 
#
# Total GULP energy -78408.252940 kJ/mol
# GULP energy per Si atom -5600.589496 kJ/mol
# Density = 2.533600 g / cm^3
# Si number density = 25.393793 Si / 1000 Ang^3
#
#
#
# Elastic Constant Matrix: (Units=GPa)
#
#
# Indices 1 2 3 4 5 6 
#
# 1 110.6477 15.1708 27.0771 -0.7755 1.4687 -12.5720
# 2 15.1708 94.3690 13.9373 9.8509 -12.3569 -8.5327
# 3 27.0771 13.9373 100.2983 21.2126 -4.3045 -6.2903
# 4 -0.7755 9.8509 21.2126 35.2922 -14.5148 -7.4930
# 5 1.4687 -12.3569 -4.3045 -14.5148 33.2229 -0.7071
# 6 -12.5720 -8.5327 -6.2903 -7.4930 -0.7071 34.2218
#
#
#
# Elastic Compliance Matrix: (Units=1/GPa)
#
#
# Indices 1 2 3 4 5 6 
#
# 1 0.010398 -0.001198 -0.003097 0.003291 0.000210 0.003677
# 2 -0.001198 0.011720 -0.000856 -0.000624 0.004077 0.002272
# 3 -0.003097 -0.000856 0.012572 -0.008535 -0.002302 -0.000957
# 4 0.003291 -0.000624 -0.008535 0.042838 0.017428 0.009224
# 5 0.000210 0.004077 -0.002302 0.017428 0.039036 0.005293
# 6 0.003677 0.002272 -0.000957 0.009224 0.005293 0.033092
#
#
# Mechanical properties :
#
#
# Convention : Reuss Voigt Hill
#
# Bulk Modulus (GPa) = 41.00326 46.40950 43.70638
# Shear Modulus (GPa) = 29.74676 37.15603 33.45140
#
# Velocity S-wave (km/s) = 3.42631 3.82932 3.63341
# Velocity P-wave (km/s) = 5.64224 6.15363 5.90347
#
# Compressibility (1/GPa) = 0.02438831
#
# Stress axis : x y z
#
# Youngs Moduli (GPa) = 96.17332 85.32343 79.54402
#
# Poissons Ratio (x) = 0.10220 0.24636
# Poissons Ratio (y) = 0.11520 0.06807
# Poissons Ratio (z) = 0.29786 0.07302
#
# Static dielectric constant tensor:
#      x y z
#    x 2.013680 0.000740 -0.005210 
#    y 0.000740 2.044830 -0.009870 
#    z -0.005210 -0.009870 1.992050 
# 
# From -- ./inp_files/510911.got.cif
#   From: 2010.05.17/outbox.cif.g08.bks.cpg/sg2_256_cif.got.tgz:510911.got - 2010.06.03 11:33:40.
