data_PCOD9042856
_publ_section_title
;
Structure prediction by ZEFSAII (Michael W. Deem and Ramdas Pophale) SiO2 
 PCOD9042856
Probable space group: P -1
;
_chemical_formula_sum "Si O2"
_cell_formula_units_Z 16
_cell_length_a 9.692744
_cell_length_b 14.582512
_cell_length_c 9.187923
_cell_angle_alpha 70.581677
_cell_angle_beta 49.868441
_cell_angle_gamma 105.057380
_cell_volume 705.598130
_symmetry_space_group_name_H-M "P -1"
_symmetry_group_IT_number 2
_symmetry_cell_setting 'triclinic'
loop_
_space_group_symop_operation_xyz
x,y,z
-x,-y,-z
loop_
_atom_site_type_symbol
_atom_site_label
_atom_site_fract_x
_atom_site_fract_y
_atom_site_fract_z
Si Si1 0.605631 0.308559 0.754249
Si Si2 0.568991 0.413918 0.998467
Si Si3 0.845482 0.250592 0.839621
Si Si4 0.179422 0.185167 0.594967
Si Si5 0.960680 0.932478 0.715036
Si Si6 0.423931 0.975052 0.396786
Si Si7 0.542423 0.231861 0.534977
Si Si8 0.900188 0.415898 0.965093
O O1 0.770775 0.286486 0.730627
O O2 0.661075 0.334169 0.532526
O O3 0.626548 0.404935 0.799540
O O4 0.319875 0.186687 0.013649
O O5 0.359580 0.275880 0.290964
O O6 0.791283 0.466176 0.920806
O O7 0.500000 0.500000 0.000000
O O8 0.011065 0.218049 0.709942
O O9 0.970172 0.363748 0.817664
O O10 0.590989 0.116125 0.136478
O O11 0.314786 0.209839 0.641002
O O12 0.044033 0.038938 0.722906
O O13 0.145119 0.907054 0.608467
O O14 0.000000 0.000000 0.500000
O O15 0.482296 0.889143 0.336402
O O16 0.500000 0.000000 0.500000
O O17 0.696861 0.280191 0.257960
O O18 0.000000 0.500000 0.000000
#
# Coordination Sequence:
#
# PCOD9042856 Si02
#       8
#     2   2   2   2   2   2   2   2
#     4  11  25  41  63  95 127 162 208 254 310 371
#     4  10  23  45  65  88 123 163 208 260 310 364
#     4  11  24  42  63  92 129 164 204 257 308 368
#     4  11  24  42  63  92 129 164 204 257 308 368
#     4  12  22  40  66  92 129 168 204 251 310 368
#     4  12  22  40  66  92 129 168 204 251 310 368
#     4  11  25  41  63  95 127 162 208 254 310 371
#     4  10  23  45  65  88 123 163 208 260 310 364
#
# _framework density 22.675798
#
# number of rings (size 3 to 8) (size 9 to 14) (size 15 to 20)
#    0.000    1.000    5.000    1.500    3.500    6.000 
#    0.000    5.000    0.000    0.000    0.000    0.000 
#    0.000    0.000    0.000    0.000    0.000    0.000 
#
# Total GULP energy -89339.677232 kJ/mol
# GULP energy per Si atom -5583.729827 kJ/mol
# Density = 2.262419 g / cm^3
# Si number density = 22.675798 Si / 1000 Ang^3
#
#
#
# Elastic Constant Matrix: (Units=GPa)
#
#
# Indices 1 2 3 4 5 6 
#
# 1 125.6684 60.7495 28.2758 29.2001 -0.3136 1.4824
# 2 60.7495 102.0323 5.0338 21.9105 3.0434 -2.3981
# 3 28.2758 5.0338 73.4651 16.8981 3.3515 4.2829
# 4 29.2001 21.9105 16.8981 35.2573 2.9952 1.4170
# 5 -0.3136 3.0434 3.3515 2.9952 41.2813 10.7126
# 6 1.4824 -2.3981 4.2829 1.4170 10.7126 46.4357
#
#
#
# Elastic Compliance Matrix: (Units=1/GPa)
#
#
# Indices 1 2 3 4 5 6 
#
# 1 0.013141 -0.006585 -0.003429 -0.005242 0.001402 -0.000607
# 2 -0.006585 0.014708 0.002642 -0.004889 -0.001299 0.001175
# 3 -0.003429 0.002642 0.016341 -0.006527 -0.000849 -0.000866
# 4 -0.005242 -0.004889 -0.006527 0.039044 -0.001922 -0.000231
# 5 0.001402 -0.001299 -0.000849 -0.001922 0.026095 -0.005995
# 6 -0.000607 0.001175 -0.000866 -0.000231 -0.005995 0.023085
#
#
# Mechanical properties :
#
#
# Convention : Reuss Voigt Hill
#
# Bulk Modulus (GPa) = 33.96172 54.36492 44.16332
# Shear Modulus (GPa) = 31.85245 38.40196 35.12720
#
# Velocity S-wave (km/s) = 3.75198 4.11971 3.94014
# Velocity P-wave (km/s) = 5.81201 6.83054 6.34175
#
# Compressibility (1/GPa) = 0.02944491
#
# Stress axis : x y z
#
# Youngs Moduli (GPa) = 76.09623 67.99176 61.19454
#
# Poissons Ratio (x) = 0.44775 0.20987
# Poissons Ratio (y) = 0.50113 -0.16169
# Poissons Ratio (z) = 0.26097 -0.17965
#
# Static dielectric constant tensor:
#      x y z
#    x 1.869270 0.049020 -0.074030 
#    y 0.049020 1.861420 -0.056050 
#    z -0.074030 -0.056050 1.981700 
# 
# From -- ./inp_files/187280.got.cif
#   From: 2010.05.17/outbox.cif.g08.bks.cpg/sg2_94_cif.got.tgz:187280.got - 2010.06.03 11:33:40.
