data_PCOD9042386
_publ_section_title
;
Structure prediction by ZEFSAII (Michael W. Deem and Ramdas Pophale) SiO2 
 PCOD9042386
Probable space group: P -1
;
_chemical_formula_sum "Si O2"
_cell_formula_units_Z 12
_cell_length_a 14.384284
_cell_length_b 7.206051
_cell_length_c 4.835716
_cell_angle_alpha 110.649100
_cell_angle_beta 84.848031
_cell_angle_gamma 68.390734
_cell_volume 421.944797
_symmetry_space_group_name_H-M "P -1"
_symmetry_group_IT_number 2
_symmetry_cell_setting 'triclinic'
loop_
_space_group_symop_operation_xyz
x,y,z
-x,-y,-z
loop_
_atom_site_type_symbol
_atom_site_label
_atom_site_fract_x
_atom_site_fract_y
_atom_site_fract_z
Si Si1 0.198826 0.487689 0.591505
Si Si2 0.705336 0.266119 0.676113
Si Si3 0.413675 0.166619 0.406302
Si Si4 0.010308 0.727830 0.124346
Si Si5 0.412478 0.777172 0.843520
Si Si6 0.116472 0.136139 0.273674
O O1 0.302238 0.321932 0.636274
O O2 0.145040 0.342207 0.401203
O O3 0.242388 0.589061 0.394065
O O4 0.118928 0.664531 0.913883
O O5 0.014232 0.190360 0.514814
O O6 0.658607 0.190563 0.387127
O O7 0.791216 0.063523 0.713014
O O8 0.615756 0.354408 0.980455
O O9 0.468622 0.308477 0.328823
O O10 0.500000 0.000000 0.500000
O O11 0.393569 0.012127 0.106412
O O12 0.000000 0.500000 0.000000
O O13 0.916475 0.884773 0.037218
#
# Coordination Sequence:
#
# PCOD9042386 Si02
#       6
#     2   2   2   2   2   2
#     4  11  25  44  72 105 135 185 236 281 344 415
#     4  12  26  45  71 106 140 182 227 286 348 409
#     4  11  23  48  77  97 138 189 229 282 353 411
#     4  10  23  44  71 102 137 186 230 283 339 407
#     4  11  24  47  67 103 140 179 227 286 348 403
#     4  11  23  46  71  97 148 178 229 285 342 405
#
# _framework density 28.43974
#
# number of rings (size 3 to 8) (size 9 to 14) (size 15 to 20)
#    0.000    1.000    3.333    3.000    0.000    8.000 
#   12.000    0.000    0.000    0.000    0.000    0.000 
#    0.000    0.000    0.000    0.000    0.000    0.000 
#
# Total GULP energy -67408.678663 kJ/mol
# GULP energy per Si atom -5617.389889 kJ/mol
# Density = 2.837501 g / cm^3
# Si number density = 28.439740 Si / 1000 Ang^3
#
#
#
# Elastic Constant Matrix: (Units=GPa)
#
#
# Indices 1 2 3 4 5 6 
#
# 1 209.7684 60.3178 56.8319 -8.7673 -16.9901 13.4770
# 2 60.3178 110.0476 20.5245 -33.0460 14.4284 7.1115
# 3 56.8319 20.5245 164.6350 -28.1451 17.4532 -1.4860
# 4 -8.7673 -33.0460 -28.1451 39.7062 4.7964 7.4857
# 5 -16.9901 14.4284 17.4532 4.7964 60.9631 2.7115
# 6 13.4770 7.1115 -1.4860 7.4857 2.7115 77.2620
#
#
#
# Elastic Compliance Matrix: (Units=1/GPa)
#
#
# Indices 1 2 3 4 5 6 
#
# 1 0.007651 -0.006116 -0.003526 -0.006443 0.005114 -0.000395
# 2 -0.006116 0.018390 0.003782 0.018036 -0.008469 -0.002003
# 3 -0.003526 0.003782 0.008974 0.009410 -0.005174 -0.000291
# 4 -0.006443 0.018036 0.009410 0.047789 -0.012316 -0.004553
# 5 0.005114 -0.008469 -0.005174 -0.012316 0.022275 0.000200
# 6 -0.000395 -0.002003 -0.000291 -0.004553 0.000200 0.013625
#
#
# Mechanical properties :
#
#
# Convention : Reuss Voigt Hill
#
# Bulk Modulus (GPa) = 42.92744 84.42215 63.67479
# Shear Modulus (GPa) = 36.18233 58.70471 47.44352
#
# Velocity S-wave (km/s) = 3.57072 4.54825 4.08881
# Velocity P-wave (km/s) = 5.66807 7.57173 6.68798
#
# Compressibility (1/GPa) = 0.02329513
#
# Stress axis : x y z
#
# Youngs Moduli (GPa) = 130.69715 54.37824 111.42877
#
# Poissons Ratio (x) = 0.33257 0.39289
# Poissons Ratio (y) = 0.79933 -0.42139
# Poissons Ratio (z) = 0.46083 -0.20564
#
# Static dielectric constant tensor:
#      x y z
#    x 2.263880 -0.002390 -0.048490 
#    y -0.002390 2.227290 0.024620 
#    z -0.048490 0.024620 2.131160 
# 
# From -- ./inp_files/59750.got.cif
#   From: 2010.05.17/outbox.cif.g08.bks.cpg/sg2_30_cif.got.tgz:59750.got - 2010.06.03 11:33:40.
