data_PCOD9042610
_publ_section_title
;
Structure prediction by ZEFSAII (Michael W. Deem and Ramdas Pophale) SiO2 
 PCOD9042610
Probable space group: P -1
;
_chemical_formula_sum "Si O2"
_cell_formula_units_Z 16
_cell_length_a 14.972528
_cell_length_b 18.155345
_cell_length_c 10.954686
_cell_angle_alpha 140.888778
_cell_angle_beta 153.279495
_cell_angle_gamma 28.675753
_cell_volume 642.083547
_symmetry_space_group_name_H-M "P -1"
_symmetry_group_IT_number 2
_symmetry_cell_setting 'triclinic'
loop_
_space_group_symop_operation_xyz
x,y,z
-x,-y,-z
loop_
_atom_site_type_symbol
_atom_site_label
_atom_site_fract_x
_atom_site_fract_y
_atom_site_fract_z
Si Si1 0.980391 0.205644 0.630748
Si Si2 0.706612 0.503033 0.083190
Si Si3 0.799575 0.352738 0.240319
Si Si4 0.797184 0.121690 0.806236
Si Si5 0.721878 0.553866 0.769009
Si Si6 0.674429 0.920765 0.331260
Si Si7 0.153829 0.765366 0.231943
Si Si8 0.477384 0.767861 0.980009
O O1 0.793132 0.390105 0.651954
O O2 0.241556 0.126233 0.768578
O O3 0.008181 0.154224 0.737964
O O4 0.807973 0.179182 0.311039
O O5 0.427800 0.540599 0.803441
O O6 0.864797 0.362538 0.000186
O O7 0.832426 0.437806 0.286159
O O8 0.621237 0.663226 0.140707
O O9 0.062166 0.220577 0.458414
O O10 0.692598 0.278275 0.943728
O O11 0.908015 0.131612 0.828001
O O12 0.625005 0.074781 0.500964
O O13 0.000000 0.000000 0.000000
O O14 0.458333 0.674620 0.523922
O O15 0.645666 0.643377 0.917889
O O16 0.000000 0.500000 0.000000
O O17 0.476453 0.904429 0.126125
#
# Coordination Sequence:
#
# PCOD9042610 Si02
#       8
#     2   2   2   2   2   2   2   2
#     4  11  20  36  58  90 121 145 185 240 298 351
#     4  10  17  33  59  85 109 148 190 238 300 339
#     4   9  19  35  59  80 110 153 194 242 288 328
#     4   9  21  40  61  80 113 162 205 236 276 336
#     4  11  19  33  58  92 122 149 180 234 304 354
#     4  11  21  36  58  82 116 158 192 233 283 343
#     4  10  19  35  61  88 117 152 188 238 294 345
#     4  11  20  32  57  89 118 149 183 239 298 348
#
# _framework density 24.918876000000001
#
# number of rings (size 3 to 8) (size 9 to 14) (size 15 to 20)
#    0.000    1.750    5.000    0.750    0.000    1.000 
#    0.000    3.125    2.750    0.000    0.000    0.000 
#    0.000    0.000    0.000    0.000    0.000    0.000 
#
# Total GULP energy -89367.422047 kJ/mol
# GULP energy per Si atom -5585.463878 kJ/mol
# Density = 2.486216 g / cm^3
# Si number density = 24.918876 Si / 1000 Ang^3
#
#
#
# Elastic Constant Matrix: (Units=GPa)
#
#
# Indices 1 2 3 4 5 6 
#
# 1 124.7355 39.5415 23.7138 -1.6736 -6.1011 40.4248
# 2 39.5415 98.3556 26.4822 4.1602 -3.1567 32.2402
# 3 23.7138 26.4822 55.6287 16.9327 12.8864 14.9835
# 4 -1.6736 4.1602 16.9327 41.5182 0.3396 2.0529
# 5 -6.1011 -3.1567 12.8864 0.3396 32.5416 4.8069
# 6 40.4248 32.2402 14.9835 2.0529 4.8069 42.8532
#
#
#
# Elastic Compliance Matrix: (Units=1/GPa)
#
#
# Indices 1 2 3 4 5 6 
#
# 1 0.012927 -0.000206 -0.004648 0.002944 0.005870 -0.011213
# 2 -0.000206 0.015230 -0.006203 0.001434 0.005322 -0.009761
# 3 -0.004648 -0.006203 0.029166 -0.011397 -0.013031 0.000861
# 4 0.002944 0.001434 -0.011397 0.028757 0.005174 -0.001829
# 5 0.005870 0.005322 -0.013031 0.005174 0.038870 -0.009593
# 6 -0.011213 -0.009761 0.000861 -0.001829 -0.009593 0.042119
#
#
# Mechanical properties :
#
#
# Convention : Reuss Voigt Hill
#
# Bulk Modulus (GPa) = 28.40137 50.91053 39.65595
# Shear Modulus (GPa) = 24.88575 35.98144 30.43359
#
# Velocity S-wave (km/s) = 3.16360 3.80405 3.49851
# Velocity P-wave (km/s) = 4.97662 6.30629 5.68049
#
# Compressibility (1/GPa) = 0.03520957
#
# Stress axis : x y z
#
# Youngs Moduli (GPa) = 77.36033 65.66160 34.28602
#
# Poissons Ratio (x) = 0.01351 0.15936
# Poissons Ratio (y) = 0.01592 0.21267
# Poissons Ratio (z) = 0.35956 0.40729
#
# Static dielectric constant tensor:
#      x y z
#    x 2.016390 0.024840 0.029260 
#    y 0.024840 2.005440 0.018740 
#    z 0.029260 0.018740 2.008720 
# 
# From -- ./inp_files/389814.got.cif
#   From: 2010.05.17/outbox.cif.g08.bks.cpg/sg2_195_cif.got.tgz:389814.got - 2010.06.03 11:33:40.
