data_PCOD9042271
_publ_section_title
;
Structure prediction by ZEFSAII (Michael W. Deem and Ramdas Pophale) SiO2 
 PCOD9042271
Probable space group: P -1
;
_chemical_formula_sum "Si O2"
_cell_formula_units_Z 16
_cell_length_a 13.166140
_cell_length_b 5.135029
_cell_length_c 11.328608
_cell_angle_alpha 112.816853
_cell_angle_beta 122.157896
_cell_angle_gamma 87.342794
_cell_volume 584.964571
_symmetry_space_group_name_H-M "P -1"
_symmetry_group_IT_number 2
_symmetry_cell_setting 'triclinic'
loop_
_space_group_symop_operation_xyz
x,y,z
-x,-y,-z
loop_
_atom_site_type_symbol
_atom_site_label
_atom_site_fract_x
_atom_site_fract_y
_atom_site_fract_z
Si Si1 0.984440 0.095371 0.373463
Si Si2 0.790177 0.503128 0.366130
Si Si3 0.640832 0.594118 0.060940
Si Si4 0.591186 0.170899 0.748298
Si Si5 0.805551 0.952286 0.053598
Si Si6 0.748828 0.491335 0.725310
Si Si7 0.991997 0.328130 0.087644
Si Si8 0.422420 0.578541 0.609601
O O1 0.887816 0.309450 0.358312
O O2 0.124711 0.243964 0.460446
O O3 0.916441 0.880524 0.193372
O O4 0.000000 0.000000 0.500000
O O5 0.729387 0.611073 0.231308
O O6 0.676427 0.349519 0.346638
O O7 0.688774 0.879295 0.058717
O O8 0.500000 0.500000 0.000000
O O9 0.648001 0.337760 0.929079
O O10 0.694545 0.203492 0.716655
O O11 0.490979 0.343411 0.665476
O O12 0.519451 0.863638 0.688749
O O13 0.766022 0.735895 0.881212
O O14 0.877727 0.251233 0.091840
O O15 0.879533 0.513256 0.748702
O O16 0.651443 0.520490 0.571797
O O17 0.000000 0.500000 0.000000
O O18 0.000000 0.000000 0.000000
#
# Coordination Sequence:
#
# PCOD9042271 Si02
#       8
#     2   2   2   2   2   2   2   2
#     4  11  24  46  74 106 153 194 257 317 387 457
#     4  11  26  44  73 112 146 205 250 318 388 460
#     4  11  23  45  72 112 155 198 260 310 385 460
#     4  11  27  45  74 106 153 200 253 315 379 456
#     4  10  23  44  77 108 149 198 252 318 383 451
#     4  10  24  47  72 109 142 198 255 315 380 455
#     4  10  23  44  70 104 143 185 248 310 374 439
#     4  12  26  47  72 107 154 199 255 308 384 456
#
# _framework density 27.352084000000001
#
# number of rings (size 3 to 8) (size 9 to 14) (size 15 to 20)
#    0.000    1.250    2.500    1.500    3.500   10.500 
#    4.500    0.000    0.000    0.000    0.000    0.000 
#    0.000    0.000    0.000    0.000    0.000    0.000 
#
# Total GULP energy -89579.595049 kJ/mol
# GULP energy per Si atom -5598.724691 kJ/mol
# Density = 2.728983 g / cm^3
# Si number density = 27.352084 Si / 1000 Ang^3
#
#
#
# Elastic Constant Matrix: (Units=GPa)
#
#
# Indices 1 2 3 4 5 6 
#
# 1 144.9026 64.1977 46.6955 -8.6556 21.3393 55.3597
# 2 64.1977 182.6736 57.0366 -13.3754 10.1831 52.8802
# 3 46.6955 57.0366 211.3524 -19.8497 11.5930 20.7776
# 4 -8.6556 -13.3754 -19.8497 50.9305 9.5166 3.0115
# 5 21.3393 10.1831 11.5930 9.5166 55.6642 5.2044
# 6 55.3597 52.8802 20.7776 3.0115 5.2044 56.0909
#
#
#
# Elastic Compliance Matrix: (Units=1/GPa)
#
#
# Indices 1 2 3 4 5 6 
#
# 1 0.012533 -0.000304 -0.001051 0.003063 -0.003980 -0.011488
# 2 -0.000304 0.008198 -0.001201 0.002208 -0.000854 -0.007023
# 3 -0.001051 -0.001201 0.005491 0.001796 -0.000839 0.000117
# 4 0.003063 0.002208 0.001796 0.022799 -0.005242 -0.006508
# 5 -0.003980 -0.000854 -0.000839 -0.005242 0.020397 0.003432
# 6 -0.011488 -0.007023 0.000117 -0.006508 0.003432 0.035776
#
#
# Mechanical properties :
#
#
# Convention : Reuss Voigt Hill
#
# Bulk Modulus (GPa) = 47.37220 97.19868 72.28544
# Shear Modulus (GPa) = 42.60999 57.27038 49.94018
#
# Velocity S-wave (km/s) = 3.95122 4.58079 4.27761
# Velocity P-wave (km/s) = 6.17845 7.97443 7.13319
#
# Compressibility (1/GPa) = 0.02110943
#
# Stress axis : x y z
#
# Youngs Moduli (GPa) = 79.78910 121.97369 182.11965
#
# Poissons Ratio (x) = 0.03714 0.19150
# Poissons Ratio (y) = 0.02429 0.21864
# Poissons Ratio (z) = 0.08390 0.14643
#
# Static dielectric constant tensor:
#      x y z
#    x 2.265650 -0.142440 -0.001240 
#    y -0.142440 2.329860 0.018920 
#    z -0.001240 0.018920 2.161940 
# 
# From -- ./inp_files/442017.got.cif
#   From: 2010.05.17/outbox.cif.g08.bks.cpg/sg2_222_cif.got.tgz:442017.got - 2010.06.03 11:33:40.
