data_PCOD9042352
_publ_section_title
;
Structure prediction by ZEFSAII (Michael W. Deem and Ramdas Pophale) SiO2 
 PCOD9042352
Probable space group: P -1
;
_chemical_formula_sum "Si O2"
_cell_formula_units_Z 14
_cell_length_a 14.350599
_cell_length_b 8.065208
_cell_length_c 13.486752
_cell_angle_alpha 44.838617
_cell_angle_beta 33.509970
_cell_angle_gamma 41.815045
_cell_volume 558.037686
_symmetry_space_group_name_H-M "P -1"
_symmetry_group_IT_number 2
_symmetry_cell_setting 'triclinic'
loop_
_space_group_symop_operation_xyz
x,y,z
-x,-y,-z
loop_
_atom_site_type_symbol
_atom_site_label
_atom_site_fract_x
_atom_site_fract_y
_atom_site_fract_z
Si Si1 0.865855 0.504040 0.706276
Si Si2 0.867341 0.839238 0.750474
Si Si3 0.876296 0.448384 0.050024
Si Si4 0.396877 0.775176 0.630261
Si Si5 0.278929 0.739481 0.439386
Si Si6 0.196066 0.950876 0.942143
Si Si7 0.445500 0.056735 0.292997
O O1 0.901258 0.671418 0.691492
O O2 0.000000 0.500000 0.500000
O O3 0.663067 0.664723 0.774343
O O4 0.875489 0.238500 0.855358
O O5 0.065927 0.812167 0.625990
O O6 0.742045 0.125894 0.707447
O O7 0.783821 0.696821 0.959172
O O8 0.725328 0.352914 0.263448
O O9 0.000000 0.500000 0.000000
O O10 0.025627 0.212252 0.956995
O O11 0.603205 0.562155 0.539272
O O12 0.310401 0.830240 0.792752
O O13 0.384122 0.018846 0.475206
O O14 0.382094 0.870978 0.361329
O O15 0.340270 0.007099 0.860864
#
# Coordination Sequence:
#
# PCOD9042352 Si02
#       7
#     2   2   2   2   2   2   2
#     4  11  25  44  70  99 140 183 227 288 344 408
#     4  10  23  45  68 100 137 184 234 280 336 415
#     4  12  25  44  70  98 139 181 233 283 346 409
#     4  12  24  42  72 103 138 182 228 292 341 402
#     4  10  23  44  70  99 140 182 235 278 342 408
#     4  12  26  45  68 104 140 177 235 286 345 412
#     4  11  24  44  67 103 139 183 229 276 349 410
#
# _framework density 25.087911999999999
#
# number of rings (size 3 to 8) (size 9 to 14) (size 15 to 20)
#    0.000    0.857    1.429    5.143    4.000    2.857 
#    2.571    0.000    0.000    0.000    0.000    0.000 
#    0.000    0.000    0.000    0.000    0.000    0.000 
#
# Total GULP energy -78444.784066 kJ/mol
# GULP energy per Si atom -5603.198862 kJ/mol
# Density = 2.503081 g / cm^3
# Si number density = 25.087912 Si / 1000 Ang^3
#
#
#
# Elastic Constant Matrix: (Units=GPa)
#
#
# Indices 1 2 3 4 5 6 
#
# 1 105.9717 26.7413 37.8014 -1.3975 -11.5118 -6.4615
# 2 26.7413 51.4295 6.9277 -3.4281 9.9433 -13.5819
# 3 37.8014 6.9277 99.0548 -20.1165 -5.5828 1.4699
# 4 -1.3975 -3.4281 -20.1165 39.8591 -8.3745 0.8518
# 5 -11.5118 9.9433 -5.5828 -8.3745 54.6777 2.2504
# 6 -6.4615 -13.5819 1.4699 0.8518 2.2504 34.8330
#
#
#
# Elastic Compliance Matrix: (Units=1/GPa)
#
#
# Indices 1 2 3 4 5 6 
#
# 1 0.013232 -0.007079 -0.004735 -0.001831 0.003321 -0.000276
# 2 -0.007079 0.026922 0.000444 0.000694 -0.006629 0.009577
# 3 -0.004735 0.000444 0.013387 0.006959 0.001418 -0.001532
# 4 -0.001831 0.000694 0.006959 0.029633 0.004795 -0.001397
# 5 0.003321 -0.006629 0.001418 0.004795 0.021218 -0.003517
# 6 -0.000276 0.009577 -0.001532 -0.001397 -0.003517 0.032717
#
#
# Mechanical properties :
#
#
# Convention : Reuss Voigt Hill
#
# Bulk Modulus (GPa) = 32.46676 44.37743 38.42209
# Shear Modulus (GPa) = 29.39162 38.20635 33.79898
#
# Velocity S-wave (km/s) = 3.42650 3.90667 3.67443
# Velocity P-wave (km/s) = 5.35012 6.17062 5.77496
#
# Compressibility (1/GPa) = 0.03080073
#
# Stress axis : x y z
#
# Youngs Moduli (GPa) = 75.57667 37.14425 74.69735
#
# Poissons Ratio (x) = 0.26294 0.35369
# Poissons Ratio (y) = 0.53500 -0.03315
# Poissons Ratio (z) = 0.35786 -0.01648
#
# Static dielectric constant tensor:
#      x y z
#    x 2.024380 0.042370 -0.000050 
#    y 0.042370 1.974010 -0.011040 
#    z -0.000050 -0.011040 1.946440 
# 
# From -- ./inp_files/156625.got.cif
#   From: 2010.05.17/outbox.cif.g08.bks.cpg/sg2_79_cif.got.tgz:156625.got - 2010.06.03 11:33:40.
