data_PCOD9042387
_publ_section_title
;
Structure prediction by ZEFSAII (Michael W. Deem and Ramdas Pophale) SiO2 
 PCOD9042387
Probable space group: P -1
;
_chemical_formula_sum "Si O2"
_cell_formula_units_Z 12
_cell_length_a 5.177370
_cell_length_b 9.428987
_cell_length_c 17.675698
_cell_angle_alpha 132.910199
_cell_angle_beta 118.687885
_cell_angle_gamma 47.242592
_cell_volume 463.776376
_symmetry_space_group_name_H-M "P -1"
_symmetry_group_IT_number 2
_symmetry_cell_setting 'triclinic'
loop_
_space_group_symop_operation_xyz
x,y,z
-x,-y,-z
loop_
_atom_site_type_symbol
_atom_site_label
_atom_site_fract_x
_atom_site_fract_y
_atom_site_fract_z
Si Si1 0.813754 0.621206 0.422600
Si Si2 0.746127 0.172344 0.461497
Si Si3 0.283861 0.102419 0.099507
Si Si4 0.208512 0.394211 0.069032
Si Si5 0.035965 0.869348 0.773549
Si Si6 0.767391 0.181547 0.714773
O O1 0.628491 0.722816 0.514147
O O2 0.871761 0.373585 0.333288
O O3 0.540038 0.765684 0.367704
O O4 0.144184 0.642535 0.465559
O O5 0.000000 0.000000 0.500000
O O6 0.868731 0.016062 0.346847
O O7 0.054619 0.303703 0.078641
O O8 0.619052 0.120676 0.169924
O O9 0.113958 0.115788 0.159637
O O10 0.443233 0.849482 0.994784
O O11 0.251845 0.584420 0.184810
O O12 0.000000 0.500000 0.000000
O O13 0.761548 0.075063 0.754961
#
# Coordination Sequence:
#
# PCOD9042387 Si02
#       6
#     2   2   2   2   2   2
#     4  11  24  46  70 100 145 183 227 291 345 405
#     4  10  23  44  71 102 138 185 233 283 346 409
#     4  11  27  48  68 105 142 182 232 288 346 413
#     4  11  24  49  75 103 140 187 232 288 348 416
#     4  12  26  45  73 104 140 186 230 285 353 408
#     4  11  24  44  73 106 137 187 236 285 345 419
#
# _framework density 25.874538999999999
#
# number of rings (size 3 to 8) (size 9 to 14) (size 15 to 20)
#    0.000    1.000    3.333    3.000    2.333   10.000 
#    0.000    0.000    0.000    0.000    0.000    0.000 
#    0.000    0.000    0.000    0.000    0.000    0.000 
#
# Total GULP energy -67329.178805 kJ/mol
# GULP energy per Si atom -5610.764900 kJ/mol
# Density = 2.581565 g / cm^3
# Si number density = 25.874539 Si / 1000 Ang^3
#
#
#
# Elastic Constant Matrix: (Units=GPa)
#
#
# Indices 1 2 3 4 5 6 
#
# 1 154.1523 51.2156 68.6630 -13.8021 9.9933 29.5441
# 2 51.2156 179.3515 59.3781 -22.0337 1.7964 33.8872
# 3 68.6630 59.3781 181.2992 6.8965 2.1220 10.2131
# 4 -13.8021 -22.0337 6.8965 66.7704 5.4085 -2.3360
# 5 9.9933 1.7964 2.1220 5.4085 42.7847 -5.3500
# 6 29.5441 33.8872 10.2131 -2.3360 -5.3500 38.2533
#
#
#
# Elastic Compliance Matrix: (Units=1/GPa)
#
#
# Indices 1 2 3 4 5 6 
#
# 1 0.009733 -0.000050 -0.003333 0.002363 -0.003267 -0.006896
# 2 -0.000050 0.007902 -0.002298 0.002721 -0.001347 -0.006370
# 3 -0.003333 -0.002298 0.007453 -0.002215 0.001116 0.002641
# 4 0.002363 0.002721 -0.002215 0.016732 -0.003053 -0.003049
# 5 -0.003267 -0.001347 0.001116 -0.003053 0.025371 0.006780
# 6 -0.006896 -0.006370 0.002641 -0.003049 0.006780 0.037167
#
#
# Mechanical properties :
#
#
# Convention : Reuss Voigt Hill
#
# Bulk Modulus (GPa) = 72.85258 97.03515 84.94387
# Shear Modulus (GPa) = 41.56379 51.93143 46.74761
#
# Velocity S-wave (km/s) = 4.01229 4.48487 4.25514
# Velocity P-wave (km/s) = 7.04853 8.02511 7.55262
#
# Compressibility (1/GPa) = 0.01372635
#
# Stress axis : x y z
#
# Youngs Moduli (GPa) = 102.73974 126.54903 134.17159
#
# Poissons Ratio (x) = 0.00633 0.44721
# Poissons Ratio (y) = 0.00514 0.30833
# Poissons Ratio (z) = 0.34244 0.29081
#
# Static dielectric constant tensor:
#      x y z
#    x 2.067590 -0.062860 -0.008850 
#    y -0.062860 2.097880 -0.014770 
#    z -0.008850 -0.014770 1.997960 
# 
# From -- ./inp_files/49509.got.cif
#   From: 2010.05.17/outbox.cif.g08.bks.cpg/sg2_25_cif.got.tgz:49509.got - 2010.06.03 11:33:40.
