data_PCOD9042174
_publ_section_title
;
Structure prediction by ZEFSAII (Michael W. Deem and Ramdas Pophale) SiO2 
 PCOD9042174
Probable space group: P -1
;
_chemical_formula_sum "Si O2"
_cell_formula_units_Z 14
_cell_length_a 9.179574
_cell_length_b 13.385470
_cell_length_c 8.806305
_cell_angle_alpha 61.571244
_cell_angle_beta 72.312257
_cell_angle_gamma 41.678770
_cell_volume 630.269190
_symmetry_space_group_name_H-M "P -1"
_symmetry_group_IT_number 2
_symmetry_cell_setting 'triclinic'
loop_
_space_group_symop_operation_xyz
x,y,z
-x,-y,-z
loop_
_atom_site_type_symbol
_atom_site_label
_atom_site_fract_x
_atom_site_fract_y
_atom_site_fract_z
Si Si1 0.990197 0.645174 0.184583
Si Si2 0.274022 0.096817 0.414698
Si Si3 0.126914 0.533870 0.757465
Si Si4 0.593034 0.574999 0.949948
Si Si5 0.091953 0.712540 0.392347
Si Si6 0.689049 0.978032 0.885236
Si Si7 0.248217 0.838258 0.075732
O O1 0.866273 0.600021 0.198053
O O2 0.751932 0.518578 0.801675
O O3 0.961980 0.698858 0.327541
O O4 0.912484 0.795303 0.002086
O O5 0.128877 0.287853 0.283174
O O6 0.318247 0.015036 0.298755
O O7 0.097719 0.128504 0.558273
O O8 0.500000 0.000000 0.500000
O O9 0.246539 0.497560 0.902123
O O10 0.223500 0.562416 0.574526
O O11 0.389855 0.759345 0.934694
O O12 0.500000 0.500000 0.000000
O O13 0.236338 0.722354 0.244427
O O14 0.669271 0.110601 0.872321
O O15 0.500000 0.000000 0.000000
O O16 0.000000 0.000000 0.000000
#
# Coordination Sequence:
#
# PCOD9042174 Si02
#       7
#     2   2   2   2   2   2   2
#     4  12  21  46  71 102 135 183 231 290 333 418
#     4  10  24  44  68 103 142 178 226 288 348 406
#     4  10  25  42  70 100 136 177 234 282 340 403
#     4  12  24  44  71  99 139 185 232 283 343 408
#     4  10  23  44  69  98 142 175 233 279 348 406
#     4  12  25  43  73 103 138 180 235 280 346 410
#     4  12  26  44  71 101 139 183 230 287 343 415
#
# _framework density 22.212730000000001
#
# number of rings (size 3 to 8) (size 9 to 14) (size 15 to 20)
#    0.857    0.000    4.286    2.571    2.000    1.143 
#    0.000    0.000    0.000    0.000    0.000    0.000 
#    0.000    0.000    0.000    0.000    0.000    0.000 
#
# Total GULP energy -78170.461803 kJ/mol
# GULP energy per Si atom -5583.604415 kJ/mol
# Density = 2.216217 g / cm^3
# Si number density = 22.212730 Si / 1000 Ang^3
#
#
#
# Elastic Constant Matrix: (Units=GPa)
#
#
# Indices 1 2 3 4 5 6 
#
# 1 92.5900 34.4120 8.9108 10.4455 8.6393 16.8416
# 2 34.4120 98.7120 16.5600 21.1928 8.4307 2.6913
# 3 8.9108 16.5600 62.2367 25.0153 8.7531 6.6912
# 4 10.4455 21.1928 25.0153 42.3281 3.1709 2.8891
# 5 8.6393 8.4307 8.7531 3.1709 36.8332 4.7318
# 6 16.8416 2.6913 6.6912 2.8891 4.7318 54.0249
#
#
#
# Elastic Compliance Matrix: (Units=1/GPa)
#
#
# Indices 1 2 3 4 5 6 
#
# 1 0.013293 -0.004233 0.000227 -0.000915 -0.001640 -0.003769
# 2 -0.004233 0.012888 -0.000756 -0.004928 -0.001503 0.001166
# 3 0.000227 -0.000756 0.021860 -0.012192 -0.003800 -0.001756
# 4 -0.000915 -0.004928 -0.012192 0.033413 0.001346 0.000136
# 5 -0.001640 -0.001503 -0.003800 0.001346 0.028863 -0.001543
# 6 -0.003769 0.001166 -0.001756 0.000136 -0.001543 0.019972
#
#
# Mechanical properties :
#
#
# Convention : Reuss Voigt Hill
#
# Bulk Modulus (GPa) = 25.96363 41.47826 33.72094
# Shear Modulus (GPa) = 32.75390 39.54764 36.15077
#
# Velocity S-wave (km/s) = 3.84416 4.22406 4.03858
# Velocity P-wave (km/s) = 5.60512 6.51951 6.07953
#
# Compressibility (1/GPa) = 0.03851542
#
# Stress axis : x y z
#
# Youngs Moduli (GPa) = 75.22480 77.59399 45.74578
#
# Poissons Ratio (x) = 0.32846 -0.01037
# Poissons Ratio (y) = 0.31843 0.03460
# Poissons Ratio (z) = -0.01705 0.05869
#
# Static dielectric constant tensor:
#      x y z
#    x 1.821290 -0.049260 -0.018340 
#    y -0.049260 1.888190 -0.008680 
#    z -0.018340 -0.008680 1.838380 
# 
# From -- ./inp_files/186605.got.cif
#   From: 2010.05.17/outbox.cif.g08.bks.cpg/sg2_94_cif.got.tgz:186605.got - 2010.06.03 11:33:40.
