data_PCOD9042167
_publ_section_title
;
Structure prediction by ZEFSAII (Michael W. Deem and Ramdas Pophale) SiO2 
 PCOD9042167
Probable space group: P -1
;
_chemical_formula_sum "Si O2"
_cell_formula_units_Z 13
_cell_length_a 9.112313
_cell_length_b 7.781367
_cell_length_c 10.552804
_cell_angle_alpha 59.736781
_cell_angle_beta 94.920836
_cell_angle_gamma 127.721018
_cell_volume 483.326465
_symmetry_space_group_name_H-M "P -1"
_symmetry_group_IT_number 2
_symmetry_cell_setting 'triclinic'
loop_
_space_group_symop_operation_xyz
x,y,z
-x,-y,-z
loop_
_atom_site_type_symbol
_atom_site_label
_atom_site_fract_x
_atom_site_fract_y
_atom_site_fract_z
Si Si1 0.896909 0.236938 0.783869
Si Si2 0.000000 0.000000 0.500000
Si Si3 0.760170 0.372257 0.139347
Si Si4 0.743406 0.445839 0.822631
Si Si5 0.771510 0.634700 0.374622
Si Si6 0.341065 0.301621 0.905786
Si Si7 0.323410 0.104605 0.546253
O O1 0.748137 0.287704 0.768892
O O2 0.040735 0.397653 0.856477
O O3 0.055165 0.361966 0.637906
O O4 0.773496 0.928100 0.913716
O O5 0.908304 0.749580 0.686392
O O6 0.827690 0.024431 0.530436
O O7 0.627104 0.445818 0.136580
O O8 0.691022 0.102065 0.292697
O O9 0.776094 0.380805 0.987320
O O10 0.535903 0.368054 0.848947
O O11 0.786767 0.795629 0.196092
O O12 0.552075 0.351925 0.454310
O O13 0.778100 0.774764 0.449724
#
# Coordination Sequence:
#
# PCOD9042167 Si02
#       7
#     2   1   2   2   2   2   2
#     4  11  24  41  70 100 134 182 228 273 329 406
#     4  12  26  42  72 100 136 172 226 286 338 396
#     4  11  24  43  74  97 131 184 229 269 337 402
#     4  12  25  45  67 103 138 178 221 283 337 393
#     4  10  23  44  69  98 135 180 224 271 340 400
#     4  11  24  43  68 103 139 176 225 285 326 400
#     4  11  24  46  73  97 139 179 222 283 337 400
#
# _framework density 26.896934999999999
#
# number of rings (size 3 to 8) (size 9 to 14) (size 15 to 20)
#    0.000    0.923    3.077    4.154    4.308    3.692 
#    0.000    0.769    0.000    0.000    0.000    0.000 
#    0.000    0.000    0.000    0.000    0.000    0.000 
#
# Total GULP energy -72641.480162 kJ/mol
# GULP energy per Si atom -5587.806166 kJ/mol
# Density = 2.683572 g / cm^3
# Si number density = 26.896935 Si / 1000 Ang^3
#
#
#
# Elastic Constant Matrix: (Units=GPa)
#
#
# Indices 1 2 3 4 5 6 
#
# 1 227.8158 61.7387 75.3363 -17.5062 -30.8812 -24.1076
# 2 61.7387 75.9142 43.8924 4.4640 -9.2111 1.8316
# 3 75.3363 43.8924 142.2764 -42.7597 5.3186 -14.7378
# 4 -17.5062 4.4640 -42.7597 47.0067 -4.4047 -7.2173
# 5 -30.8812 -9.2111 5.3186 -4.4047 47.8368 2.3969
# 6 -24.1076 1.8316 -14.7378 -7.2173 2.3969 40.0756
#
#
#
# Elastic Compliance Matrix: (Units=1/GPa)
#
#
# Indices 1 2 3 4 5 6 
#
# 1 0.007473 -0.005468 -0.000804 0.003691 0.003956 0.004878
# 2 -0.005468 0.025442 -0.011055 -0.016119 0.001691 -0.011521
# 3 -0.000804 -0.011055 0.017322 0.017688 -0.003435 0.009783
# 4 0.003691 -0.016119 0.017688 0.042943 0.000406 0.017171
# 5 0.003956 0.001691 -0.003435 0.000406 0.024220 -0.000336
# 6 0.004878 -0.011521 0.009783 0.017171 -0.000336 0.035124
#
#
# Mechanical properties :
#
#
# Convention : Reuss Voigt Hill
#
# Bulk Modulus (GPa) = 64.16281 89.77124 76.96702
# Shear Modulus (GPa) = 25.99133 44.65311 35.32222
#
# Velocity S-wave (km/s) = 3.11196 4.07892 3.62780
# Velocity P-wave (km/s) = 6.06788 7.45868 6.79894
#
# Compressibility (1/GPa) = 0.01558535
#
# Stress axis : x y z
#
# Youngs Moduli (GPa) = 133.81282 39.30470 57.72974
#
# Poissons Ratio (x) = 0.21491 0.04639
# Poissons Ratio (y) = 0.73166 0.63819
# Poissons Ratio (z) = 0.10752 0.43450
#
# Static dielectric constant tensor:
#      x y z
#    x 2.352930 0.087900 -0.007160 
#    y 0.087900 2.359310 0.075390 
#    z -0.007160 0.075390 2.055710 
# 
# From -- ./inp_files/153299.got.cif
#   From: 2010.05.17/outbox.cif.g08.bks.cpg/sg2_77_cif.got.tgz:153299.got - 2010.06.03 11:33:40.
