data_PCOD9042165
_publ_section_title
;
Structure prediction by ZEFSAII (Michael W. Deem and Ramdas Pophale) SiO2 
 PCOD9042165
Probable space group: P -1
;
_chemical_formula_sum "Si O2"
_cell_formula_units_Z 15
_cell_length_a 19.546657
_cell_length_b 7.264995
_cell_length_c 6.609258
_cell_angle_alpha 64.830383
_cell_angle_beta 118.488059
_cell_angle_gamma 88.055390
_cell_volume 712.744658
_symmetry_space_group_name_H-M "P -1"
_symmetry_group_IT_number 2
_symmetry_cell_setting 'triclinic'
loop_
_space_group_symop_operation_xyz
x,y,z
-x,-y,-z
loop_
_atom_site_type_symbol
_atom_site_label
_atom_site_fract_x
_atom_site_fract_y
_atom_site_fract_z
Si Si1 0.905036 0.585558 0.786626
Si Si2 0.232009 0.278544 0.162022
Si Si3 0.789562 0.029657 0.416671
Si Si4 0.656020 0.546121 0.491906
Si Si5 0.513217 0.273716 0.015430
Si Si6 0.366128 0.859806 0.122980
Si Si7 0.207235 0.528502 0.624297
Si Si8 0.500000 0.000000 0.500000
O O1 0.850955 0.576750 0.913296
O O2 0.872612 0.463498 0.621868
O O3 0.871279 0.839035 0.570921
O O4 0.000000 0.500000 0.000000
O O5 0.305702 0.350349 0.324038
O O6 0.238473 0.047356 0.370789
O O7 0.225278 0.330947 0.894956
O O8 0.800026 0.259864 0.355560
O O9 0.721605 0.030255 0.153638
O O10 0.571285 0.705832 0.226995
O O11 0.641665 0.332651 0.656882
O O12 0.719200 0.502228 0.416308
O O13 0.580176 0.238918 0.952613
O O14 0.500000 0.500000 0.000000
O O15 0.530001 0.102206 0.295212
O O16 0.416742 0.986869 0.259881
#
# Coordination Sequence:
#
# PCOD9042165 Si02
#       8
#     2   2   2   2   2   2   2   1
#     4   9  23  46  67 106 139 165 222 275 335 413
#     4   9  22  42  67  96 130 172 219 276 328 399
#     4  10  23  44  69  98 132 177 223 278 331 404
#     4  11  23  42  66  92 134 176 225 283 328 390
#     4  12  26  44  62  94 130 179 222 290 335 383
#     4  12  25  46  64  98 133 176 241 273 343 400
#     4  11  22  43  71  97 134 180 219 268 345 398
#     4  12  28  40  66  92 132 180 228 278 342 390
#
# _framework density 21.045406
#
# number of rings (size 3 to 8) (size 9 to 14) (size 15 to 20)
#    0.800    0.533    2.667    2.400    0.000    3.200 
#    0.000    0.667    0.000    0.000    0.000    0.000 
#    0.000    0.000    0.000    0.000    0.000    0.000 
#
# Total GULP energy -83558.120029 kJ/mol
# GULP energy per Si atom -5570.541335 kJ/mol
# Density = 2.099751 g / cm^3
# Si number density = 21.045406 Si / 1000 Ang^3
#
#
#
# Elastic Constant Matrix: (Units=GPa)
#
#
# Indices 1 2 3 4 5 6 
#
# 1 72.1097 28.3573 83.3700 10.9052 10.5534 -0.0984
# 2 28.3573 83.4764 38.2393 16.3598 7.3468 -4.5610
# 3 83.3700 38.2393 165.9187 2.9542 -2.9780 -2.4254
# 4 10.9052 16.3598 2.9542 31.2869 11.2910 -4.5552
# 5 10.5534 7.3468 -2.9780 11.2910 44.9557 -13.0650
# 6 -0.0984 -4.5610 -2.4254 -4.5552 -13.0650 23.3809
#
#
#
# Elastic Compliance Matrix: (Units=1/GPa)
#
#
# Indices 1 2 3 4 5 6 
#
# 1 0.041579 -0.002617 -0.020502 -0.008537 -0.011636 -0.010627
# 2 -0.002617 0.015180 -0.002041 -0.006652 0.000105 0.001501
# 3 -0.020502 -0.002041 0.016918 0.005058 0.006748 0.006027
# 4 -0.008537 -0.006652 0.005058 0.040538 -0.005605 0.003957
# 5 -0.011636 0.000105 0.006748 -0.005605 0.031866 0.017386
# 6 -0.010627 0.001501 0.006027 0.003957 0.017386 0.054129
#
#
# Mechanical properties :
#
#
# Convention : Reuss Voigt Hill
#
# Bulk Modulus (GPa) = 42.81208 69.04870 55.93039
# Shear Modulus (GPa) = 19.35612 31.36056 25.35834
#
# Velocity S-wave (km/s) = 3.03600 3.86442 3.47498
# Velocity P-wave (km/s) = 5.71634 7.26583 6.53716
#
# Compressibility (1/GPa) = 0.02335789
#
# Stress axis : x y z
#
# Youngs Moduli (GPa) = 24.05036 65.87642 59.10755
#
# Poissons Ratio (x) = 0.17238 1.21181
# Poissons Ratio (y) = 0.06293 0.12066
# Poissons Ratio (z) = 0.49307 0.13448
#
# Static dielectric constant tensor:
#      x y z
#    x 1.746100 -0.021890 -0.010630 
#    y -0.021890 1.791060 -0.007280 
#    z -0.010630 -0.007280 1.738690 
# 
# From -- ./inp_files/106383.got.cif
#   From: 2010.05.17/outbox.cif.g08.bks.cpg/sg2_54_cif.got.tgz:106383.got - 2010.06.03 11:33:40.
