data_PCOD9042984
_publ_section_title
;
Structure prediction by ZEFSAII (Michael W. Deem and Ramdas Pophale) SiO2 
 PCOD9042984
Probable space group: P -1
;
_chemical_formula_sum "Si O2"
_cell_formula_units_Z 14
_cell_length_a 15.021644
_cell_length_b 8.979693
_cell_length_c 15.195224
_cell_angle_alpha 54.637220
_cell_angle_beta 27.008685
_cell_angle_gamma 75.099130
_cell_volume 543.604195
_symmetry_space_group_name_H-M "P -1"
_symmetry_group_IT_number 2
_symmetry_cell_setting 'triclinic'
loop_
_space_group_symop_operation_xyz
x,y,z
-x,-y,-z
loop_
_atom_site_type_symbol
_atom_site_label
_atom_site_fract_x
_atom_site_fract_y
_atom_site_fract_z
Si Si1 0.080657 0.169941 0.604763
Si Si2 0.685166 0.147141 0.852793
Si Si3 0.197831 0.579513 0.675784
Si Si4 0.712996 0.460372 0.053685
Si Si5 0.231208 0.912703 0.660002
Si Si6 0.658681 0.446308 0.901605
Si Si7 0.568331 0.369790 0.725386
O O1 0.307722 0.338970 0.264415
O O2 0.195800 0.373058 0.512120
O O3 0.790581 0.057570 0.867221
O O4 0.089122 0.973264 0.702770
O O5 0.558021 0.222379 0.000924
O O6 0.000798 0.369588 0.467685
O O7 0.449249 0.837752 0.135610
O O8 0.336812 0.809853 0.543408
O O9 0.357613 0.577287 0.460268
O O10 0.000677 0.578894 0.791055
O O11 0.002100 0.319320 0.992429
O O12 0.680799 0.654984 0.027848
O O13 0.474879 0.180885 0.402491
O O14 0.648674 0.392100 0.031813
#
# Coordination Sequence:
#
# PCOD9042984 Si02
#       7
#     2   2   2   2   2   2   2
#     4  11  24  43  65  93 135 170 211 269 322 380
#     4  12  24  40  64  96 129 169 219 261 319 389
#     4  11  24  43  70  95 127 174 217 270 323 374
#     4  11  23  43  66  97 134 168 217 265 324 384
#     4  10  23  45  67  94 131 166 219 267 322 387
#     4  12  22  42  65  94 135 170 208 267 324 386
#     4  11  24  42  65 100 129 167 224 261 318 394
#
# _framework density 25.754033
#
# number of rings (size 3 to 8) (size 9 to 14) (size 15 to 20)
#    0.000    0.857    4.286    3.429    2.000    2.286 
#    0.000   10.000    0.000    0.000    0.000    0.000 
#    0.000    0.000    0.000    0.000    0.000    0.000 
#
# Total GULP energy -78197.843616 kJ/mol
# GULP energy per Si atom -5585.560258 kJ/mol
# Density = 2.569542 g / cm^3
# Si number density = 25.754033 Si / 1000 Ang^3
#
#
#
# Elastic Constant Matrix: (Units=GPa)
#
#
# Indices 1 2 3 4 5 6 
#
# 1 80.8489 -5.0817 4.5281 8.8150 8.5142 2.0180
# 2 -5.0817 122.1543 33.4145 -15.2312 39.7068 15.2066
# 3 4.5281 33.4145 77.7775 7.9127 39.2965 11.4284
# 4 8.8150 -15.2312 7.9127 24.4789 5.7352 4.9029
# 5 8.5142 39.7068 39.2965 5.7352 47.7809 2.6435
# 6 2.0180 15.2066 11.4284 4.9029 2.6435 40.1264
#
#
#
# Elastic Compliance Matrix: (Units=1/GPa)
#
#
# Indices 1 2 3 4 5 6 
#
# 1 0.013158 0.001142 0.001085 -0.003352 -0.003743 -0.000748
# 2 0.001142 0.015467 0.000194 0.013895 -0.014513 -0.006716
# 3 0.001085 0.000194 0.023281 -0.002311 -0.018935 -0.005229
# 4 -0.003352 0.013895 -0.002311 0.057127 -0.015330 -0.010409
# 5 -0.003743 -0.014513 -0.018935 -0.015330 0.050536 0.009625
# 6 -0.000748 -0.006716 -0.005229 -0.010409 0.009625 0.029631
#
#
# Mechanical properties :
#
#
# Convention : Reuss Voigt Hill
#
# Bulk Modulus (GPa) = 17.62157 38.50030 28.06093
# Shear Modulus (GPa) = 24.59746 39.00524 31.80135
#
# Velocity S-wave (km/s) = 3.09381 3.89592 3.51780
# Velocity P-wave (km/s) = 4.42937 5.93458 5.23634
#
# Compressibility (1/GPa) = 0.05674865
#
# Stress axis : x y z
#
# Youngs Moduli (GPa) = 75.99933 64.65516 42.95403
#
# Poissons Ratio (x) = -0.07385 -0.04660
# Poissons Ratio (y) = -0.08681 -0.00835
# Poissons Ratio (z) = -0.08245 -0.01257
#
# Static dielectric constant tensor:
#      x y z
#    x 2.118120 -0.011980 -0.063350 
#    y -0.011980 2.145040 -0.045720 
#    z -0.063350 -0.045720 2.159180 
# 
# From -- ./inp_files/536943.got.cif
#   From: 2010.05.17/outbox.cif.g08.bks.cpg/sg2_269_cif.got.tgz:536943.got - 2010.06.03 11:33:40.
