data_PCOD9042971
_publ_section_title
;
Structure prediction by ZEFSAII (Michael W. Deem and Ramdas Pophale) SiO2 
 PCOD9042971
Probable space group: P -1
;
_chemical_formula_sum "Si O2"
_cell_formula_units_Z 16
_cell_length_a 10.070376
_cell_length_b 9.954802
_cell_length_c 9.643679
_cell_angle_alpha 134.998374
_cell_angle_beta 99.802256
_cell_angle_gamma 79.573302
_cell_volume 671.093427
_symmetry_space_group_name_H-M "P -1"
_symmetry_group_IT_number 2
_symmetry_cell_setting 'triclinic'
loop_
_space_group_symop_operation_xyz
x,y,z
-x,-y,-z
loop_
_atom_site_type_symbol
_atom_site_label
_atom_site_fract_x
_atom_site_fract_y
_atom_site_fract_z
Si Si1 0.329645 0.669217 0.228516
Si Si2 0.966277 0.957761 0.697089
Si Si3 0.766343 0.537483 0.187680
Si Si4 0.638333 0.508463 0.613744
Si Si5 0.628298 0.938614 0.884985
Si Si6 0.008704 0.721020 0.247655
Si Si7 0.184060 0.740784 0.750812
Si Si8 0.341816 0.061324 0.413024
O O1 0.393730 0.544943 0.273555
O O2 0.170324 0.687252 0.253157
O O3 0.382634 0.878402 0.381633
O O4 0.332391 0.572590 0.007789
O O5 0.981180 0.841418 0.471740
O O6 0.040984 0.840357 0.747139
O O7 0.806271 0.987188 0.708690
O O8 0.025600 0.154980 0.807207
O O9 0.814483 0.417162 0.243739
O O10 0.690337 0.738838 0.368955
O O11 0.900291 0.568239 0.141732
O O12 0.500000 0.500000 0.500000
O O13 0.683855 0.721557 0.769313
O O14 0.745103 0.360831 0.446023
O O15 0.579231 0.935238 0.713907
O O16 0.500000 0.000000 0.000000
O O17 0.731267 0.092455 0.055059
#
# Coordination Sequence:
#
# PCOD9042971 Si02
#       8
#     2   2   2   2   2   2   2   2
#     4  11  23  44  71 100 140 182 227 282 340 409
#     4   9  20  38  67 102 146 181 220 278 341 409
#     4  11  23  39  69 103 145 175 226 273 343 414
#     4  12  27  48  72  99 129 182 240 287 341 405
#     4  12  26  47  71  96 135 180 235 288 340 404
#     4   9  19  38  63 106 142 184 222 266 342 416
#     4  12  24  44  70 100 144 182 225 287 343 398
#     4  10  23  45  67 106 143 177 228 282 341 410
#
# _framework density 23.841688000000001
#
# number of rings (size 3 to 8) (size 9 to 14) (size 15 to 20)
#    0.000    1.250    5.000    1.125    1.750    3.500 
#    0.000    3.125    0.000    0.000    0.000    0.000 
#    0.000    0.000    0.000    0.000    0.000    0.000 
#
# Total GULP energy -89505.027326 kJ/mol
# GULP energy per Si atom -5594.064208 kJ/mol
# Density = 2.378742 g / cm^3
# Si number density = 23.841688 Si / 1000 Ang^3
#
#
#
# Elastic Constant Matrix: (Units=GPa)
#
#
# Indices 1 2 3 4 5 6 
#
# 1 37.1448 -6.5208 -1.3856 -1.0738 -11.5257 2.0438
# 2 -6.5208 158.3031 43.0815 -3.6557 9.3018 -1.3190
# 3 -1.3856 43.0815 111.2689 10.9395 -13.7325 11.5088
# 4 -1.0738 -3.6557 10.9395 46.8637 10.9153 6.6570
# 5 -11.5257 9.3018 -13.7325 10.9153 23.4828 -2.7734
# 6 2.0438 -1.3190 11.5088 6.6570 -2.7734 28.8540
#
#
#
# Elastic Compliance Matrix: (Units=1/GPa)
#
#
# Indices 1 2 3 4 5 6 
#
# 1 0.033476 -0.001139 0.004119 -0.005207 0.021618 -0.000787
# 2 -0.001139 0.008043 -0.004506 0.003385 -0.007870 0.000708
# 3 0.004119 -0.004506 0.013475 -0.006288 0.014249 -0.003052
# 4 -0.005207 0.003385 -0.006288 0.028798 -0.021632 -0.005692
# 5 0.021618 -0.007870 0.014249 -0.021632 0.075248 0.004649
# 6 -0.000787 0.000708 -0.003052 -0.005692 0.004649 0.037723
#
#
# Mechanical properties :
#
#
# Convention : Reuss Voigt Hill
#
# Bulk Modulus (GPa) = 19.25174 41.89634 30.57404
# Shear Modulus (GPa) = 23.02783 37.94289 30.48536
#
# Velocity S-wave (km/s) = 3.11121 3.99363 3.57971
# Velocity P-wave (km/s) = 4.58241 6.23509 5.47151
#
# Compressibility (1/GPa) = 0.05194336
#
# Stress axis : x y z
#
# Youngs Moduli (GPa) = 29.87217 124.33598 74.20879
#
# Poissons Ratio (x) = 0.14164 -0.30568
# Poissons Ratio (y) = 0.03403 0.33435
# Poissons Ratio (z) = -0.12305 0.56020
#
# Static dielectric constant tensor:
#      x y z
#    x 1.936480 0.009780 0.001360 
#    y 0.009780 1.954220 0.057500 
#    z 0.001360 0.057500 1.925470 
# 
# From -- ./inp_files/246063.got.cif
#   From: 2010.05.17/outbox.cif.g08.bks.cpg/sg2_124_cif.got.tgz:246063.got - 2010.06.03 11:33:40.
