data_PCOD9042899
_publ_section_title
;
Structure prediction by ZEFSAII (Michael W. Deem and Ramdas Pophale) SiO2 
 PCOD9042899
Probable space group: P -1
;
_chemical_formula_sum "Si O2"
_cell_formula_units_Z 16
_cell_length_a 10.971814
_cell_length_b 17.206073
_cell_length_c 22.110128
_cell_angle_alpha 19.914446
_cell_angle_beta 149.617130
_cell_angle_gamma 137.762921
_cell_volume 655.715582
_symmetry_space_group_name_H-M "P -1"
_symmetry_group_IT_number 2
_symmetry_cell_setting 'triclinic'
loop_
_space_group_symop_operation_xyz
x,y,z
-x,-y,-z
loop_
_atom_site_type_symbol
_atom_site_label
_atom_site_fract_x
_atom_site_fract_y
_atom_site_fract_z
Si Si1 0.015850 0.822363 0.773399
Si Si2 0.254688 0.738979 0.814502
Si Si3 0.540638 0.123166 0.490642
Si Si4 0.472517 0.775172 0.223701
Si Si5 0.754850 0.832281 0.920571
Si Si6 0.087749 0.040346 0.758441
Si Si7 0.404296 0.793138 0.320629
Si Si8 0.990850 0.669431 0.649787
O O1 0.229972 0.689234 0.910556
O O2 0.108030 0.812727 0.888793
O O3 0.766259 0.753383 0.709761
O O4 0.935652 0.121881 0.504963
O O5 0.522760 0.750791 0.901671
O O6 0.192272 0.560869 0.871498
O O7 0.000000 0.000000 0.500000
O O8 0.673235 0.966177 0.722960
O O9 0.775152 0.209387 0.509800
O O10 0.500000 0.000000 0.500000
O O11 0.368495 0.843097 0.197490
O O12 0.565928 0.488174 0.454031
O O13 0.726526 0.839030 0.278845
O O14 0.234185 0.935082 0.960758
O O15 0.778682 0.011808 0.851562
O O16 0.997544 0.565834 0.211622
O O17 0.693514 0.793028 0.456041
#
# Coordination Sequence:
#
# PCOD9042899 Si02
#       8
#     2   2   2   2   2   2   2   2
#     4  10  18  37  64  96 129 166 198 258 318 380
#     4  10  17  33  59  93 127 162 201 256 309 372
#     4  10  21  35  58  89 130 164 200 247 316 382
#     4  10  22  41  68  88 120 170 217 267 316 357
#     4  12  21  36  62  95 129 168 208 257 316 377
#     4  10  20  40  66  90 124 174 208 253 323 382
#     4  11  22  42  66  94 121 160 219 275 305 357
#     4  11  20  34  62  99 129 157 201 260 321 366
#
# _framework density 24.400822999999999
#
# number of rings (size 3 to 8) (size 9 to 14) (size 15 to 20)
#    0.000    1.500    6.250    1.125    0.000    0.000 
#    0.000    7.500   11.000    4.500    0.000    0.000 
#    0.000    0.000    0.000    0.000    0.000    0.000 
#
# Total GULP energy -89361.041122 kJ/mol
# GULP energy per Si atom -5585.065070 kJ/mol
# Density = 2.434529 g / cm^3
# Si number density = 24.400823 Si / 1000 Ang^3
#
#
#
# Elastic Constant Matrix: (Units=GPa)
#
#
# Indices 1 2 3 4 5 6 
#
# 1 111.9541 40.4155 31.2401 2.8611 13.8946 5.1043
# 2 40.4155 128.9340 33.2502 13.9203 5.2834 4.0316
# 3 31.2401 33.2502 48.8457 -2.5171 3.6267 -6.4418
# 4 2.8611 13.9203 -2.5171 36.5930 -1.0437 11.7864
# 5 13.8946 5.2834 3.6267 -1.0437 34.3236 8.4240
# 6 5.1043 4.0316 -6.4418 11.7864 8.4240 65.0938
#
#
#
# Elastic Compliance Matrix: (Units=1/GPa)
#
#
# Indices 1 2 3 4 5 6 
#
# 1 0.011837 -0.001901 -0.006142 -0.000451 -0.003652 -0.000864
# 2 -0.001901 0.010388 -0.006093 -0.004126 -0.000233 -0.000320
# 3 -0.006142 -0.006093 0.029176 0.003799 -0.000303 0.003098
# 4 -0.000451 -0.004126 0.003799 0.030972 0.002655 -0.005285
# 5 -0.003652 -0.000233 -0.000303 0.002655 0.031823 -0.004328
# 6 -0.000864 -0.000320 0.003098 -0.005285 -0.004328 0.017274
#
#
# Mechanical properties :
#
#
# Convention : Reuss Voigt Hill
#
# Bulk Modulus (GPa) = 43.23882 55.50503 49.37193
# Shear Modulus (GPa) = 29.85953 39.52396 34.69175
#
# Velocity S-wave (km/s) = 3.50195 4.02902 3.77469
# Velocity P-wave (km/s) = 5.84040 6.66637 6.26701
#
# Compressibility (1/GPa) = 0.02312736
#
# Stress axis : x y z
#
# Youngs Moduli (GPa) = 84.48404 96.26421 34.27531
#
# Poissons Ratio (x) = 0.18299 0.21053
# Poissons Ratio (y) = 0.16060 0.20884
# Poissons Ratio (z) = 0.51893 0.58655
#
# Static dielectric constant tensor:
#      x y z
#    x 1.991600 -0.055700 -0.020140 
#    y -0.055700 1.980400 -0.015630 
#    z -0.020140 -0.015630 1.972310 
# 
# From -- ./inp_files/610688.got.cif
#   From: 2010.05.17/outbox.cif.g08.bks.cpg/sg2_306_cif.got.tgz:610688.got - 2010.06.03 11:33:40.
