data_PCOD9042792
_publ_section_title
;
Structure prediction by ZEFSAII (Michael W. Deem and Ramdas Pophale) SiO2 
 PCOD9042792
Probable space group: P -1
;
_chemical_formula_sum "Si O2"
_cell_formula_units_Z 16
_cell_length_a 11.743679
_cell_length_b 8.020394
_cell_length_c 9.363977
_cell_angle_alpha 99.895461
_cell_angle_beta 97.090871
_cell_angle_gamma 122.298303
_cell_volume 709.463619
_symmetry_space_group_name_H-M "P -1"
_symmetry_group_IT_number 2
_symmetry_cell_setting 'triclinic'
loop_
_space_group_symop_operation_xyz
x,y,z
-x,-y,-z
loop_
_atom_site_type_symbol
_atom_site_label
_atom_site_fract_x
_atom_site_fract_y
_atom_site_fract_z
Si Si1 0.393699 0.276333 0.108140
Si Si2 0.900090 0.921582 0.108661
Si Si3 0.918099 0.825297 0.580421
Si Si4 0.413426 0.677254 0.100297
Si Si5 0.141822 0.572974 0.613354
Si Si6 0.397530 0.999080 0.598291
Si Si7 0.369871 0.265398 0.414843
Si Si8 0.883245 0.502670 0.072941
O O1 0.405363 0.490692 0.154349
O O2 0.397069 0.203121 0.255950
O O3 0.251060 0.139644 0.975106
O O4 0.521828 0.315001 0.041740
O O5 0.899874 0.722088 0.125695
O O6 0.965768 0.096153 0.266173
O O7 0.000000 0.000000 0.000000
O O8 0.847033 0.613643 0.452967
O O9 0.784788 0.789654 0.635389
O O10 0.000000 0.000000 0.500000
O O11 0.516751 0.882042 0.231339
O O12 0.262905 0.632782 0.052603
O O13 0.129143 0.581738 0.782274
O O14 0.000000 0.500000 0.500000
O O15 0.267484 0.778632 0.591574
O O16 0.352274 0.130110 0.528033
O O17 0.500000 0.000000 0.500000
O O18 0.500000 0.500000 0.500000
O O19 0.000000 0.500000 0.000000
#
# Coordination Sequence:
#
# PCOD9042792 Si02
#       8
#     2   2   2   2   2   2   2   2
#     4  10  23  44  77 107 140 184 255 305 357 431
#     4  11  24  44  75 108 137 192 249 306 363 434
#     4  12  26  47  75 105 143 192 256 302 364 438
#     4  10  25  47  73 106 143 192 245 306 364 441
#     4  12  30  48  72 109 153 197 241 311 377 443
#     4  12  29  47  72 108 155 195 242 302 382 442
#     4  12  25  45  78 107 144 197 247 306 363 444
#     4  11  28  49  74 107 151 195 245 306 380 447
#
# _framework density 22.552247999999999
#
# number of rings (size 3 to 8) (size 9 to 14) (size 15 to 20)
#    0.000    0.750    3.750    1.500   10.500    0.500 
#    0.000    0.000    0.000    0.000    0.000    0.000 
#    0.000    0.000    0.000    0.000    0.000    0.000 
#
# Total GULP energy -89495.192783 kJ/mol
# GULP energy per Si atom -5593.449549 kJ/mol
# Density = 2.250092 g / cm^3
# Si number density = 22.552248 Si / 1000 Ang^3
#
#
#
# Elastic Constant Matrix: (Units=GPa)
#
#
# Indices 1 2 3 4 5 6 
#
# 1 84.0377 32.5170 25.7183 4.0778 5.2529 26.7860
# 2 32.5170 169.2702 65.2296 -0.2955 5.7204 26.7448
# 3 25.7183 65.2296 124.4348 -1.9073 0.4027 10.2151
# 4 4.0778 -0.2955 -1.9073 44.4568 10.6055 0.9200
# 5 5.2529 5.7204 0.4027 10.6055 26.4305 1.4695
# 6 26.7860 26.7448 10.2151 0.9200 1.4695 31.2508
#
#
#
# Elastic Compliance Matrix: (Units=1/GPa)
#
#
# Indices 1 2 3 4 5 6 
#
# 1 0.017246 -0.000158 -0.002359 -0.000864 -0.002247 -0.013745
# 2 -0.000158 0.008392 -0.003886 0.000396 -0.001567 -0.005715
# 3 -0.002359 -0.003886 0.010409 0.000385 0.000892 0.001893
# 4 -0.000864 0.000396 0.000385 0.024962 -0.009937 0.000008
# 5 -0.002247 -0.001567 0.000892 -0.009937 0.042524 0.001268
# 6 -0.013745 -0.005715 0.001893 0.000008 0.001268 0.047992
#
#
# Mechanical properties :
#
#
# Convention : Reuss Voigt Hill
#
# Bulk Modulus (GPa) = 43.02928 69.40804 56.21866
# Shear Modulus (GPa) = 29.05645 37.37948 33.21796
#
# Velocity S-wave (km/s) = 3.59333 4.07561 3.84205
# Velocity P-wave (km/s) = 6.02804 7.27948 6.68312
#
# Compressibility (1/GPa) = 0.02323999
#
# Stress axis : x y z
#
# Youngs Moduli (GPa) = 57.98537 119.15805 96.07160
#
# Poissons Ratio (x) = 0.01879 0.22667
# Poissons Ratio (y) = 0.00914 0.37337
# Poissons Ratio (z) = 0.13681 0.46310
#
# Static dielectric constant tensor:
#      x y z
#    x 1.778980 -0.013590 0.137370 
#    y -0.013590 1.815640 -0.067000 
#    z 0.137370 -0.067000 1.744260 
# 
# From -- ./inp_files/244133.got.cif
#   From: 2010.05.17/outbox.cif.g08.bks.cpg/sg2_123_cif.got.tgz:244133.got - 2010.06.03 11:33:40.
