data_PCOD9042970
_publ_section_title
;
Structure prediction by ZEFSAII (Michael W. Deem and Ramdas Pophale) SiO2 
 PCOD9042970
Probable space group: P -1
;
_chemical_formula_sum "Si O2"
_cell_formula_units_Z 16
_cell_length_a 5.306907
_cell_length_b 14.952940
_cell_length_c 12.508318
_cell_angle_alpha 45.703768
_cell_angle_beta 101.349328
_cell_angle_gamma 90.567852
_cell_volume 684.940967
_symmetry_space_group_name_H-M "P -1"
_symmetry_group_IT_number 2
_symmetry_cell_setting 'triclinic'
loop_
_space_group_symop_operation_xyz
x,y,z
-x,-y,-z
loop_
_atom_site_type_symbol
_atom_site_label
_atom_site_fract_x
_atom_site_fract_y
_atom_site_fract_z
Si Si1 0.278710 0.229124 0.765607
Si Si2 0.517468 0.259688 0.429999
Si Si3 0.753204 0.820828 0.865322
Si Si4 0.714822 0.585746 0.918431
Si Si5 0.363629 0.036197 0.752485
Si Si6 0.173729 0.714088 0.148453
Si Si7 0.643756 0.560319 0.555919
Si Si8 0.120301 0.966333 0.424424
O O1 0.344963 0.097939 0.815784
O O2 0.540589 0.256931 0.823229
O O3 0.212476 0.339329 0.576713
O O4 0.029806 0.237495 0.813697
O O5 0.334803 0.338113 0.261262
O O6 0.433409 0.143796 0.586660
O O7 0.550742 0.360051 0.441126
O O8 0.753668 0.181068 0.448211
O O9 0.687002 0.691561 0.921367
O O10 0.569136 0.906245 0.864967
O O11 0.719949 0.921853 0.680703
O O12 0.037657 0.777038 0.978326
O O13 0.500000 0.500000 0.000000
O O14 0.000000 0.500000 0.000000
O O15 0.085421 0.016915 0.703214
O O16 0.189018 0.561709 0.271611
O O17 0.500000 0.500000 0.500000
O O18 0.000000 0.000000 0.500000
#
# Coordination Sequence:
#
# PCOD9042970 Si02
#       8
#     2   2   2   2   2   2   2   2
#     4  10  24  42  70 102 142 187 239 284 356 417
#     4  10  23  45  67 106 135 186 239 295 354 415
#     4  11  27  45  70 103 142 184 243 290 368 417
#     4  12  29  47  71 103 144 183 232 292 359 430
#     4  10  24  43  73 101 138 189 241 301 345 427
#     4  11  24  43  68 104 146 187 228 294 351 428
#     4   9  20  41  67  97 138 183 232 280 347 424
#     4  11  24  44  77  98 138 188 247 301 351 420
#
# _framework density 23.359674999999999
#
# number of rings (size 3 to 8) (size 9 to 14) (size 15 to 20)
#    0.000    1.500    0.000    2.625   14.000    5.000 
#    2.250    0.000    0.000    0.000    0.000    0.000 
#    0.000    0.000    0.000    0.000    0.000    0.000 
#
# Total GULP energy -89389.399633 kJ/mol
# GULP energy per Si atom -5586.837477 kJ/mol
# Density = 2.330651 g / cm^3
# Si number density = 23.359675 Si / 1000 Ang^3
#
#
#
# Elastic Constant Matrix: (Units=GPa)
#
#
# Indices 1 2 3 4 5 6 
#
# 1 67.1601 31.0970 26.9323 -17.1804 4.1143 -8.3852
# 2 31.0970 180.7794 55.5880 -32.3191 -5.2487 -7.4273
# 3 26.9323 55.5880 132.6650 -22.2798 19.5897 -10.4092
# 4 -17.1804 -32.3191 -22.2798 29.7431 -9.9514 5.7485
# 5 4.1143 -5.2487 19.5897 -9.9514 33.7521 6.1595
# 6 -8.3852 -7.4273 -10.4092 5.7485 6.1595 31.2518
#
#
#
# Elastic Compliance Matrix: (Units=1/GPa)
#
#
# Indices 1 2 3 4 5 6 
#
# 1 0.018403 -0.001100 -0.001849 0.007714 0.000468 0.002549
# 2 -0.001100 0.008203 -0.002813 0.008546 0.005932 -0.002024
# 3 -0.001849 -0.002813 0.010493 0.000817 -0.006700 0.003501
# 4 0.007714 0.008546 0.000817 0.055868 0.018115 -0.009474
# 5 0.000468 0.005932 -0.006700 0.018115 0.041968 -0.012300
# 6 0.002549 -0.002024 0.003501 -0.009474 -0.012300 0.037534
#
#
# Mechanical properties :
#
#
# Convention : Reuss Voigt Hill
#
# Bulk Modulus (GPa) = 39.09933 67.53768 53.31850
# Shear Modulus (GPa) = 25.97165 36.74855 31.36010
#
# Velocity S-wave (km/s) = 3.33801 3.97061 3.66797
# Velocity P-wave (km/s) = 5.62412 7.07078 6.38853
#
# Compressibility (1/GPa) = 0.02557589
#
# Stress axis : x y z
#
# Youngs Moduli (GPa) = 54.33767 121.91025 95.30056
#
# Poissons Ratio (x) = 0.13407 0.17619
# Poissons Ratio (y) = 0.05976 0.26809
# Poissons Ratio (z) = 0.10046 0.34295
#
# Static dielectric constant tensor:
#      x y z
#    x 1.950080 0.000480 -0.032560 
#    y 0.000480 1.863240 0.000680 
#    z -0.032560 0.000680 1.901490 
# 
# From -- ./inp_files/367527.got.cif
#   From: 2010.05.17/outbox.cif.g08.bks.cpg/sg2_184_cif.got.tgz:367527.got - 2010.06.03 11:33:40.
