data_PCOD9042203
_publ_section_title
;
Structure prediction by ZEFSAII (Michael W. Deem and Ramdas Pophale) SiO2 
 PCOD9042203
Probable space group: P -1
;
_chemical_formula_sum "Si O2"
_cell_formula_units_Z 16
_cell_length_a 5.412750
_cell_length_b 26.779329
_cell_length_c 5.511144
_cell_angle_alpha 52.106371
_cell_angle_beta 90.177033
_cell_angle_gamma 108.956238
_cell_volume 575.197600
_symmetry_space_group_name_H-M "P -1"
_symmetry_group_IT_number 2
_symmetry_cell_setting 'triclinic'
loop_
_space_group_symop_operation_xyz
x,y,z
-x,-y,-z
loop_
_atom_site_type_symbol
_atom_site_label
_atom_site_fract_x
_atom_site_fract_y
_atom_site_fract_z
Si Si1 0.640511 0.846489 0.732215
Si Si2 0.505893 0.276514 0.200471
Si Si3 0.421472 0.025125 0.674233
Si Si4 0.921557 0.225827 0.592648
Si Si5 0.799251 0.647735 0.526058
Si Si6 0.785379 0.402513 0.563179
Si Si7 0.963110 0.896228 0.081881
Si Si8 0.330986 0.475084 0.821174
O O1 0.507422 0.764924 0.926711
O O2 0.467079 0.892268 0.574941
O O3 0.832162 0.875802 0.407925
O O4 0.774669 0.865912 0.937380
O O5 0.681348 0.246354 0.450226
O O6 0.199652 0.256422 0.343757
O O7 0.664765 0.358859 0.935864
O O8 0.500000 0.000000 0.500000
O O9 0.500000 0.000000 0.000000
O O10 0.098354 0.978834 0.813058
O O11 0.839162 0.144059 0.827349
O O12 0.038284 0.269818 0.704974
O O13 0.491036 0.628470 0.505907
O O14 0.971228 0.617368 0.452679
O O15 0.794139 0.607168 0.898686
O O16 0.864339 0.484332 0.309987
O O17 0.500000 0.500000 0.500000
O O18 0.500000 0.500000 0.000000
#
# Coordination Sequence:
#
# PCOD9042203 Si02
#       8
#     2   2   2   2   2   2   2   2
#     4  11  24  44  68  97 136 183 231 284 344 411
#     4  11  24  43  68 102 139 184 232 287 347 413
#     4  12  24  40  66 100 138 182 231 286 345 410
#     4  11  24  43  68 102 139 184 232 287 347 413
#     4  11  23  42  67 101 139 183 231 286 346 413
#     4  11  23  42  67 101 139 183 231 286 346 413
#     4  11  24  44  68  97 136 183 231 284 344 411
#     4  10  23  44  70 100 138 180 230 284 344 410
#
# _framework density 27.816528000000002
#
# number of rings (size 3 to 8) (size 9 to 14) (size 15 to 20)
#    0.000    1.000    0.000    6.375    0.000    7.000 
#    0.000    5.625    0.000    0.000    0.000    0.000 
#    0.000    0.000    0.000    0.000    0.000    0.000 
#
# Total GULP energy -89511.435460 kJ/mol
# GULP energy per Si atom -5594.464716 kJ/mol
# Density = 2.775322 g / cm^3
# Si number density = 27.816528 Si / 1000 Ang^3
#
#
#
# Elastic Constant Matrix: (Units=GPa)
#
#
# Indices 1 2 3 4 5 6 
#
# 1 88.6949 47.2122 45.8384 19.6372 -5.4681 2.7995
# 2 47.2122 116.1492 27.6257 4.5432 19.9051 -10.4524
# 3 45.8384 27.6257 130.9923 13.5696 1.6713 -13.8669
# 4 19.6372 4.5432 13.5696 58.8956 -5.9770 8.1183
# 5 -5.4681 19.9051 1.6713 -5.9770 59.9414 13.1657
# 6 2.7995 -10.4524 -13.8669 8.1183 13.1657 57.2687
#
#
#
# Elastic Compliance Matrix: (Units=1/GPa)
#
#
# Indices 1 2 3 4 5 6 
#
# 1 0.019355 -0.007726 -0.005299 -0.003528 0.005073 -0.004305
# 2 -0.007726 0.013026 0.000445 0.000289 -0.005934 0.004186
# 3 -0.005299 0.000445 0.009889 -0.001179 -0.001750 0.003304
# 4 -0.003528 0.000289 -0.001179 0.019084 0.002238 -0.003280
# 5 0.005073 -0.005934 -0.001750 0.002238 0.020898 -0.006876
# 6 -0.004305 0.004186 0.003304 -0.003280 -0.006876 0.021282
#
#
# Mechanical properties :
#
#
# Convention : Reuss Voigt Hill
#
# Bulk Modulus (GPa) = 58.44038 64.13211 61.28624
# Shear Modulus (GPa) = 37.20292 49.56514 43.38403
#
# Velocity S-wave (km/s) = 3.66107 4.22579 3.95352
# Velocity P-wave (km/s) = 6.23908 6.84946 6.55138
#
# Compressibility (1/GPa) = 0.01711146
#
# Stress axis : x y z
#
# Youngs Moduli (GPa) = 51.66503 76.76677 101.12690
#
# Poissons Ratio (x) = 0.59311 0.53584
# Poissons Ratio (y) = 0.39917 -0.04503
# Poissons Ratio (z) = 0.27376 -0.03418
#
# Static dielectric constant tensor:
#      x y z
#    x 2.254720 -0.036690 -0.041570 
#    y -0.036690 2.318290 0.013470 
#    z -0.041570 0.013470 2.220590 
# 
# From -- ./inp_files/14304.got.cif
#   From: 2010.05.17/outbox.cif.g08.bks.cpg/sg2_8_cif.got.tgz:14304.got - 2010.06.03 11:33:40.
