data_PCOD9042111
_publ_section_title
;
Structure prediction by ZEFSAII (Michael W. Deem and Ramdas Pophale) SiO2 
 PCOD9042111
Probable space group: P -1
;
_chemical_formula_sum "Si O2"
_cell_formula_units_Z 16
_cell_length_a 8.285674
_cell_length_b 10.468120
_cell_length_c 14.855479
_cell_angle_alpha 110.583205
_cell_angle_beta 42.824412
_cell_angle_gamma 120.304105
_cell_volume 755.805711
_symmetry_space_group_name_H-M "P -1"
_symmetry_group_IT_number 2
_symmetry_cell_setting 'triclinic'
loop_
_space_group_symop_operation_xyz
x,y,z
-x,-y,-z
loop_
_atom_site_type_symbol
_atom_site_label
_atom_site_fract_x
_atom_site_fract_y
_atom_site_fract_z
Si Si1 0.903767 0.522685 0.446433
Si Si2 0.345496 0.990359 0.412407
Si Si3 0.417968 0.740228 0.206372
Si Si4 0.729583 0.339593 0.168598
Si Si5 0.831674 0.249533 0.304608
Si Si6 0.567383 0.645411 0.945358
Si Si7 0.757564 0.589230 0.119364
Si Si8 0.200293 0.201416 0.396497
O O1 0.142873 0.606869 0.302720
O O2 0.000000 0.500000 0.500000
O O3 0.763613 0.360811 0.424204
O O4 0.767607 0.636833 0.542539
O O5 0.620643 0.084803 0.366744
O O6 0.247558 0.108885 0.436508
O O7 0.394776 0.887006 0.290372
O O8 0.090466 0.879581 0.540840
O O9 0.605106 0.691902 0.182802
O O10 0.504993 0.749957 0.069167
O O11 0.792128 0.295563 0.230662
O O12 0.754021 0.510875 0.196491
O O13 0.438144 0.228143 0.240245
O O14 0.953356 0.330039 0.012388
O O15 0.136939 0.282785 0.191432
O O16 0.378827 0.562915 0.920888
O O17 0.500000 0.500000 0.000000
#
# Coordination Sequence:
#
# PCOD9042111 Si02
#       8
#     2   2   2   2   2   2   2   2
#     4  11  21  35  63  86 111 147 195 243 286 334
#     4   9  21  36  57  82 118 156 190 228 280 352
#     4  10  18  36  58  85 114 151 191 228 290 339
#     4  10  19  32  57  84 119 145 185 242 287 326
#     4  11  20  37  59  91 109 150 196 234 290 340
#     4  10  17  33  58  86 115 141 195 246 279 333
#     4  10  18  32  57  92 111 146 192 248 282 324
#     4   9  20  38  52  81 118 157 182 230 287 334
#
# _framework density 21.169460000000001
#
# number of rings (size 3 to 8) (size 9 to 14) (size 15 to 20)
#    0.000    2.000    5.000    0.750    0.000    2.500 
#    0.000    3.750    0.000    9.000    0.000    0.000 
#    0.000    0.000    0.000    0.000    0.000    0.000 
#
# Total GULP energy -89104.321192 kJ/mol
# GULP energy per Si atom -5569.020074 kJ/mol
# Density = 2.112128 g / cm^3
# Si number density = 21.169460 Si / 1000 Ang^3
#
#
#
# Elastic Constant Matrix: (Units=GPa)
#
#
# Indices 1 2 3 4 5 6 
#
# 1 32.1039 -2.5523 13.9217 4.6813 -11.7359 1.1586
# 2 -2.5523 85.7134 43.0826 2.4647 -8.9123 27.3949
# 3 13.9217 43.0826 89.8593 -27.7301 -30.0361 14.7063
# 4 4.6813 2.4647 -27.7301 44.3647 -0.1433 -14.2463
# 5 -11.7359 -8.9123 -30.0361 -0.1433 26.4605 -6.1960
# 6 1.1586 27.3949 14.7063 -14.2463 -6.1960 29.4725
#
#
#
# Elastic Compliance Matrix: (Units=1/GPa)
#
#
# Indices 1 2 3 4 5 6 
#
# 1 0.047437 0.023950 -0.026907 -0.032159 -0.008158 -0.027960
# 2 0.023950 0.062904 -0.061446 -0.068167 -0.055488 -0.073367
# 3 -0.026907 -0.061446 0.086552 0.084104 0.083197 0.073129
# 4 -0.032159 -0.068167 0.084104 0.112799 0.080913 0.094195
# 5 -0.008158 -0.055488 0.083197 0.080913 0.128266 0.076461
# 6 -0.027960 -0.073367 0.073129 0.094195 0.076461 0.128340
#
#
# Mechanical properties :
#
#
# Convention : Reuss Voigt Hill
#
# Bulk Modulus (GPa) = 14.68698 35.17562 24.93130
# Shear Modulus (GPa) = 6.96571 30.27451 18.62011
#
# Velocity S-wave (km/s) = 1.81593 3.78577 2.96898
# Velocity P-wave (km/s) = 3.36893 5.98011 4.85342
#
# Compressibility (1/GPa) = 0.06808751
#
# Stress axis : x y z
#
# Youngs Moduli (GPa) = 21.08053 15.89713 11.55370
#
# Poissons Ratio (x) = -0.38074 0.31088
# Poissons Ratio (y) = -0.50488 0.70993
# Poissons Ratio (z) = 0.56722 0.97682
#
# Static dielectric constant tensor:
#      x y z
#    x 1.897820 -0.018600 -0.001150 
#    y -0.018600 1.793160 -0.016330 
#    z -0.001150 -0.016330 1.839370 
# 
# From -- ./inp_files/558574.got.cif
#   From: 2010.05.17/outbox.cif.g08.bks.cpg/sg2_280_cif.got.tgz:558574.got - 2010.06.03 11:33:40.
