data_PCOD9042891
_publ_section_title
;
Structure prediction by ZEFSAII (Michael W. Deem and Ramdas Pophale) SiO2 
 PCOD9042891
Probable space group: P -1
;
_chemical_formula_sum "Si O2"
_cell_formula_units_Z 14
_cell_length_a 5.120061
_cell_length_b 7.909783
_cell_length_c 19.414529
_cell_angle_alpha 46.193345
_cell_angle_beta 115.545541
_cell_angle_gamma 116.513548
_cell_volume 498.576079
_symmetry_space_group_name_H-M "P -1"
_symmetry_group_IT_number 2
_symmetry_cell_setting 'triclinic'
loop_
_space_group_symop_operation_xyz
x,y,z
-x,-y,-z
loop_
_atom_site_type_symbol
_atom_site_label
_atom_site_fract_x
_atom_site_fract_y
_atom_site_fract_z
Si Si1 0.945349 0.782399 0.109636
Si Si2 0.845994 0.106066 0.121570
Si Si3 0.592818 0.531516 0.908797
Si Si4 0.342905 0.450374 0.251362
Si Si5 0.301009 0.168510 0.519846
Si Si6 0.162858 0.548546 0.587682
Si Si7 0.851739 0.978783 0.315332
O O1 0.759625 0.553871 0.109834
O O2 0.208717 0.671879 0.200972
O O3 0.777146 0.885128 0.123392
O O4 0.000000 0.000000 0.000000
O O5 0.198679 0.217652 0.116869
O O6 0.781262 0.051328 0.209476
O O7 0.692559 0.317057 0.020382
O O8 0.654881 0.525455 0.836822
O O9 0.659219 0.456482 0.319528
O O10 0.125859 0.189212 0.312861
O O11 0.591925 0.252920 0.482728
O O12 0.363259 0.054387 0.632713
O O13 0.158180 0.398086 0.451816
O O14 0.000000 0.000000 0.500000
O O15 0.111780 0.290654 0.618446
#
# Coordination Sequence:
#
# PCOD9042891 Si02
#       7
#     2   2   2   2   2   2   2
#     4  12  25  42  71 104 145 200 248 306 373 443
#     4  10  23  45  69 101 145 193 244 308 374 446
#     4  10  23  45  65  99 150 184 244 306 372 447
#     4  11  26  46  71 108 145 197 250 306 376 448
#     4  12  27  54  81 112 152 197 250 320 383 447
#     4  12  28  51  79 112 155 196 253 312 385 449
#     4  11  26  47  76 106 148 197 253 307 382 450
#
# _framework density 28.079965999999999
#
# number of rings (size 3 to 8) (size 9 to 14) (size 15 to 20)
#    0.000    0.857    2.857    2.571    6.000    1.714 
#    5.143    0.000    0.000    0.000    0.000    0.000 
#    0.000    0.000    0.000    0.000    0.000    0.000 
#
# Total GULP energy -78428.104856 kJ/mol
# GULP energy per Si atom -5602.007490 kJ/mol
# Density = 2.801605 g / cm^3
# Si number density = 28.079966 Si / 1000 Ang^3
#
#
#
# Elastic Constant Matrix: (Units=GPa)
#
#
# Indices 1 2 3 4 5 6 
#
# 1 95.0562 12.0112 50.5690 -0.7316 -2.1558 17.8591
# 2 12.0112 129.6750 16.5342 -15.5307 0.7330 16.5750
# 3 50.5690 16.5342 161.7314 16.4081 -27.0553 -4.5005
# 4 -0.7316 -15.5307 16.4081 53.8117 -3.9820 -2.0063
# 5 -2.1558 0.7330 -27.0553 -3.9820 52.4038 0.5055
# 6 17.8591 16.5750 -4.5005 -2.0063 0.5055 47.3729
#
#
#
# Elastic Compliance Matrix: (Units=1/GPa)
#
#
# Indices 1 2 3 4 5 6 
#
# 1 0.014286 0.000270 -0.005125 0.001475 -0.001893 -0.005884
# 2 0.000270 0.008603 -0.001433 0.002762 -0.000609 -0.003124
# 3 -0.005125 -0.001433 0.009009 -0.002801 0.004217 0.003125
# 4 0.001475 0.002762 -0.002801 0.020229 0.000122 -0.000933
# 5 -0.001893 -0.000609 0.004217 0.000122 0.021189 0.001106
# 6 -0.005884 -0.003124 0.003125 -0.000933 0.001106 0.024666
#
#
# Mechanical properties :
#
#
# Convention : Reuss Voigt Hill
#
# Bulk Modulus (GPa) = 51.75404 60.52127 56.13765
# Shear Modulus (GPa) = 42.73584 51.20757 46.97171
#
# Velocity S-wave (km/s) = 3.90543 4.27504 4.09440
# Velocity P-wave (km/s) = 6.22956 6.77996 6.51058
#
# Compressibility (1/GPa) = 0.01932216
#
# Stress axis : x y z
#
# Youngs Moduli (GPa) = 69.99773 116.24028 111.00594
#
# Poissons Ratio (x) = -0.03134 0.56885
# Poissons Ratio (y) = -0.01887 0.15905
# Poissons Ratio (z) = 0.35870 0.16655
#
# Static dielectric constant tensor:
#      x y z
#    x 2.199470 0.034900 0.016100 
#    y 0.034900 2.179190 -0.008420 
#    z 0.016100 -0.008420 2.221470 
# 
# From -- ./inp_files/55759.got.cif
#   From: 2010.05.17/outbox.cif.g08.bks.cpg/sg2_28_cif.got.tgz:55759.got - 2010.06.03 11:33:40.
