data_PCOD9042788
_publ_section_title
;
Structure prediction by ZEFSAII (Michael W. Deem and Ramdas Pophale) SiO2 
 PCOD9042788
Probable space group: P -1
;
_chemical_formula_sum "Si O2"
_cell_formula_units_Z 14
_cell_length_a 17.096177
_cell_length_b 13.379728
_cell_length_c 7.603088
_cell_angle_alpha 59.938053
_cell_angle_beta 102.324775
_cell_angle_gamma 151.692669
_cell_volume 593.980949
_symmetry_space_group_name_H-M "P -1"
_symmetry_group_IT_number 2
_symmetry_cell_setting 'triclinic'
loop_
_space_group_symop_operation_xyz
x,y,z
-x,-y,-z
loop_
_atom_site_type_symbol
_atom_site_label
_atom_site_fract_x
_atom_site_fract_y
_atom_site_fract_z
Si Si1 0.716751 0.732483 0.949685
Si Si2 0.401683 0.712400 0.164808
Si Si3 0.903939 0.612303 0.397320
Si Si4 0.829431 0.629879 0.973503
Si Si5 0.890912 0.178633 0.198059
Si Si6 0.141160 0.650766 0.188153
Si Si7 0.453506 0.557011 0.519584
O O1 0.791492 0.716998 0.894613
O O2 0.697590 0.660633 0.203803
O O3 0.500000 0.500000 0.000000
O O4 0.884192 0.051786 0.748774
O O5 0.251970 0.559561 0.374365
O O6 0.375845 0.951933 0.997513
O O7 0.394917 0.567544 0.331213
O O8 0.336664 0.642634 0.994632
O O9 0.831712 0.573909 0.215253
O O10 0.902865 0.472567 0.542133
O O11 0.028300 0.842591 0.787321
O O12 0.019887 0.416466 0.192832
O O13 0.664027 0.877705 0.415166
O O14 0.902075 0.271957 0.944216
O O15 0.500000 0.500000 0.500000
#
# Coordination Sequence:
#
# PCOD9042788 Si02
#       7
#     2   2   2   2   2   2   2
#     4  12  27  46  70 110 143 181 234 296 353 423
#     4  11  25  45  71 103 141 189 229 295 347 417
#     4  12  25  46  72 101 147 180 234 294 343 426
#     4  12  26  44  74 111 134 183 244 284 360 408
#     4  10  23  44  77 102 137 194 233 290 348 426
#     4  10  23  48  70 101 145 188 237 281 361 410
#     4  11  23  45  73 102 147 185 230 290 360 416
#
# _framework density 23.569779
#
# number of rings (size 3 to 8) (size 9 to 14) (size 15 to 20)
#    0.000    0.857    2.857    3.429    2.000    2.857 
#    0.000    0.000    0.000    0.000    0.000    0.000 
#    0.000    0.000    0.000    0.000    0.000    0.000 
#
# Total GULP energy -78259.379022 kJ/mol
# GULP energy per Si atom -5589.955644 kJ/mol
# Density = 2.351613 g / cm^3
# Si number density = 23.569779 Si / 1000 Ang^3
#
#
#
# Elastic Constant Matrix: (Units=GPa)
#
#
# Indices 1 2 3 4 5 6 
#
# 1 117.5726 -3.6413 10.6685 -8.0893 3.9461 17.2323
# 2 -3.6413 106.3264 32.6437 -2.7784 -2.1345 15.5550
# 3 10.6685 32.6437 108.8677 -12.6299 15.8556 1.2004
# 4 -8.0893 -2.7784 -12.6299 36.0719 2.1684 4.8198
# 5 3.9461 -2.1345 15.8556 2.1684 31.8058 7.2268
# 6 17.2323 15.5550 1.2004 4.8198 7.2268 27.6145
#
#
#
# Elastic Compliance Matrix: (Units=1/GPa)
#
#
# Indices 1 2 3 4 5 6 
#
# 1 0.010059 0.002063 -0.001348 0.002967 0.001228 -0.008220
# 2 0.002063 0.012332 -0.004406 0.000842 0.004860 -0.009461
# 3 -0.001348 -0.004406 0.012061 0.003472 -0.007311 0.004106
# 4 0.002967 0.000842 0.003472 0.030780 -0.002507 -0.007193
# 5 0.001228 0.004860 -0.007311 -0.002507 0.038334 -0.012781
# 6 -0.008220 -0.009461 0.004106 -0.007193 -0.012781 0.051094
#
#
# Mechanical properties :
#
#
# Convention : Reuss Voigt Hill
#
# Bulk Modulus (GPa) = 36.94070 45.78984 41.36527
# Shear Modulus (GPa) = 29.22856 38.63818 33.93337
#
# Velocity S-wave (km/s) = 3.52531 4.05323 3.79845
# Velocity P-wave (km/s) = 5.68131 6.43230 6.06843
#
# Compressibility (1/GPa) = 0.02707041
#
# Stress axis : x y z
#
# Youngs Moduli (GPa) = 99.40963 81.08960 82.91271
#
# Poissons Ratio (x) = -0.16731 0.11180
# Poissons Ratio (y) = -0.20511 0.36529
# Poissons Ratio (z) = 0.13405 0.35726
#
# Static dielectric constant tensor:
#      x y z
#    x 2.052860 0.070240 0.055050 
#    y 0.070240 1.914690 0.030700 
#    z 0.055050 0.030700 1.889260 
# 
# From -- ./inp_files/335233.got.cif
#   From: 2010.05.17/outbox.cif.g08.bks.cpg/sg2_168_cif.got.tgz:335233.got - 2010.06.03 11:33:40.
