data_PCOD9042082
_publ_section_title
;
Structure prediction by ZEFSAII (Michael W. Deem and Ramdas Pophale) SiO2 
 PCOD9042082
Probable space group: P -1
;
_chemical_formula_sum "Si O2"
_cell_formula_units_Z 16
_cell_length_a 11.789622
_cell_length_b 8.379973
_cell_length_c 14.904725
_cell_angle_alpha 74.992675
_cell_angle_beta 150.542187
_cell_angle_gamma 113.329116
_cell_volume 652.830584
_symmetry_space_group_name_H-M "P -1"
_symmetry_group_IT_number 2
_symmetry_cell_setting 'triclinic'
loop_
_space_group_symop_operation_xyz
x,y,z
-x,-y,-z
loop_
_atom_site_type_symbol
_atom_site_label
_atom_site_fract_x
_atom_site_fract_y
_atom_site_fract_z
Si Si1 0.457265 0.140406 0.636544
Si Si2 0.787048 0.663354 0.057676
Si Si3 0.118232 0.854119 0.572733
Si Si4 0.627448 0.205659 0.069502
Si Si5 0.296092 0.316574 0.352653
Si Si6 0.175868 0.611386 0.006256
Si Si7 0.175449 0.987481 0.203214
Si Si8 0.734869 0.579405 0.226460
O O1 0.261688 0.200437 0.437698
O O2 0.639888 0.102282 0.695953
O O3 0.331101 0.965776 0.634379
O O4 0.616104 0.293625 0.792027
O O5 0.844056 0.578104 0.017984
O O6 0.841766 0.575166 0.200624
O O7 0.975016 0.864276 0.154730
O O8 0.485829 0.592853 0.861695
O O9 0.208817 0.780358 0.732624
O O10 0.934354 0.683010 0.420432
O O11 0.000000 0.000000 0.500000
O O12 0.759440 0.276587 0.057209
O O13 0.412823 0.287363 0.914939
O O14 0.500000 0.000000 0.000000
O O15 0.500000 0.500000 0.500000
O O16 0.084362 0.373859 0.153061
O O17 0.330074 0.179496 0.323009
O O18 0.000000 0.000000 0.000000
#
# Coordination Sequence:
#
# PCOD9042082 Si02
#       8
#     2   2   2   2   2   2   2   2
#     4  12  26  44  75 107 147 194 238 295 370 430
#     4  10  24  46  73  96 152 189 245 292 368 425
#     4  12  22  39  70 108 142 181 240 294 359 430
#     4  11  21  38  67 101 140 180 240 290 361 419
#     4  12  28  47  74 106 139 183 247 297 356 429
#     4  11  24  46  68 105 140 193 234 301 356 423
#     4  12  27  48  75 105 144 199 236 298 365 436
#     4  10  23  44  69 103 139 195 230 308 355 419
#
# _framework density 24.508655999999998
#
# number of rings (size 3 to 8) (size 9 to 14) (size 15 to 20)
#    0.000    0.750    3.750    3.375    5.250    2.000 
#    0.000    6.875    0.000    0.000    0.000    0.000 
#    0.000    0.000    0.000    0.000    0.000    0.000 
#
# Total GULP energy -89408.402670 kJ/mol
# GULP energy per Si atom -5588.025167 kJ/mol
# Density = 2.445287 g / cm^3
# Si number density = 24.508656 Si / 1000 Ang^3
#
#
#
# Elastic Constant Matrix: (Units=GPa)
#
#
# Indices 1 2 3 4 5 6 
#
# 1 101.3346 31.5715 28.5400 17.8042 -12.3415 1.6922
# 2 31.5715 90.8413 8.4199 22.3247 1.1426 4.6689
# 3 28.5400 8.4199 123.2423 16.8245 -36.0998 -10.8104
# 4 17.8042 22.3247 16.8245 51.2889 -4.2646 -7.4801
# 5 -12.3415 1.1426 -36.0998 -4.2646 41.2056 5.4550
# 6 1.6922 4.6689 -10.8104 -7.4801 5.4550 56.5594
#
#
#
# Elastic Compliance Matrix: (Units=1/GPa)
#
#
# Indices 1 2 3 4 5 6 
#
# 1 0.012084 -0.003517 -0.001742 -0.002046 0.002095 -0.000877
# 2 -0.003517 0.013577 -0.000097 -0.005032 -0.001834 -0.001523
# 3 -0.001742 -0.000097 0.011655 -0.002242 0.009315 0.001093
# 4 -0.002046 -0.005032 -0.002242 0.023566 -0.000423 0.003205
# 5 0.002095 -0.001834 0.009315 -0.000423 0.033248 -0.001394
# 6 -0.000877 -0.001523 0.001093 0.003205 -0.001394 0.018600
#
#
# Mechanical properties :
#
#
# Convention : Reuss Voigt Hill
#
# Bulk Modulus (GPa) = 37.58800 50.27567 43.93183
# Shear Modulus (GPa) = 37.79040 46.26988 42.03014
#
# Velocity S-wave (km/s) = 3.93099 4.34971 4.14564
# Velocity P-wave (km/s) = 5.99779 6.76643 6.39367
#
# Compressibility (1/GPa) = 0.02660424
#
# Stress axis : x y z
#
# Youngs Moduli (GPa) = 82.75502 73.65221 85.80368
#
# Poissons Ratio (x) = 0.25901 0.14947
# Poissons Ratio (y) = 0.29102 0.00833
# Poissons Ratio (z) = 0.14416 0.00715
#
# Static dielectric constant tensor:
#      x y z
#    x 2.194790 -0.145850 -0.006350 
#    y -0.145850 2.041710 0.018800 
#    z -0.006350 0.018800 1.957580 
# 
# From -- ./inp_files/515578.got.cif
#   From: 2010.05.17/outbox.cif.g08.bks.cpg/sg2_258_cif.got.tgz:515578.got - 2010.06.03 11:33:40.
