data_PCOD9042286
_publ_section_title
;
Structure prediction by ZEFSAII (Michael W. Deem and Ramdas Pophale) SiO2 
 PCOD9042286
Probable space group: P -1
;
_chemical_formula_sum "Si O2"
_cell_formula_units_Z 14
_cell_length_a 9.470687
_cell_length_b 10.714426
_cell_length_c 24.398455
_cell_angle_alpha 157.458905
_cell_angle_beta 39.378963
_cell_angle_gamma 139.604252
_cell_volume 590.462105
_symmetry_space_group_name_H-M "P -1"
_symmetry_group_IT_number 2
_symmetry_cell_setting 'triclinic'
loop_
_space_group_symop_operation_xyz
x,y,z
-x,-y,-z
loop_
_atom_site_type_symbol
_atom_site_label
_atom_site_fract_x
_atom_site_fract_y
_atom_site_fract_z
Si Si1 0.021245 0.351466 0.313685
Si Si2 0.649984 0.774478 0.606992
Si Si3 0.346107 0.708876 0.098739
Si Si4 0.488873 0.688914 0.837138
Si Si5 0.236763 0.377446 0.885900
Si Si6 0.084882 0.696414 0.325200
Si Si7 0.905890 0.309200 0.126189
O O1 0.257882 0.343754 0.269827
O O2 0.103722 0.435507 0.260499
O O3 0.880476 0.628805 0.486679
O O4 0.846204 0.003291 0.225687
O O5 0.500000 0.500000 0.500000
O O6 0.595532 0.920385 0.741853
O O7 0.695112 0.118405 0.697879
O O8 0.092545 0.526031 0.118227
O O9 0.500000 0.500000 0.000000
O O10 0.363083 0.620725 0.993972
O O11 0.369814 0.396805 0.796084
O O12 0.322990 0.740458 0.858980
O O13 0.500000 0.000000 0.000000
O O14 0.000000 0.500000 0.000000
O O15 0.897748 0.535659 0.273137
O O16 0.000000 0.000000 0.500000
O O17 0.000000 0.000000 0.000000
#
# Coordination Sequence:
#
# PCOD9042286 Si02
#       7
#     2   2   2   2   2   2   2
#     4  11  24  45  74 101 143 193 228 298 360 417
#     4  10  23  44  70 106 145 186 243 293 354 419
#     4  11  24  41  71 103 136 183 237 291 350 420
#     4  12  25  42  70 106 144 185 235 295 362 420
#     4  12  24  45  70 101 148 180 237 292 357 422
#     4   9  21  43  68  96 136 176 233 284 345 419
#     4  11  23  41  70 101 132 178 236 289 349 421
#
# _framework density 23.710243999999999
#
# number of rings (size 3 to 8) (size 9 to 14) (size 15 to 20)
#    0.000    1.143    2.857    2.571    8.000    1.143 
#    0.000    7.143    0.000    0.000    0.000    0.000 
#    0.000    0.000    0.000    0.000    0.000    0.000 
#
# Total GULP energy -78176.407180 kJ/mol
# GULP energy per Si atom -5584.029084 kJ/mol
# Density = 2.365628 g / cm^3
# Si number density = 23.710244 Si / 1000 Ang^3
#
#
#
# Elastic Constant Matrix: (Units=GPa)
#
#
# Indices 1 2 3 4 5 6 
#
# 1 190.4608 40.9276 72.4223 3.1437 16.7425 26.2341
# 2 40.9276 114.6126 34.8486 24.5593 1.6400 5.8748
# 3 72.4223 34.8486 146.0863 -2.0690 10.7665 12.1691
# 4 3.1437 24.5593 -2.0690 42.2934 5.3129 -10.0047
# 5 16.7425 1.6400 10.7665 5.3129 37.6505 -3.4741
# 6 26.2341 5.8748 12.1691 -10.0047 -3.4741 47.8544
#
#
#
# Elastic Compliance Matrix: (Units=1/GPa)
#
#
# Indices 1 2 3 4 5 6 
#
# 1 0.007346 -0.001498 -0.002810 -0.000278 -0.002670 -0.003381
# 2 -0.001498 0.011496 -0.002104 -0.007216 0.001652 -0.001444
# 3 -0.002810 -0.002104 0.008892 0.002018 -0.001500 -0.000149
# 4 -0.000278 -0.007216 0.002018 0.029969 -0.003767 0.006517
# 5 -0.002670 0.001652 -0.001500 -0.003767 0.028909 0.002954
# 6 -0.003381 -0.001444 -0.000149 0.006517 0.002954 0.024542
#
#
# Mechanical properties :
#
#
# Convention : Reuss Voigt Hill
#
# Bulk Modulus (GPa) = 67.06339 83.06185 75.06262
# Shear Modulus (GPa) = 38.77589 45.75708 42.26648
#
# Velocity S-wave (km/s) = 4.04840 4.39776 4.22670
# Velocity P-wave (km/s) = 7.08511 7.80354 7.45298
#
# Compressibility (1/GPa) = 0.01491126
#
# Stress axis : x y z
#
# Youngs Moduli (GPa) = 136.13449 86.98545 112.46504
#
# Poissons Ratio (x) = 0.13028 0.31601
# Poissons Ratio (y) = 0.20389 0.23658
# Poissons Ratio (z) = 0.38252 0.18298
#
# Static dielectric constant tensor:
#      x y z
#    x 1.946540 -0.033040 -0.008840 
#    y -0.033040 2.157720 -0.014510 
#    z -0.008840 -0.014510 1.893710 
# 
# From -- ./inp_files/617081.got.cif
#   From: 2010.05.17/outbox.cif.g08.bks.cpg/sg2_309_cif.got.tgz:617081.got - 2010.06.03 11:33:40.
