data_PCOD9042872
_publ_section_title
;
Structure prediction by ZEFSAII (Michael W. Deem and Ramdas Pophale) SiO2 
 PCOD9042872
Probable space group: P -1
;
_chemical_formula_sum "Si O2"
_cell_formula_units_Z 16
_cell_length_a 9.160388
_cell_length_b 11.843346
_cell_length_c 21.007359
_cell_angle_alpha 132.863808
_cell_angle_beta 22.296290
_cell_angle_gamma 134.976423
_cell_volume 608.727698
_symmetry_space_group_name_H-M "P -1"
_symmetry_group_IT_number 2
_symmetry_cell_setting 'triclinic'
loop_
_space_group_symop_operation_xyz
x,y,z
-x,-y,-z
loop_
_atom_site_type_symbol
_atom_site_label
_atom_site_fract_x
_atom_site_fract_y
_atom_site_fract_z
Si Si1 0.969492 0.367387 0.602557
Si Si2 0.787973 0.354179 0.109585
Si Si3 0.447627 0.134832 0.269055
Si Si4 0.394204 0.824603 0.012217
Si Si5 0.558500 0.032959 0.681937
Si Si6 0.418149 0.085630 0.502968
Si Si7 0.503019 0.650331 0.345016
Si Si8 0.611171 0.564218 0.904540
O O1 0.775652 0.370206 0.611993
O O2 0.986128 0.515935 0.700507
O O3 0.324820 0.283726 0.410273
O O4 0.660208 0.220818 0.708761
O O5 0.706538 0.204643 0.131250
O O6 0.560834 0.480476 0.272330
O O7 0.615233 0.293363 0.088263
O O8 0.243069 0.454793 0.969788
O O9 0.665621 0.052106 0.199526
O O10 0.051771 0.999660 0.353016
O O11 0.927328 0.775631 0.202997
O O12 0.594118 0.744918 0.959606
O O13 0.500000 0.000000 0.000000
O O14 0.381170 0.957522 0.658041
O O15 0.000000 0.000000 0.500000
O O16 0.590914 0.270798 0.521783
O O17 0.500000 0.000000 0.500000
O O18 0.500000 0.500000 0.000000
#
# Coordination Sequence:
#
# PCOD9042872 Si02
#       8
#     2   2   2   2   2   2   2   2
#     4  10  18  39  65  86 120 165 205 247 311 365
#     4  11  23  42  61  90 128 164 206 258 318 369
#     4  10  22  38  60  93 129 162 201 258 313 366
#     4  11  23  42  65  91 126 166 213 261 309 377
#     4   8  18  34  57  85 127 160 193 250 312 361
#     4  10  17  33  59  92 114 158 213 247 296 369
#     4  11  19  37  64  88 120 167 203 254 308 365
#     4  11  24  45  67  92 124 169 211 259 321 376
#
# _framework density 26.284329
#
# number of rings (size 3 to 8) (size 9 to 14) (size 15 to 20)
#    0.000    2.000    5.000    1.500    0.000    7.500 
#    2.250    3.750    0.000    0.000    0.000    0.000 
#    0.000    0.000    0.000    0.000    0.000    0.000 
#
# Total GULP energy -89225.383442 kJ/mol
# GULP energy per Si atom -5576.586465 kJ/mol
# Density = 2.622451 g / cm^3
# Si number density = 26.284329 Si / 1000 Ang^3
#
#
#
# Elastic Constant Matrix: (Units=GPa)
#
#
# Indices 1 2 3 4 5 6 
#
# 1 131.7884 77.6296 14.9533 0.6096 17.1779 -13.1451
# 2 77.6296 113.2512 28.5788 3.6486 0.3338 -20.5361
# 3 14.9533 28.5788 55.7483 9.5721 8.7093 -0.7474
# 4 0.6096 3.6486 9.5721 51.0450 -4.7894 8.1964
# 5 17.1779 0.3338 8.7093 -4.7894 29.7588 -7.9727
# 6 -13.1451 -20.5361 -0.7474 8.1964 -7.9727 55.2800
#
#
#
# Elastic Compliance Matrix: (Units=1/GPa)
#
#
# Indices 1 2 3 4 5 6 
#
# 1 0.015177 -0.011631 0.003593 -0.000664 -0.010340 -0.002056
# 2 -0.011631 0.020093 -0.008850 0.000398 0.010770 0.006073
# 3 0.003593 -0.008850 0.023858 -0.004389 -0.010459 -0.002968
# 4 -0.000664 0.000398 -0.004389 0.021219 0.004386 -0.002583
# 5 -0.010340 0.010770 -0.010459 0.004386 0.045164 0.007264
# 6 -0.002056 0.006073 -0.002968 -0.002583 0.007264 0.021247
#
#
# Mechanical properties :
#
#
# Convention : Reuss Voigt Hill
#
# Bulk Modulus (GPa) = 39.44293 60.34570 49.89432
# Shear Modulus (GPa) = 26.45701 39.19186 32.82444
#
# Velocity S-wave (km/s) = 3.17609 3.86563 3.53770
# Velocity P-wave (km/s) = 5.33750 6.55231 5.97586
#
# Compressibility (1/GPa) = 0.02535308
#
# Stress axis : x y z
#
# Youngs Moduli (GPa) = 65.88800 49.76944 41.91386
#
# Poissons Ratio (x) = 0.57888 -0.15061
# Poissons Ratio (y) = 0.76636 0.37093
# Poissons Ratio (z) = -0.23676 0.44045
#
# Static dielectric constant tensor:
#      x y z
#    x 1.604700 -0.378850 -0.250970 
#    y -0.378850 1.578930 -0.350690 
#    z -0.250970 -0.350690 2.006100 
# 
# From -- ./inp_files/589560.got.cif
#   From: 2010.05.17/outbox.cif.g08.bks.cpg/sg2_295_cif.got.tgz:589560.got - 2010.06.03 11:33:40.
