data_PCOD9042666
_publ_section_title
;
Structure prediction by ZEFSAII (Michael W. Deem and Ramdas Pophale) SiO2 
 PCOD9042666
Probable space group: P -1
;
_chemical_formula_sum "Si O2"
_cell_formula_units_Z 16
_cell_length_a 7.478899
_cell_length_b 18.564152
_cell_length_c 5.141439
_cell_angle_alpha 97.992466
_cell_angle_beta 101.651133
_cell_angle_gamma 57.123673
_cell_volume 586.781402
_symmetry_space_group_name_H-M "P -1"
_symmetry_group_IT_number 2
_symmetry_cell_setting 'triclinic'
loop_
_space_group_symop_operation_xyz
x,y,z
-x,-y,-z
loop_
_atom_site_type_symbol
_atom_site_label
_atom_site_fract_x
_atom_site_fract_y
_atom_site_fract_z
Si Si1 0.663727 0.919174 0.684221
Si Si2 0.933881 0.444615 0.777871
Si Si3 0.478309 0.385634 0.466852
Si Si4 0.236110 0.255985 0.646852
Si Si5 0.071816 0.909714 0.585917
Si Si6 0.382835 0.768958 0.914629
Si Si7 0.040706 0.178934 0.912065
Si Si8 0.672787 0.400575 0.033434
O O1 0.706763 0.824855 0.569194
O O2 0.879060 0.921179 0.707780
O O3 0.500000 0.000000 0.500000
O O4 0.711936 0.901719 0.998019
O O5 0.738857 0.521278 0.588295
O O6 0.868384 0.400870 0.960637
O O7 0.104342 0.360290 0.616048
O O8 0.000000 0.500000 0.000000
O O9 0.475658 0.307909 0.285917
O O10 0.568916 0.365380 0.775280
O O11 0.654515 0.386353 0.325815
O O12 0.093506 0.240201 0.803153
O O13 0.460576 0.235643 0.821303
O O14 0.287634 0.860049 0.787296
O O15 0.077021 0.852749 0.324420
O O16 0.000000 0.000000 0.500000
O O17 0.158745 0.770845 0.914949
O O18 0.500000 0.500000 0.000000
#
# Coordination Sequence:
#
# PCOD9042666 Si02
#       8
#     2   2   2   2   2   2   2   2
#     4  10  25  44  71 102 135 182 235 296 368 437
#     4  11  22  44  64 102 145 180 245 294 366 423
#     4  11  24  47  72 104 140 198 245 301 364 442
#     4  11  25  45  69 101 142 185 238 298 361 432
#     4  10  25  43  70 101 138 185 234 299 365 438
#     4  11  25  42  72 103 139 188 243 291 363 440
#     4  10  25  46  67 100 141 184 234 297 366 437
#     4  10  23  44  73  97 140 195 242 302 366 434
#
# _framework density 27.267393999999999
#
# number of rings (size 3 to 8) (size 9 to 14) (size 15 to 20)
#    0.000    1.500    1.250    2.250   12.250    2.000 
#    4.500    5.625    0.000    0.000    0.000    0.000 
#    0.000    0.000    0.000    0.000    0.000    0.000 
#
# Total GULP energy -89163.398351 kJ/mol
# GULP energy per Si atom -5572.712397 kJ/mol
# Density = 2.720533 g / cm^3
# Si number density = 27.267394 Si / 1000 Ang^3
#
#
#
# Elastic Constant Matrix: (Units=GPa)
#
#
# Indices 1 2 3 4 5 6 
#
# 1 82.6989 12.3292 4.4646 -10.5832 13.7249 11.4129
# 2 12.3292 284.8034 143.6405 90.4802 84.4111 -113.9462
# 3 4.4646 143.6405 176.9153 71.5789 76.3276 -92.3418
# 4 -10.5832 90.4802 71.5789 134.4219 52.5499 -64.8752
# 5 13.7249 84.4111 76.3276 52.5499 73.2519 -44.5099
# 6 11.4129 -113.9462 -92.3418 -64.8752 -44.5099 106.0022
#
#
#
# Elastic Compliance Matrix: (Units=1/GPa)
#
#
# Indices 1 2 3 4 5 6 
#
# 1 0.013848 -0.001296 0.000096 0.002096 -0.004870 -0.003562
# 2 -0.001296 0.007677 -0.002078 -0.000599 -0.002997 0.004957
# 3 0.000096 -0.002078 0.014739 0.000527 -0.009030 0.007127
# 4 0.002096 -0.000599 0.000527 0.012402 -0.006425 0.004482
# 5 -0.004870 -0.002997 -0.009030 -0.006425 0.031184 -0.001402
# 6 -0.003562 0.004957 0.007127 0.004482 -0.001402 0.023509
#
#
# Mechanical properties :
#
#
# Convention : Reuss Voigt Hill
#
# Bulk Modulus (GPa) = 33.65815 96.14291 64.90053
# Shear Modulus (GPa) = 41.73072 88.33409 65.03241
#
# Velocity S-wave (km/s) = 3.91631 5.69788 4.88893
# Velocity P-wave (km/s) = 5.72892 8.86700 7.46472
#
# Compressibility (1/GPa) = 0.02971049
#
# Stress axis : x y z
#
# Youngs Moduli (GPa) = 72.21262 130.26136 67.84498
#
# Poissons Ratio (x) = 0.16878 -0.00654
# Poissons Ratio (y) = 0.09356 0.14096
# Poissons Ratio (z) = -0.00697 0.27065
#
# Static dielectric constant tensor:
#      x y z
#    x 2.231550 -0.109270 0.075480 
#    y -0.109270 1.922630 0.579390 
#    z 0.075480 0.579390 1.350920 
# 
# From -- ./inp_files/53566.got.cif
#   From: 2010.05.17/outbox.cif.g08.bks.cpg/sg2_27_cif.got.tgz:53566.got - 2010.06.03 11:33:40.
