data_PCOD9042882
_publ_section_title
;
Structure prediction by ZEFSAII (Michael W. Deem and Ramdas Pophale) SiO2 
 PCOD9042882
Probable space group: P -1
;
_chemical_formula_sum "Si O2"
_cell_formula_units_Z 16
_cell_length_a 5.170482
_cell_length_b 18.209370
_cell_length_c 20.852388
_cell_angle_alpha 159.629530
_cell_angle_beta 86.092221
_cell_angle_gamma 97.502555
_cell_volume 669.119787
_symmetry_space_group_name_H-M "P -1"
_symmetry_group_IT_number 2
_symmetry_cell_setting 'triclinic'
loop_
_space_group_symop_operation_xyz
x,y,z
-x,-y,-z
loop_
_atom_site_type_symbol
_atom_site_label
_atom_site_fract_x
_atom_site_fract_y
_atom_site_fract_z
Si Si1 0.762649 0.577748 0.982849
Si Si2 0.261759 0.991773 0.948652
Si Si3 0.380670 0.259276 0.568035
Si Si4 0.698282 0.215810 0.784986
Si Si5 0.820628 0.577894 0.745484
Si Si6 0.877434 0.372202 0.096666
Si Si7 0.813334 0.899450 0.690019
Si Si8 0.253562 0.730787 0.613746
O O1 0.512900 0.684802 0.088580
O O2 0.013292 0.711501 0.127939
O O3 0.709976 0.338843 0.817795
O O4 0.854454 0.581661 0.911419
O O5 0.307765 0.212367 0.087229
O O6 0.500000 0.000000 0.000000
O O7 0.228880 0.787777 0.734848
O O8 0.000000 0.000000 0.000000
O O9 0.636477 0.382711 0.626704
O O10 0.271843 0.434413 0.754667
O O11 0.395064 0.040255 0.424639
O O12 0.180644 0.182980 0.449694
O O13 0.070491 0.639633 0.838007
O O14 0.867449 0.489955 0.602001
O O15 0.745294 0.135285 0.883652
O O16 0.565645 0.762268 0.619521
O O17 0.089460 0.892393 0.713415
#
# Coordination Sequence:
#
# PCOD9042882 Si02
#       8
#     2   2   2   2   2   2   2   2
#     4  10  24  42  69  96 141 188 235 280 347 414
#     4  12  28  47  73  99 137 181 222 274 342 417
#     4  11  25  41  71 105 139 180 238 292 341 404
#     4  10  23  45  65  97 140 192 229 285 351 406
#     4  11  27  43  71 104 140 171 236 279 345 409
#     4  12  24  40  71 106 133 186 232 295 332 420
#     4  11  23  40  69  98 141 178 225 281 345 392
#     4  11  24  46  69 100 137 179 215 286 335 405
#
# _framework density 23.912013999999999
#
# number of rings (size 3 to 8) (size 9 to 14) (size 15 to 20)
#    0.000    1.000    3.750    1.500    8.750    1.500 
#    0.000    0.625    0.000    0.000    0.000    0.000 
#    0.000    0.000    0.000    0.000    0.000    0.000 
#
# Total GULP energy -89504.347315 kJ/mol
# GULP energy per Si atom -5594.021707 kJ/mol
# Density = 2.385759 g / cm^3
# Si number density = 23.912014 Si / 1000 Ang^3
#
#
#
# Elastic Constant Matrix: (Units=GPa)
#
#
# Indices 1 2 3 4 5 6 
#
# 1 87.5698 13.0367 3.2733 1.2326 -6.5640 1.2387
# 2 13.0367 49.0523 19.4167 -6.6596 7.7881 3.5637
# 3 3.2733 19.4167 100.2658 -2.9366 -5.6416 -1.4903
# 4 1.2326 -6.6596 -2.9366 55.6189 -1.9596 -1.4139
# 5 -6.5640 7.7881 -5.6416 -1.9596 21.9639 -3.1081
# 6 1.2387 3.5637 -1.4903 -1.4139 -3.1081 35.9712
#
#
#
# Elastic Compliance Matrix: (Units=1/GPa)
#
#
# Indices 1 2 3 4 5 6 
#
# 1 0.012503 -0.004647 0.000798 -0.000580 0.005612 0.000525
# 2 -0.004647 0.026448 -0.005658 0.002436 -0.012523 -0.003681
# 3 0.000798 -0.005658 0.011372 0.000133 0.005386 0.001475
# 4 -0.000580 0.002436 0.000133 0.018331 0.000712 0.000566
# 5 0.005612 -0.012523 0.005386 0.000712 0.053937 0.005959
# 6 0.000525 -0.003681 0.001475 0.000566 0.005959 0.028745
#
#
# Mechanical properties :
#
#
# Convention : Reuss Voigt Hill
#
# Bulk Modulus (GPa) = 31.93931 34.26015 33.09973
# Shear Modulus (GPa) = 27.65723 36.12154 31.88938
#
# Velocity S-wave (km/s) = 3.40461 3.89086 3.65583
# Velocity P-wave (km/s) = 5.37040 5.87740 5.62961
#
# Compressibility (1/GPa) = 0.03130938
#
# Stress axis : x y z
#
# Youngs Moduli (GPa) = 79.98217 37.81068 87.93542
#
# Poissons Ratio (x) = 0.17570 -0.07020
# Poissons Ratio (y) = 0.37166 0.49753
# Poissons Ratio (z) = -0.06385 0.21393
#
# Static dielectric constant tensor:
#      x y z
#    x 1.911450 -0.008440 0.029180 
#    y -0.008440 1.938300 0.012570 
#    z 0.029180 0.012570 1.916610 
# 
# From -- ./inp_files/48085.got.cif
#   From: 2010.05.17/outbox.cif.g08.bks.cpg/sg2_25_cif.got.tgz:48085.got - 2010.06.03 11:33:40.
