data_PCOD9042624
_publ_section_title
;
Structure prediction by ZEFSAII (Michael W. Deem and Ramdas Pophale) SiO2 
 PCOD9042624
Probable space group: P -1
;
_chemical_formula_sum "Si O2"
_cell_formula_units_Z 16
_cell_length_a 10.501002
_cell_length_b 7.876930
_cell_length_c 20.122930
_cell_angle_alpha 69.778173
_cell_angle_beta 145.248326
_cell_angle_gamma 88.512689
_cell_volume 725.586569
_symmetry_space_group_name_H-M "P -1"
_symmetry_group_IT_number 2
_symmetry_cell_setting 'triclinic'
loop_
_space_group_symop_operation_xyz
x,y,z
-x,-y,-z
loop_
_atom_site_type_symbol
_atom_site_label
_atom_site_fract_x
_atom_site_fract_y
_atom_site_fract_z
Si Si1 0.438801 0.537027 0.800884
Si Si2 0.313616 0.429022 0.457297
Si Si3 0.310582 0.058190 0.347763
Si Si4 0.249887 0.852995 0.918617
Si Si5 0.503398 0.883188 0.833348
Si Si6 0.076556 0.390040 0.619428
Si Si7 0.810272 0.709017 0.114753
Si Si8 0.710456 0.683715 0.817725
O O1 0.378503 0.738910 0.793933
O O2 0.526562 0.589865 0.762135
O O3 0.202212 0.504507 0.695317
O O4 0.686235 0.307180 0.969947
O O5 0.500000 0.500000 0.500000
O O6 0.167733 0.557054 0.445294
O O7 0.078514 0.498625 0.291598
O O8 0.515333 0.167652 0.589884
O O9 0.275028 0.245531 0.258738
O O10 0.017883 0.107804 0.234415
O O11 0.500000 0.000000 0.500000
O O12 0.195341 0.084046 0.886629
O O13 0.534304 0.733508 0.016204
O O14 0.579635 0.883818 0.789153
O O15 0.769025 0.745142 0.013272
O O16 0.300029 0.126338 0.743306
O O17 0.000000 0.500000 0.500000
O O18 0.000000 0.500000 0.000000
#
# Coordination Sequence:
#
# PCOD9042624 Si02
#       8
#     2   2   2   2   2   2   2   2
#     4  10  23  44  73 105 139 193 261 303 348 471
#     4  12  27  46  68 112 154 184 254 327 372 450
#     4  12  27  45  71 110 156 193 238 321 397 426
#     4  11  21  45  73 104 143 197 249 301 360 469
#     4  10  24  43  76 103 138 198 249 300 369 446
#     4  12  25  49  71 102 151 200 248 309 386 440
#     4  11  22  44  74 101 145 192 258 295 373 457
#     4  10  23  47  69 108 151 185 257 306 359 471
#
# _framework density 22.051124000000002
#
# number of rings (size 3 to 8) (size 9 to 14) (size 15 to 20)
#    0.750    0.250    5.000    1.500    3.500    3.000 
#    0.000    1.250    0.000    0.000    0.000    0.000 
#    0.000    0.000    0.000    0.000    0.000    0.000 
#
# Total GULP energy -89340.827146 kJ/mol
# GULP energy per Si atom -5583.801697 kJ/mol
# Density = 2.200093 g / cm^3
# Si number density = 22.051124 Si / 1000 Ang^3
#
#
#
# Elastic Constant Matrix: (Units=GPa)
#
#
# Indices 1 2 3 4 5 6 
#
# 1 122.2389 35.9848 54.9129 4.2863 2.9012 14.1544
# 2 35.9848 65.6184 23.8281 -0.5415 1.7348 19.7009
# 3 54.9129 23.8281 120.7774 7.5664 -3.5969 14.7532
# 4 4.2863 -0.5415 7.5664 42.0769 5.2030 -1.0635
# 5 2.9012 1.7348 -3.5969 5.2030 34.0915 0.9507
# 6 14.1544 19.7009 14.7532 -1.0635 0.9507 28.8153
#
#
#
# Elastic Compliance Matrix: (Units=1/GPa)
#
#
# Indices 1 2 3 4 5 6 
#
# 1 0.011563 -0.004670 -0.004319 -0.000326 -0.001145 -0.000250
# 2 -0.004670 0.021735 -0.000738 0.000649 -0.000547 -0.012146
# 3 -0.004319 -0.000738 0.010942 -0.001854 0.001929 -0.003108
# 4 -0.000326 0.000649 -0.001854 0.024681 -0.004015 0.001709
# 5 -0.001145 -0.000547 0.001929 -0.004015 0.030308 -0.001199
# 6 -0.000250 -0.012146 -0.003108 0.001709 -0.001199 0.044825
#
#
# Mechanical properties :
#
#
# Convention : Reuss Voigt Hill
#
# Bulk Modulus (GPa) = 40.34500 59.78738 50.06619
# Shear Modulus (GPa) = 29.10840 33.92401 31.51621
#
# Velocity S-wave (km/s) = 3.63718 3.92653 3.78462
# Velocity P-wave (km/s) = 5.99788 6.90860 6.46929
#
# Compressibility (1/GPa) = 0.02478622
#
# Stress axis : x y z
#
# Youngs Moduli (GPa) = 86.47986 46.00800 91.38778
#
# Poissons Ratio (x) = 0.21487 0.39472
# Poissons Ratio (y) = 0.40388 0.06744
# Poissons Ratio (z) = 0.37352 0.03395
#
# Static dielectric constant tensor:
#      x y z
#    x 1.846550 -0.016830 0.005290 
#    y -0.016830 1.828580 -0.011800 
#    z 0.005290 -0.011800 1.828280 
# 
# From -- ./inp_files/593552.got.cif
#   From: 2010.05.17/outbox.cif.g08.bks.cpg/sg2_297_cif.got.tgz:593552.got - 2010.06.03 11:33:40.
