data_PCOD9042576
_publ_section_title
;
Structure prediction by ZEFSAII (Michael W. Deem and Ramdas Pophale) SiO2 
 PCOD9042576
Probable space group: P -1
;
_chemical_formula_sum "Si O2"
_cell_formula_units_Z 14
_cell_length_a 11.119238
_cell_length_b 5.338482
_cell_length_c 14.809291
_cell_angle_alpha 88.660568
_cell_angle_beta 135.456424
_cell_angle_gamma 110.145944
_cell_volume 544.987969
_symmetry_space_group_name_H-M "P -1"
_symmetry_group_IT_number 2
_symmetry_cell_setting 'triclinic'
loop_
_space_group_symop_operation_xyz
x,y,z
-x,-y,-z
loop_
_atom_site_type_symbol
_atom_site_label
_atom_site_fract_x
_atom_site_fract_y
_atom_site_fract_z
Si Si1 0.618937 0.331143 0.085093
Si Si2 0.182679 0.770906 0.635865
Si Si3 0.853194 0.752942 0.553540
Si Si4 0.483993 0.751021 0.697061
Si Si5 0.901292 0.172277 0.987534
Si Si6 0.322314 0.054320 0.378046
Si Si7 0.990817 0.517174 0.786736
O O1 0.703007 0.320613 0.228961
O O2 0.808688 0.481321 0.123764
O O3 0.500000 0.500000 0.000000
O O4 0.500000 0.000000 0.000000
O O5 0.341047 0.893220 0.639295
O O6 0.000000 0.500000 0.500000
O O7 0.069733 0.925664 0.623690
O O8 0.686517 0.576890 0.392742
O O9 0.895384 0.538915 0.641792
O O10 0.775760 0.885685 0.588636
O O11 0.671368 0.959266 0.854465
O O12 0.584625 0.731331 0.656401
O O13 0.956963 0.219463 0.122853
O O14 0.000000 0.500000 0.000000
O O15 0.000000 0.000000 0.000000
O O16 0.163279 0.770209 0.249648
O O17 0.500000 0.000000 0.500000
#
# Coordination Sequence:
#
# PCOD9042576 Si02
#       7
#     2   2   2   2   2   2   2
#     4  11  26  48  77 108 150 203 256 307 377 462
#     4   9  22  47  74 107 150 194 253 318 384 445
#     4  10  23  44  72  99 139 191 246 311 371 452
#     4  11  22  44  71 102 144 187 247 306 378 441
#     4  12  27  43  66 101 146 185 233 298 366 434
#     4  12  24  40  73 106 141 190 253 307 377 453
#     4  11  25  44  70 101 144 192 250 305 373 451
#
# _framework density 25.688642000000002
#
# number of rings (size 3 to 8) (size 9 to 14) (size 15 to 20)
#    0.000    1.143    2.857    2.143    6.000    1.143 
#    0.000    5.714    0.000    0.000    0.000    0.000 
#    0.000    0.000    0.000    0.000    0.000    0.000 
#
# Total GULP energy -78034.075859 kJ/mol
# GULP energy per Si atom -5573.862561 kJ/mol
# Density = 2.563017 g / cm^3
# Si number density = 25.688642 Si / 1000 Ang^3
#
#
#
# Elastic Constant Matrix: (Units=GPa)
#
#
# Indices 1 2 3 4 5 6 
#
# 1 185.5926 36.3245 65.4434 0.4738 30.6413 -41.4508
# 2 36.3245 107.6208 62.7528 -5.8377 12.5970 -20.4731
# 3 65.4434 62.7528 203.8768 26.7322 9.4615 -12.5348
# 4 0.4738 -5.8377 26.7322 27.7655 -1.4060 -8.1203
# 5 30.6413 12.5970 9.4615 -1.4060 63.1377 -2.1825
# 6 -41.4508 -20.4731 -12.5348 -8.1203 -2.1825 38.0041
#
#
#
# Elastic Compliance Matrix: (Units=1/GPa)
#
#
# Indices 1 2 3 4 5 6 
#
# 1 0.009477 0.001943 -0.003664 0.006921 -0.003889 0.011430
# 2 0.001943 0.015166 -0.006100 0.012038 -0.002416 0.010711
# 3 -0.003664 -0.006100 0.009043 -0.011847 0.001142 -0.006766
# 4 0.006921 0.012038 -0.011847 0.056174 -0.001973 0.022015
# 5 -0.003889 -0.002416 0.001142 -0.001973 0.017835 -0.004564
# 6 0.011430 0.010711 -0.006766 0.022015 -0.004564 0.046760
#
#
# Mechanical properties :
#
#
# Convention : Reuss Voigt Hill
#
# Bulk Modulus (GPa) = 55.41926 91.79239 73.60582
# Shear Modulus (GPa) = 28.39103 47.95276 38.17189
#
# Velocity S-wave (km/s) = 3.32806 4.32521 3.85898
# Velocity P-wave (km/s) = 6.03227 7.79445 6.96928
#
# Compressibility (1/GPa) = 0.01804427
#
# Stress axis : x y z
#
# Youngs Moduli (GPa) = 105.51615 65.93660 110.58291
#
# Poissons Ratio (x) = -0.12811 0.40522
# Poissons Ratio (y) = -0.20500 0.67450
# Poissons Ratio (z) = 0.38665 0.40218
#
# Static dielectric constant tensor:
#      x y z
#    x 3.402270 -2.320970 -3.115240 
#    y -2.320970 6.692280 5.931690 
#    z -3.115240 5.931690 9.809060 
# 
# From -- ./inp_files/564214.got.cif
#   From: 2010.05.17/outbox.cif.g08.bks.cpg/sg2_283_cif.got.tgz:564214.got - 2010.06.03 11:33:40.
