data_PCOD9042484
_publ_section_title
;
Structure prediction by ZEFSAII (Michael W. Deem and Ramdas Pophale) SiO2 
 PCOD9042484
Probable space group: P -1
;
_chemical_formula_sum "Si O2"
_cell_formula_units_Z 12
_cell_length_a 8.006362
_cell_length_b 5.110284
_cell_length_c 17.279477
_cell_angle_alpha 62.919492
_cell_angle_beta 133.741339
_cell_angle_gamma 107.394639
_cell_volume 454.640425
_symmetry_space_group_name_H-M "P -1"
_symmetry_group_IT_number 2
_symmetry_cell_setting 'triclinic'
loop_
_space_group_symop_operation_xyz
x,y,z
-x,-y,-z
loop_
_atom_site_type_symbol
_atom_site_label
_atom_site_fract_x
_atom_site_fract_y
_atom_site_fract_z
Si Si1 0.834408 0.245149 0.951770
Si Si2 0.857148 0.226465 0.515137
Si Si3 0.674814 0.056318 0.328207
Si Si4 0.094544 0.002481 0.282839
Si Si5 0.555703 0.182060 0.099973
Si Si6 0.682557 0.390996 0.719661
O O1 0.708838 0.392069 0.819530
O O2 0.633152 0.058742 0.953890
O O3 0.000000 0.500000 0.000000
O O4 0.000000 0.000000 0.000000
O O5 0.000000 0.500000 0.500000
O O6 0.665904 0.190002 0.393216
O O7 0.053881 0.962941 0.603879
O O8 0.814645 0.228154 0.592357
O O9 0.550574 0.191553 0.193016
O O10 0.569316 0.738133 0.354424
O O11 0.217539 0.297208 0.311285
O O12 0.818761 0.069935 0.183289
O O13 0.165101 0.862989 0.241851
O O14 0.500000 0.500000 0.000000
#
# Coordination Sequence:
#
# PCOD9042484 Si02
#       6
#     2   2   2   2   2   2
#     4  11  24  46  70  99 140 190 236 291 352 419
#     4  10  23  44  72 100 142 191 240 292 355 429
#     4   9  23  44  70 104 143 190 238 295 359 423
#     4  11  26  44  73 106 144 184 241 294 355 430
#     4  10  23  47  76 105 144 194 242 296 360 435
#     4  11  25  45  68 107 146 182 238 299 356 421
#
# _framework density 26.394487000000002
#
# number of rings (size 3 to 8) (size 9 to 14) (size 15 to 20)
#    0.000    1.667    0.000    2.000    9.333    2.667 
#    6.000    8.333    0.000    0.000    0.000    0.000 
#    0.000    0.000    0.000    0.000    0.000    0.000 
#
# Total GULP energy -67042.610035 kJ/mol
# GULP energy per Si atom -5586.884170 kJ/mol
# Density = 2.633441 g / cm^3
# Si number density = 26.394487 Si / 1000 Ang^3
#
#
#
# Elastic Constant Matrix: (Units=GPa)
#
#
# Indices 1 2 3 4 5 6 
#
# 1 131.9727 56.0780 41.0012 13.8969 21.5301 12.8615
# 2 56.0780 230.7055 78.9789 30.7446 -8.4932 24.4537
# 3 41.0012 78.9789 166.4288 15.9791 -7.5787 12.2009
# 4 13.8969 30.7446 15.9791 55.9456 3.3426 -7.5691
# 5 21.5301 -8.4932 -7.5787 3.3426 51.1676 -0.8574
# 6 12.8615 24.4537 12.2009 -7.5691 -0.8574 43.3944
#
#
#
# Elastic Compliance Matrix: (Units=1/GPa)
#
#
# Indices 1 2 3 4 5 6 
#
# 1 0.009825 -0.001684 -0.001602 -0.001023 -0.004614 -0.001782
# 2 -0.001684 0.006162 -0.001946 -0.002899 0.001584 -0.002901
# 3 -0.001602 -0.001946 0.007527 -0.000863 0.001511 -0.000665
# 4 -0.001023 -0.002899 -0.000863 0.020837 -0.001443 0.005785
# 5 -0.004614 0.001584 0.001511 -0.001443 0.022070 0.000234
# 6 -0.001782 -0.002901 -0.000665 0.005785 0.000234 0.026408
#
#
# Mechanical properties :
#
#
# Convention : Reuss Voigt Hill
#
# Bulk Modulus (GPa) = 76.63659 97.91369 87.27514
# Shear Modulus (GPa) = 46.44875 53.63810 50.04343
#
# Velocity S-wave (km/s) = 4.19954 4.51285 4.35901
# Velocity P-wave (km/s) = 7.25348 8.02068 7.64670
#
# Compressibility (1/GPa) = 0.01304860
#
# Stress axis : x y z
#
# Youngs Moduli (GPa) = 101.78166 162.27579 132.84822
#
# Poissons Ratio (x) = 0.27332 0.21289
# Poissons Ratio (y) = 0.17143 0.25856
# Poissons Ratio (z) = 0.16310 0.31583
#
# Static dielectric constant tensor:
#      x y z
#    x 2.304530 -0.077340 0.101770 
#    y -0.077340 2.213410 -0.113740 
#    z 0.101770 -0.113740 2.220720 
# 
# From -- ./inp_files/553317.got.cif
#   From: 2010.05.17/outbox.cif.g08.bks.cpg/sg2_277_cif.got.tgz:553317.got - 2010.06.03 11:33:40.
