data_PCOD9042806
_publ_section_title
;
Structure prediction by ZEFSAII (Michael W. Deem and Ramdas Pophale) SiO2 
 PCOD9042806
Probable space group: P -1
;
_chemical_formula_sum "Si O2"
_cell_formula_units_Z 16
_cell_length_a 8.966210
_cell_length_b 9.324561
_cell_length_c 14.896706
_cell_angle_alpha 137.890492
_cell_angle_beta 133.127962
_cell_angle_gamma 61.018754
_cell_volume 608.855691
_symmetry_space_group_name_H-M "P -1"
_symmetry_group_IT_number 2
_symmetry_cell_setting 'triclinic'
loop_
_space_group_symop_operation_xyz
x,y,z
-x,-y,-z
loop_
_atom_site_type_symbol
_atom_site_label
_atom_site_fract_x
_atom_site_fract_y
_atom_site_fract_z
Si Si1 0.583758 0.435175 0.321181
Si Si2 0.522540 0.946272 0.775744
Si Si3 0.601066 0.658535 0.983585
Si Si4 0.703898 0.897940 0.568694
Si Si5 0.006462 0.529752 0.196545
Si Si6 0.056974 0.943861 0.102754
Si Si7 0.158015 0.614764 0.762031
Si Si8 0.809944 0.032355 0.500096
O O1 0.524681 0.287703 0.311955
O O2 0.639093 0.676653 0.486327
O O3 0.785983 0.391745 0.323457
O O4 0.410484 0.393842 0.152075
O O5 0.752972 0.997536 0.859166
O O6 0.387497 0.991322 0.653852
O O7 0.437346 0.097012 0.890380
O O8 0.797148 0.584279 0.082630
O O9 0.376477 0.559614 0.872467
O O10 0.835814 0.058870 0.758047
O O11 0.500000 0.000000 0.500000
O O12 0.815504 0.862958 0.504219
O O13 0.993266 0.515063 0.293478
O O14 0.040073 0.287990 0.067760
O O15 0.163362 0.729013 0.336621
O O16 0.911835 0.142060 0.143689
O O17 0.000000 0.000000 0.500000
#
# Coordination Sequence:
#
# PCOD9042806 Si02
#       8
#     2   2   2   2   2   2   2   2
#     4  10  26  46  78 104 148 193 251 299 375 427
#     4  12  25  47  77 110 148 193 246 308 369 446
#     4  10  23  44  79 106 144 194 251 299 363 443
#     4  12  27  51  71 111 151 197 245 309 370 442
#     4  12  24  46  76 113 148 197 245 310 374 432
#     4  12  27  46  77 106 159 192 245 308 375 442
#     4  10  25  44  75 109 145 194 248 302 366 439
#     4  12  28  46  77 112 147 190 256 303 363 444
#
# _framework density 26.278803
#
# number of rings (size 3 to 8) (size 9 to 14) (size 15 to 20)
#    0.750    0.000    3.750    2.625    3.500    2.500 
#    0.000    0.000    0.000    0.000    0.000    0.000 
#    0.000    0.000    0.000    0.000    0.000    0.000 
#
# Total GULP energy -89425.436590 kJ/mol
# GULP energy per Si atom -5589.089787 kJ/mol
# Density = 2.621899 g / cm^3
# Si number density = 26.278803 Si / 1000 Ang^3
#
#
#
# Elastic Constant Matrix: (Units=GPa)
#
#
# Indices 1 2 3 4 5 6 
#
# 1 105.2515 19.5278 5.6721 6.1806 1.2173 6.1762
# 2 19.5278 69.3142 3.0240 13.7636 4.5304 7.2655
# 3 5.6721 3.0240 89.6749 9.2372 -6.9646 -3.0737
# 4 6.1806 13.7636 9.2372 51.6276 2.8615 2.8968
# 5 1.2173 4.5304 -6.9646 2.8615 29.1771 -0.8511
# 6 6.1762 7.2655 -3.0737 2.8968 -0.8511 54.9813
#
#
#
# Elastic Compliance Matrix: (Units=1/GPa)
#
#
# Indices 1 2 3 4 5 6 
#
# 1 0.010093 -0.002658 -0.000550 -0.000349 -0.000129 -0.000797
# 2 -0.002658 0.016250 -0.000217 -0.003761 -0.002145 -0.001696
# 3 -0.000550 -0.000217 0.011690 -0.002190 0.003088 0.000907
# 4 -0.000349 -0.003761 -0.002190 0.020957 -0.002001 -0.000721
# 5 -0.000129 -0.002145 0.003088 -0.002001 0.035578 0.001127
# 6 -0.000797 -0.001696 0.000907 -0.000721 0.001127 0.018608
#
#
# Mechanical properties :
#
#
# Convention : Reuss Voigt Hill
#
# Bulk Modulus (GPa) = 32.06952 35.63207 33.85079
# Shear Modulus (GPa) = 38.33751 42.89164 40.61458
#
# Velocity S-wave (km/s) = 3.82367 4.04440 3.93558
# Velocity P-wave (km/s) = 5.63240 5.94965 5.79320
#
# Compressibility (1/GPa) = 0.03118226
#
# Stress axis : x y z
#
# Youngs Moduli (GPa) = 99.08232 61.53777 85.54299
#
# Poissons Ratio (x) = 0.16357 0.04705
# Poissons Ratio (y) = 0.26337 0.01858
# Poissons Ratio (z) = 0.05450 0.01336
#
# Static dielectric constant tensor:
#      x y z
#    x 2.126790 -0.018690 -0.031030 
#    y -0.018690 2.066220 -0.013670 
#    z -0.031030 -0.013670 2.099690 
# 
# From -- ./inp_files/493982.got.cif
#   From: 2010.05.17/outbox.cif.g08.bks.cpg/sg2_247_cif.got.tgz:493982.got - 2010.06.03 11:33:40.
