data_PCOD9042472
_publ_section_title
;
Structure prediction by ZEFSAII (Michael W. Deem and Ramdas Pophale) SiO2 
 PCOD9042472
Probable space group: P -1
;
_chemical_formula_sum "Si O2"
_cell_formula_units_Z 13
_cell_length_a 8.805572
_cell_length_b 16.577413
_cell_length_c 10.425006
_cell_angle_alpha 41.616899
_cell_angle_beta 117.524041
_cell_angle_gamma 141.123398
_cell_volume 607.548305
_symmetry_space_group_name_H-M "P -1"
_symmetry_group_IT_number 2
_symmetry_cell_setting 'triclinic'
loop_
_space_group_symop_operation_xyz
x,y,z
-x,-y,-z
loop_
_atom_site_type_symbol
_atom_site_label
_atom_site_fract_x
_atom_site_fract_y
_atom_site_fract_z
Si Si1 0.278035 0.975243 0.976670
Si Si2 0.066727 0.078178 0.290253
Si Si3 0.167464 0.466753 0.101947
Si Si4 0.221867 0.900840 0.477255
Si Si5 0.500000 0.500000 0.000000
Si Si6 0.502215 0.323027 0.766889
Si Si7 0.907541 0.681723 0.374256
O O1 0.177546 0.002089 0.786667
O O2 0.390201 0.131298 0.935539
O O3 0.042184 0.778271 0.178140
O O4 0.500000 0.000000 0.000000
O O5 0.189074 0.028363 0.320990
O O6 0.259921 0.288565 0.126000
O O7 0.000000 0.000000 0.500000
O O8 0.370493 0.584396 0.156580
O O9 0.978655 0.259109 0.310873
O O10 0.309506 0.506166 0.981708
O O11 0.000000 0.500000 0.000000
O O12 0.127532 0.797852 0.427688
O O13 0.500000 0.000000 0.500000
O O14 0.721870 0.470314 0.573595
O O15 0.274238 0.298870 0.689071
#
# Coordination Sequence:
#
# PCOD9042472 Si02
#       7
#     2   2   2   2   1   2   2
#     4  12  28  44  72 104 144 188 238 294 357 432
#     4  12  27  47  69 105 145 187 237 297 362 430
#     4  11  25  44  72 108 144 188 245 300 365 435
#     4  11  24  44  71 103 141 188 241 300 360 433
#     4  12  26  44  72 104 148 190 238 298 364 422
#     4  10  23  46  71  98 136 183 242 296 351 422
#     4  10  23  44  71  99 132 185 238 291 355 418
#
# _framework density 21.397476000000001
#
# number of rings (size 3 to 8) (size 9 to 14) (size 15 to 20)
#    0.000    0.923    3.077    2.308    8.615    1.846 
#    0.000    0.000    0.000    0.000    0.000    0.000 
#    0.000    0.000    0.000    0.000    0.000    0.000 
#
# Total GULP energy -72430.293011 kJ/mol
# GULP energy per Si atom -5571.561001 kJ/mol
# Density = 2.134877 g / cm^3
# Si number density = 21.397476 Si / 1000 Ang^3
#
#
#
# Elastic Constant Matrix: (Units=GPa)
#
#
# Indices 1 2 3 4 5 6 
#
# 1 117.1719 34.1983 26.0954 5.8834 10.0336 14.7264
# 2 34.1983 98.3221 12.1480 -11.3363 9.9087 28.4160
# 3 26.0954 12.1480 52.0437 -0.2422 -7.3073 9.5873
# 4 5.8834 -11.3363 -0.2422 38.0256 -0.9780 14.3606
# 5 10.0336 9.9087 -7.3073 -0.9780 34.1559 -0.6508
# 6 14.7264 28.4160 9.5873 14.3606 -0.6508 33.0890
#
#
#
# Elastic Compliance Matrix: (Units=1/GPa)
#
#
# Indices 1 2 3 4 5 6 
#
# 1 0.011105 -0.003499 -0.005437 -0.003257 -0.003485 0.000983
# 2 -0.003499 0.019886 0.000621 0.014734 -0.004609 -0.022185
# 3 -0.005437 0.000621 0.023943 0.003834 0.006524 -0.006587
# 4 -0.003257 0.014734 0.003834 0.042860 -0.001860 -0.030952
# 5 -0.003485 -0.004609 0.006524 -0.001860 0.033077 0.005076
# 6 0.000983 -0.022185 -0.006587 -0.030952 0.005076 0.064278
#
#
# Mechanical properties :
#
#
# Convention : Reuss Voigt Hill
#
# Bulk Modulus (GPa) = 26.10695 45.82458 35.96576
# Shear Modulus (GPa) = 22.26697 34.06050 28.16374
#
# Velocity S-wave (km/s) = 3.22939 3.99407 3.63191
# Velocity P-wave (km/s) = 5.11201 6.53701 5.86793
#
# Compressibility (1/GPa) = 0.03830398
#
# Stress axis : x y z
#
# Youngs Moduli (GPa) = 90.04942 50.28661 41.76591
#
# Poissons Ratio (x) = 0.17596 0.22708
# Poissons Ratio (y) = 0.31510 -0.02594
# Poissons Ratio (z) = 0.48959 -0.03123
#
# Static dielectric constant tensor:
#      x y z
#    x 1.745270 0.013400 0.010130 
#    y 0.013400 1.709170 0.015890 
#    z 0.010130 0.015890 1.849480 
# 
# From -- ./inp_files/156541.got.cif
#   From: 2010.05.17/outbox.cif.g08.bks.cpg/sg2_79_cif.got.tgz:156541.got - 2010.06.03 11:33:40.
