data_PCOD9042055
_publ_section_title
;
Structure prediction by ZEFSAII (Michael W. Deem and Ramdas Pophale) SiO2 
 PCOD9042055
Probable space group: P -1
;
_chemical_formula_sum "Si O2"
_cell_formula_units_Z 16
_cell_length_a 18.467832
_cell_length_b 5.454437
_cell_length_c 24.045605
_cell_angle_alpha 70.807657
_cell_angle_beta 19.688999
_cell_angle_gamma 60.277097
_cell_volume 624.812229
_symmetry_space_group_name_H-M "P -1"
_symmetry_group_IT_number 2
_symmetry_cell_setting 'triclinic'
loop_
_space_group_symop_operation_xyz
x,y,z
-x,-y,-z
loop_
_atom_site_type_symbol
_atom_site_label
_atom_site_fract_x
_atom_site_fract_y
_atom_site_fract_z
Si Si1 0.000257 0.682923 0.432555
Si Si2 0.588411 0.203871 0.039081
Si Si3 0.456149 0.825520 0.794311
Si Si4 0.046598 0.984136 0.902867
Si Si5 0.606348 0.355322 0.517036
Si Si6 0.190567 0.690141 0.508189
Si Si7 0.713677 0.706223 0.329468
Si Si8 0.742931 0.687186 0.878690
O O1 0.704594 0.844408 0.610416
O O2 0.000000 0.500000 0.500000
O O3 0.284357 0.422722 0.219991
O O4 0.997540 0.994937 0.417184
O O5 0.566051 0.217629 0.121119
O O6 0.711580 0.399920 0.923755
O O7 0.727542 0.854729 0.936672
O O8 0.558420 0.543784 0.695182
O O9 0.153863 0.077052 0.975869
O O10 0.036655 0.283072 0.862397
O O11 0.348989 0.698956 0.695477
O O12 0.000000 0.000000 0.000000
O O13 0.762101 0.221162 0.471581
O O14 0.753885 0.403796 0.355967
O O15 0.458109 0.214797 0.608244
O O16 0.020262 0.560788 0.658446
O O17 0.500000 0.000000 0.500000
O O18 0.500000 0.000000 0.000000
#
# Coordination Sequence:
#
# PCOD9042055 Si02
#       8
#     2   2   2   2   2   2   2   2
#     4  10  25  45  70 102 146 186 239 303 379 443
#     4  11  27  49  76 108 151 198 248 315 378 458
#     4  11  27  45  71 104 145 197 244 300 378 452
#     4  11  23  44  67 101 145 185 242 297 361 436
#     4  10  23  44  69 101 136 191 238 303 364 434
#     4  12  26  42  75 104 143 190 251 304 377 452
#     4   9  22  42  66  93 139 182 234 299 365 420
#     4  12  26  48  76 111 149 193 251 316 380 443
#
# _framework density 25.607690999999999
#
# number of rings (size 3 to 8) (size 9 to 14) (size 15 to 20)
#    0.000    1.250    2.500    1.125    8.750    5.500 
#    0.000    0.000    0.000    0.000    0.000    0.000 
#    0.000    0.000    0.000    0.000    0.000    0.000 
#
# Total GULP energy -89285.841307 kJ/mol
# GULP energy per Si atom -5580.365082 kJ/mol
# Density = 2.554941 g / cm^3
# Si number density = 25.607691 Si / 1000 Ang^3
#
#
#
# Elastic Constant Matrix: (Units=GPa)
#
#
# Indices 1 2 3 4 5 6 
#
# 1 134.6376 25.2998 29.7525 -24.3343 10.2165 4.4123
# 2 25.2998 74.9788 34.2011 -23.7175 11.1531 9.1977
# 3 29.7525 34.2011 127.0682 -32.6502 15.1137 -7.9093
# 4 -24.3343 -23.7175 -32.6502 33.9448 9.2688 1.7089
# 5 10.2165 11.1531 15.1137 9.2688 48.7290 3.5868
# 6 4.4123 9.1977 -7.9093 1.7089 3.5868 31.1383
#
#
#
# Elastic Compliance Matrix: (Units=1/GPa)
#
#
# Indices 1 2 3 4 5 6 
#
# 1 0.009062 -0.000110 0.000148 0.007514 -0.003258 -0.001251
# 2 -0.000110 0.020545 -0.001159 0.015330 -0.006764 -0.006410
# 3 0.000148 -0.001159 0.012391 0.012757 -0.006293 0.003493
# 4 0.007514 0.015330 0.012757 0.063710 -0.020906 -0.003441
# 5 -0.003258 -0.006764 -0.006293 -0.020906 0.028777 -0.001306
# 6 -0.001251 -0.006410 0.003493 -0.003441 -0.001306 0.035412
#
#
# Mechanical properties :
#
#
# Convention : Reuss Voigt Hill
#
# Bulk Modulus (GPa) = 25.15415 57.24350 41.19882
# Shear Modulus (GPa) = 26.97009 39.25784 33.11397
#
# Velocity S-wave (km/s) = 3.24883 3.91966 3.59991
# Velocity P-wave (km/s) = 4.89054 6.54886 5.77949
#
# Compressibility (1/GPa) = 0.03975488
#
# Stress axis : x y z
#
# Youngs Moduli (GPa) = 110.35565 48.67410 80.70437
#
# Poissons Ratio (x) = 0.00537 -0.01198
# Poissons Ratio (y) = 0.01218 0.09356
# Poissons Ratio (z) = -0.01638 0.05643
#
# Static dielectric constant tensor:
#      x y z
#    x 2.079570 0.048840 -0.044940 
#    y 0.048840 2.201010 -0.016450 
#    z -0.044940 -0.016450 2.036100 
# 
# From -- ./inp_files/612636.got.cif
#   From: 2010.05.17/outbox.cif.g08.bks.cpg/sg2_307_cif.got.tgz:612636.got - 2010.06.03 11:33:40.
