data_PCOD9042132
_publ_section_title
;
Structure prediction by ZEFSAII (Michael W. Deem and Ramdas Pophale) SiO2 
 PCOD9042132
Probable space group: P -1
;
_chemical_formula_sum "Si O2"
_cell_formula_units_Z 16
_cell_length_a 8.702950
_cell_length_b 18.109782
_cell_length_c 12.292947
_cell_angle_alpha 40.031536
_cell_angle_beta 75.952387
_cell_angle_gamma 45.378458
_cell_volume 678.122549
_symmetry_space_group_name_H-M "P -1"
_symmetry_group_IT_number 2
_symmetry_cell_setting 'triclinic'
loop_
_space_group_symop_operation_xyz
x,y,z
-x,-y,-z
loop_
_atom_site_type_symbol
_atom_site_label
_atom_site_fract_x
_atom_site_fract_y
_atom_site_fract_z
Si Si1 0.220116 0.035699 0.883855
Si Si2 0.452029 0.708754 0.823732
Si Si3 0.138350 0.665196 0.990839
Si Si4 0.330374 0.335573 0.616066
Si Si5 0.174117 0.313958 0.473328
Si Si6 0.280629 0.618875 0.265874
Si Si7 0.572114 0.667823 0.093625
Si Si8 0.597416 0.024397 0.549353
O O1 0.470224 0.861713 0.122809
O O2 0.305501 0.902146 0.918785
O O3 0.198404 0.177949 0.683941
O O4 0.938293 0.188892 0.831324
O O5 0.249678 0.725195 0.871804
O O6 0.295488 0.918241 0.578756
O O7 0.654898 0.542807 0.878638
O O8 0.605424 0.648995 0.979093
O O9 0.144083 0.660834 0.126210
O O10 0.826908 0.834661 0.805523
O O11 0.369865 0.282704 0.542557
O O12 0.380305 0.440529 0.505017
O O13 0.000000 0.500000 0.500000
O O14 0.310158 0.219886 0.440425
O O15 0.850851 0.541767 0.251104
O O16 0.516974 0.568813 0.249269
O O17 0.500000 0.000000 0.500000
#
# Coordination Sequence:
#
# PCOD9042132 Si02
#       8
#     2   2   2   2   2   2   2   2
#     4  12  24  42  66  94 134 168 216 261 322 380
#     4  10  23  45  68  92 129 169 215 268 315 381
#     4  10  23  44  69  94 126 170 217 264 318 379
#     4  12  24  42  65  93 127 170 211 263 314 381
#     4  12  26  42  66  95 133 171 212 269 318 384
#     4  11  25  43  68  95 128 171 218 264 318 384
#     4  11  25  44  65  96 130 170 215 265 325 378
#     4  12  25  40  66 100 129 169 212 265 325 380
#
# _framework density 23.594557999999999
#
# number of rings (size 3 to 8) (size 9 to 14) (size 15 to 20)
#    0.000    0.750    2.500    4.125    1.750    7.000 
#    0.000    6.250    0.000    0.000    0.000    0.000 
#    0.000    0.000    0.000    0.000    0.000    0.000 
#
# Total GULP energy -89502.334623 kJ/mol
# GULP energy per Si atom -5593.895914 kJ/mol
# Density = 2.354086 g / cm^3
# Si number density = 23.594558 Si / 1000 Ang^3
#
#
#
# Elastic Constant Matrix: (Units=GPa)
#
#
# Indices 1 2 3 4 5 6 
#
# 1 37.6075 13.8998 26.5558 -2.8841 7.4209 19.3216
# 2 13.8998 108.7400 12.2286 8.9134 1.5400 24.5493
# 3 26.5558 12.2286 96.5233 9.0012 0.0986 7.8217
# 4 -2.8841 8.9134 9.0012 27.7944 8.3678 2.7951
# 5 7.4209 1.5400 0.0986 8.3678 41.5706 6.7182
# 6 19.3216 24.5493 7.8217 2.7951 6.7182 40.3525
#
#
#
# Elastic Compliance Matrix: (Units=1/GPa)
#
#
# Indices 1 2 3 4 5 6 
#
# 1 0.049298 -0.001414 -0.013108 0.014334 -0.008403 -0.019798
# 2 -0.001414 0.011016 -0.000199 -0.003467 0.001512 -0.005998
# 3 -0.013108 -0.000199 0.014377 -0.007275 0.003199 0.003582
# 4 0.014334 -0.003467 -0.007275 0.044606 -0.010638 -0.004663
# 5 -0.008403 0.001512 0.003199 -0.010638 0.027863 -0.001418
# 6 -0.019798 -0.005998 0.003582 -0.004663 -0.001418 0.037775
#
#
# Mechanical properties :
#
#
# Convention : Reuss Voigt Hill
#
# Bulk Modulus (GPa) = 22.09961 38.69325 30.39643
# Shear Modulus (GPa) = 21.79055 34.62260 28.20658
#
# Velocity S-wave (km/s) = 3.04228 3.83482 3.46131
# Velocity P-wave (km/s) = 4.66126 6.00355 5.37447
#
# Compressibility (1/GPa) = 0.04524967
#
# Stress axis : x y z
#
# Youngs Moduli (GPa) = 20.28499 90.77502 69.55781
#
# Poissons Ratio (x) = 0.12834 0.91174
# Poissons Ratio (y) = 0.02868 0.01383
# Poissons Ratio (z) = 0.26589 0.01805
#
# Static dielectric constant tensor:
#      x y z
#    x 1.936090 0.037490 -0.042100 
#    y 0.037490 1.943030 0.020250 
#    z -0.042100 0.020250 1.893430 
# 
# From -- ./inp_files/288874.got.cif
#   From: 2010.05.17/outbox.cif.g08.bks.cpg/sg2_145_cif.got.tgz:288874.got - 2010.06.03 11:33:40.
