data_PCOD9042364
_publ_section_title
;
Structure prediction by ZEFSAII (Michael W. Deem and Ramdas Pophale) SiO2 
 PCOD9042364
Probable space group: P -1
;
_chemical_formula_sum "Si O2"
_cell_formula_units_Z 12
_cell_length_a 9.111948
_cell_length_b 9.326316
_cell_length_c 9.326211
_cell_angle_alpha 44.533329
_cell_angle_beta 78.069120
_cell_angle_gamma 101.932275
_cell_volume 465.808913
_symmetry_space_group_name_H-M "P -1"
_symmetry_group_IT_number 2
_symmetry_cell_setting 'triclinic'
loop_
_space_group_symop_operation_xyz
x,y,z
-x,-y,-z
loop_
_atom_site_type_symbol
_atom_site_label
_atom_site_fract_x
_atom_site_fract_y
_atom_site_fract_z
Si Si1 0.009758 0.364370 0.801501
Si Si2 0.107548 0.294856 0.533208
Si Si3 0.509753 0.698497 0.135638
Si Si4 0.607554 0.966801 0.205138
Si Si5 0.500000 0.000000 0.500000
Si Si6 0.000000 0.000000 0.500000
Si Si7 0.749992 0.542727 0.042728
O O1 0.009390 0.594896 0.575077
O O2 0.076128 0.266329 0.729935
O O3 0.129342 0.446372 0.858448
O O4 0.810785 0.165859 0.015863
O O5 0.310780 0.484135 0.334153
O O6 0.042149 0.058739 0.621924
O O7 0.576132 0.770072 0.233671
O O8 0.629330 0.641547 0.053638
O O9 0.509381 0.924917 0.905115
O O10 0.542160 0.878089 0.441253
O O11 0.633875 0.267400 0.216102
O O12 0.866109 0.716107 0.767397
#
# Coordination Sequence:
#
# PCOD9042364 Si02
#       7
#     2   2   2   2   1   1   2
#     4  10  23  46  71 101 142 193 236 283 354 435
#     4  10  23  44  71 100 141 188 236 289 354 423
#     4  10  23  46  71 101 142 193 236 283 354 435
#     4  10  23  44  71 100 141 188 236 289 354 423
#     4  12  28  46  72 108 144 184 238 302 356 412
#     4  12  28  46  72 108 144 184 238 302 356 412
#     4  12  28  46  72 106 146 188 238 294 356 422
#
# _framework density 25.761635999999999
#
# number of rings (size 3 to 8) (size 9 to 14) (size 15 to 20)
#    0.000    1.333    0.000    4.000    0.000   18.667 
#    0.000    0.000    0.000    0.000    0.000    0.000 
#    0.000    0.000    0.000    0.000    0.000    0.000 
#
# Total GULP energy -66857.439502 kJ/mol
# GULP energy per Si atom -5571.453292 kJ/mol
# Density = 2.570300 g / cm^3
# Si number density = 25.761636 Si / 1000 Ang^3
#
#
#
# Elastic Constant Matrix: (Units=GPa)
#
#
# Indices 1 2 3 4 5 6 
#
# 1 97.2955 5.3844 11.8454 -1.8207 15.7649 -2.4721
# 2 5.3844 126.5714 15.2568 8.8381 -0.7994 -5.3666
# 3 11.8454 15.2568 132.5897 -10.5443 4.8977 -0.5006
# 4 -1.8207 8.8381 -10.5443 51.9236 -2.3788 1.2123
# 5 15.7649 -0.7994 4.8977 -2.3788 24.3534 -1.7638
# 6 -2.4721 -5.3666 -0.5006 1.2123 -1.7638 17.6556
#
#
#
# Elastic Compliance Matrix: (Units=1/GPa)
#
#
# Indices 1 2 3 4 5 6 
#
# 1 0.011593 -0.000420 -0.000716 -0.000020 -0.007323 0.000745
# 2 -0.000420 0.008280 -0.001067 -0.001666 0.000785 0.002620
# 3 -0.000716 -0.001067 0.007902 0.001724 -0.001023 -0.000421
# 4 -0.000020 -0.001666 0.001724 0.019998 0.001443 -0.001689
# 5 -0.007323 0.000785 -0.001023 0.001443 0.046444 0.003725
# 6 0.000745 0.002620 -0.000421 -0.001689 0.003725 0.058016
#
#
# Mechanical properties :
#
#
# Convention : Reuss Voigt Hill
#
# Bulk Modulus (GPa) = 42.79030 46.82550 44.80790
# Shear Modulus (GPa) = 30.40836 40.38453 35.39645
#
# Velocity S-wave (km/s) = 3.43938 3.96362 3.71077
# Velocity P-wave (km/s) = 5.69374 6.25803 5.98254
#
# Compressibility (1/GPa) = 0.02336978
#
# Stress axis : x y z
#
# Youngs Moduli (GPa) = 86.25578 120.77983 126.54917
#
# Poissons Ratio (x) = 0.05075 0.09057
# Poissons Ratio (y) = 0.03624 0.13500
# Poissons Ratio (z) = 0.06173 0.12884
#
# Static dielectric constant tensor:
#      x y z
#    x 2.059880 -0.012360 0.054660 
#    y -0.012360 1.938480 -0.016150 
#    z 0.054660 -0.016150 1.988940 
# 
# From -- ./inp_files/152684.got.cif
#   From: 2010.05.17/outbox.cif.g08.bks.cpg/sg2_77_cif.got.tgz:152684.got - 2010.06.03 11:33:40.
