data_PCOD9042425
_publ_section_title
;
Structure prediction by ZEFSAII (Michael W. Deem and Ramdas Pophale) SiO2 
 PCOD9042425
Probable space group: P -1
;
_chemical_formula_sum "Si O2"
_cell_formula_units_Z 16
_cell_length_a 12.958168
_cell_length_b 21.481886
_cell_length_c 17.762149
_cell_angle_alpha 161.097407
_cell_angle_beta 143.204924
_cell_angle_gamma 27.307016
_cell_volume 707.910162
_symmetry_space_group_name_H-M "P -1"
_symmetry_group_IT_number 2
_symmetry_cell_setting 'triclinic'
loop_
_space_group_symop_operation_xyz
x,y,z
-x,-y,-z
loop_
_atom_site_type_symbol
_atom_site_label
_atom_site_fract_x
_atom_site_fract_y
_atom_site_fract_z
Si Si1 0.746419 0.447668 0.308789
Si Si2 0.902521 0.760605 0.457519
Si Si3 0.237860 0.128865 0.165046
Si Si4 0.956982 0.074811 0.404952
Si Si5 0.222107 0.190764 0.055863
Si Si6 0.511199 0.058687 0.680965
Si Si7 0.468781 0.368040 0.150073
Si Si8 0.485221 0.641186 0.227996
O O1 0.675021 0.723860 0.594711
O O2 0.651169 0.392855 0.258443
O O3 0.629760 0.466147 0.184045
O O4 0.024724 0.238030 0.221048
O O5 0.718485 0.776784 0.317470
O O6 0.001655 0.855912 0.572992
O O7 0.099010 0.471804 0.272950
O O8 0.737526 0.961300 0.657279
O O9 0.145631 0.214159 0.124159
O O10 0.434427 0.819799 0.936294
O O11 0.778520 0.346567 0.654652
O O12 0.214556 0.862488 0.346562
O O13 0.851658 0.943030 0.185247
O O14 0.500000 0.000000 0.000000
O O15 0.564571 0.796017 0.430064
O O16 0.460831 0.217398 0.906922
O O17 0.500000 0.500000 0.000000
#
# Coordination Sequence:
#
# PCOD9042425 Si02
#       8
#     2   2   2   2   2   2   2   2
#     4  11  25  43  69 102 139 184 231 283 344 412
#     4  10  24  44  72 101 134 180 234 283 345 405
#     4  11  25  46  67  99 142 186 231 282 339 415
#     4  11  27  45  70 105 139 182 229 290 348 411
#     4  12  26  46  71  98 139 184 234 283 343 416
#     4  10  23  44  71 106 139 175 230 290 345 411
#     4  12  26  44  67 106 142 183 225 286 356 407
#     4  11  23  45  74 104 137 180 241 287 340 407
#
# _framework density 22.601737
#
# number of rings (size 3 to 8) (size 9 to 14) (size 15 to 20)
#    0.000    1.000    1.250    4.125   10.500    5.500 
#    2.250    0.000    0.000    0.000    0.000    0.000 
#    0.000    0.000    0.000    0.000    0.000    0.000 
#
# Total GULP energy -89631.483213 kJ/mol
# GULP energy per Si atom -5601.967701 kJ/mol
# Density = 2.255029 g / cm^3
# Si number density = 22.601737 Si / 1000 Ang^3
#
#
#
# Elastic Constant Matrix: (Units=GPa)
#
#
# Indices 1 2 3 4 5 6 
#
# 1 48.4701 -1.1123 14.3412 -2.3391 7.4834 -13.2931
# 2 -1.1123 61.0215 27.4969 19.6687 16.7633 4.1624
# 3 14.3412 27.4969 107.0355 -1.7510 8.9619 -6.0101
# 4 -2.3391 19.6687 -1.7510 25.1693 2.0490 -1.0728
# 5 7.4834 16.7633 8.9619 2.0490 27.7426 -0.1471
# 6 -13.2931 4.1624 -6.0101 -1.0728 -0.1471 37.5783
#
#
#
# Elastic Compliance Matrix: (Units=1/GPa)
#
#
# Indices 1 2 3 4 5 6 
#
# 1 0.025025 0.003244 -0.003083 0.000544 -0.007712 0.007985
# 2 0.003244 0.032967 -0.008201 -0.024897 -0.016331 -0.004590
# 3 -0.003083 -0.008201 0.011966 0.006922 0.001421 0.001935
# 4 0.000544 -0.024897 0.006922 0.059289 0.008313 0.005782
# 5 -0.007712 -0.016331 0.001421 0.008313 0.046920 -0.000271
# 6 0.007985 -0.004590 0.001935 0.005782 -0.000271 0.030418
#
#
# Mechanical properties :
#
#
# Convention : Reuss Voigt Hill
#
# Bulk Modulus (GPa) = 18.56100 33.10873 25.83486
# Shear Modulus (GPa) = 20.77932 29.81812 25.29872
#
# Velocity S-wave (km/s) = 3.03540 3.63614 3.34926
# Velocity P-wave (km/s) = 4.52934 5.68412 5.13927
#
# Compressibility (1/GPa) = 0.05387640
#
# Stress axis : x y z
#
# Youngs Moduli (GPa) = 39.95994 30.33345 83.57307
#
# Poissons Ratio (x) = -0.09841 0.25769
# Poissons Ratio (y) = -0.12964 0.68541
# Poissons Ratio (z) = 0.12321 0.24877
#
# Static dielectric constant tensor:
#      x y z
#    x 1.856630 0.013930 0.006650 
#    y 0.013930 1.821010 -0.001960 
#    z 0.006650 -0.001960 1.821990 
# 
# From -- ./inp_files/570805.got.cif
#   From: 2010.05.17/outbox.cif.g08.bks.cpg/sg2_286_cif.got.tgz:570805.got - 2010.06.03 11:33:40.
