data_PCOD9042122
_publ_section_title
;
Structure prediction by ZEFSAII (Michael W. Deem and Ramdas Pophale) SiO2 
 PCOD9042122
Probable space group: P -1
;
_chemical_formula_sum "Si O2"
_cell_formula_units_Z 14
_cell_length_a 16.296110
_cell_length_b 18.207204
_cell_length_c 21.602265
_cell_angle_alpha 159.409026
_cell_angle_beta 13.135567
_cell_angle_gamma 153.285070
_cell_volume 498.568630
_symmetry_space_group_name_H-M "P -1"
_symmetry_group_IT_number 2
_symmetry_cell_setting 'triclinic'
loop_
_space_group_symop_operation_xyz
x,y,z
-x,-y,-z
loop_
_atom_site_type_symbol
_atom_site_label
_atom_site_fract_x
_atom_site_fract_y
_atom_site_fract_z
Si Si1 0.018300 0.432434 0.503547
Si Si2 0.928239 0.439243 0.238421
Si Si3 0.321929 0.197228 0.864451
Si Si4 0.825435 0.436054 0.970789
Si Si5 0.551864 0.147806 0.021102
Si Si6 0.650008 0.017903 0.089272
Si Si7 0.493065 0.101043 0.398507
O O1 0.427190 0.430698 0.228016
O O2 0.000000 0.500000 0.500000
O O3 0.747166 0.609164 0.882365
O O4 0.985617 0.185925 0.338803
O O5 0.292542 0.304989 0.901760
O O6 0.739577 0.628092 0.572460
O O7 0.708916 0.255731 0.240459
O O8 0.944083 0.556451 0.254235
O O9 0.918133 0.126845 0.103505
O O10 0.556545 0.002513 0.580541
O O11 0.891670 0.248115 0.824677
O O12 0.779909 0.665997 0.217676
O O13 0.500000 0.000000 0.000000
O O14 0.490680 0.014011 0.900517
O O15 0.453703 0.973657 0.263755
#
# Coordination Sequence:
#
# PCOD9042122 Si02
#       7
#     2   2   2   2   2   2   2
#     4  10  17  33  58  86 122 169 203 235 290 353
#     4  11  22  41  61  91 126 155 202 253 299 359
#     4   9  16  30  56  83 123 159 194 234 284 348
#     4  10  22  40  60  88 127 161 197 255 299 350
#     4  11  24  45  67  86 115 157 203 259 317 361
#     4  10  19  38  63  86 117 161 200 250 301 358
#     4   9  16  32  57  86 117 165 194 227 292 358
#
# _framework density 28.080386000000001
#
# number of rings (size 3 to 8) (size 9 to 14) (size 15 to 20)
#    0.000    2.000    7.143    0.000    2.000    1.714 
#    5.143    1.429    0.000    0.000    0.000    0.000 
#    0.000    0.000    0.000    0.000    0.000    0.000 
#
# Total GULP energy -78206.875476 kJ/mol
# GULP energy per Si atom -5586.205391 kJ/mol
# Density = 2.801647 g / cm^3
# Si number density = 28.080386 Si / 1000 Ang^3
#
#
#
# Elastic Constant Matrix: (Units=GPa)
#
#
# Indices 1 2 3 4 5 6 
#
# 1 180.8740 69.1694 71.4837 0.8915 39.8793 -52.2323
# 2 69.1694 148.7760 25.2814 23.6719 3.7351 -55.1042
# 3 71.4837 25.2814 61.4161 67.7992 23.7168 -0.8052
# 4 0.8915 23.6719 67.7992 7.0698 1.5864 -4.9293
# 5 39.8793 3.7351 23.7168 1.5864 53.8129 2.2879
# 6 -52.2323 -55.1042 -0.8052 -4.9293 2.2879 59.4439
#
#
#
# Elastic Compliance Matrix: (Units=1/GPa)
#
#
# Indices 1 2 3 4 5 6 
#
# 1 0.008694 -0.000259 0.001471 -0.007821 -0.007143 0.007046
# 2 -0.000259 0.011268 -0.003088 -0.001143 0.000377 0.010066
# 3 0.001471 -0.003088 -0.000520 0.015197 -0.001083 -0.000276
# 4 -0.007821 -0.001143 0.015197 -0.005076 -0.000327 -0.008134
# 5 -0.007143 0.000377 -0.001083 -0.000327 0.024631 -0.006917
# 6 0.007046 0.010066 -0.000276 -0.008134 -0.006917 0.031933
#
#
# Mechanical properties :
#
#
# Convention : Reuss Voigt Hill
#
# Bulk Modulus (GPa) = 63.73842 80.32613 72.03228
# Shear Modulus (GPa) = 62.56942 39.07408 50.82175
#
# Velocity S-wave (km/s) = 4.72553 3.73434 4.25887
# Velocity P-wave (km/s) = 7.24721 6.87471 7.06341
#
# Compressibility (1/GPa) = 0.01568912
#
# Stress axis : x y z
#
# Youngs Moduli (GPa) = 115.01631 88.75077 -1921.44254
#
# Poissons Ratio (x) = 0.02297 2.82634
# Poissons Ratio (y) = 0.02976 -5.93408
# Poissons Ratio (z) = -0.16918 0.27409
#
# Static dielectric constant tensor:
#      x y z
#    x 2.212630 0.098880 -0.164250 
#    y 0.098880 2.367470 -0.121000 
#    z -0.164250 -0.121000 2.284650 
# 
# From -- ./inp_files/533197.got.cif
#   From: 2010.05.17/outbox.cif.g08.bks.cpg/sg2_267_cif.got.tgz:533197.got - 2010.06.03 11:33:40.
