data_PCOD9042845
_publ_section_title
;
Structure prediction by ZEFSAII (Michael W. Deem and Ramdas Pophale) SiO2 
 PCOD9042845
Probable space group: P -1
;
_chemical_formula_sum "Si O2"
_cell_formula_units_Z 16
_cell_length_a 14.595522
_cell_length_b 10.866222
_cell_length_c 5.357611
_cell_angle_alpha 82.334061
_cell_angle_beta 101.114177
_cell_angle_gamma 55.568659
_cell_volume 656.131765
_symmetry_space_group_name_H-M "P -1"
_symmetry_group_IT_number 2
_symmetry_cell_setting 'triclinic'
loop_
_space_group_symop_operation_xyz
x,y,z
-x,-y,-z
loop_
_atom_site_type_symbol
_atom_site_label
_atom_site_fract_x
_atom_site_fract_y
_atom_site_fract_z
Si Si1 0.898336 0.662627 0.778063
Si Si2 0.263022 0.374777 0.640440
Si Si3 0.179374 0.870441 0.591511
Si Si4 0.662660 0.880209 0.857798
Si Si5 0.475598 0.213042 0.514042
Si Si6 0.913063 0.953865 0.001501
Si Si7 0.555513 0.396852 0.303370
Si Si8 0.055734 0.712770 0.520253
O O1 0.825730 0.620563 0.593868
O O2 0.795792 0.799848 0.863729
O O3 0.959239 0.714747 0.621680
O O4 0.000000 0.500000 0.000000
O O5 0.372585 0.357302 0.584471
O O6 0.175828 0.540501 0.681253
O O7 0.321757 0.214056 0.863343
O O8 0.171038 0.948705 0.830732
O O9 0.304532 0.710450 0.629643
O O10 0.088297 0.827903 0.575986
O O11 0.152564 0.983312 0.314175
O O12 0.595288 0.839800 0.647384
O O13 0.580910 0.066841 0.767071
O O14 0.525377 0.274376 0.337427
O O15 0.000674 0.773347 0.194521
O O16 0.000000 0.000000 0.000000
O O17 0.500000 0.500000 0.500000
O O18 0.500000 0.500000 0.000000
#
# Coordination Sequence:
#
# PCOD9042845 Si02
#       8
#     2   2   2   2   2   2   2   2
#     4  11  24  39  63 103 137 172 227 283 352 431
#     4  11  23  43  66 101 131 181 232 291 357 422
#     4  11  25  46  68 102 142 187 234 289 355 427
#     4  10  23  46  69  99 136 183 238 293 359 423
#     4  10  25  45  72  98 136 185 241 300 354 423
#     4  10  23  45  65 100 137 182 236 278 348 431
#     4  12  28  48  74 109 142 188 249 300 361 428
#     4  11  23  39  68  95 138 181 219 287 354 425
#
# _framework density 24.385344
#
# number of rings (size 3 to 8) (size 9 to 14) (size 15 to 20)
#    0.000    1.250    1.250    3.750    5.250    5.000 
#    0.000    0.000    0.000    0.000    0.000    0.000 
#    0.000    0.000    0.000    0.000    0.000    0.000 
#
# Total GULP energy -89445.903504 kJ/mol
# GULP energy per Si atom -5590.368969 kJ/mol
# Density = 2.432984 g / cm^3
# Si number density = 24.385344 Si / 1000 Ang^3
#
#
#
# Elastic Constant Matrix: (Units=GPa)
#
#
# Indices 1 2 3 4 5 6 
#
# 1 132.3294 33.2819 36.4545 -19.2440 -25.0727 -19.6165
# 2 33.2819 112.9218 45.9531 -14.8410 2.6927 -16.9142
# 3 36.4545 45.9531 172.6312 -30.3765 -13.4667 -9.8220
# 4 -19.2440 -14.8410 -30.3765 45.4467 -5.4257 -5.4618
# 5 -25.0727 2.6927 -13.4667 -5.4257 36.7040 -8.2940
# 6 -19.6165 -16.9142 -9.8220 -5.4618 -8.2940 35.0614
#
#
#
# Elastic Compliance Matrix: (Units=1/GPa)
#
#
# Indices 1 2 3 4 5 6 
#
# 1 0.013166 -0.001744 0.000849 0.008499 0.013224 0.011215
# 2 -0.001744 0.011064 -0.002232 0.001599 -0.001780 0.003564
# 3 0.000849 -0.002232 0.007906 0.006020 0.005399 0.003828
# 4 0.008499 0.001599 0.006020 0.034117 0.016662 0.016469
# 5 0.013224 -0.001780 0.005399 0.016662 0.045702 0.021459
# 6 0.011215 0.003564 0.003828 0.016469 0.021459 0.045230
#
#
# Mechanical properties :
#
#
# Convention : Reuss Voigt Hill
#
# Bulk Modulus (GPa) = 38.63652 72.14017 55.38834
# Shear Modulus (GPa) = 29.05867 43.58861 36.32364
#
# Velocity S-wave (km/s) = 3.45577 4.23246 3.86368
# Velocity P-wave (km/s) = 5.63929 7.31660 6.53201
#
# Compressibility (1/GPa) = 0.02588225
#
# Stress axis : x y z
#
# Youngs Moduli (GPa) = 75.95490 90.37933 126.49181
#
# Poissons Ratio (x) = 0.15767 -0.10744
# Poissons Ratio (y) = 0.13250 0.28229
# Poissons Ratio (z) = -0.06452 0.20170
#
# Static dielectric constant tensor:
#      x y z
#    x 1.944040 0.019520 0.033270 
#    y 0.019520 2.086730 0.059460 
#    z 0.033270 0.059460 1.970360 
# 
# From -- ./inp_files/94614.got.cif
#   From: 2010.05.17/outbox.cif.g08.bks.cpg/sg2_48_cif.got.tgz:94614.got - 2010.06.03 11:33:40.
