data_PCOD9042443
_publ_section_title
;
Structure prediction by ZEFSAII (Michael W. Deem and Ramdas Pophale) SiO2 
 PCOD9042443
Probable space group: P -1
;
_chemical_formula_sum "Si O2"
_cell_formula_units_Z 16
_cell_length_a 9.424979
_cell_length_b 11.368183
_cell_length_c 14.659680
_cell_angle_alpha 45.950293
_cell_angle_beta 40.768128
_cell_angle_gamma 68.677249
_cell_volume 691.326877
_symmetry_space_group_name_H-M "P -1"
_symmetry_group_IT_number 2
_symmetry_cell_setting 'triclinic'
loop_
_space_group_symop_operation_xyz
x,y,z
-x,-y,-z
loop_
_atom_site_type_symbol
_atom_site_label
_atom_site_fract_x
_atom_site_fract_y
_atom_site_fract_z
Si Si1 0.533283 0.731367 0.563756
Si Si2 0.056547 0.686557 0.821237
Si Si3 0.126542 0.940664 0.888740
Si Si4 0.634011 0.191483 0.861972
Si Si5 0.434220 0.739663 0.930970
Si Si6 0.302006 0.337851 0.857589
Si Si7 0.128392 0.342153 0.266483
Si Si8 0.925111 0.651170 0.504641
O O1 0.319302 0.789233 0.669318
O O2 0.393542 0.546391 0.679533
O O3 0.671044 0.659407 0.610368
O O4 0.722172 0.888709 0.334825
O O5 0.043625 0.697764 0.713068
O O6 0.000000 0.500000 0.000000
O O7 0.831448 0.722224 0.947953
O O8 0.319255 0.864946 0.872473
O O9 0.909337 0.781435 0.037430
O O10 0.000000 0.000000 0.000000
O O11 0.537035 0.297359 0.778500
O O12 0.894333 0.193953 0.721738
O O13 0.602005 0.249722 0.948194
O O14 0.500000 0.000000 0.000000
O O15 0.701139 0.769479 0.763128
O O16 0.289583 0.545322 0.070931
O O17 0.020416 0.329267 0.425975
O O18 0.000000 0.500000 0.500000
#
# Coordination Sequence:
#
# PCOD9042443 Si02
#       8
#     2   2   2   2   2   2   2   2
#     4  11  25  47  72 103 147 191 242 304 370 440
#     4  10  23  44  71 109 139 187 244 299 372 436
#     4  12  28  46  70 111 150 195 250 305 377 448
#     4  12  24  45  72 103 149 189 240 308 372 439
#     4  11  23  44  71 107 147 190 249 304 365 442
#     4  11  23  46  73  99 145 193 240 303 370 439
#     4  11  24  43  78 107 142 194 250 307 365 443
#     4  12  24  45  74 108 140 191 251 298 366 443
#
# _framework density 23.143899999999999
#
# number of rings (size 3 to 8) (size 9 to 14) (size 15 to 20)
#    0.000    0.750    3.750    3.750    7.000    3.000 
#    2.250    1.250    0.000    0.000    0.000    0.000 
#    0.000    0.000    0.000    0.000    0.000    0.000 
#
# Total GULP energy -89142.146671 kJ/mol
# GULP energy per Si atom -5571.384167 kJ/mol
# Density = 2.309122 g / cm^3
# Si number density = 23.143900 Si / 1000 Ang^3
#
#
#
# Elastic Constant Matrix: (Units=GPa)
#
#
# Indices 1 2 3 4 5 6 
#
# 1 144.9616 47.3689 31.5215 14.1457 -10.6392 -18.0301
# 2 47.3689 60.3823 24.7674 7.9184 1.8343 -16.4531
# 3 31.5215 24.7674 91.5702 11.1157 -17.7043 -4.0331
# 4 14.1457 7.9184 11.1157 47.3813 2.5604 -3.1019
# 5 -10.6392 1.8343 -17.7043 2.5604 36.4094 4.8602
# 6 -18.0301 -16.4531 -4.0331 -3.1019 4.8602 40.1429
#
#
#
# Elastic Compliance Matrix: (Units=1/GPa)
#
#
# Indices 1 2 3 4 5 6 
#
# 1 0.009848 -0.007045 -0.000676 -0.001696 0.002891 0.000987
# 2 -0.007045 0.026988 -0.005933 -0.000080 -0.007391 0.008190
# 3 -0.000676 -0.005933 0.014468 -0.002773 0.007655 -0.002423
# 4 -0.001696 -0.000080 -0.002773 0.022541 -0.003572 0.001101
# 5 0.002891 -0.007391 0.007655 -0.003572 0.033360 -0.005277
# 6 0.000987 0.008190 -0.002423 0.001101 -0.005277 0.029191
#
#
# Mechanical properties :
#
#
# Convention : Reuss Voigt Hill
#
# Bulk Modulus (GPa) = 41.67430 56.02553 48.84992
# Shear Modulus (GPa) = 29.12019 37.67046 33.39532
#
# Velocity S-wave (km/s) = 3.55099 4.03881 3.80273
# Velocity P-wave (km/s) = 5.90410 6.78302 6.35876
#
# Compressibility (1/GPa) = 0.02399560
#
# Stress axis : x y z
#
# Youngs Moduli (GPa) = 101.54569 37.05405 69.11793
#
# Poissons Ratio (x) = 0.26103 0.04674
# Poissons Ratio (y) = 0.71535 0.41008
# Poissons Ratio (z) = 0.06867 0.21984
#
# Static dielectric constant tensor:
#      x y z
#    x 1.796500 0.010310 0.065810 
#    y 0.010310 1.996300 -0.026190 
#    z 0.065810 -0.026190 1.917060 
# 
# From -- ./inp_files/499975.got.cif
#   From: 2010.05.17/outbox.cif.g08.bks.cpg/sg2_250_cif.got.tgz:499975.got - 2010.06.03 11:33:40.
