data_PCOD9042191
_publ_section_title
;
Structure prediction by ZEFSAII (Michael W. Deem and Ramdas Pophale) SiO2 
 PCOD9042191
Probable space group: P -1
;
_chemical_formula_sum "Si O2"
_cell_formula_units_Z 14
_cell_length_a 6.562214
_cell_length_b 12.257590
_cell_length_c 11.410775
_cell_angle_alpha 100.739423
_cell_angle_beta 48.173882
_cell_angle_gamma 113.944220
_cell_volume 620.286195
_symmetry_space_group_name_H-M "P -1"
_symmetry_group_IT_number 2
_symmetry_cell_setting 'triclinic'
loop_
_space_group_symop_operation_xyz
x,y,z
-x,-y,-z
loop_
_atom_site_type_symbol
_atom_site_label
_atom_site_fract_x
_atom_site_fract_y
_atom_site_fract_z
Si Si1 0.281701 0.042126 0.020196
Si Si2 0.688939 0.271688 0.810356
Si Si3 0.864636 0.502796 0.176865
Si Si4 0.315054 0.974347 0.722717
Si Si5 0.413266 0.731643 0.629483
Si Si6 0.947690 0.123115 0.536429
Si Si7 0.343028 0.594096 0.385385
O O1 0.411774 0.185512 0.974614
O O2 0.271785 0.985856 0.882891
O O3 0.977526 0.007952 0.202747
O O4 0.500000 0.000000 0.000000
O O5 0.858145 0.183815 0.694707
O O6 0.606971 0.321941 0.731682
O O7 0.909033 0.385020 0.816955
O O8 0.816482 0.379479 0.235445
O O9 0.556112 0.520854 0.288942
O O10 0.000000 0.500000 0.000000
O O11 0.319784 0.844338 0.675702
O O12 0.629354 0.075247 0.582305
O O13 0.426531 0.676862 0.485856
O O14 0.724297 0.778538 0.592957
O O15 0.000000 0.000000 0.500000
O O16 0.000000 0.500000 0.500000
#
# Coordination Sequence:
#
# PCOD9042191 Si02
#       7
#     2   2   2   2   2   2   2
#     4  10  23  44  69  99 147 190 231 296 369 428
#     4  11  24  44  69 103 142 189 237 290 359 428
#     4  12  28  44  72 106 147 191 240 294 362 434
#     4   9  22  43  69 104 138 181 247 290 355 430
#     4  11  22  46  74 103 145 189 239 295 365 428
#     4   9  19  43  71  98 135 182 240 290 346 425
#     4  12  25  46  73 101 146 190 240 299 355 431
#
# _framework density 22.570228
#
# number of rings (size 3 to 8) (size 9 to 14) (size 15 to 20)
#    0.000    1.429    2.857    1.286    4.000    4.000 
#    7.714    3.571    0.000    0.000    0.000    0.000 
#    0.000    0.000    0.000    0.000    0.000    0.000 
#
# Total GULP energy -78187.705955 kJ/mol
# GULP energy per Si atom -5584.836140 kJ/mol
# Density = 2.251886 g / cm^3
# Si number density = 22.570228 Si / 1000 Ang^3
#
#
#
# Elastic Constant Matrix: (Units=GPa)
#
#
# Indices 1 2 3 4 5 6 
#
# 1 101.4834 47.3837 42.9489 -10.3044 -8.5081 -1.1001
# 2 47.3837 149.8637 43.1691 0.8104 3.2245 22.4538
# 3 42.9489 43.1691 66.8309 2.7843 -4.0631 1.3419
# 4 -10.3044 0.8104 2.7843 31.6574 -6.6662 -4.1537
# 5 -8.5081 3.2245 -4.0631 -6.6662 36.9360 -7.7915
# 6 -1.1001 22.4538 1.3419 -4.1537 -7.7915 31.9435
#
#
#
# Elastic Compliance Matrix: (Units=1/GPa)
#
#
# Indices 1 2 3 4 5 6 
#
# 1 0.016629 -0.004023 -0.008191 0.008355 0.006122 0.006324
# 2 -0.004023 0.010658 -0.004270 -0.003422 -0.004860 -0.009082
# 3 -0.008191 -0.004270 0.023171 -0.004309 0.000535 0.001316
# 4 0.008355 -0.003422 -0.004309 0.038454 0.010912 0.010536
# 5 0.006122 -0.004860 0.000535 0.010912 0.033732 0.013251
# 6 0.006324 -0.009082 0.001316 0.010536 0.013251 0.042454
#
#
# Mechanical properties :
#
#
# Convention : Reuss Voigt Hill
#
# Bulk Modulus (GPa) = 57.17340 65.02015 61.09677
# Shear Modulus (GPa) = 24.52237 32.41915 28.47076
#
# Velocity S-wave (km/s) = 3.29977 3.79406 3.55551
# Velocity P-wave (km/s) = 6.31699 6.93279 6.63204
#
# Compressibility (1/GPa) = 0.01749065
#
# Stress axis : x y z
#
# Youngs Moduli (GPa) = 60.13695 93.82284 43.15762
#
# Poissons Ratio (x) = 0.37742 0.35350
# Poissons Ratio (y) = 0.24191 0.18429
# Poissons Ratio (z) = 0.49257 0.40064
#
# Static dielectric constant tensor:
#      x y z
#    x 1.905290 0.045960 -0.031560 
#    y 0.045960 1.783470 -0.023160 
#    z -0.031560 -0.023160 1.847220 
# 
# From -- ./inp_files/364682.got.cif
#   From: 2010.05.17/outbox.cif.g08.bks.cpg/sg2_183_cif.got.tgz:364682.got - 2010.06.03 11:33:40.
