data_PCOD9042347
_publ_section_title
;
Structure prediction by ZEFSAII (Michael W. Deem and Ramdas Pophale) SiO2 
 PCOD9042347
Probable space group: P -1
;
_chemical_formula_sum "Si O2"
_cell_formula_units_Z 14
_cell_length_a 14.746030
_cell_length_b 6.569902
_cell_length_c 14.815702
_cell_angle_alpha 111.727495
_cell_angle_beta 150.723491
_cell_angle_gamma 78.925468
_cell_volume 624.429135
_symmetry_space_group_name_H-M "P -1"
_symmetry_group_IT_number 2
_symmetry_cell_setting 'triclinic'
loop_
_space_group_symop_operation_xyz
x,y,z
-x,-y,-z
loop_
_atom_site_type_symbol
_atom_site_label
_atom_site_fract_x
_atom_site_fract_y
_atom_site_fract_z
Si Si1 0.593601 0.206199 0.782356
Si Si2 0.669804 0.490208 0.714347
Si Si3 0.035080 0.815805 0.397091
Si Si4 0.071173 0.005541 0.960158
Si Si5 0.876389 0.234723 0.344240
Si Si6 0.642352 0.424480 0.043898
Si Si7 0.211248 0.830234 0.364947
O O1 0.593960 0.340947 0.712356
O O2 0.805300 0.171207 0.974372
O O3 0.435316 0.963034 0.594640
O O4 0.545712 0.327839 0.849647
O O5 0.500000 0.500000 0.500000
O O6 0.786372 0.740904 0.888861
O O7 0.802406 0.368230 0.751868
O O8 0.176886 0.830179 0.608204
O O9 0.115644 0.744961 0.363420
O O10 0.829761 0.636224 0.215957
O O11 0.997849 0.062354 0.393587
O O12 0.892432 0.989899 0.736689
O O13 0.000000 0.000000 0.000000
O O14 0.714406 0.234417 0.130110
O O15 0.000000 0.500000 0.500000
O O16 0.500000 0.500000 0.000000
#
# Coordination Sequence:
#
# PCOD9042347 Si02
#       7
#     2   2   2   2   2   2   2
#     4  12  27  47  68 105 141 183 237 286 345 414
#     4  12  25  47  70 105 145 182 228 285 350 417
#     4  10  23  44  70  99 134 179 232 283 350 408
#     4  12  25  45  74  99 142 187 229 286 344 413
#     4   9  21  44  69  94 132 173 232 283 341 406
#     4  11  26  45  69 100 141 181 230 289 346 409
#     4  12  25  45  73 102 141 184 230 286 348 417
#
# _framework density 22.420480999999999
#
# number of rings (size 3 to 8) (size 9 to 14) (size 15 to 20)
#    0.000    0.857    2.857    3.429    8.000    1.714 
#    5.143    0.000    0.000    0.000    0.000    0.000 
#    0.000    0.000    0.000    0.000    0.000    0.000 
#
# Total GULP energy -78335.778359 kJ/mol
# GULP energy per Si atom -5595.412740 kJ/mol
# Density = 2.236945 g / cm^3
# Si number density = 22.420481 Si / 1000 Ang^3
#
#
#
# Elastic Constant Matrix: (Units=GPa)
#
#
# Indices 1 2 3 4 5 6 
#
# 1 172.2552 41.3594 19.1791 -11.8791 -20.9165 13.0469
# 2 41.3594 99.4459 19.2110 -13.7867 -3.1209 5.3449
# 3 19.1791 19.2110 49.9184 -14.4984 -7.9686 1.2277
# 4 -11.8791 -13.7867 -14.4984 45.6578 3.4558 -6.3336
# 5 -20.9165 -3.1209 -7.9686 3.4558 37.2052 3.1320
# 6 13.0469 5.3449 1.2277 -6.3336 3.1320 22.0175
#
#
#
# Elastic Compliance Matrix: (Units=1/GPa)
#
#
# Indices 1 2 3 4 5 6 
#
# 1 0.007338 -0.002489 -0.001141 -0.000105 0.004043 -0.004286
# 2 -0.002489 0.011983 -0.003272 0.001954 -0.001233 -0.000514
# 3 -0.001141 -0.003272 0.024088 0.006296 0.003538 0.001435
# 4 -0.000105 0.001954 0.006296 0.025518 -0.001489 0.006789
# 5 0.004043 -0.001233 0.003538 -0.001489 0.030538 -0.007066
# 6 -0.004286 -0.000514 0.001435 0.006789 -0.007066 0.050961
#
#
# Mechanical properties :
#
#
# Convention : Reuss Voigt Hill
#
# Bulk Modulus (GPa) = 33.77831 53.45761 43.61796
# Shear Modulus (GPa) = 28.71917 37.10076 32.90996
#
# Velocity S-wave (km/s) = 3.58290 4.07230 3.83541
# Velocity P-wave (km/s) = 5.67580 6.78281 6.25385
#
# Compressibility (1/GPa) = 0.02960480
#
# Stress axis : x y z
#
# Youngs Moduli (GPa) = 136.27133 83.45357 41.51388
#
# Poissons Ratio (x) = 0.20770 0.04738
# Poissons Ratio (y) = 0.33916 0.13583
# Poissons Ratio (z) = 0.15554 0.27306
#
# Static dielectric constant tensor:
#      x y z
#    x 1.800200 -0.017600 0.003530 
#    y -0.017600 1.885120 -0.030700 
#    z 0.003530 -0.030700 1.862150 
# 
# From -- ./inp_files/37137.got.cif
#   From: 2010.05.17/outbox.cif.g08.bks.cpg/sg2_19_cif.got.tgz:37137.got - 2010.06.03 11:33:40.
