data_PCOD9042181
_publ_section_title
;
Structure prediction by ZEFSAII (Michael W. Deem and Ramdas Pophale) SiO2 
 PCOD9042181
Probable space group: P -1
;
_chemical_formula_sum "Si O2"
_cell_formula_units_Z 14
_cell_length_a 10.086266
_cell_length_b 7.705842
_cell_length_c 16.022620
_cell_angle_alpha 47.681256
_cell_angle_beta 39.218967
_cell_angle_gamma 60.616102
_cell_volume 580.938959
_symmetry_space_group_name_H-M "P -1"
_symmetry_group_IT_number 2
_symmetry_cell_setting 'triclinic'
loop_
_space_group_symop_operation_xyz
x,y,z
-x,-y,-z
loop_
_atom_site_type_symbol
_atom_site_label
_atom_site_fract_x
_atom_site_fract_y
_atom_site_fract_z
Si Si1 0.023061 0.644038 0.767546
Si Si2 0.262927 0.350190 0.633391
Si Si3 0.928543 0.110284 0.587014
Si Si4 0.649173 0.625645 0.726963
Si Si5 0.487327 0.073089 0.759591
Si Si6 0.429032 0.722014 0.637971
Si Si7 0.806066 0.255713 0.894854
O O1 0.186485 0.596012 0.626980
O O2 0.183134 0.658375 0.761375
O O3 0.857200 0.426002 0.897118
O O4 0.929118 0.892846 0.720849
O O5 0.427468 0.379060 0.470976
O O6 0.040038 0.221033 0.758063
O O7 0.364571 0.206105 0.704915
O O8 0.118794 0.302021 0.447651
O O9 0.694431 0.187263 0.667246
O O10 0.000000 0.000000 0.500000
O O11 0.575489 0.839348 0.750555
O O12 0.491262 0.621123 0.728661
O O13 0.678329 0.403254 0.843673
O O14 0.316846 0.980479 0.940398
O O15 0.500000 0.000000 0.500000
#
# Coordination Sequence:
#
# PCOD9042181 Si02
#       7
#     2   2   2   2   2   2   2
#     4  10  21  36  59  90 115 153 201 240 291 350
#     4  10  22  37  62  86 121 153 204 240 292 352
#     4  10  17  33  58  88 113 150 198 243 283 343
#     4  11  22  35  61  91 120 152 197 249 297 344
#     4  11  19  37  65  86 117 160 202 242 285 359
#     4  12  21  37  61  92 121 152 194 251 302 339
#     4  10  23  38  59  89 119 160 201 236 294 358
#
# _framework density 24.098918999999999
#
# number of rings (size 3 to 8) (size 9 to 14) (size 15 to 20)
#    0.857    0.571    5.714    2.143    0.000    0.571 
#    0.000    0.714    3.143    1.714    0.000    0.000 
#    0.000    0.000    0.000    0.000    0.000    0.000 
#
# Total GULP energy -78184.654046 kJ/mol
# GULP energy per Si atom -5584.618146 kJ/mol
# Density = 2.404407 g / cm^3
# Si number density = 24.098919 Si / 1000 Ang^3
#
#
#
# Elastic Constant Matrix: (Units=GPa)
#
#
# Indices 1 2 3 4 5 6 
#
# 1 160.4000 5.9793 30.8433 -13.6958 5.6078 -41.0762
# 2 5.9793 62.6410 -2.9923 -6.8882 8.5459 -28.1152
# 3 30.8433 -2.9923 37.1123 -2.3083 -10.9495 -18.0583
# 4 -13.6958 -6.8882 -2.3083 13.1238 -5.0149 2.6236
# 5 5.6078 8.5459 -10.9495 -5.0149 21.7974 -5.5553
# 6 -41.0762 -28.1152 -18.0583 2.6236 -5.5553 38.4494
#
#
#
# Elastic Compliance Matrix: (Units=1/GPa)
#
#
# Indices 1 2 3 4 5 6 
#
# 1 0.011533 0.008853 0.002281 0.014342 0.002929 0.019310
# 2 0.008853 0.042294 0.029904 0.032472 0.017588 0.054755
# 3 0.002281 0.029904 0.076876 0.038327 0.051760 0.065273
# 4 0.014342 0.032472 0.038327 0.121003 0.044760 0.055278
# 5 0.002929 0.017588 0.051760 0.044760 0.087231 0.049849
# 6 0.019310 0.054755 0.065273 0.055278 0.049849 0.120763
#
#
# Mechanical properties :
#
#
# Convention : Reuss Voigt Hill
#
# Bulk Modulus (GPa) = 4.69968 36.42375 20.56172
# Shear Modulus (GPa) = 11.14703 29.76230 20.45467
#
# Velocity S-wave (km/s) = 2.15304 3.51808 2.91654
# Velocity P-wave (km/s) = 2.85222 5.62579 4.46009
#
# Compressibility (1/GPa) = 0.21278028
#
# Stress axis : x y z
#
# Youngs Moduli (GPa) = 86.70715 23.64391 13.00790
#
# Poissons Ratio (x) = -0.20931 -0.02967
# Poissons Ratio (y) = -0.76759 -0.38899
# Poissons Ratio (z) = -0.19780 -0.70706
#
# Static dielectric constant tensor:
#      x y z
#    x 2.039840 0.052550 -0.044800 
#    y 0.052550 1.986170 -0.037040 
#    z -0.044800 -0.037040 1.938940 
# 
# From -- ./inp_files/565105.got.cif
#   From: 2010.05.17/outbox.cif.g08.bks.cpg/sg2_283_cif.got.tgz:565105.got - 2010.06.03 11:33:40.
