data_PCOD9042022
_publ_section_title
;
Structure prediction by ZEFSAII (Michael W. Deem and Ramdas Pophale) SiO2 
 PCOD9042022
Probable space group: P -1
;
_chemical_formula_sum "Si O2"
_cell_formula_units_Z 11
_cell_length_a 8.076194
_cell_length_b 14.696111
_cell_length_c 6.518640
_cell_angle_alpha 74.564168
_cell_angle_beta 123.233991
_cell_angle_gamma 136.720850
_cell_volume 431.582532
_symmetry_space_group_name_H-M "P -1"
_symmetry_group_IT_number 2
_symmetry_cell_setting 'triclinic'
loop_
_space_group_symop_operation_xyz
x,y,z
-x,-y,-z
loop_
_atom_site_type_symbol
_atom_site_label
_atom_site_fract_x
_atom_site_fract_y
_atom_site_fract_z
Si Si1 0.062952 0.298869 0.512514
Si Si2 0.500000 0.000000 0.500000
Si Si3 0.637571 0.737834 0.552831
Si Si4 0.260175 0.532506 0.760674
Si Si5 0.176345 0.004117 0.949480
Si Si6 0.294679 0.689569 0.022008
O O1 0.289837 0.314440 0.535930
O O2 0.203476 0.406216 0.729589
O O3 0.796780 0.148577 0.512837
O O4 0.946623 0.329884 0.236591
O O5 0.326455 0.968745 0.187263
O O6 0.540917 0.664101 0.749216
O O7 0.369508 0.706217 0.303061
O O8 0.937822 0.894265 0.689361
O O9 0.000000 0.500000 0.500000
O O10 0.263200 0.575854 0.964263
O O11 0.416595 0.158013 0.944079
O O12 0.000000 0.000000 0.000000
#
# Coordination Sequence:
#
# PCOD9042022 Si02
#       6
#     2   1   2   2   2   2
#     4  10  24  44  67 102 133 176 227 269 331 400
#     4  10  24  44  68  96 140 172 214 282 334 382
#     4  12  24  42  72 102 130 177 229 270 331 399
#     4  10  23  46  66 100 138 176 220 273 339 391
#     4  11  22  42  68 100 133 175 222 272 335 395
#     4  10  23  44  68  99 136 174 218 279 333 390
#
# _framework density 25.487591999999999
#
# number of rings (size 3 to 8) (size 9 to 14) (size 15 to 20)
#    0.000    1.455    1.818    2.182    0.000    8.000 
#    3.273    0.000    0.000    0.000    0.000    0.000 
#    0.000    0.000    0.000    0.000    0.000    0.000 
#
# Total GULP energy -61271.495060 kJ/mol
# GULP energy per Si atom -5570.135915 kJ/mol
# Density = 2.542958 g / cm^3
# Si number density = 25.487592 Si / 1000 Ang^3
#
#
#
# Elastic Constant Matrix: (Units=GPa)
#
#
# Indices 1 2 3 4 5 6 
#
# 1 36.6812 5.6732 -1.7394 4.9779 4.0653 -8.5970
# 2 5.6732 78.8388 17.7461 7.4277 12.1554 15.9366
# 3 -1.7394 17.7461 146.7285 21.2964 24.0357 -6.2357
# 4 4.9779 7.4277 21.2964 51.4109 11.9270 -10.3972
# 5 4.0653 12.1554 24.0357 11.9270 17.2106 2.4081
# 6 -8.5970 15.9366 -6.2357 -10.3972 2.4081 27.2663
#
#
#
# Elastic Compliance Matrix: (Units=1/GPa)
#
#
# Indices 1 2 3 4 5 6 
#
# 1 0.033008 -0.004544 0.003448 0.002319 -0.013236 0.015906
# 2 -0.004544 0.016845 -0.001331 -0.002625 -0.005452 -0.012102
# 3 0.003448 -0.001331 0.009518 0.000282 -0.014118 0.005397
# 4 0.002319 -0.002625 0.000282 0.026989 -0.019802 0.014371
# 5 -0.013236 -0.005452 -0.014118 -0.019802 0.101420 -0.020724
# 6 0.015906 -0.012102 0.005397 0.014371 -0.020724 0.057308
#
#
# Mechanical properties :
#
#
# Convention : Reuss Voigt Hill
#
# Bulk Modulus (GPa) = 18.34300 33.95648 26.14974
# Shear Modulus (GPa) = 18.64865 35.21548 26.93206
#
# Velocity S-wave (km/s) = 2.70788 3.72112 3.25418
# Velocity P-wave (km/s) = 4.12181 5.64039 4.93980
#
# Compressibility (1/GPa) = 0.05451671
#
# Stress axis : x y z
#
# Youngs Moduli (GPa) = 30.29540 59.36433 105.06124
#
# Poissons Ratio (x) = 0.26978 -0.36230
# Poissons Ratio (y) = 0.13768 0.13989
# Poissons Ratio (z) = -0.10447 0.07904
#
# Static dielectric constant tensor:
#      x y z
#    x 1.945250 0.040210 0.112480 
#    y 0.040210 1.867320 -0.141810 
#    z 0.112480 -0.141810 1.913250 
# 
# From -- ./inp_files/21329.got.cif
#   From: 2010.05.17/outbox.cif.g08.bks.cpg/sg2_11_cif.got.tgz:21329.got - 2010.06.03 11:33:40.
