data_PCOD9042398
_publ_section_title
;
Structure prediction by ZEFSAII (Michael W. Deem and Ramdas Pophale) SiO2 
 PCOD9042398
Probable space group: P -1
;
_chemical_formula_sum "Si O2"
_cell_formula_units_Z 16
_cell_length_a 9.687659
_cell_length_b 17.480749
_cell_length_c 11.408487
_cell_angle_alpha 149.216130
_cell_angle_beta 135.501338
_cell_angle_gamma 52.078894
_cell_volume 693.033241
_symmetry_space_group_name_H-M "P -1"
_symmetry_group_IT_number 2
_symmetry_cell_setting 'triclinic'
loop_
_space_group_symop_operation_xyz
x,y,z
-x,-y,-z
loop_
_atom_site_type_symbol
_atom_site_label
_atom_site_fract_x
_atom_site_fract_y
_atom_site_fract_z
Si Si1 0.193227 0.020973 0.067296
Si Si2 0.424824 0.112903 0.757475
Si Si3 0.770808 0.175140 0.774456
Si Si4 0.733188 0.468968 0.583696
Si Si5 0.092709 0.212004 0.841237
Si Si6 0.467303 0.275845 0.519939
Si Si7 0.216965 0.806388 0.580938
Si Si8 0.640192 0.387341 0.165263
O O1 0.366627 0.943361 0.144979
O O2 0.265792 0.189746 0.311617
O O3 0.189653 0.938446 0.831214
O O4 0.000000 0.000000 0.000000
O O5 0.291893 0.130200 0.816366
O O6 0.317950 0.983737 0.449021
O O7 0.457667 0.273103 0.928305
O O8 0.616795 0.241260 0.671969
O O9 0.975317 0.151223 0.800814
O O10 0.776385 0.296675 0.038930
O O11 0.500000 0.500000 0.500000
O O12 0.796133 0.343115 0.546671
O O13 0.750415 0.413682 0.388657
O O14 0.852762 0.618210 0.875382
O O15 0.949664 0.198316 0.625246
O O16 0.574900 0.204814 0.377176
O O17 0.433685 0.451970 0.713015
#
# Coordination Sequence:
#
# PCOD9042398 Si02
#       8
#     2   2   2   2   2   2   2   2
#     4  11  25  46  70 104 143 180 234 290 354 416
#     4  11  23  48  72  98 140 186 230 285 349 420
#     4  10  25  43  69 107 141 181 236 288 350 406
#     4  12  22  43  70 104 139 189 236 283 352 409
#     4  11  24  43  70 103 137 185 240 286 340 422
#     4  10  23  44  71 103 142 189 229 285 349 419
#     4  11  22  44  70 102 139 189 236 287 342 419
#     4  12  23  43  72  99 143 185 227 292 348 405
#
# _framework density 23.086915999999999
#
# number of rings (size 3 to 8) (size 9 to 14) (size 15 to 20)
#    0.000    1.000    3.750    1.875    0.000    5.500 
#    4.500    0.000    0.000    0.000    0.000    0.000 
#    0.000    0.000    0.000    0.000    0.000    0.000 
#
# Total GULP energy -89646.892605 kJ/mol
# GULP energy per Si atom -5602.930788 kJ/mol
# Density = 2.303437 g / cm^3
# Si number density = 23.086916 Si / 1000 Ang^3
#
#
#
# Elastic Constant Matrix: (Units=GPa)
#
#
# Indices 1 2 3 4 5 6 
#
# 1 159.9371 60.9343 72.6186 2.9959 -0.4919 -6.8110
# 2 60.9343 76.8907 57.9808 20.6063 7.5076 1.2508
# 3 72.6186 57.9808 139.4087 27.4337 0.6019 10.0629
# 4 2.9959 20.6063 27.4337 37.0163 11.5692 2.5538
# 5 -0.4919 7.5076 0.6019 11.5692 51.5014 -4.9431
# 6 -6.8110 1.2508 10.0629 2.5538 -4.9431 30.1813
#
#
#
# Elastic Compliance Matrix: (Units=1/GPa)
#
#
# Indices 1 2 3 4 5 6 
#
# 1 0.010904 -0.007195 -0.004101 0.005833 0.000243 0.003673
# 2 -0.007195 0.024938 -0.004762 -0.009223 -0.001630 -0.000556
# 3 -0.004101 -0.004762 0.012928 -0.006819 0.001633 -0.004194
# 4 0.005833 -0.009223 -0.006819 0.039065 -0.007347 -0.000536
# 5 0.000243 -0.001630 0.001633 -0.007347 0.021648 0.003745
# 6 0.003673 -0.000556 -0.004194 -0.000536 0.003745 0.036042
#
#
# Mechanical properties :
#
#
# Convention : Reuss Voigt Hill
#
# Bulk Modulus (GPa) = 60.04856 84.36711 72.20784
# Shear Modulus (GPa) = 27.29386 36.05333 31.67360
#
# Velocity S-wave (km/s) = 3.44208 3.95604 3.70797
# Velocity P-wave (km/s) = 6.47020 7.58219 7.04816
#
# Compressibility (1/GPa) = 0.01665319
#
# Stress axis : x y z
#
# Youngs Moduli (GPa) = 91.71122 40.09936 77.35341
#
# Poissons Ratio (x) = 0.28852 0.31726
# Poissons Ratio (y) = 0.65986 0.36834
# Poissons Ratio (z) = 0.37615 0.19094
#
# Static dielectric constant tensor:
#      x y z
#    x 1.887610 0.002210 -0.000360 
#    y 0.002210 1.841210 0.009180 
#    z -0.000360 0.009180 1.858430 
# 
# From -- ./inp_files/403657.got.cif
#   From: 2010.05.17/outbox.cif.g08.bks.cpg/sg2_202_cif.got.tgz:403657.got - 2010.06.03 11:33:40.
