data_PCOD9042202
_publ_section_title
;
Structure prediction by ZEFSAII (Michael W. Deem and Ramdas Pophale) SiO2 
 PCOD9042202
Probable space group: P -1
;
_chemical_formula_sum "Si O2"
_cell_formula_units_Z 14
_cell_length_a 7.616832
_cell_length_b 23.055077
_cell_length_c 5.440077
_cell_angle_alpha 111.254300
_cell_angle_beta 138.092773
_cell_angle_gamma 57.641118
_cell_volume 537.906147
_symmetry_space_group_name_H-M "P -1"
_symmetry_group_IT_number 2
_symmetry_cell_setting 'triclinic'
loop_
_space_group_symop_operation_xyz
x,y,z
-x,-y,-z
loop_
_atom_site_type_symbol
_atom_site_label
_atom_site_fract_x
_atom_site_fract_y
_atom_site_fract_z
Si Si1 0.453804 0.274572 0.763479
Si Si2 0.174389 0.144849 0.824534
Si Si3 0.036606 0.422713 0.359118
Si Si4 0.683677 0.988722 0.431904
Si Si5 0.758139 0.429267 0.590306
Si Si6 0.063043 0.714266 0.440342
Si Si7 0.727509 0.124779 0.610835
O O1 0.290157 0.345606 0.549831
O O2 0.517403 0.197138 0.628363
O O3 0.238635 0.286112 0.789664
O O4 0.768411 0.270651 0.139399
O O5 0.997066 0.224679 0.713043
O O6 0.029564 0.129103 0.888187
O O7 0.120117 0.093217 0.501432
O O8 0.511559 0.129632 0.163172
O O9 0.000000 0.500000 0.500000
O O10 0.813831 0.421771 0.344221
O O11 0.000319 0.426636 0.032686
O O12 0.800879 0.047318 0.653594
O O13 0.500000 0.000000 0.500000
O O14 0.500000 0.000000 0.000000
O O15 0.500000 0.500000 0.500000
O O16 0.722912 0.361766 0.537134
#
# Coordination Sequence:
#
# PCOD9042202 Si02
#       7
#     2   2   2   2   2   2   2
#     4  11  24  43  67 101 138 183 231 285 344 410
#     4  11  23  42  67 101 138 182 230 285 344 410
#     4  11  24  43  69 102 139 181 229 283 342 408
#     4  10  23  44  70 100 138 180 228 282 342 408
#     4  11  24  43  69 102 139 181 229 283 342 408
#     4  11  24  43  67 101 138 183 231 285 344 410
#     4  11  23  42  67 101 138 182 230 285 344 410
#
# _framework density 26.026845000000002
#
# number of rings (size 3 to 8) (size 9 to 14) (size 15 to 20)
#    0.000    1.143    0.000    5.571    0.000    8.000 
#    0.000    6.429    0.000    0.000    0.000    0.000 
#    0.000    0.000    0.000    0.000    0.000    0.000 
#
# Total GULP energy -78014.707387 kJ/mol
# GULP energy per Si atom -5572.479099 kJ/mol
# Density = 2.596761 g / cm^3
# Si number density = 26.026845 Si / 1000 Ang^3
#
#
#
# Elastic Constant Matrix: (Units=GPa)
#
#
# Indices 1 2 3 4 5 6 
#
# 1 89.3011 36.6821 15.7346 -9.2513 -0.2002 1.7865
# 2 36.6821 219.8038 21.2460 21.5065 2.8661 22.3089
# 3 15.7346 21.2460 41.6608 3.0232 0.6553 -1.4824
# 4 -9.2513 21.5065 3.0232 47.2347 0.5823 -6.1579
# 5 -0.2002 2.8661 0.6553 0.5823 24.1555 2.6957
# 6 1.7865 22.3089 -1.4824 -6.1579 2.6957 51.7418
#
#
#
# Elastic Compliance Matrix: (Units=1/GPa)
#
#
# Indices 1 2 3 4 5 6 
#
# 1 0.013267 -0.002304 -0.004101 0.004021 0.000299 0.000881
# 2 -0.002304 0.005732 -0.001910 -0.003304 -0.000252 -0.002827
# 3 -0.004101 -0.001910 0.026697 -0.001426 -0.000675 0.001595
# 4 0.004021 -0.003304 -0.001426 0.024102 -0.000579 0.004144
# 5 0.000299 -0.000252 -0.000675 -0.000579 0.041705 -0.002163
# 6 0.000881 -0.002827 0.001595 0.004144 -0.002163 0.021167
#
#
# Mechanical properties :
#
#
# Convention : Reuss Voigt Hill
#
# Bulk Modulus (GPa) = 34.40411 55.34344 44.87378
# Shear Modulus (GPa) = 31.44908 43.09993 37.27451
#
# Velocity S-wave (km/s) = 3.47988 4.07379 3.78849
# Velocity P-wave (km/s) = 5.42157 6.59074 6.03454
#
# Compressibility (1/GPa) = 0.02906630
#
# Stress axis : x y z
#
# Youngs Moduli (GPa) = 75.37594 174.45306 37.45754
#
# Poissons Ratio (x) = 0.40202 0.15360
# Poissons Ratio (y) = 0.17370 0.07153
# Poissons Ratio (z) = 0.30909 0.33316
#
# Static dielectric constant tensor:
#      x y z
#    x 2.039770 -0.017010 -0.047960 
#    y -0.017010 2.184180 0.042260 
#    z -0.047960 0.042260 2.254460 
# 
# From -- ./inp_files/12571.got.cif
#   From: 2010.05.17/outbox.cif.g08.bks.cpg/sg2_7_cif.got.tgz:12571.got - 2010.06.03 11:33:40.
