data_PCOD9042011
_publ_section_title
;
Structure prediction by ZEFSAII (Michael W. Deem and Ramdas Pophale) SiO2 
 PCOD9042011
Probable space group: P -1
;
_chemical_formula_sum "Si O2"
_cell_formula_units_Z 16
_cell_length_a 5.077901
_cell_length_b 11.885949
_cell_length_c 18.597188
_cell_angle_alpha 128.898139
_cell_angle_beta 45.378735
_cell_angle_gamma 114.143071
_cell_volume 620.726724
_symmetry_space_group_name_H-M "P -1"
_symmetry_group_IT_number 2
_symmetry_cell_setting 'triclinic'
loop_
_space_group_symop_operation_xyz
x,y,z
-x,-y,-z
loop_
_atom_site_type_symbol
_atom_site_label
_atom_site_fract_x
_atom_site_fract_y
_atom_site_fract_z
Si Si1 0.910573 0.471484 0.290125
Si Si2 0.933521 0.458190 0.915044
Si Si3 0.126976 0.367965 0.352042
Si Si4 0.419704 0.076125 0.121868
Si Si5 0.515281 0.254936 0.518568
Si Si6 0.271532 0.851653 0.182854
Si Si7 0.940436 0.932667 0.562736
Si Si8 0.965853 0.713826 0.924073
O O1 0.527013 0.393733 0.318709
O O2 0.822147 0.636017 0.346603
O O3 0.193690 0.367489 0.147333
O O4 0.001182 0.481229 0.360308
O O5 0.986778 0.284901 0.825802
O O6 0.151244 0.568403 0.867751
O O7 0.500000 0.500000 0.000000
O O8 0.000000 0.500000 0.000000
O O9 0.149313 0.218646 0.241164
O O10 0.842047 0.348058 0.462481
O O11 0.805451 0.153320 0.093128
O O12 0.262197 0.961352 0.161106
O O13 0.500000 0.000000 0.000000
O O14 0.368313 0.176257 0.444290
O O15 0.702923 0.149927 0.500866
O O16 0.202944 0.945743 0.304634
O O17 0.686005 0.781526 0.063987
O O18 0.000000 0.000000 0.500000
#
# Coordination Sequence:
#
# PCOD9042011 Si02
#       8
#     2   2   2   2   2   2   2   2
#     4  11  24  43  70 107 145 186 242 304 365 450
#     4  10  23  44  68  98 139 190 243 291 361 436
#     4  11  23  42  69 106 143 188 240 298 375 441
#     4  11  22  38  71 112 155 187 240 303 383 455
#     4  12  25  48  74 100 146 192 258 301 376 432
#     4  11  24  46  74 107 153 195 249 307 374 456
#     4  12  29  49  74 106 144 202 259 309 367 440
#     4  10  24  42  70 108 145 188 241 304 379 433
#
# _framework density 25.776237999999999
#
# number of rings (size 3 to 8) (size 9 to 14) (size 15 to 20)
#    0.000    1.000    1.250    4.500    5.250    5.000 
#    4.500    0.000    0.000    0.000    0.000    0.000 
#    0.000    0.000    0.000    0.000    0.000    0.000 
#
# Total GULP energy -89405.776293 kJ/mol
# GULP energy per Si atom -5587.861018 kJ/mol
# Density = 2.571757 g / cm^3
# Si number density = 25.776238 Si / 1000 Ang^3
#
#
#
# Elastic Constant Matrix: (Units=GPa)
#
#
# Indices 1 2 3 4 5 6 
#
# 1 122.9059 30.7977 29.2203 10.8545 26.7942 -6.9324
# 2 30.7977 130.5072 32.8160 11.5352 4.3459 -23.3164
# 3 29.2203 32.8160 176.1103 24.5739 32.2961 -12.7411
# 4 10.8545 11.5352 24.5739 45.3873 -0.1467 6.8813
# 5 26.7942 4.3459 32.2961 -0.1467 40.3074 -2.8465
# 6 -6.9324 -23.3164 -12.7411 6.8813 -2.8465 44.4462
#
#
#
# Elastic Compliance Matrix: (Units=1/GPa)
#
#
# Indices 1 2 3 4 5 6 
#
# 1 0.010275 -0.001970 0.000254 -0.002199 -0.006791 0.000547
# 2 -0.001970 0.009368 -0.001063 -0.002044 0.001477 0.004713
# 3 0.000254 -0.001063 0.007689 -0.004270 -0.006092 0.001957
# 4 -0.002199 -0.002044 -0.004270 0.026378 0.004746 -0.006419
# 5 -0.006791 0.001477 -0.006092 0.004746 0.034022 -0.000587
# 6 0.000547 0.004713 0.001957 -0.006419 -0.000587 0.026574
#
#
# Mechanical properties :
#
#
# Convention : Reuss Voigt Hill
#
# Bulk Modulus (GPa) = 45.92858 68.35460 57.14159
# Shear Modulus (GPa) = 39.33173 48.47413 43.90293
#
# Velocity S-wave (km/s) = 3.91050 4.34126 4.13150
# Velocity P-wave (km/s) = 6.18436 7.19060 6.70638
#
# Compressibility (1/GPa) = 0.02177293
#
# Stress axis : x y z
#
# Youngs Moduli (GPa) = 97.32191 106.74219 130.05832
#
# Poissons Ratio (x) = 0.21032 -0.03305
# Poissons Ratio (y) = 0.19176 0.13831
# Poissons Ratio (z) = -0.02473 0.11352
#
# Static dielectric constant tensor:
#      x y z
#    x 2.139650 0.059770 -0.075320 
#    y 0.059770 2.360240 -0.052380 
#    z -0.075320 -0.052380 2.162240 
# 
# From -- ./inp_files/549520.got.cif
#   From: 2010.05.17/outbox.cif.g08.bks.cpg/sg2_275_cif.got.tgz:549520.got - 2010.06.03 11:33:40.
