data_PCOD9042996
_publ_section_title
;
Structure prediction by ZEFSAII (Michael W. Deem and Ramdas Pophale) SiO2 
 PCOD9042996
Probable space group: P -1
;
_chemical_formula_sum "Si O2"
_cell_formula_units_Z 12
_cell_length_a 9.676629
_cell_length_b 8.865418
_cell_length_c 12.202492
_cell_angle_alpha 50.301056
_cell_angle_beta 64.289524
_cell_angle_gamma 43.252729
_cell_volume 550.918176
_symmetry_space_group_name_H-M "P -1"
_symmetry_group_IT_number 2
_symmetry_cell_setting 'triclinic'
loop_
_space_group_symop_operation_xyz
x,y,z
-x,-y,-z
loop_
_atom_site_type_symbol
_atom_site_label
_atom_site_fract_x
_atom_site_fract_y
_atom_site_fract_z
Si Si1 0.409951 0.447975 0.652812
Si Si2 0.385993 0.587917 0.840115
Si Si3 0.050844 0.744537 0.048806
Si Si4 0.042960 0.528199 0.634637
Si Si5 0.296672 0.079386 0.580777
Si Si6 0.344871 0.948973 0.083336
O O1 0.500000 0.500000 0.500000
O O2 0.338855 0.607797 0.716653
O O3 0.212268 0.494850 0.663361
O O4 0.608112 0.162944 0.758640
O O5 0.588543 0.289834 0.906756
O O6 0.363585 0.838277 0.742870
O O7 0.246605 0.605092 0.970624
O O8 0.056711 0.571771 0.219607
O O9 0.876616 0.822112 0.987000
O O10 0.000000 0.000000 0.000000
O O11 0.180442 0.326258 0.584122
O O12 0.867622 0.809360 0.512330
O O13 0.500000 0.000000 0.500000
O O14 0.500000 0.000000 0.000000
#
# Coordination Sequence:
#
# PCOD9042996 Si02
#       6
#     2   2   2   2   2   2
#     4  10  23  45  67  96 135 177 224 280 338 394
#     4  10  25  43  68  99 128 180 228 268 342 405
#     4  12  24  44  69  98 140 178 222 286 335 402
#     4  11  25  43  68  97 136 180 222 282 341 390
#     4  11  25  44  65  99 136 174 232 274 329 419
#     4  10  24  45  66  98 141 171 232 278 333 412
#
# _framework density 21.781818999999999
#
# number of rings (size 3 to 8) (size 9 to 14) (size 15 to 20)
#    1.000    0.333    3.333    1.000    4.667    5.333 
#    6.000    0.000    0.000    0.000    0.000    0.000 
#    0.000    0.000    0.000    0.000    0.000    0.000 
#
# Total GULP energy -66833.572729 kJ/mol
# GULP energy per Si atom -5569.464394 kJ/mol
# Density = 2.173224 g / cm^3
# Si number density = 21.781819 Si / 1000 Ang^3
#
#
#
# Elastic Constant Matrix: (Units=GPa)
#
#
# Indices 1 2 3 4 5 6 
#
# 1 58.7932 1.7869 0.7464 1.5957 7.5417 -12.2820
# 2 1.7869 51.9489 20.1212 8.2088 -2.9626 -10.5098
# 3 0.7464 20.1212 126.6826 17.4670 -8.7275 -17.6183
# 4 1.5957 8.2088 17.4670 42.0694 -2.4915 0.6186
# 5 7.5417 -2.9626 -8.7275 -2.4915 30.7338 2.3224
# 6 -12.2820 -10.5098 -17.6183 0.6186 2.3224 23.0225
#
#
#
# Elastic Compliance Matrix: (Units=1/GPa)
#
#
# Indices 1 2 3 4 5 6 
#
# 1 0.020517 0.001465 0.001409 -0.002181 -0.005677 0.013324
# 2 0.001465 0.022460 -0.001653 -0.003880 0.000278 0.009846
# 3 0.001409 -0.001653 0.009811 -0.003831 0.001406 0.007467
# 4 -0.002181 -0.003880 -0.003831 0.026402 0.001724 -0.006750
# 5 -0.005677 0.000278 0.001406 0.001724 0.034904 -0.005393
# 6 0.013324 0.009846 0.007467 -0.006750 -0.005393 0.061478
#
#
# Mechanical properties :
#
#
# Convention : Reuss Voigt Hill
#
# Bulk Modulus (GPa) = 18.10543 31.41485 24.76014
# Shear Modulus (GPa) = 26.10413 33.48315 29.79364
#
# Velocity S-wave (km/s) = 3.46560 3.92498 3.70242
# Velocity P-wave (km/s) = 4.93397 5.91561 5.44695
#
# Compressibility (1/GPa) = 0.05523206
#
# Stress axis : x y z
#
# Youngs Moduli (GPa) = 48.73973 44.52287 101.92143
#
# Poissons Ratio (x) = -0.06522 -0.14362
# Poissons Ratio (y) = -0.07140 0.16843
# Poissons Ratio (z) = -0.06868 0.07357
#
# Static dielectric constant tensor:
#      x y z
#    x 1.807380 -0.019060 -0.037530 
#    y -0.019060 1.665550 -0.179660 
#    z -0.037530 -0.179660 1.738260 
# 
# From -- ./inp_files/377561.got.cif
#   From: 2010.05.17/outbox.cif.g08.bks.cpg/sg2_189_cif.got.tgz:377561.got - 2010.06.03 11:33:40.
