data_PCOD9042130
_publ_section_title
;
Structure prediction by ZEFSAII (Michael W. Deem and Ramdas Pophale) SiO2 
 PCOD9042130
Probable space group: P -1
;
_chemical_formula_sum "Si O2"
_cell_formula_units_Z 14
_cell_length_a 5.168254
_cell_length_b 7.131023
_cell_length_c 18.378163
_cell_angle_alpha 101.000214
_cell_angle_beta 58.450122
_cell_angle_gamma 100.936946
_cell_volume 563.321217
_symmetry_space_group_name_H-M "P -1"
_symmetry_group_IT_number 2
_symmetry_cell_setting 'triclinic'
loop_
_space_group_symop_operation_xyz
x,y,z
-x,-y,-z
loop_
_atom_site_type_symbol
_atom_site_label
_atom_site_fract_x
_atom_site_fract_y
_atom_site_fract_z
Si Si1 0.318313 0.142588 0.582521
Si Si2 0.579079 0.475760 0.772282
Si Si3 0.567326 0.723615 0.936495
Si Si4 0.217272 0.937681 0.891396
Si Si5 0.974736 0.276677 0.882168
Si Si6 0.222668 0.937984 0.248325
Si Si7 0.123828 0.593857 0.413215
O O1 0.563856 0.271640 0.604475
O O2 0.065483 0.020024 0.659935
O O3 0.136839 0.280985 0.569146
O O4 0.500000 0.000000 0.500000
O O5 0.625939 0.585808 0.849899
O O6 0.683876 0.262443 0.749282
O O7 0.770635 0.543552 0.677283
O O8 0.210450 0.437071 0.821289
O O9 0.385525 0.886246 0.936073
O O10 0.897543 0.810418 0.921496
O O11 0.315878 0.651471 0.029582
O O12 0.475841 0.912367 0.790318
O O13 0.158924 0.159502 0.904865
O O14 0.880444 0.119689 0.822592
O O15 0.000000 0.500000 0.500000
#
# Coordination Sequence:
#
# PCOD9042130 Si02
#       7
#     2   2   2   2   2   2   2
#     4  11  24  46  73 102 130 173 234 275 333 412
#     4  10  25  43  65  98 134 178 224 264 335 402
#     4  12  26  39  66 101 133 176 225 276 315 394
#     4  11  25  42  63  96 136 175 221 275 330 375
#     4  11  22  44  67  91 138 180 223 264 335 389
#     4  10  23  44  69  93 135 182 212 273 337 396
#     4  11  24  47  70  99 139 176 213 289 349 394
#
# _framework density 24.852602999999998
#
# number of rings (size 3 to 8) (size 9 to 14) (size 15 to 20)
#    0.000    1.143    2.857    2.143    6.000    1.714 
#    2.571    0.000    0.000    0.000    0.000    0.000 
#    0.000    0.000    0.000    0.000    0.000    0.000 
#
# Total GULP energy -78277.711386 kJ/mol
# GULP energy per Si atom -5591.265099 kJ/mol
# Density = 2.479604 g / cm^3
# Si number density = 24.852603 Si / 1000 Ang^3
#
#
#
# Elastic Constant Matrix: (Units=GPa)
#
#
# Indices 1 2 3 4 5 6 
#
# 1 162.6468 31.2705 60.7157 3.3000 -15.3735 -0.1177
# 2 31.2705 38.9487 55.4314 7.7435 -15.4903 -3.7721
# 3 60.7157 55.4314 284.5507 6.3353 -36.3253 8.6360
# 4 3.3000 7.7435 6.3353 29.6575 -2.2082 -12.3414
# 5 -15.3735 -15.4903 -36.3253 -2.2082 47.3313 -7.4556
# 6 -0.1177 -3.7721 8.6360 -12.3414 -7.4556 45.8807
#
#
#
# Elastic Compliance Matrix: (Units=1/GPa)
#
#
# Indices 1 2 3 4 5 6 
#
# 1 0.007356 -0.005151 -0.000539 0.000629 0.000306 -0.000084
# 2 -0.005151 0.043990 -0.006399 -0.007194 0.008138 0.004195
# 3 -0.000539 -0.006399 0.005093 0.000262 0.001466 -0.001177
# 4 0.000629 -0.007194 0.000262 0.039889 0.001541 0.010341
# 5 0.000306 0.008138 0.001466 0.001541 0.025877 0.005013
# 6 -0.000084 0.004195 -0.001177 0.010341 0.005013 0.025958
#
#
# Mechanical properties :
#
#
# Convention : Reuss Voigt Hill
#
# Bulk Modulus (GPa) = 30.99557 86.77570 58.88564
# Shear Modulus (GPa) = 27.30868 47.15581 37.23225
#
# Velocity S-wave (km/s) = 3.31845 4.36066 3.87476
# Velocity P-wave (km/s) = 5.21360 7.76826 6.61542
#
# Compressibility (1/GPa) = 0.03226268
#
# Stress axis : x y z
#
# Youngs Moduli (GPa) = 135.94892 22.73265 196.35735
#
# Poissons Ratio (x) = 0.11709 0.10574
# Poissons Ratio (y) = 0.70023 1.25640
# Poissons Ratio (z) = 0.07321 0.14546
#
# Static dielectric constant tensor:
#      x y z
#    x 2.007110 -0.020200 0.028690 
#    y -0.020200 2.083570 -0.029980 
#    z 0.028690 -0.029980 2.045410 
# 
# From -- ./inp_files/105411.got.cif
#   From: 2010.05.17/outbox.cif.g08.bks.cpg/sg2_53_cif.got.tgz:105411.got - 2010.06.03 11:33:40.
