data_PCOD9042334
_publ_section_title
;
Structure prediction by ZEFSAII (Michael W. Deem and Ramdas Pophale) SiO2 
 PCOD9042334
Probable space group: P -1
;
_chemical_formula_sum "Si O2"
_cell_formula_units_Z 16
_cell_length_a 8.630283
_cell_length_b 9.509446
_cell_length_c 15.654496
_cell_angle_alpha 102.130657
_cell_angle_beta 47.608958
_cell_angle_gamma 73.185145
_cell_volume 744.338606
_symmetry_space_group_name_H-M "P -1"
_symmetry_group_IT_number 2
_symmetry_cell_setting 'triclinic'
loop_
_space_group_symop_operation_xyz
x,y,z
-x,-y,-z
loop_
_atom_site_type_symbol
_atom_site_label
_atom_site_fract_x
_atom_site_fract_y
_atom_site_fract_z
Si Si1 0.006128 0.527037 0.726101
Si Si2 0.612468 0.403433 0.314330
Si Si3 0.095062 0.920493 0.303104
Si Si4 0.215508 0.980970 0.742575
Si Si5 0.992660 0.707002 0.590291
Si Si6 0.057488 0.711934 0.989915
Si Si7 0.783353 0.820054 0.500726
Si Si8 0.297845 0.374162 0.978683
O O1 0.226210 0.538613 0.688976
O O2 0.897519 0.653005 0.699171
O O3 0.137486 0.327086 0.619516
O O4 0.786778 0.589337 0.886518
O O5 0.682465 0.222952 0.308464
O O6 0.305512 0.559532 0.451233
O O7 0.720055 0.353931 0.171531
O O8 0.394869 0.751110 0.165924
O O9 0.943910 0.897459 0.430574
O O10 0.955771 0.940439 0.268287
O O11 0.074645 0.099169 0.345300
O O12 0.474460 0.971718 0.635166
O O13 0.053769 0.101782 0.899427
O O14 0.864699 0.720819 0.549138
O O15 0.827284 0.718396 0.028323
O O16 0.166276 0.561845 0.003397
#
# Coordination Sequence:
#
# PCOD9042334 Si02
#       8
#     2   2   2   2   2   2   2   2
#     4  11  23  44  68  96 134 176 213 270 330 387
#     4  11  23  44  69  97 135 174 217 269 330 392
#     4  12  26  44  68 100 132 175 219 271 332 390
#     4  12  24  43  66 100 135 171 221 270 327 393
#     4  12  24  44  69  97 135 175 218 273 327 387
#     4  10  23  44  70  98 131 173 217 274 327 387
#     4  12  26  42  68 101 131 173 224 274 323 389
#     4  10  24  46  68  96 134 173 219 269 332 391
#
# _framework density 21.495593
#
# number of rings (size 3 to 8) (size 9 to 14) (size 15 to 20)
#    0.000    0.750    2.500    4.875    0.000    6.500 
#    2.250    0.000    0.000    0.000    0.000    0.000 
#    0.000    0.000    0.000    0.000    0.000    0.000 
#
# Total GULP energy -89644.154243 kJ/mol
# GULP energy per Si atom -5602.759640 kJ/mol
# Density = 2.144667 g / cm^3
# Si number density = 21.495593 Si / 1000 Ang^3
#
#
#
# Elastic Constant Matrix: (Units=GPa)
#
#
# Indices 1 2 3 4 5 6 
#
# 1 64.1863 7.1214 36.8726 3.4756 3.0948 -14.4951
# 2 7.1214 42.5888 11.0859 -9.5977 7.2752 -0.0033
# 3 36.8726 11.0859 92.1186 -10.6277 8.6511 -2.7856
# 4 3.4756 -9.5977 -10.6277 42.3611 3.8344 4.2657
# 5 3.0948 7.2752 8.6511 3.8344 35.9723 0.7903
# 6 -14.4951 -0.0033 -2.7856 4.2657 0.7903 20.4755
#
#
#
# Elastic Compliance Matrix: (Units=1/GPa)
#
#
# Indices 1 2 3 4 5 6 
#
# 1 0.026830 -0.003686 -0.010751 -0.007787 0.001433 0.019097
# 2 -0.003686 0.026809 -0.000513 0.007158 -0.005658 -0.003948
# 3 -0.010751 -0.000513 0.015994 0.005731 -0.003286 -0.006502
# 4 -0.007787 0.007158 0.005731 0.028819 -0.004996 -0.010543
# 5 0.001433 -0.005658 -0.003286 -0.004996 0.030133 0.000444
# 6 0.019097 -0.003948 -0.006502 -0.010543 0.000444 0.063652
#
#
# Mechanical properties :
#
#
# Convention : Reuss Voigt Hill
#
# Bulk Modulus (GPa) = 25.16829 34.33928 29.75378
# Shear Modulus (GPa) = 21.24207 29.34937 25.29572
#
# Velocity S-wave (km/s) = 3.14698 3.69910 3.43415
# Velocity P-wave (km/s) = 4.99386 5.85270 5.44026
#
# Compressibility (1/GPa) = 0.03973254
#
# Stress axis : x y z
#
# Youngs Moduli (GPa) = 37.27183 37.30024 62.52429
#
# Poissons Ratio (x) = 0.13749 0.67221
# Poissons Ratio (y) = 0.13738 0.03209
# Poissons Ratio (z) = 0.40071 0.01914
#
# Static dielectric constant tensor:
#      x y z
#    x 1.767150 0.019180 0.018510 
#    y 0.019180 1.755740 -0.024610 
#    z 0.018510 -0.024610 1.737530 
# 
# From -- ./inp_files/186150.got.cif
#   From: 2010.05.17/outbox.cif.g08.bks.cpg/sg2_94_cif.got.tgz:186150.got - 2010.06.03 11:33:40.
