data_PCOD9042437
_publ_section_title
;
Structure prediction by ZEFSAII (Michael W. Deem and Ramdas Pophale) SiO2 
 PCOD9042437
Probable space group: P -1
;
_chemical_formula_sum "Si O2"
_cell_formula_units_Z 10
_cell_length_a 10.399433
_cell_length_b 8.854115
_cell_length_c 5.376290
_cell_angle_alpha 83.234278
_cell_angle_beta 65.019569
_cell_angle_gamma 64.983402
_cell_volume 405.515386
_symmetry_space_group_name_H-M "P -1"
_symmetry_group_IT_number 2
_symmetry_cell_setting 'triclinic'
loop_
_space_group_symop_operation_xyz
x,y,z
-x,-y,-z
loop_
_atom_site_type_symbol
_atom_site_label
_atom_site_fract_x
_atom_site_fract_y
_atom_site_fract_z
Si Si1 0.843594 0.446727 0.398113
Si Si2 0.442151 0.108382 0.780837
Si Si3 0.073224 0.852128 0.275933
Si Si4 0.400602 0.658373 0.218991
Si Si5 0.110621 0.258703 0.842788
O O1 0.925822 0.322552 0.581899
O O2 0.690003 0.413195 0.502913
O O3 0.825499 0.634035 0.408798
O O4 0.951969 0.377129 0.085880
O O5 0.506058 0.251664 0.734853
O O6 0.255460 0.185214 0.923299
O O7 0.500000 0.000000 0.500000
O O8 0.500000 0.000000 0.000000
O O9 0.260069 0.793498 0.135285
O O10 0.938338 0.887728 0.175964
O O11 0.000000 0.000000 0.500000
O O12 0.500000 0.500000 0.000000
#
# Coordination Sequence:
#
# PCOD9042437 Si02
#       5
#     2   2   2   2   2
#     4   9  25  43  74 104 147 196 261 306 390 455
#     4  12  31  51  78 117 160 206 258 333 402 460
#     4  10  23  44  71 107 147 198 250 315 381 466
#     4  10  26  48  76 111 158 201 262 323 391 466
#     4  11  24  45  77 103 149 203 259 314 382 479
#
# _framework density 24.659977999999999
#
# number of rings (size 3 to 8) (size 9 to 14) (size 15 to 20)
#    1.200    0.400    0.000    1.800   14.000    3.200 
#    0.000    0.000    0.000    0.000    0.000    0.000 
#    0.000    0.000    0.000    0.000    0.000    0.000 
#
# Total GULP energy -55752.381597 kJ/mol
# GULP energy per Si atom -5575.238160 kJ/mol
# Density = 2.460385 g / cm^3
# Si number density = 24.659978 Si / 1000 Ang^3
#
#
#
# Elastic Constant Matrix: (Units=GPa)
#
#
# Indices 1 2 3 4 5 6 
#
# 1 189.9030 96.7367 42.4716 27.0240 -7.9541 49.3739
# 2 96.7367 94.0599 33.2348 8.1393 -15.5299 29.5976
# 3 42.4716 33.2348 88.2844 19.9993 -18.5867 23.7072
# 4 27.0240 8.1393 19.9993 47.7620 3.4199 0.5743
# 5 -7.9541 -15.5299 -18.5867 3.4199 27.6986 5.5656
# 6 49.3739 29.5976 23.7072 0.5743 5.5656 60.1458
#
#
#
# Elastic Compliance Matrix: (Units=1/GPa)
#
#
# Indices 1 2 3 4 5 6 
#
# 1 0.013320 -0.011905 0.000597 -0.005645 -0.000709 -0.005192
# 2 -0.011905 0.026048 -0.001363 0.002143 0.010714 -0.003520
# 3 0.000597 -0.001363 0.019117 -0.009087 0.015098 -0.008665
# 4 -0.005645 0.002143 -0.009087 0.028307 -0.011613 0.007966
# 5 -0.000709 0.010714 0.015098 -0.011613 0.056641 -0.015772
# 6 -0.005192 -0.003520 -0.008665 0.007966 -0.015772 0.027419
#
#
# Mechanical properties :
#
#
# Convention : Reuss Voigt Hill
#
# Bulk Modulus (GPa) = 30.17196 79.68149 54.92673
# Shear Modulus (GPa) = 24.12633 40.44155 32.28394
#
# Velocity S-wave (km/s) = 3.13127 4.05404 3.62216
# Velocity P-wave (km/s) = 5.03338 7.36858 6.30994
#
# Compressibility (1/GPa) = 0.03314335
#
# Stress axis : x y z
#
# Youngs Moduli (GPa) = 75.07350 38.39037 52.30940
#
# Poissons Ratio (x) = 0.45704 -0.03125
# Poissons Ratio (y) = 0.89376 0.07132
# Poissons Ratio (z) = -0.04486 0.05234
#
# Static dielectric constant tensor:
#      x y z
#    x 1.987000 -0.048810 0.082100 
#    y -0.048810 2.067100 -0.061030 
#    z 0.082100 -0.061030 1.985660 
# 
# From -- ./inp_files/17636.got.cif
#   From: 2010.05.17/outbox.cif.g08.bks.cpg/sg2_9_cif.got.tgz:17636.got - 2010.06.03 11:33:40.
