data_PCOD9042992
_publ_section_title
;
Structure prediction by ZEFSAII (Michael W. Deem and Ramdas Pophale) SiO2 
 PCOD9042992
Probable space group: P -1
;
_chemical_formula_sum "Si O2"
_cell_formula_units_Z 16
_cell_length_a 9.537520
_cell_length_b 14.456425
_cell_length_c 14.089841
_cell_angle_alpha 40.377350
_cell_angle_beta 77.734843
_cell_angle_gamma 47.479318
_cell_volume 717.768049
_symmetry_space_group_name_H-M "P -1"
_symmetry_group_IT_number 2
_symmetry_cell_setting 'triclinic'
loop_
_space_group_symop_operation_xyz
x,y,z
-x,-y,-z
loop_
_atom_site_type_symbol
_atom_site_label
_atom_site_fract_x
_atom_site_fract_y
_atom_site_fract_z
Si Si1 0.154880 0.788294 0.564988
Si Si2 0.184609 0.484969 0.888950
Si Si3 0.662384 0.737962 0.146853
Si Si4 0.345982 0.143707 0.276698
Si Si5 0.227234 0.928456 0.123089
Si Si6 0.054761 0.742025 0.274272
Si Si7 0.119769 0.204329 0.543689
Si Si8 0.579951 0.184484 0.612981
O O1 0.280031 0.562863 0.786084
O O2 0.329885 0.756035 0.510732
O O3 0.996632 0.830449 0.474988
O O4 0.000000 0.000000 0.500000
O O5 0.298161 0.286712 0.951066
O O6 0.889378 0.720585 0.737254
O O7 0.250871 0.370889 0.069934
O O8 0.503533 0.725438 0.203521
O O9 0.929674 0.490851 0.343500
O O10 0.500000 0.000000 0.000000
O O11 0.621448 0.958925 0.410723
O O12 0.386567 0.985367 0.318502
O O13 0.143067 0.833225 0.208864
O O14 0.253159 0.956562 0.206051
O O15 0.066606 0.149505 0.897952
O O16 0.294906 0.447147 0.472856
O O17 0.874893 0.845009 0.306984
#
# Coordination Sequence:
#
# PCOD9042992 Si02
#       8
#     2   2   2   2   2   2   2   2
#     4  11  23  46  72  98 137 189 237 291 356 417
#     4  10  23  45  67  95 143 183 230 289 358 414
#     4  11  23  40  68 100 141 180 226 289 360 411
#     4  11  25  44  69 100 142 188 235 292 353 422
#     4  11  23  41  67 102 140 185 230 297 356 411
#     4  11  23  40  69 104 140 183 237 292 351 420
#     4  11  24  43  72 102 145 179 239 292 349 428
#     4  12  23  44  71 103 140 186 241 289 354 423
#
# _framework density 22.291323999999999
#
# number of rings (size 3 to 8) (size 9 to 14) (size 15 to 20)
#    0.000    1.000    3.750    3.375    1.750    3.500 
#    0.000    1.875    0.000    0.000    0.000    0.000 
#    0.000    0.000    0.000    0.000    0.000    0.000 
#
# Total GULP energy -89336.218806 kJ/mol
# GULP energy per Si atom -5583.513675 kJ/mol
# Density = 2.224059 g / cm^3
# Si number density = 22.291324 Si / 1000 Ang^3
#
#
#
# Elastic Constant Matrix: (Units=GPa)
#
#
# Indices 1 2 3 4 5 6 
#
# 1 68.0770 -3.8119 17.8367 -8.3033 0.0890 4.8489
# 2 -3.8119 65.8359 3.6803 -18.3321 0.8409 11.2183
# 3 17.8367 3.6803 91.9995 -0.1546 4.5933 12.3979
# 4 -8.3033 -18.3321 -0.1546 39.6091 -5.3002 -2.0412
# 5 0.0890 0.8409 4.5933 -5.3002 37.6519 -1.4708
# 6 4.8489 11.2183 12.3979 -2.0412 -1.4708 41.9026
#
#
#
# Elastic Compliance Matrix: (Units=1/GPa)
#
#
# Indices 1 2 3 4 5 6 
#
# 1 0.016326 0.002654 -0.003117 0.004684 0.000886 -0.001418
# 2 0.002654 0.018686 -0.000658 0.009063 0.000751 -0.004647
# 3 -0.003117 -0.000658 0.012009 -0.001307 -0.001750 -0.003141
# 4 0.004684 0.009063 -0.001307 0.030941 0.004265 -0.000925
# 5 0.000886 0.000751 -0.001750 0.004265 0.027408 0.001384
# 6 -0.001418 -0.004647 -0.003141 -0.000925 0.001384 0.026206
#
#
# Mechanical properties :
#
#
# Convention : Reuss Voigt Hill
#
# Bulk Modulus (GPa) = 22.33197 29.03581 25.68389
# Shear Modulus (GPa) = 33.61507 37.71320 35.66414
#
# Velocity S-wave (km/s) = 3.88750 4.11765 4.00423
# Velocity P-wave (km/s) = 5.49456 5.97165 5.73807
#
# Compressibility (1/GPa) = 0.04477885
#
# Stress axis : x y z
#
# Youngs Moduli (GPa) = 61.25341 53.51706 83.27313
#
# Poissons Ratio (x) = -0.14204 0.25953
# Poissons Ratio (y) = -0.16257 0.05480
# Poissons Ratio (z) = 0.19090 0.03522
#
# Static dielectric constant tensor:
#      x y z
#    x 1.830170 0.002990 0.020880 
#    y 0.002990 1.822440 0.032360 
#    z 0.020880 0.032360 1.874290 
# 
# From -- ./inp_files/505258.got.cif
#   From: 2010.05.17/outbox.cif.g08.bks.cpg/sg2_253_cif.got.tgz:505258.got - 2010.06.03 11:33:40.
