data_PCOD9042705
_publ_section_title
;
Structure prediction by ZEFSAII (Michael W. Deem and Ramdas Pophale) SiO2 
 PCOD9042705
Probable space group: P -1
;
_chemical_formula_sum "Si O2"
_cell_formula_units_Z 10
_cell_length_a 12.339245
_cell_length_b 5.252238
_cell_length_c 21.478925
_cell_angle_alpha 112.694939
_cell_angle_beta 21.236547
_cell_angle_gamma 122.547902
_cell_volume 393.359219
_symmetry_space_group_name_H-M "P -1"
_symmetry_group_IT_number 2
_symmetry_cell_setting 'triclinic'
loop_
_space_group_symop_operation_xyz
x,y,z
-x,-y,-z
loop_
_atom_site_type_symbol
_atom_site_label
_atom_site_fract_x
_atom_site_fract_y
_atom_site_fract_z
Si Si1 0.306622 0.676554 0.147281
Si Si2 0.309329 0.770409 0.905247
Si Si3 0.408408 0.666502 0.290371
Si Si4 0.514845 0.285163 0.601166
Si Si5 0.786463 0.467156 0.307194
O O1 0.928786 0.469261 0.372219
O O2 0.144861 0.722487 0.174323
O O3 0.590043 0.976836 0.066509
O O4 0.500000 0.500000 0.000000
O O5 0.478222 0.568706 0.820711
O O6 0.488633 0.035165 0.779977
O O7 0.000000 0.500000 0.000000
O O8 0.532492 0.731982 0.301074
O O9 0.000000 0.500000 0.500000
O O10 0.309189 0.459712 0.702846
O O11 0.307780 0.897272 0.661902
O O12 0.500000 0.500000 0.500000
#
# Coordination Sequence:
#
# PCOD9042705 Si02
#       5
#     2   2   2   2   2
#     4  11  26  49  78 114 160 201 255 321 390 461
#     4  12  29  52  78 116 160 203 257 323 398 457
#     4  12  26  50  85 109 151 208 268 323 373 466
#     4  11  24  48  78 113 145 199 265 317 380 455
#     4  10  23  44  74 107 149 195 255 316 377 456
#
# _framework density 25.422052999999998
#
# number of rings (size 3 to 8) (size 9 to 14) (size 15 to 20)
#    0.000    0.800    2.000    4.800    8.400    1.600 
#    7.200   12.000    0.000    0.000    0.000    0.000 
#    0.000    0.000    0.000    0.000    0.000    0.000 
#
# Total GULP energy -55685.891454 kJ/mol
# GULP energy per Si atom -5568.589145 kJ/mol
# Density = 2.536419 g / cm^3
# Si number density = 25.422053 Si / 1000 Ang^3
#
#
#
# Elastic Constant Matrix: (Units=GPa)
#
#
# Indices 1 2 3 4 5 6 
#
# 1 294.6750 158.1245 68.3894 59.1486 32.8812 -11.5968
# 2 158.1245 271.2020 111.2081 55.3646 19.6299 -6.2111
# 3 68.3894 111.2081 122.7848 6.3022 -19.4493 8.1029
# 4 59.1486 55.3646 6.3022 80.6125 7.5527 -8.7277
# 5 32.8812 19.6299 -19.4493 7.5527 55.5688 -5.4946
# 6 -11.5968 -6.2111 8.1029 -8.7277 -5.4946 73.2307
#
#
#
# Elastic Compliance Matrix: (Units=1/GPa)
#
#
# Indices 1 2 3 4 5 6 
#
# 1 0.005629 -0.001778 -0.001903 -0.002432 -0.002995 0.000437
# 2 -0.001778 0.008931 -0.007606 -0.003782 -0.004196 0.000552
# 3 -0.001903 -0.007606 0.017442 0.004214 0.009178 -0.001685
# 4 -0.002432 -0.003782 0.004214 0.016360 0.002119 0.000937
# 5 -0.002995 -0.004196 0.009178 0.002119 0.024196 0.000222
# 6 0.000437 0.000552 -0.001685 0.000937 0.000222 0.014086
#
#
# Mechanical properties :
#
#
# Convention : Reuss Voigt Hill
#
# Bulk Modulus (GPa) = 106.06826 151.56730 128.81778
# Shear Modulus (GPa) = 44.49913 65.27839 54.88876
#
# Velocity S-wave (km/s) = 4.18833 5.07283 4.65165
# Velocity P-wave (km/s) = 8.07484 9.69852 8.92369
#
# Compressibility (1/GPa) = 0.00942789
#
# Stress axis : x y z
#
# Youngs Moduli (GPa) = 177.64801 111.96552 57.33433
#
# Poissons Ratio (x) = 0.19912 0.10910
# Poissons Ratio (y) = 0.31594 0.43607
# Poissons Ratio (z) = 0.33805 0.85157
#
# Static dielectric constant tensor:
#      x y z
#    x 2.262350 -0.033250 0.124770 
#    y -0.033250 1.963040 0.065140 
#    z 0.124770 0.065140 2.123110 
# 
# From -- ./inp_files/592805.got.cif
#   From: 2010.05.17/outbox.cif.g08.bks.cpg/sg2_297_cif.got.tgz:592805.got - 2010.06.03 11:33:40.
