data_PCOD9042700
_publ_section_title
;
Structure prediction by ZEFSAII (Michael W. Deem and Ramdas Pophale) SiO2 
 PCOD9042700
Probable space group: P -1
;
_chemical_formula_sum "Si O2"
_cell_formula_units_Z 16
_cell_length_a 7.775491
_cell_length_b 12.695449
_cell_length_c 8.856520
_cell_angle_alpha 53.997026
_cell_angle_beta 59.319150
_cell_angle_gamma 72.196073
_cell_volume 608.240130
_symmetry_space_group_name_H-M "P -1"
_symmetry_group_IT_number 2
_symmetry_cell_setting 'triclinic'
loop_
_space_group_symop_operation_xyz
x,y,z
-x,-y,-z
loop_
_atom_site_type_symbol
_atom_site_label
_atom_site_fract_x
_atom_site_fract_y
_atom_site_fract_z
Si Si1 0.271422 0.320251 0.743063
Si Si2 0.236079 0.778451 0.048738
Si Si3 0.186351 0.021113 0.016855
Si Si4 0.441456 0.404993 0.889162
Si Si5 0.201029 0.164445 0.333197
Si Si6 0.102382 0.537443 0.080615
Si Si7 0.128097 0.900254 0.675905
Si Si8 0.132204 0.324193 0.502013
O O1 0.048494 0.348700 0.888882
O O2 0.278091 0.375557 0.523638
O O3 0.287839 0.163214 0.848001
O O4 0.417632 0.392779 0.730344
O O5 0.046584 0.738561 0.270706
O O6 0.321247 0.898140 0.012086
O O7 0.343194 0.638211 0.113241
O O8 0.229073 0.831659 0.833563
O O9 0.065720 0.026009 0.223503
O O10 0.000000 0.000000 0.000000
O O11 0.327411 0.269913 0.099657
O O12 0.331315 0.521545 0.928643
O O13 0.979503 0.178660 0.343616
O O14 0.220684 0.209530 0.458813
O O15 0.256844 0.012642 0.446557
O O16 0.073087 0.430403 0.315373
O O17 0.000000 0.500000 0.000000
#
# Coordination Sequence:
#
# PCOD9042700 Si02
#       8
#     2   2   2   2   2   2   2   2
#     4  11  19  39  62  86 111 160 202 238 281 352
#     4  11  21  36  58  94 121 152 187 252 300 336
#     4  10  17  33  59  87 112 148 193 237 275 353
#     4  10  22  38  57  89 126 150 191 249 300 336
#     4  10  19  34  57  84 115 164 200 231 281 355
#     4   9  22  40  62  85 111 158 202 239 283 353
#     4  10  18  34  58  81 119 159 204 226 283 361
#     4  11  19  36  64  84 111 154 204 239 279 356
#
# _framework density 26.305398
#
# number of rings (size 3 to 8) (size 9 to 14) (size 15 to 20)
#    0.000    1.750    5.000    1.125    0.000    1.000 
#    0.000    5.625    0.000    0.000    0.000    0.000 
#    0.000    0.000    0.000    0.000    0.000    0.000 
#
# Total GULP energy -89153.521847 kJ/mol
# GULP energy per Si atom -5572.095115 kJ/mol
# Density = 2.624553 g / cm^3
# Si number density = 26.305398 Si / 1000 Ang^3
#
#
#
# Elastic Constant Matrix: (Units=GPa)
#
#
# Indices 1 2 3 4 5 6 
#
# 1 32.9074 21.8037 29.2303 8.1538 22.0728 0.4087
# 2 21.8037 136.1572 17.1410 13.8776 18.2453 16.0511
# 3 29.2303 17.1410 135.3180 -0.3278 41.4812 20.7539
# 4 8.1538 13.8776 -0.3278 42.5146 17.2267 2.4628
# 5 22.0728 18.2453 41.4812 17.2267 42.4111 5.1767
# 6 0.4087 16.0511 20.7539 2.4628 5.1767 40.7984
#
#
#
# Elastic Compliance Matrix: (Units=1/GPa)
#
#
# Indices 1 2 3 4 5 6 
#
# 1 0.052786 -0.005845 -0.005585 -0.000503 -0.020171 0.007201
# 2 -0.005845 0.008823 0.000925 -0.001255 -0.000696 -0.003720
# 3 -0.005585 0.000925 0.013075 0.006086 -0.012045 -0.005799
# 4 -0.000503 -0.001255 0.006086 0.031338 -0.017605 -0.002255
# 5 -0.020171 -0.000696 -0.012045 -0.017605 0.053195 0.000916
# 6 0.007201 -0.003720 -0.005799 -0.002255 0.000916 0.028872
#
#
# Mechanical properties :
#
#
# Convention : Reuss Voigt Hill
#
# Bulk Modulus (GPa) = 18.62970 48.97028 33.79999
# Shear Modulus (GPa) = 22.02733 40.89198 31.45965
#
# Velocity S-wave (km/s) = 2.89687 3.94700 3.46199
# Velocity P-wave (km/s) = 4.27629 6.27919 5.37191
#
# Compressibility (1/GPa) = 0.05367773
#
# Stress axis : x y z
#
# Youngs Moduli (GPa) = 18.94431 113.33410 76.47921
#
# Poissons Ratio (x) = 0.66240 0.42710
# Poissons Ratio (y) = 0.11072 -0.07078
# Poissons Ratio (z) = 0.10580 -0.10489
#
# Static dielectric constant tensor:
#      x y z
#    x 2.323620 -0.034730 0.015710 
#    y -0.034730 2.221260 -0.064550 
#    z 0.015710 -0.064550 2.070320 
# 
# From -- ./inp_files/200181.got.cif
#   From: 2010.05.17/outbox.cif.g08.bks.cpg/sg2_101_cif.got.tgz:200181.got - 2010.06.03 11:33:40.
