data_PCOD9042004
_publ_section_title
;
Structure prediction by ZEFSAII (Michael W. Deem and Ramdas Pophale) SiO2 
 PCOD9042004
Probable space group: P -1
;
_chemical_formula_sum "Si O2"
_cell_formula_units_Z 16
_cell_length_a 18.898882
_cell_length_b 16.761355
_cell_length_c 7.527952
_cell_angle_alpha 125.029941
_cell_angle_beta 141.101765
_cell_angle_gamma 27.496991
_cell_volume 633.248346
_symmetry_space_group_name_H-M "P -1"
_symmetry_group_IT_number 2
_symmetry_cell_setting 'triclinic'
loop_
_space_group_symop_operation_xyz
x,y,z
-x,-y,-z
loop_
_atom_site_type_symbol
_atom_site_label
_atom_site_fract_x
_atom_site_fract_y
_atom_site_fract_z
Si Si1 0.491028 0.612548 0.214253
Si Si2 0.004672 0.019958 0.822649
Si Si3 0.603591 0.661690 0.785913
Si Si4 0.190232 0.542793 0.596971
Si Si5 0.281954 0.107818 0.276964
Si Si6 0.662012 0.124085 0.136366
Si Si7 0.037328 0.482848 0.766911
Si Si8 0.992189 0.245479 0.165067
O O1 0.489660 0.652338 0.464732
O O2 0.733259 0.475173 0.465059
O O3 0.500000 0.500000 0.000000
O O4 0.247226 0.830791 0.972547
O O5 0.842627 0.069932 0.464961
O O6 0.941867 0.179689 0.895469
O O7 0.000000 0.000000 0.000000
O O8 0.435559 0.835427 0.812564
O O9 0.715118 0.667509 0.903941
O O10 0.810793 0.458791 0.027373
O O11 0.046634 0.553406 0.353581
O O12 0.059263 0.720114 0.681565
O O13 0.441051 0.334230 0.885997
O O14 0.109234 0.322101 0.194422
O O15 0.223037 0.112437 0.368315
O O16 0.500000 0.000000 0.500000
O O17 0.261544 0.026053 0.014638
O O18 0.000000 0.500000 0.500000
#
# Coordination Sequence:
#
# PCOD9042004 Si02
#       8
#     2   2   2   2   2   2   2   2
#     4  12  28  45  66  97 140 179 223 277 336 389
#     4  12  26  45  67  97 140 175 225 281 328 388
#     4  10  23  44  68  98 136 175 222 271 337 396
#     4  11  23  42  70 100 133 177 224 271 338 397
#     4  11  20  36  68 103 129 165 225 276 326 389
#     4  11  23  40  69 100 132 177 223 272 330 399
#     4  11  19  41  69  99 132 174 221 277 326 402
#     4  10  24  42  70  99 130 176 227 269 329 402
#
# _framework density 25.266549000000001
#
# number of rings (size 3 to 8) (size 9 to 14) (size 15 to 20)
#    0.000    1.000    6.250    1.500    5.250    2.500 
#    0.000    0.000    0.000    2.250    0.000    0.000 
#    0.000    0.000    0.000    0.000    0.000    0.000 
#
# Total GULP energy -89267.046437 kJ/mol
# GULP energy per Si atom -5579.190402 kJ/mol
# Density = 2.520904 g / cm^3
# Si number density = 25.266549 Si / 1000 Ang^3
#
#
#
# Elastic Constant Matrix: (Units=GPa)
#
#
# Indices 1 2 3 4 5 6 
#
# 1 81.7169 30.3397 18.9404 -2.3038 24.5582 -36.3724
# 2 30.3397 174.6096 54.8986 30.0421 15.8898 -31.0248
# 3 18.9404 54.8986 92.3235 12.6833 17.2721 3.0426
# 4 -2.3038 30.0421 12.6833 47.1282 -3.6148 10.6650
# 5 24.5582 15.8898 17.2721 -3.6148 44.2439 2.5009
# 6 -36.3724 -31.0248 3.0426 10.6650 2.5009 43.4069
#
#
#
# Elastic Compliance Matrix: (Units=1/GPa)
#
#
# Indices 1 2 3 4 5 6 
#
# 1 0.034870 0.006964 -0.006835 -0.011376 -0.022307 0.038755
# 2 0.006964 0.012218 -0.006439 -0.010373 -0.007604 0.018006
# 3 -0.006835 -0.006439 0.016018 0.002241 0.000718 -0.012045
# 4 -0.011376 -0.010373 0.002241 0.033612 0.013388 -0.026133
# 5 -0.022307 -0.007604 0.000718 0.013388 0.040212 -0.029784
# 6 0.038755 0.018006 -0.012045 -0.026133 -0.029784 0.077363
#
#
# Mechanical properties :
#
#
# Convention : Reuss Voigt Hill
#
# Bulk Modulus (GPa) = 19.80886 61.88973 40.84929
# Shear Modulus (GPa) = 20.51349 43.25388 31.88369
#
# Velocity S-wave (km/s) = 2.85245 4.14200 3.55617
# Velocity P-wave (km/s) = 4.32500 6.88642 5.75015
#
# Compressibility (1/GPa) = 0.05048247
#
# Stress axis : x y z
#
# Youngs Moduli (GPa) = 28.67835 81.84954 62.43090
#
# Poissons Ratio (x) = -0.56997 0.42674
# Poissons Ratio (y) = -0.19971 0.40201
# Poissons Ratio (z) = 0.19603 0.52705
#
# Static dielectric constant tensor:
#      x y z
#    x 2.771850 -0.026990 -0.200530 
#    y -0.026990 1.916910 0.003570 
#    z -0.200530 0.003570 2.097370 
# 
# From -- ./inp_files/355298.got.cif
#   From: 2010.05.17/outbox.cif.g08.bks.cpg/sg2_178_cif.got.tgz:355298.got - 2010.06.03 11:33:40.
