data_PCOD9042049
_publ_section_title
;
Structure prediction by ZEFSAII (Michael W. Deem and Ramdas Pophale) SiO2 
 PCOD9042049
Probable space group: P -1
;
_chemical_formula_sum "Si O2"
_cell_formula_units_Z 16
_cell_length_a 20.720415
_cell_length_b 8.427390
_cell_length_c 8.014197
_cell_angle_alpha 126.071665
_cell_angle_beta 40.642257
_cell_angle_gamma 132.462617
_cell_volume 663.844202
_symmetry_space_group_name_H-M "P -1"
_symmetry_group_IT_number 2
_symmetry_cell_setting 'triclinic'
loop_
_space_group_symop_operation_xyz
x,y,z
-x,-y,-z
loop_
_atom_site_type_symbol
_atom_site_label
_atom_site_fract_x
_atom_site_fract_y
_atom_site_fract_z
Si Si1 0.070476 0.188180 0.850519
Si Si2 0.336672 0.652521 0.494641
Si Si3 0.491279 0.172153 0.999814
Si Si4 0.942246 0.419094 0.387020
Si Si5 0.762985 0.970873 0.592129
Si Si6 0.510941 0.600003 0.353857
Si Si7 0.737267 0.994959 0.053780
Si Si8 0.150650 0.271561 0.400629
O O1 0.066129 0.138003 0.631423
O O2 0.191229 0.202329 0.660620
O O3 0.029089 0.372422 0.075456
O O4 0.000000 0.000000 0.000000
O O5 0.400177 0.604777 0.497801
O O6 0.258115 0.450565 0.403739
O O7 0.259639 0.773843 0.762071
O O8 0.443828 0.826915 0.292948
O O9 0.540646 0.428281 0.090937
O O10 0.364356 0.112973 0.231993
O O11 0.500000 0.000000 0.000000
O O12 0.835275 0.191628 0.488684
O O13 0.902882 0.591437 0.501551
O O14 0.000000 0.500000 0.500000
O O15 0.767573 0.011711 0.807815
O O16 0.500000 0.500000 0.500000
O O17 0.615704 0.826099 0.248244
O O18 0.813905 0.875978 0.882164
#
# Coordination Sequence:
#
# PCOD9042049 Si02
#       8
#     2   2   2   2   2   2   2   2
#     4   9  21  46  71  97 134 183 236 304 367 421
#     4  12  25  45  72 104 154 195 234 290 355 431
#     4  12  24  43  69 106 149 197 234 289 358 431
#     4  11  25  47  74 105 137 181 241 314 370 421
#     4  10  23  44  69 100 142 185 240 293 358 435
#     4  12  25  42  67 103 151 196 238 287 341 423
#     4  11  24  44  69 107 144 192 241 287 346 427
#     4  11  24  48  75 105 144 189 244 293 367 444
#
# _framework density 24.102041
#
# number of rings (size 3 to 8) (size 9 to 14) (size 15 to 20)
#    0.000    1.000    2.500    4.125    3.500    0.000 
#   11.250    3.125    0.000    0.000    0.000    0.000 
#    0.000    0.000    0.000    0.000    0.000    0.000 
#
# Total GULP energy -89186.859908 kJ/mol
# GULP energy per Si atom -5574.178744 kJ/mol
# Density = 2.404718 g / cm^3
# Si number density = 24.102041 Si / 1000 Ang^3
#
#
#
# Elastic Constant Matrix: (Units=GPa)
#
#
# Indices 1 2 3 4 5 6 
#
# 1 98.8233 29.0720 46.9729 -5.9064 -23.9331 -30.1011
# 2 29.0720 93.5552 53.4170 -7.6152 -13.2413 -18.8886
# 3 46.9729 53.4170 198.6263 13.4952 -29.4343 -9.8872
# 4 -5.9064 -7.6152 13.4952 58.7453 -8.6148 -7.0676
# 5 -23.9331 -13.2413 -29.4343 -8.6148 25.9270 4.5157
# 6 -30.1011 -18.8886 -9.8872 -7.0676 4.5157 39.7003
#
#
#
# Elastic Compliance Matrix: (Units=1/GPa)
#
#
# Indices 1 2 3 4 5 6 
#
# 1 0.019287 0.000789 -0.002242 0.006481 0.015404 0.013842
# 2 0.000789 0.014830 -0.003434 0.004314 0.004610 0.007043
# 3 -0.002242 -0.003434 0.007096 -0.002003 0.003981 -0.002376
# 4 0.006481 0.004314 -0.002003 0.021457 0.011477 0.008982
# 5 0.015404 0.004610 0.003981 0.011477 0.061755 0.009883
# 6 0.013842 0.007043 -0.002376 0.008982 0.009883 0.038918
#
#
# Mechanical properties :
#
#
# Convention : Reuss Voigt Hill
#
# Bulk Modulus (GPa) = 31.80786 72.21430 52.01108
# Shear Modulus (GPa) = 27.23361 42.31069 34.77215
#
# Velocity S-wave (km/s) = 3.36509 4.19439 3.80242
# Velocity P-wave (km/s) = 5.32205 7.31329 6.39564
#
# Compressibility (1/GPa) = 0.03143877
#
# Stress axis : x y z
#
# Youngs Moduli (GPa) = 51.84948 67.43068 140.92283
#
# Poissons Ratio (x) = -0.05321 0.31594
# Poissons Ratio (y) = -0.04092 0.48396
# Poissons Ratio (z) = 0.11624 0.23157
#
# Static dielectric constant tensor:
#      x y z
#    x 1.986180 0.044190 -0.069840 
#    y 0.044190 1.974490 -0.071460 
#    z -0.069840 -0.071460 2.059260 
# 
# From -- ./inp_files/352366.got.cif
#   From: 2010.05.17/outbox.cif.g08.bks.cpg/sg2_177_cif.got.tgz:352366.got - 2010.06.03 11:33:40.
