data_PCOD9042900
_publ_section_title
;
Structure prediction by ZEFSAII (Michael W. Deem and Ramdas Pophale) SiO2 
 PCOD9042900
Probable space group: P -1
;
_chemical_formula_sum "Si O2"
_cell_formula_units_Z 14
_cell_length_a 7.699096
_cell_length_b 7.904156
_cell_length_c 19.029490
_cell_angle_alpha 45.027540
_cell_angle_beta 54.688184
_cell_angle_gamma 46.755205
_cell_volume 586.797476
_symmetry_space_group_name_H-M "P -1"
_symmetry_group_IT_number 2
_symmetry_cell_setting 'triclinic'
loop_
_space_group_symop_operation_xyz
x,y,z
-x,-y,-z
loop_
_atom_site_type_symbol
_atom_site_label
_atom_site_fract_x
_atom_site_fract_y
_atom_site_fract_z
Si Si1 0.297080 0.877473 0.653438
Si Si2 0.062563 0.345333 0.234429
Si Si3 0.786282 0.957780 0.096449
Si Si4 0.660462 0.629383 0.519665
Si Si5 0.793993 0.264228 0.132346
Si Si6 0.235051 0.908954 0.423803
Si Si7 0.710153 0.813285 0.925956
O O1 0.121843 0.776929 0.689584
O O2 0.545014 0.715298 0.598922
O O3 0.307070 0.789212 0.757061
O O4 0.191467 0.203863 0.574754
O O5 0.910667 0.663553 0.189856
O O6 0.177687 0.309986 0.140763
O O7 0.237730 0.158523 0.308841
O O8 0.690474 0.178245 0.115702
O O9 0.572017 0.989730 0.084543
O O10 0.000000 0.000000 0.000000
O O11 0.452211 0.784095 0.464630
O O12 0.745132 0.320593 0.568708
O O13 0.091961 0.103198 0.115296
O O14 0.725783 0.576387 0.042693
O O15 0.000000 0.000000 0.500000
#
# Coordination Sequence:
#
# PCOD9042900 Si02
#       7
#     2   2   2   2   2   2   2
#     4  10  23  45  66 101 142 179 239 288 357 426
#     4  11  25  44  66 105 140 183 236 294 358 427
#     4  12  26  44  72 106 144 192 238 295 359 427
#     4  10  24  45  69 100 137 186 234 302 353 414
#     4  10  23  46  71 104 142 193 237 292 363 428
#     4  11  24  43  70  99 136 184 239 291 355 430
#     4  10  24  47  69 101 149 181 241 300 349 436
#
# _framework density 23.858315000000001
#
# number of rings (size 3 to 8) (size 9 to 14) (size 15 to 20)
#    0.000    1.429    2.857    0.429    6.000    1.143 
#    2.571    0.000    0.000    0.000    0.000    0.000 
#    0.000    0.000    0.000    0.000    0.000    0.000 
#
# Total GULP energy -78259.531384 kJ/mol
# GULP energy per Si atom -5589.966527 kJ/mol
# Density = 2.380401 g / cm^3
# Si number density = 23.858315 Si / 1000 Ang^3
#
#
#
# Elastic Constant Matrix: (Units=GPa)
#
#
# Indices 1 2 3 4 5 6 
#
# 1 119.6297 14.0402 25.6848 -7.0579 -8.3197 -9.7837
# 2 14.0402 54.8996 30.4265 -9.4389 -3.6414 10.0890
# 3 25.6848 30.4265 158.5878 -2.8653 3.4441 -1.4646
# 4 -7.0579 -9.4389 -2.8653 44.2283 5.7662 4.1505
# 5 -8.3197 -3.6414 3.4441 5.7662 36.9025 -6.1082
# 6 -9.7837 10.0890 -1.4646 4.1505 -6.1082 31.8554
#
#
#
# Elastic Compliance Matrix: (Units=1/GPa)
#
#
# Indices 1 2 3 4 5 6 
#
# 1 0.009393 -0.002333 -0.001090 0.000208 0.002627 0.004050
# 2 -0.002333 0.023691 -0.004153 0.005289 -0.000138 -0.009126
# 3 -0.001090 -0.004153 0.007303 -0.000561 -0.001053 0.001188
# 4 0.000208 0.005289 -0.000561 0.024815 -0.004196 -0.005675
# 5 0.002627 -0.000138 -0.001053 -0.004196 0.029593 0.007023
# 6 0.004050 -0.009126 0.001188 -0.005675 0.007023 0.037667
#
#
# Mechanical properties :
#
#
# Convention : Reuss Voigt Hill
#
# Bulk Modulus (GPa) = 39.62678 52.60224 46.11451
# Shear Modulus (GPa) = 32.04624 40.12829 36.08727
#
# Velocity S-wave (km/s) = 3.66893 4.10560 3.89339
# Velocity P-wave (km/s) = 5.88161 6.67609 6.29140
#
# Compressibility (1/GPa) = 0.02523546
#
# Stress axis : x y z
#
# Youngs Moduli (GPa) = 106.46157 42.21056 136.93642
#
# Poissons Ratio (x) = 0.09846 0.14921
# Poissons Ratio (y) = 0.24833 0.56873
# Poissons Ratio (z) = 0.11601 0.17531
#
# Static dielectric constant tensor:
#      x y z
#    x 1.969650 -0.060090 -0.002830 
#    y -0.060090 1.954530 -0.016450 
#    z -0.002830 -0.016450 1.887400 
# 
# From -- ./inp_files/587121.got.cif
#   From: 2010.05.17/outbox.cif.g08.bks.cpg/sg2_294_cif.got.tgz:587121.got - 2010.06.03 11:33:40.
