data_PCOD9042331
_publ_section_title
;
Structure prediction by ZEFSAII (Michael W. Deem and Ramdas Pophale) SiO2 
 PCOD9042331
Probable space group: P -1
;
_chemical_formula_sum "Si O2"
_cell_formula_units_Z 16
_cell_length_a 20.641413
_cell_length_b 17.112525
_cell_length_c 10.591452
_cell_angle_alpha 149.401369
_cell_angle_beta 40.599247
_cell_angle_gamma 159.730792
_cell_volume 634.630172
_symmetry_space_group_name_H-M "P -1"
_symmetry_group_IT_number 2
_symmetry_cell_setting 'triclinic'
loop_
_space_group_symop_operation_xyz
x,y,z
-x,-y,-z
loop_
_atom_site_type_symbol
_atom_site_label
_atom_site_fract_x
_atom_site_fract_y
_atom_site_fract_z
Si Si1 0.769757 0.501698 0.144804
Si Si2 0.666050 0.113938 0.474128
Si Si3 0.220655 0.136593 0.290150
Si Si4 0.920261 0.987662 0.229454
Si Si5 0.396740 0.067498 0.955998
Si Si6 0.334981 0.161170 0.735804
Si Si7 0.148752 0.561195 0.823411
Si Si8 0.009169 0.792464 0.895499
O O1 0.742784 0.640902 0.421407
O O2 0.737456 0.339210 0.079956
O O3 0.609536 0.279750 0.963185
O O4 0.999466 0.795019 0.182126
O O5 0.868744 0.468314 0.689640
O O6 0.500000 0.000000 0.500000
O O7 0.689810 0.047769 0.217684
O O8 0.604395 0.925063 0.420941
O O9 0.366185 0.205248 0.226148
O O10 0.195764 0.095090 0.119077
O O11 0.732635 0.851819 0.313576
O O12 0.878180 0.773614 0.066951
O O13 0.067898 0.293373 0.511307
O O14 0.000000 0.000000 0.000000
O O15 0.267900 0.794913 0.859886
O O16 0.500000 0.500000 0.000000
O O17 0.117233 0.884480 0.735201
O O18 0.000000 0.500000 0.000000
#
# Coordination Sequence:
#
# PCOD9042331 Si02
#       8
#     2   2   2   2   2   2   2   2
#     4  11  25  46  69 103 139 192 239 295 364 441
#     4  12  26  44  72 107 141 190 247 302 367 440
#     4  11  23  45  73  97 140 189 242 296 366 433
#     4  10  23  44  70  97 139 190 234 296 361 425
#     4  12  25  45  72 102 147 184 244 302 362 437
#     4  11  24  42  66 108 141 184 239 295 364 436
#     4  12  25  46  70 108 144 193 239 301 374 434
#     4  11  22  45  71  96 140 190 234 297 363 428
#
# _framework density 25.211535000000001
#
# number of rings (size 3 to 8) (size 9 to 14) (size 15 to 20)
#    0.000    0.750    3.750    4.125    1.750    2.000 
#    2.250    0.000    0.000    0.000    0.000    0.000 
#    0.000    0.000    0.000    0.000    0.000    0.000 
#
# Total GULP energy -89099.954265 kJ/mol
# GULP energy per Si atom -5568.747142 kJ/mol
# Density = 2.515415 g / cm^3
# Si number density = 25.211535 Si / 1000 Ang^3
#
#
#
# Elastic Constant Matrix: (Units=GPa)
#
#
# Indices 1 2 3 4 5 6 
#
# 1 110.2154 6.8861 30.8339 2.6627 -23.9844 32.5256
# 2 6.8861 51.8547 18.4736 -5.0563 -12.0161 13.3762
# 3 30.8339 18.4736 111.2248 3.1836 -19.7864 3.7486
# 4 2.6627 -5.0563 3.1836 28.0023 0.9648 -5.7791
# 5 -23.9844 -12.0161 -19.7864 0.9648 53.9023 -1.9623
# 6 32.5256 13.3762 3.7486 -5.7791 -1.9623 35.8586
#
#
#
# Elastic Compliance Matrix: (Units=1/GPa)
#
#
# Indices 1 2 3 4 5 6 
#
# 1 0.015919 0.004281 -0.003356 -0.003871 0.006294 -0.015965
# 2 0.004281 0.024692 -0.003957 0.001818 0.005484 -0.012087
# 3 -0.003356 -0.003957 0.010802 -0.000997 0.001729 0.003324
# 4 -0.003871 0.001818 -0.000997 0.038454 -0.002043 0.009023
# 5 0.006294 0.005484 0.001729 -0.002043 0.022991 -0.007006
# 6 -0.015965 -0.012087 0.003324 0.009023 -0.007006 0.047600
#
#
# Mechanical properties :
#
#
# Convention : Reuss Voigt Hill
#
# Bulk Modulus (GPa) = 22.05094 42.85355 32.45225
# Shear Modulus (GPa) = 27.52728 38.02608 32.77668
#
# Velocity S-wave (km/s) = 3.30790 3.88787 3.60956
# Velocity P-wave (km/s) = 4.83270 6.09824 5.50198
#
# Compressibility (1/GPa) = 0.04534954
#
# Stress axis : x y z
#
# Youngs Moduli (GPa) = 62.81819 40.49932 92.57275
#
# Poissons Ratio (x) = -0.17337 0.31063
# Poissons Ratio (y) = -0.26891 0.36630
# Poissons Ratio (z) = 0.21079 0.16025
#
# Static dielectric constant tensor:
#      x y z
#    x 2.453140 -0.184630 0.054730 
#    y -0.184630 2.270200 -0.176910 
#    z 0.054730 -0.176910 2.086100 
# 
# From -- ./inp_files/472496.got.cif
#   From: 2010.05.17/outbox.cif.g08.bks.cpg/sg2_237_cif.got.tgz:472496.got - 2010.06.03 11:33:40.
