data_PCOD9042476
_publ_section_title
;
Structure prediction by ZEFSAII (Michael W. Deem and Ramdas Pophale) SiO2 
 PCOD9042476
Probable space group: P -1
;
_chemical_formula_sum "Si O2"
_cell_formula_units_Z 12
_cell_length_a 15.930515
_cell_length_b 8.038456
_cell_length_c 15.314497
_cell_angle_alpha 128.189546
_cell_angle_beta 19.335868
_cell_angle_gamma 122.039359
_cell_volume 499.709252
_symmetry_space_group_name_H-M "P -1"
_symmetry_group_IT_number 2
_symmetry_cell_setting 'triclinic'
loop_
_space_group_symop_operation_xyz
x,y,z
-x,-y,-z
loop_
_atom_site_type_symbol
_atom_site_label
_atom_site_fract_x
_atom_site_fract_y
_atom_site_fract_z
Si Si1 0.221202 0.092715 0.266049
Si Si2 0.994276 0.729614 0.035575
Si Si3 0.506952 0.807567 0.243082
Si Si4 0.491696 0.340934 0.609005
Si Si5 0.068643 0.574900 0.551555
Si Si6 0.291113 0.854608 0.936545
O O1 0.173557 0.344810 0.417859
O O2 0.000000 0.000000 0.500000
O O3 0.500000 0.000000 0.000000
O O4 0.223388 0.011557 0.137082
O O5 0.241534 0.713954 0.724335
O O6 0.057886 0.868840 0.100451
O O7 0.000000 0.500000 0.000000
O O8 0.732909 0.767327 0.248059
O O9 0.460723 0.750755 0.370112
O O10 0.300431 0.702026 0.359537
O O11 0.498263 0.049589 0.295121
O O12 0.805077 0.692084 0.893984
O O13 0.390594 0.604334 0.787229
O O14 0.000000 0.500000 0.500000
#
# Coordination Sequence:
#
# PCOD9042476 Si02
#       6
#     2   2   2   2   2   2
#     4  12  27  44  71 102 136 182 235 285 340 417
#     4  10  23  44  71  99 139 181 224 292 345 404
#     4  12  27  44  73 103 138 188 228 285 349 415
#     4  11  24  46  68 103 141 174 232 291 340 408
#     4  12  25  47  66 100 145 178 229 289 343 403
#     4  11  25  44  72  99 135 186 233 274 354 414
#
# _framework density 24.013963
#
# number of rings (size 3 to 8) (size 9 to 14) (size 15 to 20)
#    0.000    0.667    1.667    6.500    2.333   10.667 
#    0.000    0.000    0.000    0.000    0.000    0.000 
#    0.000    0.000    0.000    0.000    0.000    0.000 
#
# Total GULP energy -67183.203645 kJ/mol
# GULP energy per Si atom -5598.600304 kJ/mol
# Density = 2.395931 g / cm^3
# Si number density = 24.013963 Si / 1000 Ang^3
#
#
#
# Elastic Constant Matrix: (Units=GPa)
#
#
# Indices 1 2 3 4 5 6 
#
# 1 137.2156 30.9356 33.2804 -28.5121 10.8856 17.7804
# 2 30.9356 158.5483 46.9797 -20.7986 -7.9621 5.6615
# 3 33.2804 46.9797 151.4960 -26.3034 -1.4843 5.2322
# 4 -28.5121 -20.7986 -26.3034 57.1021 8.8637 -8.1520
# 5 10.8856 -7.9621 -1.4843 8.8637 45.7838 -10.8623
# 6 17.7804 5.6615 5.2322 -8.1520 -10.8623 46.2921
#
#
#
# Elastic Compliance Matrix: (Units=1/GPa)
#
#
# Indices 1 2 3 4 5 6 
#
# 1 0.009383 -0.001106 -0.000945 0.003963 -0.004080 -0.003621
# 2 -0.001106 0.007261 -0.001815 0.001087 0.001314 0.000242
# 3 -0.000945 -0.001815 0.007803 0.002520 -0.000308 0.000074
# 4 0.003963 0.001087 0.002520 0.021896 -0.004719 0.000809
# 5 -0.004080 0.001314 -0.000308 -0.004719 0.025509 0.006596
# 6 -0.003621 0.000242 0.000074 0.000809 0.006596 0.024645
#
#
# Mechanical properties :
#
#
# Convention : Reuss Voigt Hill
#
# Bulk Modulus (GPa) = 59.83176 74.40570 67.11873
# Shear Modulus (GPa) = 45.53664 52.23988 48.88826
#
# Velocity S-wave (km/s) = 4.35933 4.66917 4.51691
# Velocity P-wave (km/s) = 7.09280 7.75370 7.43060
#
# Compressibility (1/GPa) = 0.01671353
#
# Stress axis : x y z
#
# Youngs Moduli (GPa) = 106.57682 137.72344 128.15072
#
# Poissons Ratio (x) = 0.15239 0.12109
# Poissons Ratio (y) = 0.11793 0.23265
# Poissons Ratio (z) = 0.10070 0.25003
#
# Static dielectric constant tensor:
#      x y z
#    x 1.967660 -0.040090 -0.030180 
#    y -0.040090 2.041830 0.088470 
#    z -0.030180 0.088470 1.900880 
# 
# From -- ./inp_files/75751.got.cif
#   From: 2010.05.17/outbox.cif.g08.bks.cpg/sg2_38_cif.got.tgz:75751.got - 2010.06.03 11:33:40.
