data_PCOD9042743
_publ_section_title
;
Structure prediction by ZEFSAII (Michael W. Deem and Ramdas Pophale) SiO2 
 PCOD9042743
Probable space group: P -1
;
_chemical_formula_sum "Si O2"
_cell_formula_units_Z 12
_cell_length_a 11.359142
_cell_length_b 5.551684
_cell_length_c 8.614959
_cell_angle_alpha 92.029093
_cell_angle_beta 66.273530
_cell_angle_gamma 114.636090
_cell_volume 446.334922
_symmetry_space_group_name_H-M "P -1"
_symmetry_group_IT_number 2
_symmetry_cell_setting 'triclinic'
loop_
_space_group_symop_operation_xyz
x,y,z
-x,-y,-z
loop_
_atom_site_type_symbol
_atom_site_label
_atom_site_fract_x
_atom_site_fract_y
_atom_site_fract_z
Si Si1 0.130581 0.500120 0.330291
Si Si2 0.776337 0.581029 0.394808
Si Si3 0.530267 0.809412 0.861798
Si Si4 0.066394 0.752370 0.088408
Si Si5 0.734517 0.702322 0.979809
Si Si6 0.643389 0.982755 0.474715
O O1 0.217423 0.440358 0.421324
O O2 0.151799 0.729469 0.196923
O O3 0.135599 0.302171 0.188877
O O4 0.000000 0.500000 0.500000
O O5 0.672913 0.724968 0.418149
O O6 0.925635 0.757905 0.236899
O O7 0.753114 0.276041 0.363967
O O8 0.624837 0.707151 0.909570
O O9 0.624738 0.970297 0.670534
O O10 0.374753 0.573588 0.884036
O O11 0.500000 0.000000 0.000000
O O12 0.186420 0.026959 0.959010
O O13 0.000000 0.500000 0.000000
O O14 0.500000 0.000000 0.500000
#
# Coordination Sequence:
#
# PCOD9042743 Si02
#       6
#     2   2   2   2   2   2
#     4  10  23  44  75 109 149 203 257 321 384 478
#     4  11  26  50  79 111 156 207 269 322 399 477
#     4  11  25  47  77 115 152 204 265 322 393 478
#     4  11  27  48  73 117 160 207 263 329 399 470
#     4  11  23  45  80 112 153 203 260 325 394 471
#     4  12  27  51  76 113 156 208 262 331 398 471
#
# _framework density 26.885639999999999
#
# number of rings (size 3 to 8) (size 9 to 14) (size 15 to 20)
#    0.000    1.000    1.667    3.500    7.000    4.667 
#    6.000    0.000    0.000    0.000    0.000    0.000 
#    0.000    0.000    0.000    0.000    0.000    0.000 
#
# Total GULP energy -66814.355227 kJ/mol
# GULP energy per Si atom -5567.862936 kJ/mol
# Density = 2.682445 g / cm^3
# Si number density = 26.885640 Si / 1000 Ang^3
#
#
#
# Elastic Constant Matrix: (Units=GPa)
#
#
# Indices 1 2 3 4 5 6 
#
# 1 113.2901 64.5641 40.4733 -10.1543 12.3883 -19.4016
# 2 64.5641 180.8660 66.3635 -16.4478 -21.7139 11.3329
# 3 40.4733 66.3635 114.0544 -1.5206 -0.1007 -7.4052
# 4 -10.1543 -16.4478 -1.5206 51.3578 -7.8668 -9.6101
# 5 12.3883 -21.7139 -0.1007 -7.8668 53.1504 -7.3625
# 6 -19.4016 11.3329 -7.4052 -9.6101 -7.3625 56.0573
#
#
#
# Elastic Compliance Matrix: (Units=1/GPa)
#
#
# Indices 1 2 3 4 5 6 
#
# 1 0.013776 -0.005061 -0.001589 0.001370 -0.004352 0.005244
# 2 -0.005061 0.009860 -0.004118 0.002206 0.005077 -0.003244
# 3 -0.001589 -0.004118 0.011806 -0.001202 -0.001264 0.001470
# 4 0.001370 0.002206 -0.001202 0.021872 0.004398 0.004197
# 5 -0.004352 0.005077 -0.001264 0.004398 0.022695 0.001035
# 6 0.005244 -0.003244 0.001470 0.004197 0.001035 0.021359
#
#
# Mechanical properties :
#
#
# Convention : Reuss Voigt Hill
#
# Bulk Modulus (GPa) = 71.91021 83.44581 77.67801
# Shear Modulus (GPa) = 39.20383 47.90043 43.55213
#
# Velocity S-wave (km/s) = 3.82274 4.22552 4.02917
# Velocity P-wave (km/s) = 6.80362 7.41022 7.11339
#
# Compressibility (1/GPa) = 0.01390623
#
# Stress axis : x y z
#
# Youngs Moduli (GPa) = 72.59182 101.42048 84.70412
#
# Poissons Ratio (x) = 0.51330 0.13456
# Poissons Ratio (y) = 0.36739 0.34880
# Poissons Ratio (z) = 0.11532 0.41763
#
# Static dielectric constant tensor:
#      x y z
#    x 2.208970 0.113160 -0.080290 
#    y 0.113160 2.142600 0.105350 
#    z -0.080290 0.105350 1.880960 
# 
# From -- ./inp_files/228583.got.cif
#   From: 2010.05.17/outbox.cif.g08.bks.cpg/sg2_115_cif.got.tgz:228583.got - 2010.06.03 11:33:40.
