data_PCOD9042140
_publ_section_title
;
Structure prediction by ZEFSAII (Michael W. Deem and Ramdas Pophale) SiO2 
 PCOD9042140
Probable space group: P -1
;
_chemical_formula_sum "Si O2"
_cell_formula_units_Z 16
_cell_length_a 11.151007
_cell_length_b 12.188437
_cell_length_c 13.756142
_cell_angle_alpha 69.767543
_cell_angle_beta 109.302868
_cell_angle_gamma 45.736564
_cell_volume 659.447111
_symmetry_space_group_name_H-M "P -1"
_symmetry_group_IT_number 2
_symmetry_cell_setting 'triclinic'
loop_
_space_group_symop_operation_xyz
x,y,z
-x,-y,-z
loop_
_atom_site_type_symbol
_atom_site_label
_atom_site_fract_x
_atom_site_fract_y
_atom_site_fract_z
Si Si1 0.015146 0.518692 0.266280
Si Si2 0.778390 0.943874 0.810019
Si Si3 0.235221 0.696424 0.131600
Si Si4 0.752144 0.037238 0.196932
Si Si5 0.197961 0.782597 0.707611
Si Si6 0.055610 0.653114 0.773501
Si Si7 0.430624 0.054719 0.800570
Si Si8 0.622110 0.559080 0.570771
O O1 0.129080 0.289979 0.352119
O O2 0.278753 0.396790 0.374945
O O3 0.815313 0.698203 0.257515
O O4 0.766636 0.752134 0.039941
O O5 0.643793 0.180147 0.658540
O O6 0.498156 0.097111 0.726883
O O7 0.968791 0.719793 0.843379
O O8 0.013494 0.777711 0.010983
O O9 0.461956 0.535753 0.151479
O O10 0.433251 0.484492 0.343282
O O11 0.000000 0.000000 0.000000
O O12 0.758438 0.151696 0.222876
O O13 0.697779 0.962541 0.265965
O O14 0.432229 0.310548 0.962867
O O15 0.068920 0.751666 0.307204
O O16 0.020990 0.816919 0.686524
O O17 0.000000 0.000000 0.500000
#
# Coordination Sequence:
#
# PCOD9042140 Si02
#       8
#     2   2   2   2   2   2   2   2
#     4   9  20  41  70  96 135 174 225 269 330 407
#     4  12  26  42  70 103 136 173 223 280 343 386
#     4  12  28  46  69  99 137 181 222 279 334 400
#     4  10  23  44  69  95 134 177 224 271 327 408
#     4  12  27  45  67  96 136 179 225 276 334 400
#     4  11  24  43  67  96 133 181 217 278 337 397
#     4   9  20  40  69 100 130 179 218 273 339 390
#     4  11  25  45  70 104 133 173 228 281 325 401
#
# _framework density 24.262748999999999
#
# number of rings (size 3 to 8) (size 9 to 14) (size 15 to 20)
#    0.000    1.250    2.500    2.625    5.250    7.000 
#    0.000    0.000    0.000    0.000    0.000    0.000 
#    0.000    0.000    0.000    0.000    0.000    0.000 
#
# Total GULP energy -89565.591039 kJ/mol
# GULP energy per Si atom -5597.849440 kJ/mol
# Density = 2.420753 g / cm^3
# Si number density = 24.262749 Si / 1000 Ang^3
#
#
#
# Elastic Constant Matrix: (Units=GPa)
#
#
# Indices 1 2 3 4 5 6 
#
# 1 144.0637 55.4098 1.8466 16.6653 -14.4447 12.3309
# 2 55.4098 118.5404 -2.2046 -10.4102 -0.9503 16.0979
# 3 1.8466 -2.2046 56.9050 -2.4706 -8.6378 -1.5731
# 4 16.6653 -10.4102 -2.4706 25.2593 -1.0314 5.2334
# 5 -14.4447 -0.9503 -8.6378 -1.0314 35.9374 4.5665
# 6 12.3309 16.0979 -1.5731 5.2334 4.5665 39.7922
#
#
#
# Elastic Compliance Matrix: (Units=1/GPa)
#
#
# Indices 1 2 3 4 5 6 
#
# 1 0.010604 -0.005711 -0.000397 -0.009189 0.003779 -0.000216
# 2 -0.005711 0.012597 0.000843 0.009937 -0.000903 -0.004496
# 3 -0.000397 0.000843 0.018393 0.002660 0.004404 -0.000346
# 4 -0.009189 0.009937 0.002660 0.051615 -0.000317 -0.007819
# 5 0.003779 -0.000903 0.004404 -0.000317 0.030896 -0.004136
# 6 -0.000216 -0.004496 -0.000346 -0.007819 -0.004136 0.028506
#
#
# Mechanical properties :
#
#
# Convention : Reuss Voigt Hill
#
# Bulk Modulus (GPa) = 32.19040 47.73475 39.96257
# Shear Modulus (GPa) = 28.81930 37.82827 33.32378
#
# Velocity S-wave (km/s) = 3.45019 3.95284 3.71004
# Velocity P-wave (km/s) = 5.40073 6.36789 5.90415
#
# Compressibility (1/GPa) = 0.03106516
#
# Stress axis : x y z
#
# Youngs Moduli (GPa) = 94.30775 79.38234 54.36812
#
# Poissons Ratio (x) = 0.45337 0.02156
# Poissons Ratio (y) = 0.53861 -0.04585
# Poissons Ratio (z) = 0.03740 -0.06695
#
# Static dielectric constant tensor:
#      x y z
#    x 1.997340 0.013410 0.024080 
#    y 0.013410 1.911300 -0.035030 
#    z 0.024080 -0.035030 1.975390 
# 
# From -- ./inp_files/308375.got.cif
#   From: 2010.05.17/outbox.cif.g08.bks.cpg/sg2_155_cif.got.tgz:308375.got - 2010.06.03 11:33:40.
