data_PCOD9042880
_publ_section_title
;
Structure prediction by ZEFSAII (Michael W. Deem and Ramdas Pophale) SiO2 
 PCOD9042880
Probable space group: P -1
;
_chemical_formula_sum "Si O2"
_cell_formula_units_Z 16
_cell_length_a 11.765888
_cell_length_b 11.794562
_cell_length_c 7.004938
_cell_angle_alpha 64.515462
_cell_angle_beta 62.491570
_cell_angle_gamma 67.512010
_cell_volume 757.530022
_symmetry_space_group_name_H-M "P -1"
_symmetry_group_IT_number 2
_symmetry_cell_setting 'triclinic'
loop_
_space_group_symop_operation_xyz
x,y,z
-x,-y,-z
loop_
_atom_site_type_symbol
_atom_site_label
_atom_site_fract_x
_atom_site_fract_y
_atom_site_fract_z
Si Si1 0.087460 0.461375 0.274041
Si Si2 0.523996 0.965549 0.724949
Si Si3 0.457284 0.556689 0.698554
Si Si4 0.723274 0.970812 0.862313
Si Si5 0.031682 0.223058 0.320973
Si Si6 0.083894 0.893972 0.155496
Si Si7 0.389884 0.337998 0.181968
Si Si8 0.170532 0.710869 0.879450
O O1 0.018388 0.372818 0.262737
O O2 0.231766 0.375308 0.277778
O O3 0.000000 0.500000 0.500000
O O4 0.110735 0.587850 0.061988
O O5 0.646076 0.011176 0.694666
O O6 0.555877 0.809127 0.820045
O O7 0.500000 0.000000 0.500000
O O8 0.393953 0.029872 0.898439
O O9 0.500000 0.500000 0.500000
O O10 0.556934 0.628034 0.678021
O O11 0.317129 0.657946 0.729910
O O12 0.438203 0.436011 0.929437
O O13 0.826709 0.837632 0.834709
O O14 0.813100 0.056201 0.827174
O O15 0.010626 0.158118 0.586175
O O16 0.921568 0.204947 0.268759
O O17 0.164119 0.785178 0.030553
O O18 0.000000 0.000000 0.000000
#
# Coordination Sequence:
#
# PCOD9042880 Si02
#       8
#     2   2   2   2   2   2   2   2
#     4  11  23  44  70  98 136 178 223 283 340 395
#     4  11  26  46  70  98 138 184 222 282 337 400
#     4  10  24  43  69  97 130 175 223 276 338 391
#     4  11  26  44  68 104 132 178 235 269 338 411
#     4  12  25  45  72  98 139 174 228 284 339 409
#     4  12  26  44  69 100 140 178 221 282 343 407
#     4  10  23  45  65  97 135 170 225 278 327 405
#     4  11  25  43  70 103 132 181 225 277 345 407
#
# _framework density 21.121275000000001
#
# number of rings (size 3 to 8) (size 9 to 14) (size 15 to 20)
#    0.000    1.000    3.750    1.500    3.500    6.000 
#    0.000    0.000    0.000    0.000    0.000    0.000 
#    0.000    0.000    0.000    0.000    0.000    0.000 
#
# Total GULP energy -89458.399857 kJ/mol
# GULP energy per Si atom -5591.149991 kJ/mol
# Density = 2.107320 g / cm^3
# Si number density = 21.121275 Si / 1000 Ang^3
#
#
#
# Elastic Constant Matrix: (Units=GPa)
#
#
# Indices 1 2 3 4 5 6 
#
# 1 106.8578 32.7275 44.5450 13.7993 22.4337 9.0994
# 2 32.7275 110.5367 42.8931 32.6801 3.1475 1.2528
# 3 44.5450 42.8931 85.4057 30.3330 18.8472 -12.5301
# 4 13.7993 32.6801 30.3330 42.0758 1.6731 1.7259
# 5 22.4337 3.1475 18.8472 1.6731 29.8311 7.6079
# 6 9.0994 1.2528 -12.5301 1.7259 7.6079 44.6423
#
#
#
# Elastic Compliance Matrix: (Units=1/GPa)
#
#
# Indices 1 2 3 4 5 6 
#
# 1 0.013751 -0.002046 -0.006142 0.001871 -0.005427 -0.003617
# 2 -0.002046 0.013145 -0.004191 -0.006598 0.003546 -0.001477
# 3 -0.006142 -0.004191 0.026857 -0.014016 -0.014145 0.011860
# 4 0.001871 -0.006598 -0.014016 0.038358 0.007762 -0.006936
# 5 -0.005427 0.003546 -0.014145 0.007762 0.048679 -0.011560
# 6 -0.003617 -0.001477 0.011860 -0.006936 -0.011560 0.028746
#
#
# Mechanical properties :
#
#
# Convention : Reuss Voigt Hill
#
# Bulk Modulus (GPa) = 34.48820 60.34794 47.41807
# Shear Modulus (GPa) = 24.51482 35.48549 30.00015
#
# Velocity S-wave (km/s) = 3.41056 4.10333 3.77288
# Velocity P-wave (km/s) = 5.64564 7.14730 6.44039
#
# Compressibility (1/GPa) = 0.02899542
#
# Stress axis : x y z
#
# Youngs Moduli (GPa) = 72.72243 76.07378 37.23442
#
# Poissons Ratio (x) = 0.15561 0.22871
# Poissons Ratio (y) = 0.14876 0.15604
# Poissons Ratio (z) = 0.44669 0.31881
#
# Static dielectric constant tensor:
#      x y z
#    x 1.797670 0.018270 0.021840 
#    y 0.018270 1.752710 -0.020090 
#    z 0.021840 -0.020090 1.741890 
# 
# From -- ./inp_files/68975.got.cif
#   From: 2010.05.17/outbox.cif.g08.bks.cpg/sg2_35_cif.got.tgz:68975.got - 2010.06.03 11:33:40.
