data_PCOD9042595
_publ_section_title
;
Structure prediction by ZEFSAII (Michael W. Deem and Ramdas Pophale) SiO2 
 PCOD9042595
Probable space group: P -1
;
_chemical_formula_sum "Si O2"
_cell_formula_units_Z 16
_cell_length_a 11.452741
_cell_length_b 8.405141
_cell_length_c 9.009664
_cell_angle_alpha 88.463662
_cell_angle_beta 127.337343
_cell_angle_gamma 96.388143
_cell_volume 684.371512
_symmetry_space_group_name_H-M "P -1"
_symmetry_group_IT_number 2
_symmetry_cell_setting 'triclinic'
loop_
_space_group_symop_operation_xyz
x,y,z
-x,-y,-z
loop_
_atom_site_type_symbol
_atom_site_label
_atom_site_fract_x
_atom_site_fract_y
_atom_site_fract_z
Si Si1 0.628019 0.526962 0.720294
Si Si2 0.128130 0.868750 0.795054
Si Si3 0.056242 0.869115 0.239587
Si Si4 0.878660 0.365326 0.469646
Si Si5 0.053353 0.336775 0.106688
Si Si6 0.558828 0.313120 0.199914
Si Si7 0.421805 0.773699 0.121857
Si Si8 0.612713 0.008050 0.449160
O O1 0.500000 0.500000 0.500000
O O2 0.770812 0.622868 0.754873
O O3 0.572007 0.617967 0.817137
O O4 0.654237 0.358205 0.818350
O O5 0.136502 0.796062 0.639612
O O6 0.027586 0.724318 0.804588
O O7 0.294439 0.887712 0.988240
O O8 0.052009 0.027899 0.756823
O O9 0.075755 0.700127 0.336894
O O10 0.219994 0.965879 0.364255
O O11 0.991083 0.814188 0.032438
O O12 0.716367 0.422402 0.340611
O O13 0.000000 0.500000 0.500000
O O14 0.000000 0.500000 0.000000
O O15 0.584376 0.154821 0.316400
O O16 0.538702 0.288045 0.009176
O O17 0.566108 0.855098 0.314185
O O18 0.500000 0.000000 0.500000
#
# Coordination Sequence:
#
# PCOD9042595 Si02
#       8
#     2   2   2   2   2   2   2   2
#     4  12  28  45  71 103 137 186 241 295 355 425
#     4  11  24  44  68 104 139 183 239 283 353 416
#     4  11  26  44  71 106 137 186 236 282 354 422
#     4  10  23  44  73 101 143 185 229 295 342 420
#     4  12  26  46  70 100 142 183 238 296 352 418
#     4  10  25  44  69 103 138 186 237 281 358 418
#     4  11  24  47  69 100 143 185 232 295 351 421
#     4  11  24  43  71 102 144 184 228 289 347 422
#
# _framework density 23.379114999999999
#
# number of rings (size 3 to 8) (size 9 to 14) (size 15 to 20)
#    0.000    1.000    1.250    3.750   12.250    0.000 
#    2.250    0.000    0.000    0.000    0.000    0.000 
#    0.000    0.000    0.000    0.000    0.000    0.000 
#
# Total GULP energy -89560.597004 kJ/mol
# GULP energy per Si atom -5597.537313 kJ/mol
# Density = 2.332590 g / cm^3
# Si number density = 23.379115 Si / 1000 Ang^3
#
#
#
# Elastic Constant Matrix: (Units=GPa)
#
#
# Indices 1 2 3 4 5 6 
#
# 1 87.7426 0.0313 36.8638 12.8655 10.9754 11.2359
# 2 0.0313 48.4224 20.8013 10.5049 10.1873 7.6339
# 3 36.8638 20.8013 120.2857 13.5555 1.3664 5.0256
# 4 12.8655 10.5049 13.5555 28.4601 7.9632 0.4741
# 5 10.9754 10.1873 1.3664 7.9632 39.0200 -2.5296
# 6 11.2359 7.6339 5.0256 0.4741 -2.5296 42.9913
#
#
#
# Elastic Compliance Matrix: (Units=1/GPa)
#
#
# Indices 1 2 3 4 5 6 
#
# 1 0.015269 0.004793 -0.004697 -0.005061 -0.004641 -0.004510
# 2 0.004793 0.026803 -0.004920 -0.007667 -0.006982 -0.005763
# 3 -0.004697 -0.004920 0.010750 -0.001952 0.002694 0.001024
# 4 -0.005061 -0.007667 -0.001952 0.042563 -0.005054 0.002145
# 5 -0.004641 -0.006982 0.002694 -0.005054 0.029950 0.003956
# 6 -0.004510 -0.005763 0.001024 0.002145 0.003956 0.025552
#
#
# Mechanical properties :
#
#
# Convention : Reuss Voigt Hill
#
# Bulk Modulus (GPa) = 23.16180 41.31594 32.23887
# Shear Modulus (GPa) = 28.58373 35.34456 31.96415
#
# Velocity S-wave (km/s) = 3.50039 3.89241 3.70159
# Velocity P-wave (km/s) = 5.12499 6.15724 5.66468
#
# Compressibility (1/GPa) = 0.04317454
#
# Stress axis : x y z
#
# Youngs Moduli (GPa) = 65.49382 37.30953 93.02044
#
# Poissons Ratio (x) = -0.17883 0.43690
# Poissons Ratio (y) = -0.31391 0.45765
# Poissons Ratio (z) = 0.30761 0.18356
#
# Static dielectric constant tensor:
#      x y z
#    x 1.866980 0.006560 -0.018130 
#    y 0.006560 1.942160 -0.042630 
#    z -0.018130 -0.042630 1.919020 
# 
# From -- ./inp_files/184305.got.cif
#   From: 2010.05.17/outbox.cif.g08.bks.cpg/sg2_93_cif.got.tgz:184305.got - 2010.06.03 11:33:40.
