data_PCOD9042524
_publ_section_title
;
Structure prediction by ZEFSAII (Michael W. Deem and Ramdas Pophale) SiO2 
 PCOD9042524
Probable space group: P -1
;
_chemical_formula_sum "Si O2"
_cell_formula_units_Z 16
_cell_length_a 9.218907
_cell_length_b 13.662469
_cell_length_c 8.246664
_cell_angle_alpha 68.782911
_cell_angle_beta 44.924046
_cell_angle_gamma 76.878187
_cell_volume 683.099049
_symmetry_space_group_name_H-M "P -1"
_symmetry_group_IT_number 2
_symmetry_cell_setting 'triclinic'
loop_
_space_group_symop_operation_xyz
x,y,z
-x,-y,-z
loop_
_atom_site_type_symbol
_atom_site_label
_atom_site_fract_x
_atom_site_fract_y
_atom_site_fract_z
Si Si1 0.564662 0.269958 0.358484
Si Si2 0.302799 0.086679 0.762662
Si Si3 0.499519 0.622207 0.967703
Si Si4 0.819729 0.746464 0.782639
Si Si5 0.923295 0.139820 0.224334
Si Si6 0.092832 0.604728 0.450781
Si Si7 0.250408 0.535441 0.712815
Si Si8 0.336153 0.047499 0.374409
O O1 0.410956 0.202843 0.637079
O O2 0.442389 0.310726 0.277205
O O3 0.739672 0.186896 0.238918
O O4 0.686640 0.369392 0.276559
O O5 0.306944 0.072944 0.573543
O O6 0.438960 0.998568 0.788429
O O7 0.081667 0.087607 0.013324
O O8 0.642695 0.653891 0.987903
O O9 0.500000 0.500000 0.000000
O O10 0.269814 0.650975 0.168375
O O11 0.712594 0.852806 0.753376
O O12 0.958022 0.772618 0.812564
O O13 0.953940 0.697851 0.562578
O O14 0.820538 0.051367 0.475853
O O15 0.191296 0.563713 0.561484
O O16 0.000000 0.500000 0.500000
O O17 0.500000 0.500000 0.500000
O O18 0.000000 0.500000 0.000000
#
# Coordination Sequence:
#
# PCOD9042524 Si02
#       8
#     2   2   2   2   2   2   2   2
#     4  11  25  44  69 105 142 196 249 306 380 452
#     4  10  23  44  72 104 141 187 239 311 374 464
#     4  12  26  45  69  97 145 195 244 304 376 452
#     4  12  26  45  68 107 147 186 244 307 380 453
#     4  11  25  43  75 103 144 182 251 306 383 459
#     4  12  27  46  72 105 146 196 254 313 375 453
#     4  12  29  48  78 109 153 203 263 321 380 450
#     4  10  23  45  70 105 142 184 244 304 382 461
#
# _framework density 23.422664999999999
#
# number of rings (size 3 to 8) (size 9 to 14) (size 15 to 20)
#    0.000    0.750    3.750    2.250    7.000    1.500 
#    0.000    0.000    0.000    0.000    0.000    0.000 
#    0.000    0.000    0.000    0.000    0.000    0.000 
#
# Total GULP energy -89152.703559 kJ/mol
# GULP energy per Si atom -5572.043972 kJ/mol
# Density = 2.336935 g / cm^3
# Si number density = 23.422665 Si / 1000 Ang^3
#
#
#
# Elastic Constant Matrix: (Units=GPa)
#
#
# Indices 1 2 3 4 5 6 
#
# 1 107.6423 23.3749 4.0701 -5.8063 -14.1712 4.6855
# 2 23.3749 90.5995 35.8861 3.3120 -13.0655 -4.0051
# 3 4.0701 35.8861 74.5214 17.3915 -22.6709 -13.5298
# 4 -5.8063 3.3120 17.3915 32.8573 0.2993 -10.1588
# 5 -14.1712 -13.0655 -22.6709 0.2993 29.6835 -5.5598
# 6 4.6855 -4.0051 -13.5298 -10.1588 -5.5598 55.1866
#
#
#
# Elastic Compliance Matrix: (Units=1/GPa)
#
#
# Indices 1 2 3 4 5 6 
#
# 1 0.010606 -0.002875 0.002325 0.000944 0.005602 0.000199
# 2 -0.002875 0.014601 -0.007656 0.001989 -0.000869 -0.000295
# 3 0.002325 -0.007656 0.026420 -0.011252 0.019077 0.005575
# 4 0.000944 0.001989 -0.011252 0.037504 -0.006989 0.003505
# 5 0.005602 -0.000869 0.019077 -0.006989 0.052139 0.008104
# 6 0.000199 -0.000295 0.005575 0.003505 0.008104 0.020911
#
#
# Mechanical properties :
#
#
# Convention : Reuss Voigt Hill
#
# Bulk Modulus (GPa) = 28.39674 44.38062 36.38868
# Shear Modulus (GPa) = 26.26992 37.50763 31.88878
#
# Velocity S-wave (km/s) = 3.35260 4.00601 3.69379
# Velocity P-wave (km/s) = 5.20927 6.35503 5.81046
#
# Compressibility (1/GPa) = 0.03521532
#
# Stress axis : x y z
#
# Youngs Moduli (GPa) = 94.28432 68.48840 37.84963
#
# Poissons Ratio (x) = 0.19693 -0.08802
# Poissons Ratio (y) = 0.27111 0.28978
# Poissons Ratio (z) = -0.21925 0.52436
#
# Static dielectric constant tensor:
#      x y z
#    x 1.916980 0.030270 -0.061510 
#    y 0.030270 1.918460 0.000270 
#    z -0.061510 0.000270 1.997910 
# 
# From -- ./inp_files/206135.got.cif
#   From: 2010.05.17/outbox.cif.g08.bks.cpg/sg2_104_cif.got.tgz:206135.got - 2010.06.03 11:33:40.
