data_PCOD9042517
_publ_section_title
;
Structure prediction by ZEFSAII (Michael W. Deem and Ramdas Pophale) SiO2 
 PCOD9042517
Probable space group: P -1
;
_chemical_formula_sum "Si O2"
_cell_formula_units_Z 16
_cell_length_a 5.317494
_cell_length_b 16.623066
_cell_length_c 7.804217
_cell_angle_alpha 69.827613
_cell_angle_beta 106.556425
_cell_angle_gamma 92.564025
_cell_volume 619.577298
_symmetry_space_group_name_H-M "P -1"
_symmetry_group_IT_number 2
_symmetry_cell_setting 'triclinic'
loop_
_space_group_symop_operation_xyz
x,y,z
-x,-y,-z
loop_
_atom_site_type_symbol
_atom_site_label
_atom_site_fract_x
_atom_site_fract_y
_atom_site_fract_z
Si Si1 0.858933 0.172790 0.278203
Si Si2 0.641521 0.859403 0.002900
Si Si3 0.103439 0.016426 0.260965
Si Si4 0.938349 0.510392 0.276622
Si Si5 0.862606 0.700465 0.997255
Si Si6 0.606393 0.905951 0.329428
Si Si7 0.534996 0.262327 0.409052
Si Si8 0.466257 0.441419 0.367893
O O1 0.799406 0.215100 0.419872
O O2 0.063582 0.091443 0.342391
O O3 0.926198 0.247831 0.104986
O O4 0.581539 0.137577 0.189064
O O5 0.503550 0.885996 0.131975
O O6 0.861721 0.924141 0.943301
O O7 0.769397 0.763112 0.089229
O O8 0.375856 0.958806 0.349649
O O9 0.858345 0.958687 0.286468
O O10 0.156415 0.450663 0.265677
O O11 0.000000 0.500000 0.500000
O O12 0.646321 0.479555 0.229571
O O13 0.952887 0.607358 0.148020
O O14 0.622441 0.699190 0.815693
O O15 0.629859 0.810954 0.485500
O O16 0.563379 0.342354 0.480301
O O17 0.500000 0.500000 0.500000
#
# Coordination Sequence:
#
# PCOD9042517 Si02
#       8
#     2   2   2   2   2   2   2   2
#     4  10  24  47  70 102 151 194 233 294 359 430
#     4  10  23  44  72 103 145 190 242 302 354 416
#     4  11  24  46  68 109 144 190 247 296 357 408
#     4  10  24  45  76 105 135 182 233 297 354 426
#     4  10  25  45  72 102 151 189 238 292 363 429
#     4  12  27  40  76 103 145 191 246 302 345 426
#     4  11  28  47  68 108 147 191 240 291 368 428
#     4  10  25  47  74 104 142 175 237 299 358 427
#
# _framework density 25.824059999999999
#
# number of rings (size 3 to 8) (size 9 to 14) (size 15 to 20)
#    0.000    1.500    1.250    0.750   14.000    3.000 
#    0.000    0.000    0.000    0.000    0.000    0.000 
#    0.000    0.000    0.000    0.000    0.000    0.000 
#
# Total GULP energy -89486.840045 kJ/mol
# GULP energy per Si atom -5592.927503 kJ/mol
# Density = 2.576528 g / cm^3
# Si number density = 25.824060 Si / 1000 Ang^3
#
#
#
# Elastic Constant Matrix: (Units=GPa)
#
#
# Indices 1 2 3 4 5 6 
#
# 1 181.2425 64.5610 14.4257 -4.3316 -38.4824 -24.3901
# 2 64.5610 191.5162 51.1308 -15.5253 -26.0704 -20.8263
# 3 14.4257 51.1308 78.2679 -14.8621 -7.9205 -14.2411
# 4 -4.3316 -15.5253 -14.8621 41.3421 2.4978 -3.7730
# 5 -38.4824 -26.0704 -7.9205 2.4978 20.4846 -0.6142
# 6 -24.3901 -20.8263 -14.2411 -3.7730 -0.6142 41.6220
#
#
#
# Elastic Compliance Matrix: (Units=1/GPa)
#
#
# Indices 1 2 3 4 5 6 
#
# 1 0.010950 -0.000510 0.001930 0.001055 0.020755 0.007223
# 2 -0.000510 0.007729 -0.003460 0.001395 0.007449 0.002621
# 3 0.001930 -0.003460 0.017317 0.005337 0.005444 0.005889
# 4 0.001055 0.001395 0.005337 0.027093 0.002685 0.005637
# 5 0.020755 0.007449 0.005444 0.002685 0.099650 0.019467
# 6 0.007223 0.002621 0.005889 0.005637 0.019467 0.032383
#
#
# Mechanical properties :
#
#
# Convention : Reuss Voigt Hill
#
# Bulk Modulus (GPa) = 31.33197 79.02907 55.18052
# Shear Modulus (GPa) = 23.82758 42.08368 32.95563
#
# Velocity S-wave (km/s) = 3.04088 4.04125 3.57621
# Velocity P-wave (km/s) = 4.94858 7.24188 6.20215
#
# Compressibility (1/GPa) = 0.03191628
#
# Stress axis : x y z
#
# Youngs Moduli (GPa) = 91.32671 129.37809 57.74688
#
# Poissons Ratio (x) = 0.06600 -0.11146
# Poissons Ratio (y) = 0.04659 0.19979
# Poissons Ratio (z) = -0.17627 0.44762
#
# Static dielectric constant tensor:
#      x y z
#    x 2.158350 0.012270 0.115220 
#    y 0.012270 2.023250 0.054160 
#    z 0.115220 0.054160 2.056050 
# 
# From -- ./inp_files/134985.got.cif
#   From: 2010.05.17/outbox.cif.g08.bks.cpg/sg2_68_cif.got.tgz:134985.got - 2010.06.03 11:33:40.
