data_PCOD9042112
_publ_section_title
;
Structure prediction by ZEFSAII (Michael W. Deem and Ramdas Pophale) SiO2 
 PCOD9042112
Probable space group: P -1
;
_chemical_formula_sum "Si O2"
_cell_formula_units_Z 12
_cell_length_a 8.388646
_cell_length_b 12.039449
_cell_length_c 4.956060
_cell_angle_alpha 97.164965
_cell_angle_beta 65.895044
_cell_angle_gamma 111.356230
_cell_volume 425.346188
_symmetry_space_group_name_H-M "P -1"
_symmetry_group_IT_number 2
_symmetry_cell_setting 'triclinic'
loop_
_space_group_symop_operation_xyz
x,y,z
-x,-y,-z
loop_
_atom_site_type_symbol
_atom_site_label
_atom_site_fract_x
_atom_site_fract_y
_atom_site_fract_z
Si Si1 0.421391 0.054262 0.815312
Si Si2 0.117171 0.089112 0.676282
Si Si3 0.943818 0.708885 0.949513
Si Si4 0.828326 0.374941 0.624304
Si Si5 0.609207 0.732530 0.845158
Si Si6 0.299343 0.549859 0.756408
O O1 0.206574 0.038119 0.852082
O O2 0.500000 0.000000 0.500000
O O3 0.494451 0.195961 0.880297
O O4 0.500000 0.000000 0.000000
O O5 0.009719 0.180234 0.849837
O O6 0.306013 0.175958 0.428383
O O7 0.000000 0.000000 0.500000
O O8 0.833842 0.583675 0.137816
O O9 0.208540 0.629369 0.033069
O O10 0.780329 0.724313 0.887880
O O11 0.681310 0.408174 0.549837
O O12 0.000000 0.500000 0.500000
O O13 0.896625 0.285946 0.374605
O O14 0.501004 0.601816 0.763544
#
# Coordination Sequence:
#
# PCOD9042112 Si02
#       6
#     2   2   2   2   2   2
#     4  11  24  50  74 101 144 189 248 307 366 435
#     4  11  27  49  76 111 149 196 256 307 371 441
#     4  10  24  44  74 107 152 193 239 302 371 439
#     4  10  23  44  69 105 148 191 240 288 360 442
#     4  11  26  46  73 110 148 188 251 301 372 440
#     4  11  25  44  74 109 148 192 238 299 366 442
#
# _framework density 28.212316000000001
#
# number of rings (size 3 to 8) (size 9 to 14) (size 15 to 20)
#    0.000    1.333    1.667    2.500   11.667    4.667 
#    6.000    0.000    0.000    0.000    0.000    0.000 
#    0.000    0.000    0.000    0.000    0.000    0.000 
#
# Total GULP energy -67067.463382 kJ/mol
# GULP energy per Si atom -5588.955282 kJ/mol
# Density = 2.814810 g / cm^3
# Si number density = 28.212316 Si / 1000 Ang^3
#
#
#
# Elastic Constant Matrix: (Units=GPa)
#
#
# Indices 1 2 3 4 5 6 
#
# 1 84.4075 35.0617 25.1604 17.3425 17.3586 -32.9594
# 2 35.0617 160.2657 55.8644 17.1944 13.0510 -4.0008
# 3 25.1604 55.8644 144.2444 0.0842 21.2338 -20.2447
# 4 17.3425 17.1944 0.0842 58.9185 -8.6096 3.2972
# 5 17.3586 13.0510 21.2338 -8.6096 62.0256 8.5537
# 6 -32.9594 -4.0008 -20.2447 3.2972 8.5537 45.0537
#
#
#
# Elastic Compliance Matrix: (Units=1/GPa)
#
#
# Indices 1 2 3 4 5 6 
#
# 1 0.025852 -0.003773 0.001757 -0.009423 -0.011416 0.022224
# 2 -0.003773 0.008089 -0.003077 -0.000939 0.000760 -0.003500
# 3 0.001757 -0.003077 0.009225 -0.000534 -0.003895 0.005936
# 4 -0.009423 -0.000939 -0.000534 0.021679 0.007435 -0.010215
# 5 -0.011416 0.000760 -0.003895 0.007435 0.023599 -0.015058
# 6 0.022224 -0.003500 0.005936 -0.010215 -0.015058 0.044417
#
#
# Mechanical properties :
#
#
# Convention : Reuss Voigt Hill
#
# Bulk Modulus (GPa) = 30.32157 69.01006 49.66581
# Shear Modulus (GPa) = 32.45884 51.38830 41.92357
#
# Velocity S-wave (km/s) = 3.39561 4.27252 3.85905
# Velocity P-wave (km/s) = 5.11317 6.98951 6.12363
#
# Compressibility (1/GPa) = 0.03297982
#
# Stress axis : x y z
#
# Youngs Moduli (GPa) = 38.68107 123.62182 108.40421
#
# Poissons Ratio (x) = 0.46641 -0.19045
# Poissons Ratio (y) = 0.14594 0.33359
# Poissons Ratio (z) = -0.06796 0.38042
#
# Static dielectric constant tensor:
#      x y z
#    x 2.567370 0.180940 -0.200850 
#    y 0.180940 2.322510 -0.109550 
#    z -0.200850 -0.109550 2.294600 
# 
# From -- ./inp_files/25178.got.cif
#   From: 2010.05.17/outbox.cif.g08.bks.cpg/sg2_13_cif.got.tgz:25178.got - 2010.06.03 11:33:40.
