data_PCOD9042548
_publ_section_title
;
Structure prediction by ZEFSAII (Michael W. Deem and Ramdas Pophale) SiO2 
 PCOD9042548
Probable space group: P -1
;
_chemical_formula_sum "Si O2"
_cell_formula_units_Z 12
_cell_length_a 11.468728
_cell_length_b 7.236601
_cell_length_c 8.862194
_cell_angle_alpha 126.682844
_cell_angle_beta 45.867692
_cell_angle_gamma 125.062047
_cell_volume 406.988410
_symmetry_space_group_name_H-M "P -1"
_symmetry_group_IT_number 2
_symmetry_cell_setting 'triclinic'
loop_
_space_group_symop_operation_xyz
x,y,z
-x,-y,-z
loop_
_atom_site_type_symbol
_atom_site_label
_atom_site_fract_x
_atom_site_fract_y
_atom_site_fract_z
Si Si1 0.381769 0.046028 0.492132
Si Si2 0.494583 0.788786 0.022263
Si Si3 0.799171 0.850775 0.016679
Si Si4 0.642670 0.511704 0.516029
Si Si5 0.029570 0.247442 0.791244
Si Si6 0.001385 0.479709 0.665513
O O1 0.525316 0.289118 0.421687
O O2 0.500000 0.000000 0.500000
O O3 0.232652 0.054077 0.744805
O O4 0.355776 0.838053 0.288440
O O5 0.522555 0.582915 0.783718
O O6 0.500000 0.000000 0.000000
O O7 0.641523 0.790610 0.014072
O O8 0.128891 0.368522 0.107408
O O9 0.929042 0.041024 0.887961
O O10 0.800902 0.442245 0.421626
O O11 0.770291 0.721597 0.401572
O O12 0.948026 0.233335 0.689645
O O13 0.000000 0.500000 0.000000
O O14 0.000000 0.500000 0.500000
#
# Coordination Sequence:
#
# PCOD9042548 Si02
#       6
#     2   2   2   2   2   2
#     4  10  24  47  73 105 150 198 249 299 379 451
#     4  11  25  46  75 111 148 197 256 311 369 447
#     4  11  23  48  73 111 150 196 249 308 378 454
#     4  10  24  49  76 107 148 195 249 309 375 441
#     4  10  23  44  72 112 149 188 247 309 377 441
#     4  10  23  46  76 110 146 197 247 313 375 445
#
# _framework density 29.484871999999999
#
# number of rings (size 3 to 8) (size 9 to 14) (size 15 to 20)
#    1.000    0.667    1.667    2.000    0.000    9.333 
#   12.000    0.000    0.000    3.000    0.000    0.000 
#    0.000    0.000    0.000    0.000    0.000    0.000 
#
# Total GULP energy -66998.270748 kJ/mol
# GULP energy per Si atom -5583.189229 kJ/mol
# Density = 2.941776 g / cm^3
# Si number density = 29.484872 Si / 1000 Ang^3
#
#
#
# Elastic Constant Matrix: (Units=GPa)
#
#
# Indices 1 2 3 4 5 6 
#
# 1 158.7901 31.8025 51.7142 -27.4077 11.6424 -4.6218
# 2 31.8025 144.1748 48.7331 -37.8156 6.0349 -27.2188
# 3 51.7142 48.7331 253.9791 -16.7048 8.0732 1.2923
# 4 -27.4077 -37.8156 -16.7048 66.2569 -16.1167 10.5636
# 5 11.6424 6.0349 8.0732 -16.1167 59.3889 -10.2050
# 6 -4.6218 -27.2188 1.2923 10.5636 -10.2050 46.1871
#
#
#
# Elastic Compliance Matrix: (Units=1/GPa)
#
#
# Indices 1 2 3 4 5 6 
#
# 1 0.007232 -0.000638 -0.001183 0.002217 -0.000636 -0.000267
# 2 -0.000638 0.009610 -0.001494 0.004395 0.001394 0.004944
# 3 -0.001183 -0.001494 0.004477 -0.000136 -0.000467 -0.001196
# 4 0.002217 0.004395 -0.000136 0.019656 0.004348 -0.000719
# 5 -0.000636 0.001394 -0.000467 0.004348 0.018738 0.003916
# 6 -0.000267 0.004944 -0.001196 -0.000719 0.003916 0.025601
#
#
# Mechanical properties :
#
#
# Convention : Reuss Voigt Hill
#
# Bulk Modulus (GPa) = 68.07897 91.27151 79.67524
# Shear Modulus (GPa) = 51.63171 62.67953 57.15562
#
# Velocity S-wave (km/s) = 4.18919 4.61566 4.40759
# Velocity P-wave (km/s) = 6.82192 7.70898 7.27898
#
# Compressibility (1/GPa) = 0.01468882
#
# Stress axis : x y z
#
# Youngs Moduli (GPa) = 138.27174 104.06302 223.36914
#
# Poissons Ratio (x) = 0.06635 0.26420
# Poissons Ratio (y) = 0.08817 0.33381
# Poissons Ratio (z) = 0.16355 0.15552
#
# Static dielectric constant tensor:
#      x y z
#    x 2.387900 -0.117070 -0.048760 
#    y -0.117070 2.670920 0.122400 
#    z -0.048760 0.122400 2.378340 
# 
# From -- ./inp_files/245293.got.cif
#   From: 2010.05.17/outbox.cif.g08.bks.cpg/sg2_123_cif.got.tgz:245293.got - 2010.06.03 11:33:40.
