data_PCOD9042951
_publ_section_title
;
Structure prediction by ZEFSAII (Michael W. Deem and Ramdas Pophale) SiO2 
 PCOD9042951
Probable space group: P -1
;
_chemical_formula_sum "Si O2"
_cell_formula_units_Z 12
_cell_length_a 14.434438
_cell_length_b 7.634210
_cell_length_c 5.347122
_cell_angle_alpha 91.021637
_cell_angle_beta 126.470937
_cell_angle_gamma 100.630570
_cell_volume 459.602863
_symmetry_space_group_name_H-M "P -1"
_symmetry_group_IT_number 2
_symmetry_cell_setting 'triclinic'
loop_
_space_group_symop_operation_xyz
x,y,z
-x,-y,-z
loop_
_atom_site_type_symbol
_atom_site_label
_atom_site_fract_x
_atom_site_fract_y
_atom_site_fract_z
Si Si1 0.075058 0.563844 0.873803
Si Si2 0.722560 0.753640 0.355418
Si Si3 0.684333 0.449690 0.903365
Si Si4 0.444348 0.203257 0.527120
Si Si5 0.355724 0.914357 0.954043
Si Si6 0.990981 0.886121 0.734624
O O1 0.197436 0.503288 0.069648
O O2 0.000000 0.500000 0.500000
O O3 0.092638 0.778828 0.901678
O O4 0.000000 0.500000 0.000000
O O5 0.662769 0.612714 0.041601
O O6 0.650531 0.703763 0.495849
O O7 0.859499 0.756223 0.541953
O O8 0.711480 0.961043 0.305772
O O9 0.559104 0.336284 0.586627
O O10 0.716919 0.292871 0.133540
O O11 0.514065 0.131338 0.865918
O O12 0.381217 0.035866 0.252070
O O13 0.000000 0.000000 0.500000
O O14 0.000000 0.000000 0.000000
#
# Coordination Sequence:
#
# PCOD9042951 Si02
#       6
#     2   2   2   2   2   2
#     4  12  26  51  72 108 148 192 250 308 368 443
#     4  12  23  42  74  98 143 187 245 300 370 443
#     4  10  23  45  67 102 139 186 241 301 363 442
#     4   9  22  44  65 104 142 180 242 300 374 431
#     4   9  22  43  65 102 143 179 240 294 378 425
#     4  12  29  48  77 109 147 198 250 308 373 440
#
# _framework density 26.109501000000002
#
# number of rings (size 3 to 8) (size 9 to 14) (size 15 to 20)
#    1.000    0.333    1.667    3.000    4.667    0.667 
#    3.000    0.000    0.000    0.000    0.000    0.000 
#    0.000    0.000    0.000    0.000    0.000    0.000 
#
# Total GULP energy -66998.335368 kJ/mol
# GULP energy per Si atom -5583.194614 kJ/mol
# Density = 2.605007 g / cm^3
# Si number density = 26.109501 Si / 1000 Ang^3
#
#
#
# Elastic Constant Matrix: (Units=GPa)
#
#
# Indices 1 2 3 4 5 6 
#
# 1 181.0288 24.3797 45.5529 -3.5959 0.8380 -19.0586
# 2 24.3797 107.2308 14.6126 -10.2822 -0.8311 -21.2729
# 3 45.5529 14.6126 90.1067 8.8140 -11.7967 6.8694
# 4 -3.5959 -10.2822 8.8140 45.8538 -7.6904 3.0366
# 5 0.8380 -0.8311 -11.7967 -7.6904 40.4702 -0.5907
# 6 -19.0586 -21.2729 6.8694 3.0366 -0.5907 53.4432
#
#
#
# Elastic Compliance Matrix: (Units=1/GPa)
#
#
# Indices 1 2 3 4 5 6 
#
# 1 0.006849 -0.000430 -0.003818 0.000816 -0.001069 0.002704
# 2 -0.000430 0.010799 -0.002085 0.002534 0.000167 0.004271
# 3 -0.003818 -0.002085 0.014401 -0.002664 0.003672 -0.003851
# 4 0.000816 0.002534 -0.002664 0.023557 0.003740 0.000345
# 5 -0.001069 0.000167 0.003672 0.003740 0.026506 -0.000706
# 6 0.002704 0.004271 -0.003851 0.000345 -0.000706 0.021843
#
#
# Mechanical properties :
#
#
# Convention : Reuss Voigt Hill
#
# Bulk Modulus (GPa) = 51.59709 60.82854 56.21282
# Shear Modulus (GPa) = 40.62266 47.54151 44.08208
#
# Velocity S-wave (km/s) = 3.94871 4.27177 4.11342
# Velocity P-wave (km/s) = 6.37138 6.90498 6.64354
#
# Compressibility (1/GPa) = 0.01938094
#
# Stress axis : x y z
#
# Youngs Moduli (GPa) = 146.01590 92.59871 69.43772
#
# Poissons Ratio (x) = 0.03986 0.26514
# Poissons Ratio (y) = 0.06285 0.14480
# Poissons Ratio (z) = 0.55754 0.19310
#
# Static dielectric constant tensor:
#      x y z
#    x 2.207210 0.114100 -0.058400 
#    y 0.114100 2.219770 -0.111340 
#    z -0.058400 -0.111340 2.111950 
# 
# From -- ./inp_files/89154.got.cif
#   From: 2010.05.17/outbox.cif.g08.bks.cpg/sg2_45_cif.got.tgz:89154.got - 2010.06.03 11:33:40.
