data_PCOD9042769
_publ_section_title
;
Structure prediction by ZEFSAII (Michael W. Deem and Ramdas Pophale) SiO2 
 PCOD9042769
Probable space group: P -1
;
_chemical_formula_sum "Si O2"
_cell_formula_units_Z 16
_cell_length_a 15.623928
_cell_length_b 11.324721
_cell_length_c 9.155636
_cell_angle_alpha 125.747133
_cell_angle_beta 44.821080
_cell_angle_gamma 101.326273
_cell_volume 856.858821
_symmetry_space_group_name_H-M "P -1"
_symmetry_group_IT_number 2
_symmetry_cell_setting 'triclinic'
loop_
_space_group_symop_operation_xyz
x,y,z
-x,-y,-z
loop_
_atom_site_type_symbol
_atom_site_label
_atom_site_fract_x
_atom_site_fract_y
_atom_site_fract_z
Si Si1 0.787932 0.145363 0.787938
Si Si2 0.306081 0.366069 0.341570
Si Si3 0.862969 0.635150 0.715121
Si Si4 0.089324 0.316349 0.755477
Si Si5 0.352560 0.510497 0.672180
Si Si6 0.057563 0.128614 0.405560
Si Si7 0.561455 0.068938 0.844799
Si Si8 0.274537 0.243190 0.729234
O O1 0.679230 0.109527 0.801101
O O2 0.924152 0.108116 0.509420
O O3 0.827766 0.032642 0.800746
O O4 0.734060 0.325210 0.032194
O O5 0.218613 0.425000 0.345948
O O6 0.220992 0.291022 0.486273
O O7 0.321818 0.492547 0.525823
O O8 0.446518 0.227987 0.042774
O O9 0.898957 0.769472 0.687074
O O10 0.000000 0.500000 0.500000
O O11 0.770251 0.708405 0.017738
O O12 0.022575 0.225130 0.672145
O O13 0.142772 0.259361 0.809537
O O14 0.000000 0.500000 0.000000
O O15 0.500000 0.500000 0.500000
O O16 0.327478 0.369756 0.685377
O O17 0.620448 0.931261 0.554820
O O18 0.500000 0.000000 0.000000
#
# Coordination Sequence:
#
# PCOD9042769 Si02
#       8
#     2   2   2   2   2   2   2   2
#     4  11  21  36  64  92 125 156 206 265 308 359
#     4  10  21  36  61  90 121 163 203 254 305 361
#     4  11  23  42  62  90 128 163 208 257 307 377
#     4  10  17  33  59  89 114 151 211 254 291 355
#     4  11  20  37  64  94 120 159 206 257 311 361
#     4  10  21  38  60  89 122 161 203 259 315 358
#     4  12  19  39  62  91 125 157 208 264 300 367
#     4  11  22  36  65  93 117 169 208 250 314 364
#
# _framework density 18.672854999999998
#
# number of rings (size 3 to 8) (size 9 to 14) (size 15 to 20)
#    0.000    1.250    5.000    4.500    0.000    0.500 
#    0.000    1.250    2.750    0.000    0.000    0.000 
#    0.000    0.000    0.000    0.000    0.000    0.000 
#
# Total GULP energy -89252.893655 kJ/mol
# GULP energy per Si atom -5578.305853 kJ/mol
# Density = 1.863035 g / cm^3
# Si number density = 18.672855 Si / 1000 Ang^3
#
#
#
# Elastic Constant Matrix: (Units=GPa)
#
#
# Indices 1 2 3 4 5 6 
#
# 1 132.3457 32.6449 41.2947 -10.1158 -1.9562 11.9569
# 2 32.6449 65.1425 33.8424 2.7102 1.0676 6.9413
# 3 41.2947 33.8424 105.8366 12.6413 3.9235 2.4044
# 4 -10.1158 2.7102 12.6413 34.2842 -4.2690 0.4038
# 5 -1.9562 1.0676 3.9235 -4.2690 40.1303 -1.0836
# 6 11.9569 6.9413 2.4044 0.4038 -1.0836 29.1070
#
#
#
# Elastic Compliance Matrix: (Units=1/GPa)
#
#
# Indices 1 2 3 4 5 6 
#
# 1 0.010071 -0.003130 -0.003468 0.004700 0.001329 -0.003120
# 2 -0.003130 0.019857 -0.004966 -0.000670 -0.000349 -0.003043
# 3 -0.003468 -0.004966 0.013108 -0.005717 -0.001885 0.001536
# 4 0.004700 -0.000670 -0.005717 0.033270 0.004302 -0.001600
# 5 0.001329 -0.000349 -0.001885 0.004302 0.025651 0.000588
# 6 -0.003120 -0.003043 0.001536 -0.001600 0.000588 0.036281
#
#
# Mechanical properties :
#
#
# Convention : Reuss Voigt Hill
#
# Bulk Modulus (GPa) = 50.23427 57.65431 53.94429
# Shear Modulus (GPa) = 29.76152 33.74050 31.75101
#
# Velocity S-wave (km/s) = 3.99662 4.25541 4.12804
# Velocity P-wave (km/s) = 6.94680 7.42211 7.18838
#
# Compressibility (1/GPa) = 0.01990673
#
# Stress axis : x y z
#
# Youngs Moduli (GPa) = 99.29537 50.35913 76.29118
#
# Poissons Ratio (x) = 0.15762 0.26461
# Poissons Ratio (y) = 0.31078 0.37889
# Poissons Ratio (z) = 0.34440 0.25010
#
# Static dielectric constant tensor:
#      x y z
#    x 1.699020 0.007780 -0.016280 
#    y 0.007780 1.658370 0.030350 
#    z -0.016280 0.030350 1.672740 
# 
# From -- ./inp_files/216694.got.cif
#   From: 2010.05.17/outbox.cif.g08.bks.cpg/sg2_109_cif.got.tgz:216694.got - 2010.06.03 11:33:40.
