data_PCOD9042742
_publ_section_title
;
Structure prediction by ZEFSAII (Michael W. Deem and Ramdas Pophale) SiO2 
 PCOD9042742
Probable space group: P -1
;
_chemical_formula_sum "Si O2"
_cell_formula_units_Z 13
_cell_length_a 9.587489
_cell_length_b 11.181218
_cell_length_c 7.132391
_cell_angle_alpha 126.520218
_cell_angle_beta 90.585514
_cell_angle_gamma 61.706731
_cell_volume 499.534425
_symmetry_space_group_name_H-M "P -1"
_symmetry_group_IT_number 2
_symmetry_cell_setting 'triclinic'
loop_
_space_group_symop_operation_xyz
x,y,z
-x,-y,-z
loop_
_atom_site_type_symbol
_atom_site_label
_atom_site_fract_x
_atom_site_fract_y
_atom_site_fract_z
Si Si1 0.939521 0.141876 0.845305
Si Si2 0.862179 0.711500 0.141668
Si Si3 0.302725 0.183940 0.182960
Si Si4 0.959160 0.228444 0.334502
Si Si5 0.387144 0.435204 0.353582
Si Si6 0.500000 0.000000 0.500000
Si Si7 0.422640 0.713233 0.153749
O O1 0.775855 0.191954 0.780664
O O2 0.041703 0.192516 0.769703
O O3 0.894440 0.256557 0.143954
O O4 0.033252 0.939535 0.736968
O O5 0.698147 0.830507 0.380242
O O6 0.773820 0.754108 0.973003
O O7 0.000000 0.500000 0.000000
O O8 0.334041 0.332508 0.391901
O O9 0.147437 0.188000 0.283580
O O10 0.500000 0.000000 0.000000
O O11 0.795596 0.406975 0.592262
O O12 0.500000 0.500000 0.500000
O O13 0.504001 0.295649 0.060415
O O14 0.552576 0.148430 0.606535
O O15 0.500000 0.500000 0.000000
#
# Coordination Sequence:
#
# PCOD9042742 Si02
#       7
#     2   2   2   2   2   1   2
#     4  10  23  46  72 108 150 198 257 318 395 469
#     4  11  26  50  78 112 157 212 268 321 404 489
#     4  11  25  47  74 110 152 198 262 327 395 476
#     4  10  23  44  75 109 148 196 256 333 396 460
#     4  12  25  46  77 114 149 200 262 334 396 475
#     4  12  28  50  78 110 162 214 256 324 396 482
#     4  12  27  49  74 114 157 204 261 317 397 482
#
# _framework density 26.024232999999999
#
# number of rings (size 3 to 8) (size 9 to 14) (size 15 to 20)
#    0.000    0.923    3.077    2.308    6.462    1.846 
#    5.538    0.000    0.000    0.000    0.000    0.000 
#    0.000    0.000    0.000    0.000    0.000    0.000 
#
# Total GULP energy -72429.893708 kJ/mol
# GULP energy per Si atom -5571.530285 kJ/mol
# Density = 2.596500 g / cm^3
# Si number density = 26.024233 Si / 1000 Ang^3
#
#
#
# Elastic Constant Matrix: (Units=GPa)
#
#
# Indices 1 2 3 4 5 6 
#
# 1 282.7844 73.6491 53.1986 36.7308 -11.5735 9.1322
# 2 73.6491 132.2061 45.3105 38.7402 0.2963 -9.6929
# 3 53.1986 45.3105 73.2867 38.5399 -1.7048 -8.0147
# 4 36.7308 38.7402 38.5399 63.0945 0.9872 6.8925
# 5 -11.5735 0.2963 -1.7048 0.9872 29.7202 6.7780
# 6 9.1322 -9.6929 -8.0147 6.8925 6.7780 46.0996
#
#
#
# Elastic Compliance Matrix: (Units=1/GPa)
#
#
# Indices 1 2 3 4 5 6 
#
# 1 0.004637 -0.001964 -0.002428 0.000185 0.002158 -0.002099
# 2 -0.001964 0.011128 -0.002945 -0.004202 -0.001608 0.003081
# 3 -0.002428 -0.002945 0.024338 -0.012292 -0.000481 0.006002
# 4 0.000185 -0.004202 -0.012292 0.026598 0.000134 -0.007054
# 5 0.002158 -0.001608 -0.000481 0.000134 0.035873 -0.006144
# 6 -0.002099 0.003081 0.006002 -0.007054 -0.006144 0.025757
#
#
# Mechanical properties :
#
#
# Convention : Reuss Voigt Hill
#
# Bulk Modulus (GPa) = 39.32660 92.51040 65.91850
# Shear Modulus (GPa) = 33.00717 48.85745 40.93231
#
# Velocity S-wave (km/s) = 3.56522 4.33758 3.97022
# Velocity P-wave (km/s) = 5.66498 7.79173 6.81187
#
# Compressibility (1/GPa) = 0.02542808
#
# Stress axis : x y z
#
# Youngs Moduli (GPa) = 215.67766 89.86243 41.08741
#
# Poissons Ratio (x) = 0.17646 0.09977
# Poissons Ratio (y) = 0.42352 0.12102
# Poissons Ratio (z) = 0.52374 0.26469
#
# Static dielectric constant tensor:
#      x y z
#    x 2.062060 0.066590 -0.032400 
#    y 0.066590 2.140520 -0.150740 
#    z -0.032400 -0.150740 2.449370 
# 
# From -- ./inp_files/183204.got.cif
#   From: 2010.05.17/outbox.cif.g08.bks.cpg/sg2_92_cif.got.tgz:183204.got - 2010.06.03 11:33:40.
