data_PCOD9042164
_publ_section_title
;
Structure prediction by ZEFSAII (Michael W. Deem and Ramdas Pophale) SiO2 
 PCOD9042164
Probable space group: P -1
;
_chemical_formula_sum "Si O2"
_cell_formula_units_Z 14
_cell_length_a 6.773673
_cell_length_b 18.918404
_cell_length_c 15.888541
_cell_angle_alpha 157.071993
_cell_angle_beta 46.110615
_cell_angle_gamma 123.792292
_cell_volume 546.523601
_symmetry_space_group_name_H-M "P -1"
_symmetry_group_IT_number 2
_symmetry_cell_setting 'triclinic'
loop_
_space_group_symop_operation_xyz
x,y,z
-x,-y,-z
loop_
_atom_site_type_symbol
_atom_site_label
_atom_site_fract_x
_atom_site_fract_y
_atom_site_fract_z
Si Si1 0.303080 0.929540 0.785139
Si Si2 0.988950 0.825137 0.989335
Si Si3 0.857749 0.284803 0.725592
Si Si4 0.905901 0.257939 0.493938
Si Si5 0.835024 0.887274 0.286873
Si Si6 0.773502 0.433964 0.080579
Si Si7 0.443880 0.351778 0.465241
O O1 0.509982 0.840460 0.702177
O O2 0.302647 0.747981 0.527695
O O3 0.000000 0.000000 0.000000
O O4 0.279699 0.105100 0.920733
O O5 0.272788 0.680303 0.708909
O O6 0.913970 0.786156 0.062753
O O7 0.050374 0.029558 0.204795
O O8 0.659464 0.365159 0.953066
O O9 0.759313 0.319913 0.695760
O O10 0.972424 0.058205 0.449797
O O11 0.099666 0.389947 0.778089
O O12 0.147194 0.359560 0.515906
O O13 0.943495 0.737672 0.164206
O O14 0.500000 0.000000 0.500000
O O15 0.595795 0.480678 0.271217
#
# Coordination Sequence:
#
# PCOD9042164 Si02
#       7
#     2   2   2   2   2   2   2
#     4   8  16  29  52  86 117 152 197 236 292 364
#     4   8  18  33  54  86 116 158 196 241 304 351
#     4   9  20  42  59  86 120 152 211 242 293 364
#     4   8  16  31  55  86 116 153 198 241 293 357
#     4  11  23  40  61  85 124 160 201 251 296 361
#     4  10  22  38  63  93 114 162 201 246 308 354
#     4  10  17  33  58  87 124 150 195 253 297 360
#
# _framework density 25.616458999999999
#
# number of rings (size 3 to 8) (size 9 to 14) (size 15 to 20)
#    0.857    2.000    0.000    0.857    0.000    4.571 
#    5.143    0.000    0.000    0.857    0.000    0.000 
#    0.000    0.000    0.000    0.000    0.000    0.000 
#
# Total GULP energy -78000.204495 kJ/mol
# GULP energy per Si atom -5571.443178 kJ/mol
# Density = 2.555815 g / cm^3
# Si number density = 25.616459 Si / 1000 Ang^3
#
#
#
# Elastic Constant Matrix: (Units=GPa)
#
#
# Indices 1 2 3 4 5 6 
#
# 1 87.2135 33.2995 23.7621 4.8705 9.0163 -11.3713
# 2 33.2995 83.6603 40.8689 -12.2233 3.8369 -15.5849
# 3 23.7621 40.8689 110.5394 -27.4659 5.6222 7.4635
# 4 4.8705 -12.2233 -27.4659 54.2840 -15.3425 8.7001
# 5 9.0163 3.8369 5.6222 -15.3425 30.3063 -3.8007
# 6 -11.3713 -15.5849 7.4635 8.7001 -3.8007 23.3165
#
#
#
# Elastic Compliance Matrix: (Units=1/GPa)
#
#
# Indices 1 2 3 4 5 6 
#
# 1 0.016226 -0.003523 -0.004357 -0.007654 -0.006347 0.008775
# 2 -0.003523 0.019694 -0.007881 -0.001235 0.001226 0.014629
# 3 -0.004357 -0.007881 0.016379 0.010146 0.002381 -0.016033
# 4 -0.007654 -0.001235 0.010146 0.030618 0.013924 -0.016961
# 5 -0.006347 0.001226 0.002381 0.013924 0.041145 -0.001527
# 6 0.008775 0.014629 -0.016033 -0.016961 -0.001527 0.068157
#
#
# Mechanical properties :
#
#
# Convention : Reuss Voigt Hill
#
# Bulk Modulus (GPa) = 48.12763 53.03047 50.57905
# Shear Modulus (GPa) = 21.67638 33.81354 27.74496
#
# Velocity S-wave (km/s) = 2.91209 3.63711 3.29461
# Velocity P-wave (km/s) = 5.48959 6.19554 5.85322
#
# Compressibility (1/GPa) = 0.02077809
#
# Stress axis : x y z
#
# Youngs Moduli (GPa) = 61.62988 50.77814 61.05234
#
# Poissons Ratio (x) = 0.17887 0.26600
# Poissons Ratio (y) = 0.21710 0.48114
# Poissons Ratio (z) = 0.26852 0.40017
#
# Static dielectric constant tensor:
#      x y z
#    x 2.151970 -0.031900 -0.062780 
#    y -0.031900 2.048040 -0.033690 
#    z -0.062780 -0.033690 2.089910 
# 
# From -- ./inp_files/562720.got.cif
#   From: 2010.05.17/outbox.cif.g08.bks.cpg/sg2_282_cif.got.tgz:562720.got - 2010.06.03 11:33:40.
