data_PCOD9042402
_publ_section_title
;
Structure prediction by ZEFSAII (Michael W. Deem and Ramdas Pophale) SiO2 
 PCOD9042402
Probable space group: P -1
;
_chemical_formula_sum "Si O2"
_cell_formula_units_Z 14
_cell_length_a 5.844415
_cell_length_b 11.640499
_cell_length_c 9.961233
_cell_angle_alpha 75.674324
_cell_angle_beta 77.767659
_cell_angle_gamma 56.753354
_cell_volume 546.699334
_symmetry_space_group_name_H-M "P -1"
_symmetry_group_IT_number 2
_symmetry_cell_setting 'triclinic'
loop_
_space_group_symop_operation_xyz
x,y,z
-x,-y,-z
loop_
_atom_site_type_symbol
_atom_site_label
_atom_site_fract_x
_atom_site_fract_y
_atom_site_fract_z
Si Si1 0.945537 0.325320 0.491158
Si Si2 0.229845 0.037429 0.427536
Si Si3 0.778133 0.089908 0.113758
Si Si4 0.302060 0.616150 0.882961
Si Si5 0.718173 0.865152 0.268622
Si Si6 0.254321 0.266747 0.961209
Si Si7 0.406380 0.433951 0.692540
O O1 0.666500 0.350386 0.588408
O O2 0.862852 0.469911 0.391291
O O3 0.161901 0.259342 0.604068
O O4 0.065931 0.204083 0.400058
O O5 0.389627 0.953389 0.298601
O O6 0.500000 0.000000 0.500000
O O7 0.000000 0.000000 0.500000
O O8 0.751512 0.229705 0.133645
O O9 0.812393 0.975408 0.249829
O O10 0.487732 0.150265 0.057776
O O11 0.000000 0.000000 0.000000
O O12 0.429751 0.548951 0.743210
O O13 0.500000 0.500000 0.000000
O O14 0.004901 0.636896 0.942135
O O15 0.825657 0.801552 0.127955
O O16 0.373266 0.343361 0.835799
#
# Coordination Sequence:
#
# PCOD9042402 Si02
#       7
#     2   2   2   2   2   2   2
#     4  10  24  46  68 107 144 193 249 302 375 446
#     4  10  23  44  71 103 146 196 249 309 377 450
#     4  12  26  46  73 110 147 191 245 308 378 446
#     4  12  26  46  72 109 148 192 245 302 376 450
#     4  11  24  44  75 108 147 190 246 315 376 452
#     4  12  25  45  73 107 146 188 248 306 372 449
#     4  11  24  43  74 101 149 192 243 305 369 456
#
# _framework density 25.608226999999999
#
# number of rings (size 3 to 8) (size 9 to 14) (size 15 to 20)
#    0.000    0.857    2.857    3.429    2.000    4.000 
#    0.000    4.286    0.000    0.000    0.000    0.000 
#    0.000    0.000    0.000    0.000    0.000    0.000 
#
# Total GULP energy -78269.401199 kJ/mol
# GULP energy per Si atom -5590.671514 kJ/mol
# Density = 2.554994 g / cm^3
# Si number density = 25.608227 Si / 1000 Ang^3
#
#
#
# Elastic Constant Matrix: (Units=GPa)
#
#
# Indices 1 2 3 4 5 6 
#
# 1 55.1927 25.7674 13.1266 -8.6635 1.0653 -2.9550
# 2 25.7674 149.9505 23.5446 -0.0636 -2.6417 -4.5126
# 3 13.1266 23.5446 86.1162 4.6779 -0.6902 -2.3446
# 4 -8.6635 -0.0636 4.6779 39.3502 -2.8450 -11.1288
# 5 1.0653 -2.6417 -0.6902 -2.8450 39.8714 2.5033
# 6 -2.9550 -4.5126 -2.3446 -11.1288 2.5033 59.0844
#
#
#
# Elastic Compliance Matrix: (Units=1/GPa)
#
#
# Indices 1 2 3 4 5 6 
#
# 1 0.021182 -0.003185 -0.002609 0.005426 -0.000545 0.001758
# 2 -0.003185 0.007472 -0.001525 -0.000399 0.000509 0.000254
# 3 -0.002609 -0.001525 0.012538 -0.002106 0.000045 -0.000148
# 4 0.005426 -0.000399 -0.002106 0.028510 0.001483 0.005464
# 5 -0.000545 0.000509 0.000045 0.001483 0.025284 -0.000778
# 6 0.001758 0.000254 -0.000148 0.005464 -0.000778 0.018089
#
#
# Mechanical properties :
#
#
# Convention : Reuss Voigt Hill
#
# Bulk Modulus (GPa) = 37.65887 46.23742 41.94814
# Shear Modulus (GPa) = 36.61301 42.91592 39.76446
#
# Velocity S-wave (km/s) = 3.78529 4.09817 3.94483
# Velocity P-wave (km/s) = 5.81741 6.36304 6.09633
#
# Compressibility (1/GPa) = 0.02655417
#
# Stress axis : x y z
#
# Youngs Moduli (GPa) = 47.20966 133.83347 79.76029
#
# Poissons Ratio (x) = 0.42621 0.20812
# Poissons Ratio (y) = 0.15034 0.12162
# Poissons Ratio (z) = 0.12319 0.20407
#
# Static dielectric constant tensor:
#      x y z
#    x 2.087980 0.065570 0.060380 
#    y 0.065570 2.016640 0.008440 
#    z 0.060380 0.008440 2.022820 
# 
# From -- ./inp_files/364008.got.cif
#   From: 2010.05.17/outbox.cif.g08.bks.cpg/sg2_183_cif.got.tgz:364008.got - 2010.06.03 11:33:40.
