data_PCOD9042549
_publ_section_title
;
Structure prediction by ZEFSAII (Michael W. Deem and Ramdas Pophale) SiO2 
 PCOD9042549
Probable space group: P -1
;
_chemical_formula_sum "Si O2"
_cell_formula_units_Z 16
_cell_length_a 21.477121
_cell_length_b 5.349975
_cell_length_c 6.006418
_cell_angle_alpha 88.787870
_cell_angle_beta 76.697974
_cell_angle_gamma 97.187543
_cell_volume 665.463844
_symmetry_space_group_name_H-M "P -1"
_symmetry_group_IT_number 2
_symmetry_cell_setting 'triclinic'
loop_
_space_group_symop_operation_xyz
x,y,z
-x,-y,-z
loop_
_atom_site_type_symbol
_atom_site_label
_atom_site_fract_x
_atom_site_fract_y
_atom_site_fract_z
Si Si1 0.143819 0.894226 0.770778
Si Si2 0.435716 0.307744 0.533610
Si Si3 0.736504 0.594243 0.845317
Si Si4 0.652401 0.360848 0.302430
Si Si5 0.466995 0.947517 0.798441
Si Si6 0.004667 0.870466 0.744665
Si Si7 0.132299 0.389610 0.061695
Si Si8 0.278061 0.916122 0.410450
O O1 0.077319 0.806059 0.696365
O O2 0.206703 0.911684 0.568289
O O3 0.148063 0.673047 0.951414
O O4 0.140488 0.167954 0.879737
O O5 0.500000 0.500000 0.500000
O O6 0.378481 0.453161 0.506494
O O7 0.465216 0.087100 0.384842
O O8 0.427828 0.182410 0.782204
O O9 0.814407 0.647845 0.796374
O O10 0.719740 0.336464 0.728261
O O11 0.710247 0.835801 0.755679
O O12 0.708863 0.523319 0.116032
O O13 0.591367 0.274737 0.192585
O O14 0.675921 0.126819 0.416430
O O15 0.500000 0.000000 0.000000
O O16 0.942395 0.658237 0.802846
O O17 0.000000 0.000000 0.500000
O O18 0.000000 0.000000 0.000000
#
# Coordination Sequence:
#
# PCOD9042549 Si02
#       8
#     2   2   2   2   2   2   2   2
#     4  11  23  46  75 104 153 199 250 328 382 450
#     4   9  22  44  68 100 139 179 224 295 362 433
#     4  12  28  46  75 109 146 204 253 311 379 459
#     4  11  27  47  70 104 151 184 246 306 371 460
#     4  10  23  45  76 103 139 183 237 297 373 439
#     4  10  23  44  72 113 150 209 266 331 398 470
#     4  11  23  46  74 106 150 195 261 317 387 453
#     4  12  28  47  73 108 149 200 253 311 383 451
#
# _framework density 24.043379999999999
#
# number of rings (size 3 to 8) (size 9 to 14) (size 15 to 20)
#    0.000    1.250    1.250    2.625    3.500    8.000 
#    0.000    5.625    0.000    0.000    0.000    0.000 
#    0.000    0.000    0.000    0.000    0.000    0.000 
#
# Total GULP energy -89181.589687 kJ/mol
# GULP energy per Si atom -5573.849355 kJ/mol
# Density = 2.398866 g / cm^3
# Si number density = 24.043380 Si / 1000 Ang^3
#
#
#
# Elastic Constant Matrix: (Units=GPa)
#
#
# Indices 1 2 3 4 5 6 
#
# 1 150.9443 21.1334 30.0542 0.9401 15.4427 -13.4640
# 2 21.1334 85.7301 9.5039 -12.6632 14.8431 -14.8126
# 3 30.0542 9.5039 49.3415 -13.8282 11.9325 -12.3835
# 4 0.9401 -12.6632 -13.8282 25.9225 -4.7649 1.0061
# 5 15.4427 14.8431 11.9325 -4.7649 43.3813 -4.0799
# 6 -13.4640 -14.8126 -12.3835 1.0061 -4.0799 42.0104
#
#
#
# Elastic Compliance Matrix: (Units=1/GPa)
#
#
# Indices 1 2 3 4 5 6 
#
# 1 0.008139 -0.001760 -0.005429 -0.004293 -0.001238 0.000370
# 2 -0.001760 0.014395 0.002498 0.007563 -0.003712 0.004706
# 3 -0.005429 0.002498 0.030781 0.016657 -0.004869 0.007343
# 4 -0.004293 0.007563 0.016657 0.051201 0.000455 0.005019
# 5 -0.001238 -0.003712 -0.004869 0.000455 0.026093 -0.000618
# 6 0.000370 0.004706 0.007343 0.005019 -0.000618 0.027566
#
#
# Mechanical properties :
#
#
# Convention : Reuss Voigt Hill
#
# Bulk Modulus (GPa) = 22.76263 45.26652 34.01457
# Shear Modulus (GPa) = 27.44210 37.28448 32.36329
#
# Velocity S-wave (km/s) = 3.38206 3.94219 3.67282
# Velocity P-wave (km/s) = 4.97383 6.29198 5.67133
#
# Compressibility (1/GPa) = 0.04393166
#
# Stress axis : x y z
#
# Youngs Moduli (GPa) = 122.86754 69.47095 32.48733
#
# Poissons Ratio (x) = 0.12229 0.17638
# Poissons Ratio (y) = 0.21628 -0.08115
# Poissons Ratio (z) = 0.66708 -0.17354
#
# Static dielectric constant tensor:
#      x y z
#    x 1.931290 -0.203880 0.612250 
#    y -0.203880 -0.954530 4.179540 
#    z 0.612250 4.179540 -2.451800 
# 
# From -- ./inp_files/114510.got.cif
#   From: 2010.05.17/outbox.cif.g08.bks.cpg/sg2_58_cif.got.tgz:114510.got - 2010.06.03 11:33:40.
