data_PCOD9042735
_publ_section_title
;
Structure prediction by ZEFSAII (Michael W. Deem and Ramdas Pophale) SiO2 
 PCOD9042735
Probable space group: P -1
;
_chemical_formula_sum "Si O2"
_cell_formula_units_Z 14
_cell_length_a 7.758881
_cell_length_b 9.237527
_cell_length_c 12.498818
_cell_angle_alpha 123.528961
_cell_angle_beta 73.585739
_cell_angle_gamma 127.545482
_cell_volume 590.107766
_symmetry_space_group_name_H-M "P -1"
_symmetry_group_IT_number 2
_symmetry_cell_setting 'triclinic'
loop_
_space_group_symop_operation_xyz
x,y,z
-x,-y,-z
loop_
_atom_site_type_symbol
_atom_site_label
_atom_site_fract_x
_atom_site_fract_y
_atom_site_fract_z
Si Si1 0.907113 0.763767 0.730288
Si Si2 0.824633 0.361697 0.677262
Si Si3 0.723324 0.286672 0.159485
Si Si4 0.363698 0.152029 0.775848
Si Si5 0.210015 0.038063 0.535144
Si Si6 0.581275 0.733885 0.611801
Si Si7 0.649718 0.834454 0.978635
O O1 0.822376 0.523452 0.663446
O O2 0.802469 0.814273 0.671881
O O3 0.818456 0.815653 0.871838
O O4 0.166731 0.907862 0.731533
O O5 0.610372 0.237845 0.738874
O O6 0.037867 0.507707 0.773489
O O7 0.831779 0.189220 0.538021
O O8 0.576366 0.255362 0.274939
O O9 0.589094 0.297283 0.088846
O O10 0.720637 0.076694 0.059223
O O11 0.282982 0.180035 0.686277
O O12 0.363281 0.240504 0.928157
O O13 0.389410 0.151189 0.456982
O O14 0.000000 0.000000 0.500000
O O15 0.500000 0.500000 0.500000
#
# Coordination Sequence:
#
# PCOD9042735 Si02
#       7
#     2   2   2   2   2   2   2
#     4  11  25  47  74 102 143 194 232 299 354 424
#     4  12  27  44  74 112 140 184 244 290 368 418
#     4  10  23  44  75 104 140 193 239 293 353 430
#     4  12  25  46  71 105 149 183 232 299 353 426
#     4  12  26  47  70 110 144 184 238 298 353 429
#     4  11  23  47  76 102 145 192 238 292 362 421
#     4  10  23  48  72 102 144 193 241 286 361 420
#
# _framework density 23.724481999999998
#
# number of rings (size 3 to 8) (size 9 to 14) (size 15 to 20)
#    0.000    0.857    2.857    3.429    0.000    4.000 
#    0.000    0.000    0.000    0.000    0.000    0.000 
#    0.000    0.000    0.000    0.000    0.000    0.000 
#
# Total GULP energy -78251.351048 kJ/mol
# GULP energy per Si atom -5589.382218 kJ/mol
# Density = 2.367048 g / cm^3
# Si number density = 23.724482 Si / 1000 Ang^3
#
#
#
# Elastic Constant Matrix: (Units=GPa)
#
#
# Indices 1 2 3 4 5 6 
#
# 1 114.8727 53.5726 47.3995 4.3357 20.6696 21.6517
# 2 53.5726 100.3898 39.8839 -4.7591 -2.8384 7.5564
# 3 47.3995 39.8839 115.5867 -27.3374 28.2035 -11.6940
# 4 4.3357 -4.7591 -27.3374 46.6590 -11.0183 3.1787
# 5 20.6696 -2.8384 28.2035 -11.0183 51.2336 11.5408
# 6 21.6517 7.5564 -11.6940 3.1787 11.5408 44.8765
#
#
#
# Elastic Compliance Matrix: (Units=1/GPa)
#
#
# Indices 1 2 3 4 5 6 
#
# 1 0.016059 -0.006147 -0.005715 -0.005788 -0.003357 -0.006929
# 2 -0.006147 0.015410 -0.004349 0.001324 0.006587 -0.002550
# 3 -0.005715 -0.004349 0.017184 0.007651 -0.007878 0.009451
# 4 -0.005788 0.001324 0.007651 0.027348 0.003701 0.001675
# 5 -0.003357 0.006587 -0.007878 0.003701 0.028424 -0.009114
# 6 -0.006929 -0.002550 0.009451 0.001675 -0.009114 0.030744
#
#
# Mechanical properties :
#
#
# Convention : Reuss Voigt Hill
#
# Bulk Modulus (GPa) = 61.60922 68.06237 64.83580
# Shear Modulus (GPa) = 28.90187 41.22001 35.06094
#
# Velocity S-wave (km/s) = 3.49410 4.17279 3.84844
# Velocity P-wave (km/s) = 6.50410 7.20883 6.86551
#
# Compressibility (1/GPa) = 0.01623134
#
# Stress axis : x y z
#
# Youngs Moduli (GPa) = 62.27140 64.89285 58.19455
#
# Poissons Ratio (x) = 0.39889 0.33259
# Poissons Ratio (y) = 0.38278 0.25306
# Poissons Ratio (z) = 0.35589 0.28219
#
# Static dielectric constant tensor:
#      x y z
#    x 1.865970 0.078060 0.098720 
#    y 0.078060 1.809830 -0.078950 
#    z 0.098720 -0.078950 1.882070 
# 
# From -- ./inp_files/383229.got.cif
#   From: 2010.05.17/outbox.cif.g08.bks.cpg/sg2_192_cif.got.tgz:383229.got - 2010.06.03 11:33:40.
