data_PCOD9042923
_publ_section_title
;
Structure prediction by ZEFSAII (Michael W. Deem and Ramdas Pophale) SiO2 
 PCOD9042923
Probable space group: P -1
;
_chemical_formula_sum "Si O2"
_cell_formula_units_Z 16
_cell_length_a 16.474799
_cell_length_b 20.211684
_cell_length_c 10.892050
_cell_angle_alpha 39.893301
_cell_angle_beta 32.203274
_cell_angle_gamma 20.697695
_cell_volume 677.427403
_symmetry_space_group_name_H-M "P -1"
_symmetry_group_IT_number 2
_symmetry_cell_setting 'triclinic'
loop_
_space_group_symop_operation_xyz
x,y,z
-x,-y,-z
loop_
_atom_site_type_symbol
_atom_site_label
_atom_site_fract_x
_atom_site_fract_y
_atom_site_fract_z
Si Si1 0.810651 0.562165 0.982030
Si Si2 0.524849 0.289185 0.222137
Si Si3 0.424508 0.976804 0.508071
Si Si4 0.065902 0.621285 0.521836
Si Si5 0.532750 0.374937 0.479712
Si Si6 0.872841 0.049339 0.340352
Si Si7 0.492475 0.620355 0.135208
Si Si8 0.584184 0.873675 0.178283
O O1 0.585743 0.636198 0.252416
O O2 0.709300 0.585494 0.944825
O O3 0.845151 0.664569 0.796859
O O4 0.114422 0.343350 0.929699
O O5 0.536679 0.168017 0.320925
O O6 0.789581 0.146494 0.177625
O O7 0.249463 0.459286 0.415055
O O8 0.510634 0.383546 0.002004
O O9 0.584452 0.911043 0.267530
O O10 0.500000 0.000000 0.500000
O O11 0.105671 0.186681 0.585218
O O12 0.281951 0.525605 0.487431
O O13 0.799351 0.173030 0.362547
O O14 0.586449 0.464326 0.308206
O O15 0.648241 0.084498 0.587711
O O16 0.180457 0.831471 0.267342
O O17 0.500000 0.000000 0.000000
#
# Coordination Sequence:
#
# PCOD9042923 Si02
#       8
#     2   2   2   2   2   2   2   2
#     4  12  24  44  69 102 140 170 229 294 341 393
#     4  10  23  45  66  96 141 175 231 274 340 410
#     4  11  23  38  65 102 138 171 224 286 351 397
#     4  11  23  43  73  99 130 181 230 285 331 409
#     4  11  24  44  69  97 133 183 233 269 340 422
#     4  10  23  45  66  97 133 178 229 275 331 416
#     4  12  26  42  68  98 142 182 214 291 347 395
#     4  11  23  44  71  98 137 183 229 284 339 411
#
# _framework density 23.618766999999998
#
# number of rings (size 3 to 8) (size 9 to 14) (size 15 to 20)
#    0.000    1.000    3.750    4.875    3.500    4.500 
#    2.250    0.000    0.000    0.000    0.000    0.000 
#    0.000    0.000    0.000    0.000    0.000    0.000 
#
# Total GULP energy -89525.286495 kJ/mol
# GULP energy per Si atom -5595.330406 kJ/mol
# Density = 2.356501 g / cm^3
# Si number density = 23.618767 Si / 1000 Ang^3
#
#
#
# Elastic Constant Matrix: (Units=GPa)
#
#
# Indices 1 2 3 4 5 6 
#
# 1 53.6047 -3.5933 13.2118 -5.1495 9.2973 6.6031
# 2 -3.5933 57.5598 6.7619 -2.3327 19.4185 5.9538
# 3 13.2118 6.7619 68.9266 -15.9950 20.2424 -1.9245
# 4 -5.1495 -2.3327 -15.9950 33.9670 -9.9249 3.0724
# 5 9.2973 19.4185 20.2424 -9.9249 25.7733 -3.3673
# 6 6.6031 5.9538 -1.9245 3.0724 -3.3673 29.6831
#
#
#
# Elastic Compliance Matrix: (Units=1/GPa)
#
#
# Indices 1 2 3 4 5 6 
#
# 1 0.022780 0.006952 -0.001297 0.000123 -0.013445 -0.008084
# 2 0.006952 0.027986 0.003390 -0.002910 -0.028668 -0.009891
# 3 -0.001297 0.003390 0.020333 0.004970 -0.016330 -0.001440
# 4 0.000123 -0.002910 0.004970 0.035113 0.011578 -0.001442
# 5 -0.013445 -0.028668 -0.016330 0.011578 0.084636 0.016085
# 6 -0.008084 -0.009891 -0.001440 -0.001442 0.016085 0.039352
#
#
# Mechanical properties :
#
#
# Convention : Reuss Voigt Hill
#
# Bulk Modulus (GPa) = 11.21222 23.65021 17.43122
# Shear Modulus (GPa) = 20.67480 28.79872 24.73676
#
# Velocity S-wave (km/s) = 2.96185 3.49566 3.23977
# Velocity P-wave (km/s) = 4.05638 5.13107 4.62505
#
# Compressibility (1/GPa) = 0.08918840
#
# Stress axis : x y z
#
# Youngs Moduli (GPa) = 43.89746 35.73241 49.18075
#
# Poissons Ratio (x) = -0.24840 0.06379
# Poissons Ratio (y) = -0.30516 -0.16672
# Poissons Ratio (z) = 0.05694 -0.12113
#
# Static dielectric constant tensor:
#      x y z
#    x 1.930900 0.038170 0.043400 
#    y 0.038170 1.843900 -0.015660 
#    z 0.043400 -0.015660 1.905770 
# 
# From -- ./inp_files/467084.got.cif
#   From: 2010.05.17/outbox.cif.g08.bks.cpg/sg2_234_cif.got.tgz:467084.got - 2010.06.03 11:33:40.
