data_PCOD9042739
_publ_section_title
;
Structure prediction by ZEFSAII (Michael W. Deem and Ramdas Pophale) SiO2 
 PCOD9042739
Probable space group: P -1
;
_chemical_formula_sum "Si O2"
_cell_formula_units_Z 12
_cell_length_a 12.503671
_cell_length_b 5.171383
_cell_length_c 9.387951
_cell_angle_alpha 70.555212
_cell_angle_beta 72.965052
_cell_angle_gamma 112.755081
_cell_volume 461.629130
_symmetry_space_group_name_H-M "P -1"
_symmetry_group_IT_number 2
_symmetry_cell_setting 'triclinic'
loop_
_space_group_symop_operation_xyz
x,y,z
-x,-y,-z
loop_
_atom_site_type_symbol
_atom_site_label
_atom_site_fract_x
_atom_site_fract_y
_atom_site_fract_z
Si Si1 0.899250 0.678287 0.806257
Si Si2 0.061334 0.374234 0.762275
Si Si3 0.452222 0.712579 0.406213
Si Si4 0.322312 0.609863 0.768533
Si Si5 0.212550 0.599838 0.376821
Si Si6 0.349793 0.295887 0.041192
O O1 0.890393 0.674968 0.638867
O O2 0.748656 0.572402 0.920160
O O3 0.952204 0.440469 0.851101
O O4 0.994992 0.014022 0.789115
O O5 0.167075 0.458240 0.830946
O O6 0.137938 0.589825 0.552414
O O7 0.500000 0.500000 0.500000
O O8 0.373887 0.742038 0.564540
O O9 0.334522 0.550858 0.367172
O O10 0.572979 0.062376 0.248817
O O11 0.351168 0.338607 0.861459
O O12 0.276468 0.944564 0.207151
O O13 0.500000 0.500000 0.000000
#
# Coordination Sequence:
#
# PCOD9042739 Si02
#       6
#     2   2   2   2   2   2
#     4  12  27  49  77 111 151 199 250 309 371 443
#     4  11  27  49  78 109 149 200 257 302 364 451
#     4  10  23  44  75 105 145 198 252 307 363 439
#     4  10  25  46  70 109 147 196 248 305 371 446
#     4  11  25  46  79 111 147 196 252 314 367 439
#     4  12  27  48  73 111 155 193 246 310 380 443
#
# _framework density 25.994893999999999
#
# number of rings (size 3 to 8) (size 9 to 14) (size 15 to 20)
#    0.000    1.000    3.333    1.000    9.333    3.333 
#    0.000    0.000    0.000    0.000    0.000    0.000 
#    0.000    0.000    0.000    0.000    0.000    0.000 
#
# Total GULP energy -67002.196961 kJ/mol
# GULP energy per Si atom -5583.516413 kJ/mol
# Density = 2.593573 g / cm^3
# Si number density = 25.994894 Si / 1000 Ang^3
#
#
#
# Elastic Constant Matrix: (Units=GPa)
#
#
# Indices 1 2 3 4 5 6 
#
# 1 193.2416 40.5050 20.5998 -3.7773 4.4388 23.9539
# 2 40.5050 64.1368 15.5219 -5.2459 -13.7511 -7.3557
# 3 20.5998 15.5219 143.7148 -31.9669 0.6266 5.9735
# 4 -3.7773 -5.2459 -31.9669 34.1686 3.6067 1.3422
# 5 4.4388 -13.7511 0.6266 3.6067 32.4864 -0.2471
# 6 23.9539 -7.3557 5.9735 1.3422 -0.2471 37.6967
#
#
#
# Elastic Compliance Matrix: (Units=1/GPa)
#
#
# Indices 1 2 3 4 5 6 
#
# 1 0.007240 -0.005965 -0.000034 0.000461 -0.003609 -0.005799
# 2 -0.005965 0.023157 -0.002201 -0.000647 0.010798 0.008751
# 3 -0.000034 -0.002201 0.009209 0.008579 -0.002074 -0.002186
# 4 0.000461 -0.000647 0.008579 0.037868 -0.004730 -0.003158
# 5 -0.003609 0.010798 -0.002074 -0.004730 0.036450 0.005136
# 6 -0.005799 0.008751 -0.002186 -0.003158 0.005136 0.032413
#
#
# Mechanical properties :
#
#
# Convention : Reuss Voigt Hill
#
# Bulk Modulus (GPa) = 43.09185 61.59407 52.34296
# Shear Modulus (GPa) = 29.33058 42.50144 35.91601
#
# Velocity S-wave (km/s) = 3.36269 4.04789 3.72110
# Velocity P-wave (km/s) = 5.62938 6.75228 6.21624
#
# Compressibility (1/GPa) = 0.02320625
#
# Stress axis : x y z
#
# Youngs Moduli (GPa) = 138.13090 43.18303 108.59095
#
# Poissons Ratio (x) = 0.25758 0.00370
# Poissons Ratio (y) = 0.82393 0.23898
# Poissons Ratio (z) = 0.00471 0.09504
#
# Static dielectric constant tensor:
#      x y z
#    x 2.077880 -0.030120 -0.118510 
#    y -0.030120 2.155290 0.225020 
#    z -0.118510 0.225020 2.470620 
# 
# From -- ./inp_files/360421.got.cif
#   From: 2010.05.17/outbox.cif.g08.bks.cpg/sg2_181_cif.got.tgz:360421.got - 2010.06.03 11:33:40.
