data_PCOD9042290
_publ_section_title
;
Structure prediction by ZEFSAII (Michael W. Deem and Ramdas Pophale) SiO2 
 PCOD9042290
Probable space group: P -1
;
_chemical_formula_sum "Si O2"
_cell_formula_units_Z 14
_cell_length_a 5.340142
_cell_length_b 25.171455
_cell_length_c 4.951274
_cell_angle_alpha 122.546341
_cell_angle_beta 76.972903
_cell_angle_gamma 115.739943
_cell_volume 505.328608
_symmetry_space_group_name_H-M "P -1"
_symmetry_group_IT_number 2
_symmetry_cell_setting 'triclinic'
loop_
_space_group_symop_operation_xyz
x,y,z
-x,-y,-z
loop_
_atom_site_type_symbol
_atom_site_label
_atom_site_fract_x
_atom_site_fract_y
_atom_site_fract_z
Si Si1 0.553092 0.805220 0.214495
Si Si2 0.932989 0.628743 0.138009
Si Si3 0.694878 0.345985 0.384015
Si Si4 0.312751 0.514216 0.357165
Si Si5 0.907511 0.771336 0.511875
Si Si6 0.026402 0.048096 0.374819
Si Si7 0.764449 0.150970 0.838368
O O1 0.701417 0.780550 0.367882
O O2 0.520005 0.842305 0.019773
O O3 0.196071 0.798948 0.316250
O O4 0.481874 0.730455 0.868429
O O5 0.840677 0.692386 0.369205
O O6 0.198420 0.646477 0.315622
O O7 0.751055 0.548739 0.009765
O O8 0.030884 0.635968 0.823021
O O9 0.586917 0.405879 0.514384
O O10 0.500000 0.500000 0.500000
O O11 0.000000 0.500000 0.500000
O O12 0.023011 0.815182 0.877386
O O13 0.798699 0.083360 0.554054
O O14 0.693318 0.885886 0.514844
O O15 0.000000 0.000000 0.500000
O O16 0.000000 0.000000 0.000000
#
# Coordination Sequence:
#
# PCOD9042290 Si02
#       7
#     2   2   2   2   2   2   2
#     4  11  24  43  73  97 136 185 229 289 362 422
#     4  11  21  42  67 101 145 184 240 303 351 426
#     4  11  23  42  68 105 135 189 243 295 360 435
#     4  10  23  44  70 106 153 202 254 314 378 440
#     4  11  22  40  65 102 136 176 235 288 336 422
#     4  11  26  46  67 101 135 173 228 289 360 439
#     4  11  24  43  68  99 134 171 229 283 348 425
#
# _framework density 27.704749
#
# number of rings (size 3 to 8) (size 9 to 14) (size 15 to 20)
#    0.000    1.143    2.857    3.000    0.000    8.000 
#    0.000   17.143    0.000    0.000    0.000    0.000 
#    0.000    0.000    0.000    0.000    0.000    0.000 
#
# Total GULP energy -78036.532176 kJ/mol
# GULP energy per Si atom -5574.038013 kJ/mol
# Density = 2.764169 g / cm^3
# Si number density = 27.704749 Si / 1000 Ang^3
#
#
#
# Elastic Constant Matrix: (Units=GPa)
#
#
# Indices 1 2 3 4 5 6 
#
# 1 112.5959 81.4048 64.7193 16.5024 29.3294 -56.0822
# 2 81.4048 242.4535 113.8515 42.9817 12.9661 -49.0432
# 3 64.7193 113.8515 236.7664 60.0309 12.8572 -23.3905
# 4 16.5024 42.9817 60.0309 70.3782 -8.3851 -3.3403
# 5 29.3294 12.9661 12.8572 -8.3851 64.1627 3.0838
# 6 -56.0822 -49.0432 -23.3905 -3.3403 3.0838 83.8288
#
#
#
# Elastic Compliance Matrix: (Units=1/GPa)
#
#
# Indices 1 2 3 4 5 6 
#
# 1 0.020759 -0.002672 -0.002223 -0.001882 -0.009325 0.011973
# 2 -0.002672 0.006459 -0.001799 -0.001719 -0.000017 0.001422
# 3 -0.002223 -0.001799 0.006704 -0.004194 -0.000472 -0.000819
# 4 -0.001882 -0.001719 -0.004194 0.019710 0.004760 -0.002825
# 5 -0.009325 -0.000017 -0.000472 0.004760 0.020903 -0.006959
# 6 0.011973 0.001422 -0.000819 -0.002825 -0.006959 0.020686
#
#
# Mechanical properties :
#
#
# Convention : Reuss Voigt Hill
#
# Bulk Modulus (GPa) = 48.69579 123.52965 86.11272
# Shear Modulus (GPa) = 43.30725 65.79660 54.55192
#
# Velocity S-wave (km/s) = 3.95798 4.87860 4.44221
# Velocity P-wave (km/s) = 6.20503 8.74180 7.58028
#
# Compressibility (1/GPa) = 0.02053566
#
# Stress axis : x y z
#
# Youngs Moduli (GPa) = 48.17125 154.81513 149.15805
#
# Poissons Ratio (x) = 0.41363 0.33162
# Poissons Ratio (y) = 0.12870 0.26827
# Poissons Ratio (z) = 0.10710 0.27845
#
# Static dielectric constant tensor:
#      x y z
#    x 3.750730 1.215660 -0.337440 
#    y 1.215660 3.141440 -0.285540 
#    z -0.337440 -0.285540 2.219830 
# 
# From -- ./inp_files/14254.got.cif
#   From: 2010.05.17/outbox.cif.g08.bks.cpg/sg2_8_cif.got.tgz:14254.got - 2010.06.03 11:33:40.
