data_PCOD9042802
_publ_section_title
;
Structure prediction by ZEFSAII (Michael W. Deem and Ramdas Pophale) SiO2 
 PCOD9042802
Probable space group: P -1
;
_chemical_formula_sum "Si O2"
_cell_formula_units_Z 12
_cell_length_a 14.938966
_cell_length_b 17.035040
_cell_length_c 9.059195
_cell_angle_alpha 29.161738
_cell_angle_beta 34.464194
_cell_angle_gamma 28.709819
_cell_volume 522.468989
_symmetry_space_group_name_H-M "P -1"
_symmetry_group_IT_number 2
_symmetry_cell_setting 'triclinic'
loop_
_space_group_symop_operation_xyz
x,y,z
-x,-y,-z
loop_
_atom_site_type_symbol
_atom_site_label
_atom_site_fract_x
_atom_site_fract_y
_atom_site_fract_z
Si Si1 0.309722 0.195831 0.869845
Si Si2 0.619838 0.559267 0.142071
Si Si3 0.442723 0.763295 0.738253
Si Si4 0.012117 0.168594 0.138499
Si Si5 0.207229 0.236881 0.261538
Si Si6 0.071591 0.803951 0.130277
O O1 0.382992 0.306541 0.497233
O O2 0.181803 0.284190 0.045127
O O3 0.196591 0.151022 0.982116
O O4 0.500000 0.000000 0.000000
O O5 0.500000 0.500000 0.500000
O O6 0.819109 0.370054 0.121833
O O7 0.503352 0.680318 0.956382
O O8 0.680122 0.679851 0.957150
O O9 0.334956 0.000101 0.499862
O O10 0.295700 0.715627 0.955258
O O11 0.018563 0.151473 0.982183
O O12 0.000000 0.000000 0.500000
O O13 0.006418 0.306622 0.497142
O O14 0.000000 0.000000 0.000000
#
# Coordination Sequence:
#
# PCOD9042802 Si02
#       6
#     2   2   2   2   2   2
#     4  10  23  44  78 106 141 193 239 295 370 422
#     4  12  30  44  72 114 146 196 243 299 364 427
#     4  10  23  46  74 104 148 190 242 295 363 432
#     4  12  27  46  71 105 155 189 245 300 361 430
#     4  10  23  46  74 104 148 190 242 295 363 432
#     4  10  23  44  78 106 141 193 239 295 370 422
#
# _framework density 22.967870000000001
#
# number of rings (size 3 to 8) (size 9 to 14) (size 15 to 20)
#    0.000    1.333    0.000    4.500   14.000    4.000 
#    0.000    0.000    0.000    0.000    0.000    0.000 
#    0.000    0.000    0.000    0.000    0.000    0.000 
#
# Total GULP energy -67184.824274 kJ/mol
# GULP energy per Si atom -5598.735356 kJ/mol
# Density = 2.291559 g / cm^3
# Si number density = 22.967870 Si / 1000 Ang^3
#
#
#
# Elastic Constant Matrix: (Units=GPa)
#
#
# Indices 1 2 3 4 5 6 
#
# 1 235.9602 31.6815 120.5423 14.2687 0.5251 -4.1597
# 2 31.6815 79.4245 42.8341 -2.5232 -1.0945 0.0703
# 3 120.5423 42.8341 250.2549 26.5947 1.0557 -2.3849
# 4 14.2687 -2.5232 26.5947 51.2582 0.1885 -0.6190
# 5 0.5251 -1.0945 1.0557 0.1885 44.3008 15.5530
# 6 -4.1597 0.0703 -2.3849 -0.6190 15.5530 23.9033
#
#
#
# Elastic Compliance Matrix: (Units=1/GPa)
#
#
# Indices 1 2 3 4 5 6 
#
# 1 0.005697 -0.000915 -0.002545 -0.000297 -0.000370 0.000973
# 2 -0.000915 0.014235 -0.002230 0.002100 0.000695 -0.000822
# 3 -0.002545 -0.002230 0.005866 -0.002441 -0.000239 0.000241
# 4 -0.000297 0.002100 -0.002441 0.020966 -0.000078 0.000292
# 5 -0.000370 0.000695 -0.000239 -0.000078 0.029334 -0.019179
# 6 0.000973 -0.000822 0.000241 0.000292 -0.019179 0.054518
#
#
# Mechanical properties :
#
#
# Convention : Reuss Voigt Hill
#
# Bulk Modulus (GPa) = 69.35535 106.19504 87.77519
# Shear Modulus (GPa) = 34.05972 48.59792 41.32882
#
# Velocity S-wave (km/s) = 3.85506 4.60489 4.24656
# Velocity P-wave (km/s) = 7.07655 8.63771 7.89581
#
# Compressibility (1/GPa) = 0.01441850
#
# Stress axis : x y z
#
# Youngs Moduli (GPa) = 175.53085 70.24892 170.47008
#
# Poissons Ratio (x) = 0.06430 0.43385
# Poissons Ratio (y) = 0.16067 0.38007
# Poissons Ratio (z) = 0.44673 0.15662
#
# Static dielectric constant tensor:
#      x y z
#    x 1.762790 0.009570 0.002520 
#    y 0.009570 2.029800 0.031910 
#    z 0.002520 0.031910 1.833210 
# 
# From -- ./inp_files/182988.got.cif
#   From: 2010.05.17/outbox.cif.g08.bks.cpg/sg2_92_cif.got.tgz:182988.got - 2010.06.03 11:33:40.
