data_PCOD9042335
_publ_section_title
;
Structure prediction by ZEFSAII (Michael W. Deem and Ramdas Pophale) SiO2 
 PCOD9042335
Probable space group: P -1
;
_chemical_formula_sum "Si O2"
_cell_formula_units_Z 14
_cell_length_a 21.513978
_cell_length_b 18.682859
_cell_length_c 9.048010
_cell_angle_alpha 50.206855
_cell_angle_beta 139.664496
_cell_angle_gamma 161.270780
_cell_volume 694.706423
_symmetry_space_group_name_H-M "P -1"
_symmetry_group_IT_number 2
_symmetry_cell_setting 'triclinic'
loop_
_space_group_symop_operation_xyz
x,y,z
-x,-y,-z
loop_
_atom_site_type_symbol
_atom_site_label
_atom_site_fract_x
_atom_site_fract_y
_atom_site_fract_z
Si Si1 0.315698 0.573657 0.150560
Si Si2 0.499418 0.910289 0.222802
Si Si3 0.820029 0.023654 0.002056
Si Si4 0.621012 0.720941 0.312487
Si Si5 0.956386 0.560266 0.420021
Si Si6 0.413903 0.826433 0.498800
Si Si7 0.905936 0.855158 0.879867
O O1 0.395850 0.726702 0.201120
O O2 0.543873 0.717530 0.315065
O O3 0.090068 0.309883 0.153950
O O4 0.212958 0.531075 0.873223
O O5 0.355108 0.797032 0.262565
O O6 0.786282 0.157325 0.462495
O O7 0.500000 0.000000 0.000000
O O8 0.881480 0.024576 0.958127
O O9 0.720645 0.866688 0.159013
O O10 0.624105 0.933604 0.749653
O O11 0.826416 0.839356 0.606168
O O12 0.357668 0.432843 0.177500
O O13 0.823369 0.422427 0.514559
O O14 0.000000 0.500000 0.500000
O O15 0.500000 0.000000 0.500000
O O16 0.000000 0.000000 0.000000
#
# Coordination Sequence:
#
# PCOD9042335 Si02
#       7
#     2   2   2   2   2   2   2
#     4  11  23  42  65  98 133 174 222 280 329 394
#     4  12  26  41  66  96 133 183 231 271 333 392
#     4  11  23  44  70  97 138 176 220 275 336 393
#     4  10  23  44  70  98 134 172 217 275 341 399
#     4  12  22  44  62  86 136 175 221 283 324 381
#     4  12  24  42  68  96 135 183 223 271 333 392
#     4  10  24  45  71 100 134 170 219 276 339 399
#
# _framework density 20.152398000000002
#
# number of rings (size 3 to 8) (size 9 to 14) (size 15 to 20)
#    0.000    0.857    5.714    0.429    2.000    2.286 
#    2.571    0.000    0.000    0.000    0.000    0.000 
#    0.000    0.000    0.000    0.000    0.000    0.000 
#
# Total GULP energy -78193.799596 kJ/mol
# GULP energy per Si atom -5585.271400 kJ/mol
# Density = 2.010653 g / cm^3
# Si number density = 20.152398 Si / 1000 Ang^3
#
#
#
# Elastic Constant Matrix: (Units=GPa)
#
#
# Indices 1 2 3 4 5 6 
#
# 1 146.3075 66.9207 33.2769 -2.2033 -10.7784 -8.7121
# 2 66.9207 137.3936 18.8559 -23.4311 -27.7686 10.0204
# 3 33.2769 18.8559 60.5116 -22.5211 0.6283 7.0769
# 4 -2.2033 -23.4311 -22.5211 28.6052 -0.3174 -6.1496
# 5 -10.7784 -27.7686 0.6283 -0.3174 42.4625 2.3563
# 6 -8.7121 10.0204 7.0769 -6.1496 2.3563 45.3871
#
#
#
# Elastic Compliance Matrix: (Units=1/GPa)
#
#
# Indices 1 2 3 4 5 6 
#
# 1 0.012146 -0.007259 -0.009074 -0.011334 -0.001831 0.003908
# 2 -0.007259 0.014466 0.005344 0.014762 0.007861 -0.003828
# 3 -0.009074 0.005344 0.030218 0.026603 0.001170 -0.004090
# 4 -0.011334 0.014762 0.026603 0.067014 0.006932 -0.000863
# 5 -0.001831 0.007861 0.001170 0.006932 0.028417 -0.002806
# 6 0.003908 -0.003828 -0.004090 -0.000863 -0.002806 0.024294
#
#
# Mechanical properties :
#
#
# Convention : Reuss Voigt Hill
#
# Bulk Modulus (GPa) = 28.69211 64.70221 46.69716
# Shear Modulus (GPa) = 23.79260 38.30156 31.04708
#
# Velocity S-wave (km/s) = 3.43976 4.36431 3.92932
# Velocity P-wave (km/s) = 5.48128 7.58765 6.61879
#
# Compressibility (1/GPa) = 0.03485279
#
# Stress axis : x y z
#
# Youngs Moduli (GPa) = 82.33128 69.12729 33.09318
#
# Poissons Ratio (x) = 0.50178 0.30029
# Poissons Ratio (y) = 0.59763 -0.17686
# Poissons Ratio (z) = 0.74708 -0.36944
#
# Static dielectric constant tensor:
#      x y z
#    x 1.751890 0.037300 -0.011620 
#    y 0.037300 1.722120 -0.094350 
#    z -0.011620 -0.094350 2.025220 
# 
# From -- ./inp_files/315305.got.cif
#   From: 2010.05.17/outbox.cif.g08.bks.cpg/sg2_158_cif.got.tgz:315305.got - 2010.06.03 11:33:40.
