data_PCOD9042933
_publ_section_title
;
Structure prediction by ZEFSAII (Michael W. Deem and Ramdas Pophale) SiO2 
 PCOD9042933
Probable space group: P -1
;
_chemical_formula_sum "Si O2"
_cell_formula_units_Z 16
_cell_length_a 11.584982
_cell_length_b 8.362244
_cell_length_c 20.228835
_cell_angle_alpha 42.673675
_cell_angle_beta 40.206265
_cell_angle_gamma 72.406464
_cell_volume 690.777966
_symmetry_space_group_name_H-M "P -1"
_symmetry_group_IT_number 2
_symmetry_cell_setting 'triclinic'
loop_
_space_group_symop_operation_xyz
x,y,z
-x,-y,-z
loop_
_atom_site_type_symbol
_atom_site_label
_atom_site_fract_x
_atom_site_fract_y
_atom_site_fract_z
Si Si1 0.291053 0.161258 0.679080
Si Si2 0.564870 0.741037 0.208930
Si Si3 0.671244 0.231818 0.120466
Si Si4 0.908382 0.524494 0.465466
Si Si5 0.216960 0.081603 0.340875
Si Si6 0.041181 0.303704 0.251942
Si Si7 0.395935 0.170581 0.480429
Si Si8 0.106233 0.814494 0.159601
O O1 0.500000 0.500000 0.500000
O O2 0.288213 0.141332 0.607896
O O3 0.071013 0.132201 0.805464
O O4 0.303992 0.912098 0.781901
O O5 0.303640 0.500203 0.408535
O O6 0.614602 0.506952 0.268477
O O7 0.634738 0.989788 0.156118
O O8 0.651347 0.908238 0.051769
O O9 0.466480 0.259462 0.206389
O O10 0.867907 0.531496 0.908356
O O11 0.000000 0.500000 0.500000
O O12 0.071250 0.765936 0.268023
O O13 0.821176 0.224770 0.558565
O O14 0.195806 0.216569 0.241523
O O15 0.000000 0.000000 0.500000
O O16 0.056853 0.531325 0.228631
O O17 0.792131 0.016636 0.436932
O O18 0.500000 0.000000 0.500000
#
# Coordination Sequence:
#
# PCOD9042933 Si02
#       8
#     2   2   2   2   2   2   2   2
#     4  12  23  45  72  96 140 184 232 277 347 420
#     4  10  23  45  67 100 133 182 233 276 341 412
#     4  10  24  43  71  98 132 188 232 278 340 423
#     4  11  22  44  69  98 139 184 229 281 342 409
#     4  11  22  41  70  98 136 175 230 282 353 398
#     4  11  25  44  67 103 139 177 229 291 344 403
#     4  12  26  41  66 102 142 180 223 288 351 396
#     4  11  24  44  74  99 133 185 234 275 342 421
#
# _framework density 23.162292000000001
#
# number of rings (size 3 to 8) (size 9 to 14) (size 15 to 20)
#    0.000    1.000    3.750    2.625    3.500    2.000 
#    0.000    0.000    0.000    0.000    0.000    0.000 
#    0.000    0.000    0.000    0.000    0.000    0.000 
#
# Total GULP energy -89174.909637 kJ/mol
# GULP energy per Si atom -5573.431852 kJ/mol
# Density = 2.310957 g / cm^3
# Si number density = 23.162292 Si / 1000 Ang^3
#
#
#
# Elastic Constant Matrix: (Units=GPa)
#
#
# Indices 1 2 3 4 5 6 
#
# 1 98.1689 -9.1712 45.0171 6.8761 32.0481 -12.8727
# 2 -9.1712 42.4979 36.7418 -2.2229 6.9349 -10.3469
# 3 45.0171 36.7418 136.0636 6.0112 41.7582 7.6352
# 4 6.8761 -2.2229 6.0112 29.2441 -0.6756 7.0783
# 5 32.0481 6.9349 41.7582 -0.6756 29.5229 0.8712
# 6 -12.8727 -10.3469 7.6352 7.0783 0.8712 31.0292
#
#
#
# Elastic Compliance Matrix: (Units=1/GPa)
#
#
# Indices 1 2 3 4 5 6 
#
# 1 0.028661 0.023946 -0.009476 -0.009603 -0.024294 0.025080
# 2 0.023946 0.058521 -0.022915 -0.005525 -0.008536 0.036587
# 3 -0.009476 -0.022915 0.022381 -0.000470 -0.015510 -0.016537
# 4 -0.009603 -0.005525 -0.000470 0.040139 0.013755 -0.015253
# 5 -0.024294 -0.008536 -0.015510 0.013755 0.084934 -0.014631
# 6 0.025080 0.036587 -0.016537 -0.015253 -0.014631 0.062792
#
#
# Mechanical properties :
#
#
# Convention : Reuss Voigt Hill
#
# Bulk Modulus (GPa) = 10.79048 46.87843 28.83446
# Shear Modulus (GPa) = 14.48393 31.56873 23.02633
#
# Velocity S-wave (km/s) = 2.50336 3.69580 3.15640
# Velocity P-wave (km/s) = 3.60895 6.20443 5.07541
#
# Compressibility (1/GPa) = 0.09267426
#
# Stress axis : x y z
#
# Youngs Moduli (GPa) = 34.89002 17.08794 44.67996
#
# Poissons Ratio (x) = -0.40919 0.42339
# Poissons Ratio (y) = -0.83548 1.02383
# Poissons Ratio (z) = 0.33062 0.39156
#
# Static dielectric constant tensor:
#      x y z
#    x 1.262890 0.898680 -0.203750 
#    y 0.898680 0.537470 0.381840 
#    z -0.203750 0.381840 1.819230 
# 
# From -- ./inp_files/577565.got.cif
#   From: 2010.05.17/outbox.cif.g08.bks.cpg/sg2_289_cif.got.tgz:577565.got - 2010.06.03 11:33:40.
