data_PCOD9042696
_publ_section_title
;
Structure prediction by ZEFSAII (Michael W. Deem and Ramdas Pophale) SiO2 
 PCOD9042696
Probable space group: P -1
;
_chemical_formula_sum "Si O2"
_cell_formula_units_Z 16
_cell_length_a 9.079949
_cell_length_b 5.483971
_cell_length_c 23.937405
_cell_angle_alpha 92.972423
_cell_angle_beta 136.132712
_cell_angle_gamma 116.422381
_cell_volume 591.501216
_symmetry_space_group_name_H-M "P -1"
_symmetry_group_IT_number 2
_symmetry_cell_setting 'triclinic'
loop_
_space_group_symop_operation_xyz
x,y,z
-x,-y,-z
loop_
_atom_site_type_symbol
_atom_site_label
_atom_site_fract_x
_atom_site_fract_y
_atom_site_fract_z
Si Si1 0.253644 0.501444 0.441324
Si Si2 0.613952 0.460079 0.250197
Si Si3 0.686530 0.054918 0.739907
Si Si4 0.382530 0.154484 0.938277
Si Si5 0.313010 0.865012 0.072501
Si Si6 0.879058 0.146001 0.438921
Si Si7 0.912980 0.648575 0.871556
Si Si8 0.810652 0.171379 0.652424
O O1 0.500000 0.500000 0.500000
O O2 0.146914 0.516959 0.353085
O O3 0.991588 0.225385 0.407264
O O4 0.462992 0.856114 0.538329
O O5 0.538341 0.298679 0.290483
O O6 0.396897 0.517489 0.189799
O O7 0.948497 0.761267 0.322696
O O8 0.482285 0.152537 0.168306
O O9 0.898546 0.352093 0.847021
O O10 0.846856 0.125290 0.725966
O O11 0.472600 0.106885 0.661434
O O12 0.485041 0.173692 0.903907
O O13 0.500000 0.500000 0.000000
O O14 0.028399 0.871043 0.849381
O O15 0.500000 0.000000 0.000000
O O16 0.000000 0.500000 0.000000
O O17 0.172028 0.933917 0.988370
O O18 0.000000 0.500000 0.500000
O O19 0.000000 0.000000 0.500000
#
# Coordination Sequence:
#
# PCOD9042696 Si02
#       8
#     2   2   2   2   2   2   2   2
#     4  11  25  45  76 106 151 199 258 314 385 467
#     4  12  26  45  73 109 156 197 264 316 387 458
#     4  12  26  46  71 111 155 198 258 320 385 460
#     4  10  23  44  74 105 142 193 250 307 374 447
#     4  11  22  47  73 105 147 196 256 314 385 451
#     4  12  27  49  81 112 153 203 251 318 392 464
#     4  11  26  45  74 103 151 203 254 319 384 460
#     4  11  26  47  70 110 151 196 257 318 388 457
#
# _framework density 27.049814999999999
#
# number of rings (size 3 to 8) (size 9 to 14) (size 15 to 20)
#    0.000    0.750    3.750    2.625    7.000    2.000 
#    2.250    0.000    0.000    0.000    0.000    0.000 
#    0.000    0.000    0.000    0.000    0.000    0.000 
#
# Total GULP energy -89368.262611 kJ/mol
# GULP energy per Si atom -5585.516413 kJ/mol
# Density = 2.698825 g / cm^3
# Si number density = 27.049815 Si / 1000 Ang^3
#
#
#
# Elastic Constant Matrix: (Units=GPa)
#
#
# Indices 1 2 3 4 5 6 
#
# 1 202.1774 43.0147 25.9069 4.5782 4.7384 24.7413
# 2 43.0147 91.2977 17.1819 -9.8185 -17.5834 10.7695
# 3 25.9069 17.1819 88.2974 9.4618 -6.1192 5.7893
# 4 4.5782 -9.8185 9.4618 48.5291 4.5635 -4.4218
# 5 4.7384 -17.5834 -6.1192 4.5635 57.8072 5.0264
# 6 24.7413 10.7695 5.7893 -4.4218 5.0264 56.1134
#
#
#
# Elastic Compliance Matrix: (Units=1/GPa)
#
#
# Indices 1 2 3 4 5 6 
#
# 1 0.005947 -0.002699 -0.001069 -0.000967 -0.001174 -0.001965
# 2 -0.002699 0.013845 -0.001833 0.002895 0.004133 -0.001420
# 3 -0.001069 -0.001833 0.012434 -0.002874 0.001142 -0.000789
# 4 -0.000967 0.002895 -0.002874 0.022147 -0.001269 0.002026
# 5 -0.001174 0.004133 0.001142 -0.001269 0.019065 -0.002201
# 6 -0.001965 -0.001420 -0.000789 0.002026 -0.002201 0.019398
#
#
# Mechanical properties :
#
#
# Convention : Reuss Voigt Hill
#
# Bulk Modulus (GPa) = 47.56244 61.55327 54.55786
# Shear Modulus (GPa) = 45.02614 52.20119 48.61366
#
# Velocity S-wave (km/s) = 4.08433 4.39773 4.24393
# Velocity P-wave (km/s) = 6.31378 6.97077 6.65039
#
# Compressibility (1/GPa) = 0.02102499
#
# Stress axis : x y z
#
# Youngs Moduli (GPa) = 168.14383 72.22907 80.42275
#
# Poissons Ratio (x) = 0.19498 0.08594
# Poissons Ratio (y) = 0.45389 0.14739
# Poissons Ratio (z) = 0.17967 0.13238
#
# Static dielectric constant tensor:
#      x y z
#    x 2.233940 0.071230 -0.081510 
#    y 0.071230 2.360130 -0.047550 
#    z -0.081510 -0.047550 2.329000 
# 
# From -- ./inp_files/616367.got.cif
#   From: 2010.05.17/outbox.cif.g08.bks.cpg/sg2_309_cif.got.tgz:616367.got - 2010.06.03 11:33:40.
