data_PCOD9042617
_publ_section_title
;
Structure prediction by ZEFSAII (Michael W. Deem and Ramdas Pophale) SiO2 
 PCOD9042617
Probable space group: P -1
;
_chemical_formula_sum "Si O2"
_cell_formula_units_Z 14
_cell_length_a 6.256193
_cell_length_b 13.677646
_cell_length_c 11.146106
_cell_angle_alpha 97.958462
_cell_angle_beta 83.102654
_cell_angle_gamma 43.741134
_cell_volume 618.423094
_symmetry_space_group_name_H-M "P -1"
_symmetry_group_IT_number 2
_symmetry_cell_setting 'triclinic'
loop_
_space_group_symop_operation_xyz
x,y,z
-x,-y,-z
loop_
_atom_site_type_symbol
_atom_site_label
_atom_site_fract_x
_atom_site_fract_y
_atom_site_fract_z
Si Si1 0.250571 0.223541 0.147093
Si Si2 0.161368 0.663584 0.017928
Si Si3 0.722011 0.158137 0.912371
Si Si4 0.971324 0.137551 0.255604
Si Si5 0.292279 0.980604 0.449866
Si Si6 0.773383 0.680387 0.236593
Si Si7 0.794592 0.588532 0.652089
O O1 0.211749 0.295537 0.285343
O O2 0.217583 0.119813 0.158403
O O3 0.539981 0.163803 0.033552
O O4 0.945906 0.347704 0.100950
O O5 0.151986 0.784136 0.031542
O O6 0.933355 0.709461 0.149354
O O7 0.500000 0.500000 0.000000
O O8 0.479688 0.275254 0.838862
O O9 0.981399 0.992587 0.811078
O O10 0.593775 0.302381 0.309043
O O11 0.120972 0.092686 0.369051
O O12 0.572240 0.805817 0.371483
O O13 0.500000 0.000000 0.500000
O O14 0.000000 0.000000 0.500000
O O15 0.034412 0.524460 0.263989
O O16 0.000000 0.500000 0.500000
#
# Coordination Sequence:
#
# PCOD9042617 Si02
#       7
#     2   2   2   2   2   2   2
#     4  11  24  42  68 104 141 183 243 298 378 440
#     4  11  22  42  71 107 142 187 236 304 374 447
#     4  10  23  44  73 104 141 183 242 305 372 444
#     4  11  26  44  72 105 144 189 240 309 371 440
#     4  11  27  49  76 105 145 201 257 307 364 444
#     4  10  24  43  71 103 141 192 243 301 368 442
#     4  12  27  46  67 101 147 194 243 302 370 444
#
# _framework density 22.638224999999998
#
# number of rings (size 3 to 8) (size 9 to 14) (size 15 to 20)
#    0.000    1.143    0.000    4.714    8.000    7.429 
#    2.571    0.000    0.000    0.000    0.000    0.000 
#    0.000    0.000    0.000    0.000    0.000    0.000 
#
# Total GULP energy -78019.038673 kJ/mol
# GULP energy per Si atom -5572.788477 kJ/mol
# Density = 2.258670 g / cm^3
# Si number density = 22.638225 Si / 1000 Ang^3
#
#
#
# Elastic Constant Matrix: (Units=GPa)
#
#
# Indices 1 2 3 4 5 6 
#
# 1 118.8796 36.6473 52.7842 2.2726 20.6139 5.6564
# 2 36.6473 92.0122 28.0587 -11.1141 8.4585 -9.0877
# 3 52.7842 28.0587 95.3702 0.1593 18.0226 1.2295
# 4 2.2726 -11.1141 0.1593 48.6398 0.8193 5.7619
# 5 20.6139 8.4585 18.0226 0.8193 31.9412 -8.0576
# 6 5.6564 -9.0877 1.2295 5.7619 -8.0576 38.7221
#
#
#
# Elastic Compliance Matrix: (Units=1/GPa)
#
#
# Indices 1 2 3 4 5 6 
#
# 1 0.012849 -0.003554 -0.004998 -0.000885 -0.005403 -0.003545
# 2 -0.003554 0.013582 -0.002224 0.002848 0.000765 0.003513
# 3 -0.004998 -0.002224 0.014844 -0.000091 -0.004878 -0.001265
# 4 -0.000885 0.002848 -0.000091 0.021594 -0.001366 -0.002697
# 5 -0.005403 0.000765 -0.004878 -0.001366 0.039804 0.009609
# 6 -0.003545 0.003513 -0.001265 -0.002697 0.009609 0.029608
#
#
# Mechanical properties :
#
#
# Convention : Reuss Voigt Hill
#
# Bulk Modulus (GPa) = 50.69730 60.13803 55.41767
# Shear Modulus (GPa) = 31.17080 36.44541 33.80811
#
# Velocity S-wave (km/s) = 3.71470 4.01672 3.86866
# Velocity P-wave (km/s) = 6.39076 6.93790 6.66994
#
# Compressibility (1/GPa) = 0.01972492
#
# Stress axis : x y z
#
# Youngs Moduli (GPa) = 77.82747 73.62520 67.36720
#
# Poissons Ratio (x) = 0.26166 0.33668
# Poissons Ratio (y) = 0.27659 0.14980
# Poissons Ratio (z) = 0.38896 0.16371
#
# Static dielectric constant tensor:
#      x y z
#    x 1.955500 -0.017500 -0.007340 
#    y -0.017500 1.823330 -0.045590 
#    z -0.007340 -0.045590 1.846870 
# 
# From -- ./inp_files/364471.got.cif
#   From: 2010.05.17/outbox.cif.g08.bks.cpg/sg2_183_cif.got.tgz:364471.got - 2010.06.03 11:33:40.
