data_PCOD9042875
_publ_section_title
;
Structure prediction by ZEFSAII (Michael W. Deem and Ramdas Pophale) SiO2 
 PCOD9042875
Probable space group: P -1
;
_chemical_formula_sum "Si O2"
_cell_formula_units_Z 16
_cell_length_a 16.160606
_cell_length_b 12.950438
_cell_length_c 8.625103
_cell_angle_alpha 152.790355
_cell_angle_beta 51.852103
_cell_angle_gamma 124.275120
_cell_volume 648.620192
_symmetry_space_group_name_H-M "P -1"
_symmetry_group_IT_number 2
_symmetry_cell_setting 'triclinic'
loop_
_space_group_symop_operation_xyz
x,y,z
-x,-y,-z
loop_
_atom_site_type_symbol
_atom_site_label
_atom_site_fract_x
_atom_site_fract_y
_atom_site_fract_z
Si Si1 0.272374 0.208582 0.605670
Si Si2 0.109449 0.127947 0.527278
Si Si3 0.602048 0.050630 0.344064
Si Si4 0.203262 0.960479 0.675082
Si Si5 0.492797 0.766614 0.600266
Si Si6 0.861436 0.622157 0.488965
Si Si7 0.054920 0.519036 0.296254
Si Si8 0.655639 0.566374 0.498011
O O1 0.221290 0.025238 0.288231
O O2 0.386967 0.271694 0.634475
O O3 0.302687 0.406209 0.688500
O O4 0.236085 0.040253 0.573917
O O5 0.104935 0.246233 0.528431
O O6 0.132289 0.311909 0.893522
O O7 0.000000 0.000000 0.500000
O O8 0.701236 0.113863 0.424548
O O9 0.573322 0.216636 0.459264
O O10 0.500000 0.000000 0.500000
O O11 0.628730 0.814457 0.918824
O O12 0.115483 0.754795 0.509517
O O13 0.155957 0.185914 0.106814
O O14 0.440900 0.594687 0.554302
O O15 0.500000 0.000000 0.000000
O O16 0.754282 0.497299 0.398552
O O17 0.958199 0.478030 0.236924
O O18 0.000000 0.500000 0.500000
#
# Coordination Sequence:
#
# PCOD9042875 Si02
#       8
#     2   2   2   2   2   2   2   2
#     4  11  23  43  68  99 133 180 225 286 339 399
#     4  11  24  43  68  96 135 178 225 279 340 405
#     4  11  24  45  66 103 137 187 224 282 345 403
#     4  11  24  44  68 100 140 174 230 284 342 411
#     4  12  25  43  72 100 137 182 233 282 337 412
#     4  10  23  45  65  96 131 178 223 281 345 398
#     4  12  25  41  69 102 133 180 227 283 343 414
#     4  10  25  44  69  99 139 177 232 284 340 404
#
# _framework density 24.667750000000002
#
# number of rings (size 3 to 8) (size 9 to 14) (size 15 to 20)
#    0.000    1.000    2.500    3.375    1.750    4.500 
#    0.000    0.000    0.000    0.000    0.000    0.000 
#    0.000    0.000    0.000    0.000    0.000    0.000 
#
# Total GULP energy -89133.393099 kJ/mol
# GULP energy per Si atom -5570.837069 kJ/mol
# Density = 2.461161 g / cm^3
# Si number density = 24.667750 Si / 1000 Ang^3
#
#
#
# Elastic Constant Matrix: (Units=GPa)
#
#
# Indices 1 2 3 4 5 6 
#
# 1 164.3932 74.8785 6.9951 9.2830 -22.3018 -16.3102
# 2 74.8785 235.7469 31.4368 1.0829 5.2671 4.6982
# 3 6.9951 31.4368 55.8917 -0.0560 0.4203 -2.4512
# 4 9.2830 1.0829 -0.0560 32.7537 0.4497 3.3270
# 5 -22.3018 5.2671 0.4203 0.4497 23.3120 0.0893
# 6 -16.3102 4.6982 -2.4512 3.3270 0.0893 57.2185
#
#
#
# Elastic Compliance Matrix: (Units=1/GPa)
#
#
# Indices 1 2 3 4 5 6 
#
# 1 0.009381 -0.003350 0.000771 -0.003000 0.009764 0.003141
# 2 -0.003350 0.005819 -0.002889 0.000977 -0.004480 -0.001606
# 3 0.000771 -0.002889 0.019469 -0.000236 0.001039 0.001303
# 4 -0.003000 0.000977 -0.000236 0.031682 -0.003687 -0.002782
# 5 0.009764 -0.004480 0.001039 -0.003687 0.053289 0.003327
# 6 0.003141 -0.001606 0.001303 -0.002782 0.003327 0.018717
#
#
# Mechanical properties :
#
#
# Convention : Reuss Voigt Hill
#
# Bulk Modulus (GPa) = 42.13330 75.85027 58.99179
# Shear Modulus (GPa) = 31.80599 45.50494 38.65546
#
# Velocity S-wave (km/s) = 3.59468 4.29967 3.96289
# Velocity P-wave (km/s) = 5.86058 7.44749 6.70117
#
# Compressibility (1/GPa) = 0.02373420
#
# Stress axis : x y z
#
# Youngs Moduli (GPa) = 106.59313 171.86176 51.36260
#
# Poissons Ratio (x) = 0.57566 -0.03961
# Poissons Ratio (y) = 0.35704 0.14840
# Poissons Ratio (z) = -0.08220 0.49656
#
# Static dielectric constant tensor:
#      x y z
#    x 2.039380 0.064770 -0.099720 
#    y 0.064770 1.921460 -0.037880 
#    z -0.099720 -0.037880 2.090060 
# 
# From -- ./inp_files/333982.got.cif
#   From: 2010.05.17/outbox.cif.g08.bks.cpg/sg2_167_cif.got.tgz:333982.got - 2010.06.03 11:33:40.
