data_PCOD9042245
_publ_section_title
;
Structure prediction by ZEFSAII (Michael W. Deem and Ramdas Pophale) SiO2 
 PCOD9042245
Probable space group: P -1
;
_chemical_formula_sum "Si O2"
_cell_formula_units_Z 16
_cell_length_a 11.771000
_cell_length_b 5.952913
_cell_length_c 14.999335
_cell_angle_alpha 63.273315
_cell_angle_beta 127.719970
_cell_angle_gamma 87.589568
_cell_volume 663.500787
_symmetry_space_group_name_H-M "P -1"
_symmetry_group_IT_number 2
_symmetry_cell_setting 'triclinic'
loop_
_space_group_symop_operation_xyz
x,y,z
-x,-y,-z
loop_
_atom_site_type_symbol
_atom_site_label
_atom_site_fract_x
_atom_site_fract_y
_atom_site_fract_z
Si Si1 0.115357 0.904534 0.784064
Si Si2 0.659025 0.591468 0.644215
Si Si3 0.335536 0.692299 0.753062
Si Si4 0.537818 0.026463 0.366611
Si Si5 0.995057 0.500595 0.890774
Si Si6 0.927941 0.276565 0.486410
Si Si7 0.713688 0.024449 0.856002
Si Si8 0.603828 0.131077 0.978532
O O1 0.236677 0.785305 0.779619
O O2 0.082042 0.674353 0.860195
O O3 0.213371 0.016204 0.873693
O O4 0.951783 0.130263 0.620167
O O5 0.608338 0.716542 0.498840
O O6 0.708559 0.270122 0.746967
O O7 0.817977 0.620933 0.743848
O O8 0.509739 0.769380 0.606896
O O9 0.247499 0.560642 0.669431
O O10 0.515054 0.461265 0.900729
O O11 0.344102 0.935582 0.653592
O O12 0.370284 0.120916 0.218051
O O13 0.000000 0.500000 0.000000
O O14 0.109832 0.172606 0.987939
O O15 0.000000 0.500000 0.500000
O O16 0.000000 0.000000 0.500000
O O17 0.605789 0.125331 0.874197
O O18 0.500000 0.000000 0.000000
#
# Coordination Sequence:
#
# PCOD9042245 Si02
#       8
#     2   2   2   2   2   2   2   2
#     4  11  24  43  69 102 140 186 231 288 360 428
#     4  11  24  44  68  99 132 184 232 284 353 422
#     4  11  22  44  69 102 141 180 226 295 359 424
#     4  11  23  44  70  99 139 174 234 290 355 422
#     4  12  24  45  67  95 140 185 231 290 350 428
#     4  10  23  44  70 102 145 188 237 293 359 434
#     4  12  24  44  69 101 137 181 238 290 353 421
#     4  12  23  39  65 104 137 178 227 287 355 425
#
# _framework density 24.114514
#
# number of rings (size 3 to 8) (size 9 to 14) (size 15 to 20)
#    0.000    0.750    2.500    5.625    0.000    2.000 
#    0.000    3.750    0.000    0.000    0.000    0.000 
#    0.000    0.000    0.000    0.000    0.000    0.000 
#
# Total GULP energy -89351.145297 kJ/mol
# GULP energy per Si atom -5584.446581 kJ/mol
# Density = 2.405963 g / cm^3
# Si number density = 24.114514 Si / 1000 Ang^3
#
#
#
# Elastic Constant Matrix: (Units=GPa)
#
#
# Indices 1 2 3 4 5 6 
#
# 1 141.4737 30.0528 32.4193 -5.1846 -29.4293 17.4525
# 2 30.0528 48.2051 9.5252 -1.7457 -13.1825 15.6867
# 3 32.4193 9.5252 128.7249 3.8729 -16.5419 9.9495
# 4 -5.1846 -1.7457 3.8729 42.9763 10.2999 -2.1196
# 5 -29.4293 -13.1825 -16.5419 10.2999 46.7037 -8.9755
# 6 17.4525 15.6867 9.9495 -2.1196 -8.9755 42.5888
#
#
#
# Elastic Compliance Matrix: (Units=1/GPa)
#
#
# Indices 1 2 3 4 5 6 
#
# 1 0.009209 -0.004014 -0.001433 0.000080 0.003928 -0.001129
# 2 -0.004014 0.026647 0.000117 -0.000679 0.003753 -0.007440
# 3 -0.001433 0.000117 0.008543 -0.001539 0.002295 -0.001045
# 4 0.000080 -0.000679 -0.001539 0.024870 -0.006068 0.000536
# 5 0.003928 0.003753 0.002295 -0.006068 0.027474 0.001960
# 6 -0.001129 -0.007440 -0.001045 0.000536 0.001960 0.027367
#
#
# Mechanical properties :
#
#
# Convention : Reuss Voigt Hill
#
# Bulk Modulus (GPa) = 29.63888 51.37757 40.50823
# Shear Modulus (GPa) = 34.24331 42.88087 38.56209
#
# Velocity S-wave (km/s) = 3.77242 4.22147 4.00324
# Velocity P-wave (km/s) = 5.59396 6.71662 6.18083
#
# Compressibility (1/GPa) = 0.03373946
#
# Stress axis : x y z
#
# Youngs Moduli (GPa) = 108.59473 37.52801 117.06038
#
# Poissons Ratio (x) = 0.15062 0.16770
# Poissons Ratio (y) = 0.43585 -0.01368
# Poissons Ratio (z) = 0.15557 -0.00439
#
# Static dielectric constant tensor:
#      x y z
#    x 2.023740 -0.109630 0.032200 
#    y -0.109630 2.062200 -0.009840 
#    z 0.032200 -0.009840 1.944400 
# 
# From -- ./inp_files/510840.got.cif
#   From: 2010.05.17/outbox.cif.g08.bks.cpg/sg2_256_cif.got.tgz:510840.got - 2010.06.03 11:33:40.
