data_PCOD9042881
_publ_section_title
;
Structure prediction by ZEFSAII (Michael W. Deem and Ramdas Pophale) SiO2 
 PCOD9042881
Probable space group: P -1
;
_chemical_formula_sum "Si O2"
_cell_formula_units_Z 15
_cell_length_a 9.487748
_cell_length_b 9.727032
_cell_length_c 14.957049
_cell_angle_alpha 45.624453
_cell_angle_beta 93.827272
_cell_angle_gamma 66.065060
_cell_volume 761.039765
_symmetry_space_group_name_H-M "P -1"
_symmetry_group_IT_number 2
_symmetry_cell_setting 'triclinic'
loop_
_space_group_symop_operation_xyz
x,y,z
-x,-y,-z
loop_
_atom_site_type_symbol
_atom_site_label
_atom_site_fract_x
_atom_site_fract_y
_atom_site_fract_z
Si Si1 0.985747 0.998263 0.210269
Si Si2 0.946989 0.670439 0.834099
Si Si3 0.804516 0.780362 0.076764
Si Si4 0.646805 0.541979 0.499494
Si Si5 0.529841 0.964567 0.623041
Si Si6 0.550746 0.884543 0.181307
Si Si7 0.000000 0.000000 0.000000
Si Si8 0.590148 0.214889 0.152305
O O1 0.160376 0.709358 0.350162
O O2 0.961936 0.090912 0.064982
O O3 0.803940 0.053438 0.214002
O O4 0.029111 0.133841 0.219233
O O5 0.741471 0.805896 0.731789
O O6 0.084013 0.481783 0.848626
O O7 0.000000 0.500000 0.000000
O O8 0.678992 0.803912 0.138738
O O9 0.932894 0.838157 0.090908
O O10 0.652353 0.009998 0.900877
O O11 0.500000 0.500000 0.500000
O O12 0.650347 0.653162 0.356294
O O13 0.575818 0.760950 0.466400
O O14 0.455747 0.837075 0.728962
O O15 0.500000 0.000000 0.500000
O O16 0.520023 0.114185 0.125531
O O17 0.500000 0.500000 0.000000
#
# Coordination Sequence:
#
# PCOD9042881 Si02
#       8
#     2   2   2   2   2   2   1   2
#     4  12  25  42  70  99 132 181 224 277 346 404
#     4  12  23  44  68  96 137 180 225 284 342 408
#     4  11  23  41  69  97 133 171 229 285 335 398
#     4  11  23  46  68  91 135 180 223 272 342 420
#     4  11  27  45  68 102 141 180 226 287 348 407
#     4  10  23  45  65  97 135 178 221 283 347 398
#     4  12  24  40  68 108 122 170 242 276 328 414
#     4  11  24  44  68 102 137 178 228 288 340 411
#
# _framework density 19.709878
#
# number of rings (size 3 to 8) (size 9 to 14) (size 15 to 20)
#    0.000    0.800    4.000    4.000    1.867    3.200 
#    7.200    1.333    0.000    0.000    0.000    0.000 
#    0.000    0.000    0.000    0.000    0.000    0.000 
#
# Total GULP energy -83575.265558 kJ/mol
# GULP energy per Si atom -5571.684371 kJ/mol
# Density = 1.966502 g / cm^3
# Si number density = 19.709878 Si / 1000 Ang^3
#
#
#
# Elastic Constant Matrix: (Units=GPa)
#
#
# Indices 1 2 3 4 5 6 
#
# 1 89.1878 47.4236 34.9371 6.5918 -6.3277 -7.7283
# 2 47.4236 110.1980 55.6429 5.4714 -8.1101 -16.2775
# 3 34.9371 55.6429 76.4200 -3.8243 1.7360 -5.3623
# 4 6.5918 5.4714 -3.8243 35.4839 2.0985 -1.9246
# 5 -6.3277 -8.1101 1.7360 2.0985 27.8131 -2.5966
# 6 -7.7283 -16.2775 -5.3623 -1.9246 -2.5966 31.6929
#
#
#
# Elastic Compliance Matrix: (Units=1/GPa)
#
#
# Indices 1 2 3 4 5 6 
#
# 1 0.015544 -0.003974 -0.004347 -0.002860 0.002966 0.001083
# 2 -0.003974 0.017961 -0.011088 -0.003213 0.005890 0.006667
# 3 -0.004347 -0.011088 0.023342 0.005246 -0.006356 -0.003008
# 4 -0.002860 -0.003213 0.005246 0.030022 -0.004178 0.000021
# 5 0.002966 0.005890 -0.006356 -0.004178 0.039587 0.005663
# 6 0.001083 0.006667 -0.003008 0.000021 0.005663 0.035198
#
#
# Mechanical properties :
#
#
# Convention : Reuss Voigt Hill
#
# Bulk Modulus (GPa) = 55.46565 61.31255 58.38910
# Shear Modulus (GPa) = 24.21509 28.18478 26.19994
#
# Velocity S-wave (km/s) = 3.50891 3.78561 3.64988
# Velocity P-wave (km/s) = 6.67972 7.09104 6.88845
#
# Compressibility (1/GPa) = 0.01802918
#
# Stress axis : x y z
#
# Youngs Moduli (GPa) = 64.33370 55.67497 42.84074
#
# Poissons Ratio (x) = 0.22125 0.18624
# Poissons Ratio (y) = 0.25566 0.47502
# Poissons Ratio (z) = 0.27967 0.61732
#
# Static dielectric constant tensor:
#      x y z
#    x 1.693060 0.006990 0.014560 
#    y 0.006990 1.699290 0.017500 
#    z 0.014560 0.017500 1.658250 
# 
# From -- ./inp_files/201871.got.cif
#   From: 2010.05.17/outbox.cif.g08.bks.cpg/sg2_101_cif.got.tgz:201871.got - 2010.06.03 11:33:40.
