data_PCOD9042977
_publ_section_title
;
Structure prediction by ZEFSAII (Michael W. Deem and Ramdas Pophale) SiO2 
 PCOD9042977
Probable space group: P -1
;
_chemical_formula_sum "Si O2"
_cell_formula_units_Z 16
_cell_length_a 12.836033
_cell_length_b 9.170497
_cell_length_c 11.533424
_cell_angle_alpha 86.697396
_cell_angle_beta 60.274967
_cell_angle_gamma 46.128626
_cell_volume 756.034139
_symmetry_space_group_name_H-M "P -1"
_symmetry_group_IT_number 2
_symmetry_cell_setting 'triclinic'
loop_
_space_group_symop_operation_xyz
x,y,z
-x,-y,-z
loop_
_atom_site_type_symbol
_atom_site_label
_atom_site_fract_x
_atom_site_fract_y
_atom_site_fract_z
Si Si1 0.147799 0.202528 0.173242
Si Si2 0.133590 0.233435 0.440768
Si Si3 0.911207 0.153619 0.351730
Si Si4 0.852955 0.042493 0.155195
Si Si5 0.503968 0.015142 0.632906
Si Si6 0.186378 0.702546 0.346934
Si Si7 0.550592 0.202556 0.158335
Si Si8 0.088135 0.361635 0.841666
O O1 0.215897 0.140366 0.270295
O O2 0.049410 0.448863 0.189267
O O3 0.973546 0.252505 0.264482
O O4 0.309188 0.001113 0.004010
O O5 0.311421 0.068053 0.433823
O O6 0.000000 0.500000 0.500000
O O7 0.991285 0.238684 0.550522
O O8 0.108619 0.903721 0.300709
O O9 0.834318 0.132197 0.288019
O O10 0.787391 0.279147 0.531858
O O11 0.898317 0.826911 0.158238
O O12 0.669169 0.204904 0.169933
O O13 0.000000 0.000000 0.000000
O O14 0.521507 0.855313 0.711257
O O15 0.500000 0.000000 0.500000
O O16 0.287592 0.256110 0.752008
O O17 0.366506 0.456950 0.205566
O O18 0.000000 0.500000 0.000000
#
# Coordination Sequence:
#
# PCOD9042977 Si02
#       8
#     2   2   2   2   2   2   2   2
#     4  11  23  45  68  99 137 175 221 282 329 400
#     4  11  23  42  67  96 133 180 220 272 336 393
#     4  10  23  45  67  92 134 177 224 272 338 393
#     4  11  22  42  68  98 132 177 217 268 334 397
#     4  11  24  40  62 101 135 168 218 275 333 394
#     4  10  24  44  67  94 132 176 225 279 327 402
#     4  11  23  43  67 100 135 170 227 276 332 395
#     4  11  22  42  68  98 139 169 218 277 328 393
#
# _framework density 21.163066000000001
#
# number of rings (size 3 to 8) (size 9 to 14) (size 15 to 20)
#    0.000    1.250    5.000    0.750    7.000    1.500 
#    2.250    6.250    0.000    0.000    0.000    0.000 
#    0.000    0.000    0.000    0.000    0.000    0.000 
#
# Total GULP energy -89200.103617 kJ/mol
# GULP energy per Si atom -5575.006476 kJ/mol
# Density = 2.111490 g / cm^3
# Si number density = 21.163066 Si / 1000 Ang^3
#
#
#
# Elastic Constant Matrix: (Units=GPa)
#
#
# Indices 1 2 3 4 5 6 
#
# 1 122.3160 15.9236 41.1395 0.9360 11.6400 -17.6310
# 2 15.9236 84.5654 23.1760 8.5697 -8.3939 -7.1310
# 3 41.1395 23.1760 74.9340 16.1375 2.1087 -15.4209
# 4 0.9360 8.5697 16.1375 32.0246 -3.7503 -7.1550
# 5 11.6400 -8.3939 2.1087 -3.7503 29.4538 -1.1694
# 6 -17.6310 -7.1310 -15.4209 -7.1550 -1.1694 31.7189
#
#
#
# Elastic Compliance Matrix: (Units=1/GPa)
#
#
# Indices 1 2 3 4 5 6 
#
# 1 0.011042 -0.000916 -0.005572 0.003148 -0.003674 0.003797
# 2 -0.000916 0.013545 -0.003389 -0.001208 0.004342 0.000776
# 3 -0.005572 -0.003389 0.020091 -0.008290 -0.001099 0.003998
# 4 0.003148 -0.001208 -0.008290 0.037455 0.004014 0.006045
# 5 -0.003674 0.004342 -0.001099 0.004014 0.037257 0.000679
# 6 0.003797 0.000776 0.003998 0.006045 0.000679 0.037145
#
#
# Mechanical properties :
#
#
# Convention : Reuss Voigt Hill
#
# Bulk Modulus (GPa) = 40.11979 49.14374 44.63177
# Shear Modulus (GPa) = 27.08604 32.07788 29.58196
#
# Velocity S-wave (km/s) = 3.58141 3.89748 3.74279
# Velocity P-wave (km/s) = 6.00838 6.59740 6.30977
#
# Compressibility (1/GPa) = 0.02492535
#
# Stress axis : x y z
#
# Youngs Moduli (GPa) = 90.56560 73.82707 49.77292
#
# Poissons Ratio (x) = 0.06760 0.27733
# Poissons Ratio (y) = 0.08292 0.16867
# Poissons Ratio (z) = 0.50463 0.25019
#
# Static dielectric constant tensor:
#      x y z
#    x 1.835660 -0.031250 -0.097060 
#    y -0.031250 1.834220 0.154000 
#    z -0.097060 0.154000 1.921510 
# 
# From -- ./inp_files/419441.got.cif
#   From: 2010.05.17/outbox.cif.g08.bks.cpg/sg2_210_cif.got.tgz:419441.got - 2010.06.03 11:33:40.
