data_PCOD9042176
_publ_section_title
;
Structure prediction by ZEFSAII (Michael W. Deem and Ramdas Pophale) SiO2 
 PCOD9042176
Probable space group: P -1
;
_chemical_formula_sum "Si O2"
_cell_formula_units_Z 14
_cell_length_a 5.178959
_cell_length_b 13.548003
_cell_length_c 14.054679
_cell_angle_alpha 139.946328
_cell_angle_beta 75.416613
_cell_angle_gamma 91.088119
_cell_volume 589.758293
_symmetry_space_group_name_H-M "P -1"
_symmetry_group_IT_number 2
_symmetry_cell_setting 'triclinic'
loop_
_space_group_symop_operation_xyz
x,y,z
-x,-y,-z
loop_
_atom_site_type_symbol
_atom_site_label
_atom_site_fract_x
_atom_site_fract_y
_atom_site_fract_z
Si Si1 0.248040 0.430882 0.079299
Si Si2 0.339177 0.551305 0.778378
Si Si3 0.456257 0.997404 0.115256
Si Si4 0.958234 0.128491 0.013190
Si Si5 0.832253 0.070208 0.438145
Si Si6 0.728943 0.237740 0.765109
Si Si7 0.346108 0.209435 0.446874
O O1 0.399899 0.451819 0.181089
O O2 0.208570 0.598404 0.151085
O O3 0.940720 0.412235 0.105413
O O4 0.462604 0.294102 0.898756
O O5 0.354494 0.386059 0.603238
O O6 0.257266 0.700582 0.823236
O O7 0.413829 0.161189 0.295307
O O8 0.179871 0.942442 0.112193
O O9 0.729746 0.870038 0.033874
O O10 0.500000 0.000000 0.000000
O O11 0.000000 0.000000 0.000000
O O12 0.682214 0.147144 0.606539
O O13 0.595034 0.095738 0.400604
O O14 0.057687 0.170036 0.469083
O O15 0.011518 0.889373 0.304972
#
# Coordination Sequence:
#
# PCOD9042176 Si02
#       7
#     2   2   2   2   2   2   2
#     4  11  25  41  66  96 138 179 228 271 335 384
#     4  12  24  43  66 101 133 177 225 277 332 404
#     4  10  23  44  69  99 129 166 220 278 337 411
#     4  10  23  44  69  99 129 166 220 278 337 411
#     4  11  25  41  66  96 138 179 228 271 335 384
#     4  10  24  44  62  98 140 182 224 284 322 390
#     4  12  24  43  66 101 133 177 225 277 332 404
#
# _framework density 23.738538999999999
#
# number of rings (size 3 to 8) (size 9 to 14) (size 15 to 20)
#    0.000    1.143    2.857    1.714    6.000    6.857 
#    0.000    5.714    0.000    0.000    0.000    0.000 
#    0.000    0.000    0.000    0.000    0.000    0.000 
#
# Total GULP energy -78313.802597 kJ/mol
# GULP energy per Si atom -5593.843043 kJ/mol
# Density = 2.368451 g / cm^3
# Si number density = 23.738539 Si / 1000 Ang^3
#
#
#
# Elastic Constant Matrix: (Units=GPa)
#
#
# Indices 1 2 3 4 5 6 
#
# 1 121.3686 11.8366 12.2147 -6.1238 8.7550 -7.2247
# 2 11.8366 98.4274 45.8854 12.3796 2.0980 -0.8056
# 3 12.2147 45.8854 168.5411 1.3077 6.8791 -10.5828
# 4 -6.1238 12.3796 1.3077 45.0642 -2.1587 -1.2867
# 5 8.7550 2.0980 6.8791 -2.1587 26.9771 1.8993
# 6 -7.2247 -0.8056 -10.5828 -1.2867 1.8993 21.4514
#
#
#
# Elastic Compliance Matrix: (Units=1/GPa)
#
#
# Indices 1 2 3 4 5 6 
#
# 1 0.008830 -0.001152 -0.000015 0.001472 -0.002884 0.003267
# 2 -0.001152 0.012281 -0.003351 -0.003478 0.000122 -0.001799
# 3 -0.000015 -0.003351 0.007138 0.000730 -0.001749 0.003589
# 4 0.001472 -0.003478 0.000730 0.023447 0.001341 0.002013
# 5 -0.002884 0.000122 -0.001749 0.001341 0.038914 -0.005195
# 6 0.003267 -0.001799 0.003589 0.002013 -0.005195 0.050001
#
#
# Mechanical properties :
#
#
# Convention : Reuss Voigt Hill
#
# Bulk Modulus (GPa) = 52.04776 58.69003 55.36890
# Shear Modulus (GPa) = 32.04109 39.92525 35.98317
#
# Velocity S-wave (km/s) = 3.67788 4.10552 3.89757
# Velocity P-wave (km/s) = 6.32525 6.87393 6.60529
#
# Compressibility (1/GPa) = 0.01921312
#
# Stress axis : x y z
#
# Youngs Moduli (GPa) = 113.25017 81.42928 140.10100
#
# Poissons Ratio (x) = 0.09379 0.00209
# Poissons Ratio (y) = 0.13044 0.46946
# Poissons Ratio (z) = 0.00169 0.27286
#
# Static dielectric constant tensor:
#      x y z
#    x 2.132870 0.329740 -0.042640 
#    y 0.329740 2.371400 -0.065150 
#    z -0.042640 -0.065150 1.913490 
# 
# From -- ./inp_files/324013.got.cif
#   From: 2010.05.17/outbox.cif.g08.bks.cpg/sg2_163_cif.got.tgz:324013.got - 2010.06.03 11:33:40.
