data_PCOD9042032
_publ_section_title
;
Structure prediction by ZEFSAII (Michael W. Deem and Ramdas Pophale) SiO2 
 PCOD9042032
Probable space group: P -1
;
_chemical_formula_sum "Si O2"
_cell_formula_units_Z 13
_cell_length_a 10.848659
_cell_length_b 13.662802
_cell_length_c 4.890155
_cell_angle_alpha 101.459786
_cell_angle_beta 99.319554
_cell_angle_gamma 40.801224
_cell_volume 464.115505
_symmetry_space_group_name_H-M "P -1"
_symmetry_group_IT_number 2
_symmetry_cell_setting 'triclinic'
loop_
_space_group_symop_operation_xyz
x,y,z
-x,-y,-z
loop_
_atom_site_type_symbol
_atom_site_label
_atom_site_fract_x
_atom_site_fract_y
_atom_site_fract_z
Si Si1 0.090542 0.550819 0.259142
Si Si2 0.736842 0.731230 0.604597
Si Si3 0.199489 0.938063 0.542887
Si Si4 0.805448 0.847546 0.062804
Si Si5 0.349165 0.541836 0.686689
Si Si6 0.640491 0.259391 0.011372
Si Si7 0.500000 0.000000 0.500000
O O1 0.223326 0.373928 0.206570
O O2 0.200511 0.567103 0.480271
O O3 0.905909 0.623253 0.395494
O O4 0.995871 0.665561 0.037376
O O5 0.526667 0.858115 0.494955
O O6 0.723860 0.862297 0.743547
O O7 0.260258 0.880357 0.221773
O O8 0.156647 0.068308 0.751293
O O9 0.350531 0.791339 0.711976
O O10 0.000000 0.000000 0.500000
O O11 0.644738 0.900632 0.229262
O O12 0.500000 0.500000 0.500000
O O13 0.448808 0.411001 0.876012
O O14 0.260291 0.691164 0.889401
#
# Coordination Sequence:
#
# PCOD9042032 Si02
#       7
#     2   2   2   2   2   2   1
#     4  10  24  44  69 100 138 184 242 291 356 429
#     4  10  23  44  69 100 133 187 234 298 355 421
#     4  12  27  45  74 106 145 190 241 295 365 428
#     4  11  25  43  71  98 143 184 239 295 360 425
#     4  11  24  45  72 105 146 187 237 300 362 430
#     4  11  26  46  69 110 142 190 240 290 365 426
#     4  10  24  44  66 102 138 176 242 288 360 422
#
# _framework density 28.010269000000001
#
# number of rings (size 3 to 8) (size 9 to 14) (size 15 to 20)
#    0.000    1.231    1.538    2.308    8.615    1.231 
#    2.769    0.000    0.000    0.000    0.000    0.000 
#    0.000    0.000    0.000    0.000    0.000    0.000 
#
# Total GULP energy -72470.399693 kJ/mol
# GULP energy per Si atom -5574.646130 kJ/mol
# Density = 2.794652 g / cm^3
# Si number density = 28.010269 Si / 1000 Ang^3
#
#
#
# Elastic Constant Matrix: (Units=GPa)
#
#
# Indices 1 2 3 4 5 6 
#
# 1 49.6139 39.1153 29.1050 -4.3290 28.6142 16.0343
# 2 39.1153 187.8627 24.1971 -13.2462 7.2954 23.0019
# 3 29.1050 24.1971 153.6831 -4.2007 16.6577 9.3276
# 4 -4.3290 -13.2462 -4.2007 53.1393 11.5185 5.5581
# 5 28.6142 7.2954 16.6577 11.5185 64.1073 8.0115
# 6 16.0343 23.0019 9.3276 5.5581 8.0115 38.3862
#
#
#
# Elastic Compliance Matrix: (Units=1/GPa)
#
#
# Indices 1 2 3 4 5 6 
#
# 1 0.039858 -0.005506 -0.004191 0.006028 -0.015923 -0.009881
# 2 -0.005506 0.006760 -0.000048 0.001082 0.001790 -0.002270
# 3 -0.004191 -0.000048 0.007323 0.000242 -0.000068 -0.000021
# 4 0.006028 0.001082 0.000242 0.021450 -0.006099 -0.005058
# 5 -0.015923 0.001790 -0.000068 -0.006099 0.023417 0.001591
# 6 -0.009881 -0.002270 -0.000021 -0.005058 0.001591 0.031944
#
#
# Mechanical properties :
#
#
# Convention : Reuss Voigt Hill
#
# Bulk Modulus (GPa) = 29.02661 63.99937 46.51299
# Shear Modulus (GPa) = 30.91635 51.04271 40.97953
#
# Velocity S-wave (km/s) = 3.32588 4.27345 3.82909
# Velocity P-wave (km/s) = 5.01338 6.87372 6.01590
#
# Compressibility (1/GPa) = 0.03445115
#
# Stress axis : x y z
#
# Youngs Moduli (GPa) = 25.08904 147.92148 136.54742
#
# Poissons Ratio (x) = 0.81443 0.57229
# Poissons Ratio (y) = 0.13814 0.00660
# Poissons Ratio (z) = 0.10515 0.00715
#
# Static dielectric constant tensor:
#      x y z
#    x 2.350580 -0.196800 0.222340 
#    y -0.196800 2.734340 -0.400450 
#    z 0.222340 -0.400450 2.463950 
# 
# From -- ./inp_files/75073.got.cif
#   From: 2010.05.17/outbox.cif.g08.bks.cpg/sg2_38_cif.got.tgz:75073.got - 2010.06.03 11:33:40.
