data_PCOD9042344
_publ_section_title
;
Structure prediction by ZEFSAII (Michael W. Deem and Ramdas Pophale) SiO2 
 PCOD9042344
Probable space group: P -1
;
_chemical_formula_sum "Si O2"
_cell_formula_units_Z 14
_cell_length_a 10.635422
_cell_length_b 21.427225
_cell_length_c 5.698384
_cell_angle_alpha 93.172636
_cell_angle_beta 68.468848
_cell_angle_gamma 36.999236
_cell_volume 568.965738
_symmetry_space_group_name_H-M "P -1"
_symmetry_group_IT_number 2
_symmetry_cell_setting 'triclinic'
loop_
_space_group_symop_operation_xyz
x,y,z
-x,-y,-z
loop_
_atom_site_type_symbol
_atom_site_label
_atom_site_fract_x
_atom_site_fract_y
_atom_site_fract_z
Si Si1 0.829382 0.979123 0.760807
Si Si2 0.688516 0.273687 0.297522
Si Si3 0.241994 0.433131 0.982414
Si Si4 0.784018 0.428471 0.750176
Si Si5 0.681422 0.181783 0.925623
Si Si6 0.790414 0.823896 0.840900
Si Si7 0.041697 0.222373 0.782956
O O1 0.027444 0.864833 0.792387
O O2 0.025669 0.903612 0.377687
O O3 0.768960 0.075830 0.886232
O O4 0.514886 0.080646 0.977992
O O5 0.453603 0.389184 0.667522
O O6 0.573416 0.259245 0.247303
O O7 0.762354 0.296808 0.065105
O O8 0.441348 0.296299 0.921624
O O9 0.185063 0.508982 0.238696
O O10 0.000000 0.500000 0.000000
O O11 0.948670 0.332588 0.390184
O O12 0.984803 0.318632 0.798093
O O13 0.500000 0.500000 0.000000
O O14 0.857836 0.837689 0.561335
O O15 0.776901 0.856307 0.119829
#
# Coordination Sequence:
#
# PCOD9042344 Si02
#       7
#     2   2   2   2   2   2   2
#     4  10  24  44  69  97 138 181 243 288 360 423
#     4  11  24  43  72  96 140 182 235 294 362 423
#     4  11  26  43  69 108 139 185 242 295 358 430
#     4  10  23  44  70  98 147 188 236 288 363 427
#     4  10  24  44  68  96 137 189 229 296 359 427
#     4  10  25  43  71 104 140 183 238 295 350 427
#     4  10  25  43  70 104 141 183 235 289 365 417
#
# _framework density 24.60605
#
# number of rings (size 3 to 8) (size 9 to 14) (size 15 to 20)
#    0.857    0.857    0.000    2.143   10.000    5.143 
#    0.000    0.000    0.000    0.000    0.000    0.000 
#    0.000    0.000    0.000    0.000    0.000    0.000 
#
# Total GULP energy -78040.459677 kJ/mol
# GULP energy per Si atom -5574.318548 kJ/mol
# Density = 2.455005 g / cm^3
# Si number density = 24.606050 Si / 1000 Ang^3
#
#
#
# Elastic Constant Matrix: (Units=GPa)
#
#
# Indices 1 2 3 4 5 6 
#
# 1 73.9704 29.3521 12.1874 1.9524 -8.7183 -7.3060
# 2 29.3521 79.7197 26.4655 -10.5826 -13.4182 -9.8869
# 3 12.1874 26.4655 64.5148 -6.4858 6.8618 -8.0882
# 4 1.9524 -10.5826 -6.4858 44.3777 -3.6895 3.0314
# 5 -8.7183 -13.4182 6.8618 -3.6895 34.6269 4.1877
# 6 -7.3060 -9.8869 -8.0882 3.0314 4.1877 50.6770
#
#
#
# Elastic Compliance Matrix: (Units=1/GPa)
#
#
# Indices 1 2 3 4 5 6 
#
# 1 0.016241 -0.005447 -0.001105 -0.002095 0.001844 0.001075
# 2 -0.005447 0.018831 -0.006968 0.004288 0.007656 0.000887
# 3 -0.001105 -0.006968 0.019645 0.000521 -0.007078 0.002170
# 4 -0.002095 0.004288 0.000521 0.024113 0.003737 -0.001134
# 5 0.001844 0.007656 -0.007078 0.003737 0.034406 -0.002437
# 6 0.001075 0.000887 0.002170 -0.001134 -0.002437 0.020677
#
#
# Mechanical properties :
#
#
# Convention : Reuss Voigt Hill
#
# Bulk Modulus (GPa) = 36.13261 39.35719 37.74490
# Shear Modulus (GPa) = 29.38094 35.94962 32.66528
#
# Velocity S-wave (km/s) = 3.45926 3.82646 3.64748
# Velocity P-wave (km/s) = 5.53819 5.96255 5.75429
#
# Compressibility (1/GPa) = 0.02767583
#
# Stress axis : x y z
#
# Youngs Moduli (GPa) = 61.57074 53.10512 50.90398
#
# Poissons Ratio (x) = 0.28928 0.05627
# Poissons Ratio (y) = 0.33540 0.35468
# Poissons Ratio (z) = 0.06807 0.37002
#
# Static dielectric constant tensor:
#      x y z
#    x 1.981250 0.014810 0.009260 
#    y 0.014810 1.960790 0.020640 
#    z 0.009260 0.020640 1.985060 
# 
# From -- ./inp_files/84846.got.cif
#   From: 2010.05.17/outbox.cif.g08.bks.cpg/sg2_43_cif.got.tgz:84846.got - 2010.06.03 11:33:40.
