data_PCOD9042860
_publ_section_title
;
Structure prediction by ZEFSAII (Michael W. Deem and Ramdas Pophale) SiO2 
 PCOD9042860
Probable space group: P -1
;
_chemical_formula_sum "Si O2"
_cell_formula_units_Z 16
_cell_length_a 9.327425
_cell_length_b 14.480803
_cell_length_c 13.527937
_cell_angle_alpha 149.979785
_cell_angle_beta 47.723970
_cell_angle_gamma 130.323967
_cell_volume 666.002108
_symmetry_space_group_name_H-M "P -1"
_symmetry_group_IT_number 2
_symmetry_cell_setting 'triclinic'
loop_
_space_group_symop_operation_xyz
x,y,z
-x,-y,-z
loop_
_atom_site_type_symbol
_atom_site_label
_atom_site_fract_x
_atom_site_fract_y
_atom_site_fract_z
Si Si1 0.264967 0.917709 0.521143
Si Si2 0.733164 0.515334 0.906950
Si Si3 0.091520 0.211702 0.748526
Si Si4 0.618831 0.612397 0.379860
Si Si5 0.651451 0.095311 0.145091
Si Si6 0.915782 0.187688 0.290060
Si Si7 0.258891 0.429158 0.261633
Si Si8 0.301077 0.770324 0.963273
O O1 0.231439 0.697392 0.308304
O O2 0.152442 0.926726 0.686033
O O3 0.500000 0.000000 0.500000
O O4 0.171988 0.032927 0.588445
O O5 0.789957 0.624096 0.878312
O O6 0.500000 0.500000 0.000000
O O7 0.830122 0.625924 0.057801
O O8 0.193258 0.267703 0.649094
O O9 0.858919 0.199921 0.853149
O O10 0.486661 0.748642 0.618769
O O11 0.484811 0.491330 0.244882
O O12 0.682400 0.446873 0.260715
O O13 0.811040 0.091001 0.151995
O O14 0.751934 0.152299 0.046497
O O15 0.504581 0.900245 0.019272
O O16 0.818595 0.374918 0.514046
O O17 0.140912 0.280506 0.253517
#
# Coordination Sequence:
#
# PCOD9042860 Si02
#       8
#     2   2   2   2   2   2   2   2
#     4  11  22  39  64  95 131 166 199 259 327 382
#     4  11  20  38  64  93 127 163 199 254 323 380
#     4  12  25  41  64  98 128 165 217 259 311 386
#     4  11  23  43  67  89 129 172 211 265 317 369
#     4  10  23  45  65  91 126 169 215 264 316 378
#     4   9  19  36  64  93 125 159 202 259 319 377
#     4   9  18  36  61  96 123 157 207 253 315 387
#     4  11  26  43  64  91 126 169 225 262 307 370
#
# _framework density 24.023947
#
# number of rings (size 3 to 8) (size 9 to 14) (size 15 to 20)
#    0.000    1.500    2.500    3.000    0.000    7.500 
#    0.000    1.875    0.000    0.000    0.000    0.000 
#    0.000    0.000    0.000    0.000    0.000    0.000 
#
# Total GULP energy -89540.418438 kJ/mol
# GULP energy per Si atom -5596.276152 kJ/mol
# Density = 2.396927 g / cm^3
# Si number density = 24.023947 Si / 1000 Ang^3
#
#
#
# Elastic Constant Matrix: (Units=GPa)
#
#
# Indices 1 2 3 4 5 6 
#
# 1 45.6291 15.5199 2.1456 4.7868 -1.8092 4.3513
# 2 15.5199 143.8813 18.2703 -1.8630 -7.9069 -2.6957
# 3 2.1456 18.2703 73.3726 26.0578 -5.9389 -7.5089
# 4 4.7868 -1.8630 26.0578 33.0918 -5.0314 -9.8219
# 5 -1.8092 -7.9069 -5.9389 -5.0314 38.7967 -1.4884
# 6 4.3513 -2.6957 -7.5089 -9.8219 -1.4884 13.5268
#
#
#
# Elastic Compliance Matrix: (Units=1/GPa)
#
#
# Indices 1 2 3 4 5 6 
#
# 1 0.025498 -0.003500 0.002114 -0.010261 -0.001118 -0.015300
# 2 -0.003500 0.007973 -0.003037 0.005090 0.001846 0.004928
# 3 0.002114 -0.003037 0.020139 -0.017018 0.000262 -0.002433
# 4 -0.010261 0.005090 -0.017018 0.057531 0.006849 0.037395
# 5 -0.001118 0.001846 0.000262 0.006849 0.027368 0.008858
# 6 -0.015300 0.004928 -0.002433 0.037395 0.008858 0.106608
#
#
# Mechanical properties :
#
#
# Convention : Reuss Voigt Hill
#
# Bulk Modulus (GPa) = 22.33925 37.19498 29.76711
# Shear Modulus (GPa) = 18.59540 32.21288 25.40414
#
# Velocity S-wave (km/s) = 2.78517 3.66576 3.25537
# Velocity P-wave (km/s) = 4.43416 5.78214 5.15242
#
# Compressibility (1/GPa) = 0.04476427
#
# Stress axis : x y z
#
# Youngs Moduli (GPa) = 39.21896 125.42397 49.65412
#
# Poissons Ratio (x) = 0.43895 -0.10495
# Poissons Ratio (y) = 0.13725 0.15079
# Poissons Ratio (z) = -0.08289 0.38089
#
# Static dielectric constant tensor:
#      x y z
#    x 1.832580 0.005420 -0.008390 
#    y 0.005420 1.885820 -0.013750 
#    z -0.008390 -0.013750 1.952270 
# 
# From -- ./inp_files/521868.got.cif
#   From: 2010.05.17/outbox.cif.g08.bks.cpg/sg2_261_cif.got.tgz:521868.got - 2010.06.03 11:33:40.
