data_PCOD9042025
_publ_section_title
;
Structure prediction by ZEFSAII (Michael W. Deem and Ramdas Pophale) SiO2 
 PCOD9042025
Probable space group: P -1
;
_chemical_formula_sum "Si O2"
_cell_formula_units_Z 14
_cell_length_a 10.854038
_cell_length_b 9.017021
_cell_length_c 8.253283
_cell_angle_alpha 46.119901
_cell_angle_beta 83.703005
_cell_angle_gamma 87.368864
_cell_volume 578.200884
_symmetry_space_group_name_H-M "P -1"
_symmetry_group_IT_number 2
_symmetry_cell_setting 'triclinic'
loop_
_space_group_symop_operation_xyz
x,y,z
-x,-y,-z
loop_
_atom_site_type_symbol
_atom_site_label
_atom_site_fract_x
_atom_site_fract_y
_atom_site_fract_z
Si Si1 0.553383 0.011306 0.666114
Si Si2 0.915667 0.026521 0.209545
Si Si3 0.366189 0.392094 0.145149
Si Si4 0.337913 0.211555 0.646724
Si Si5 0.134473 0.605232 0.868351
Si Si6 0.290128 0.591406 0.550037
Si Si7 0.921986 0.289326 0.695589
O O1 0.432736 0.027413 0.784019
O O2 0.625801 0.226382 0.524724
O O3 0.500000 0.000000 0.500000
O O4 0.636942 0.814656 0.809221
O O5 0.877303 0.152060 0.277254
O O6 0.800808 0.883580 0.270081
O O7 0.943635 0.196615 0.939012
O O8 0.030469 0.879696 0.310095
O O9 0.361116 0.324966 0.384380
O O10 0.500000 0.500000 0.000000
O O11 0.247287 0.523732 0.023182
O O12 0.354147 0.382667 0.653121
O O13 0.179939 0.552851 0.722839
O O14 0.000000 0.500000 0.000000
O O15 0.221610 0.671945 0.340131
O O16 0.000000 0.500000 0.500000
#
# Coordination Sequence:
#
# PCOD9042025 Si02
#       7
#     2   2   2   2   2   2   2
#     4  10  23  44  68  99 138 186 239 296 362 425
#     4  11  25  45  73  99 149 190 239 290 373 424
#     4  11  24  47  73 100 145 198 241 296 371 438
#     4  11  23  45  75 102 139 190 247 300 360 436
#     4  12  27  41  67 109 148 190 243 299 362 435
#     4  12  25  43  71 104 147 184 246 299 365 430
#     4  11  24  46  71 104 143 192 235 300 359 434
#
# _framework density 24.213037
#
# number of rings (size 3 to 8) (size 9 to 14) (size 15 to 20)
#    0.000    0.857    1.429    6.429    6.000    0.571 
#    0.000    2.143    0.000    0.000    0.000    0.000 
#    0.000    0.000    0.000    0.000    0.000    0.000 
#
# Total GULP energy -78362.311655 kJ/mol
# GULP energy per Si atom -5597.307975 kJ/mol
# Density = 2.415793 g / cm^3
# Si number density = 24.213037 Si / 1000 Ang^3
#
#
#
# Elastic Constant Matrix: (Units=GPa)
#
#
# Indices 1 2 3 4 5 6 
#
# 1 98.0285 22.5984 11.8556 -9.0974 -8.7752 -3.3642
# 2 22.5984 173.6525 13.3550 -16.6475 -1.4536 -20.9071
# 3 11.8556 13.3550 83.3146 0.1394 -13.2229 4.9426
# 4 -9.0974 -16.6475 0.1394 28.2842 2.4986 -5.4537
# 5 -8.7752 -1.4536 -13.2229 2.4986 41.5153 -10.3190
# 6 -3.3642 -20.9071 4.9426 -5.4537 -10.3190 57.3048
#
#
#
# Elastic Compliance Matrix: (Units=1/GPa)
#
#
# Indices 1 2 3 4 5 6 
#
# 1 0.011053 -0.000909 -0.001176 0.003055 0.002012 0.001072
# 2 -0.000909 0.006719 -0.001102 0.004217 0.000165 0.002924
# 3 -0.001176 -0.001102 0.012998 -0.001625 0.003681 -0.001084
# 4 0.003055 0.004217 -0.001625 0.039960 -0.000756 0.005525
# 5 0.002012 0.000165 0.003681 -0.000756 0.026888 0.004631
# 6 0.001072 0.002924 -0.001084 0.005525 0.004631 0.020034
#
#
# Mechanical properties :
#
#
# Convention : Reuss Voigt Hill
#
# Bulk Modulus (GPa) = 40.99134 50.06819 45.52976
# Shear Modulus (GPa) = 37.83304 45.89995 41.86649
#
# Velocity S-wave (km/s) = 3.95714 4.35865 4.16274
# Velocity P-wave (km/s) = 6.15182 6.78628 6.47682
#
# Compressibility (1/GPa) = 0.02439540
#
# Stress axis : x y z
#
# Youngs Moduli (GPa) = 90.46971 148.82168 76.93478
#
# Poissons Ratio (x) = 0.13531 0.09051
# Poissons Ratio (y) = 0.08226 0.08479
# Poissons Ratio (z) = 0.10643 0.16401
#
# Static dielectric constant tensor:
#      x y z
#    x 1.983220 -0.019620 0.037630 
#    y -0.019620 1.946090 0.019360 
#    z 0.037630 0.019360 1.963200 
# 
# From -- ./inp_files/236645.got.cif
#   From: 2010.05.17/outbox.cif.g08.bks.cpg/sg2_119_cif.got.tgz:236645.got - 2010.06.03 11:33:40.
