data_PCOD9042643
_publ_section_title
;
Structure prediction by ZEFSAII (Michael W. Deem and Ramdas Pophale) SiO2 
 PCOD9042643
Probable space group: P -1
;
_chemical_formula_sum "Si O2"
_cell_formula_units_Z 16
_cell_length_a 9.669583
_cell_length_b 8.271954
_cell_length_c 9.692317
_cell_angle_alpha 59.132965
_cell_angle_beta 69.192520
_cell_angle_gamma 83.511604
_cell_volume 619.724610
_symmetry_space_group_name_H-M "P -1"
_symmetry_group_IT_number 2
_symmetry_cell_setting 'triclinic'
loop_
_space_group_symop_operation_xyz
x,y,z
-x,-y,-z
loop_
_atom_site_type_symbol
_atom_site_label
_atom_site_fract_x
_atom_site_fract_y
_atom_site_fract_z
Si Si1 0.439135 0.780332 0.614156
Si Si2 0.157820 0.802328 0.136922
Si Si3 0.137965 0.277073 0.549154
Si Si4 0.425710 0.555373 0.144802
Si Si5 0.778633 0.471816 0.360466
Si Si6 0.161955 0.892049 0.794785
Si Si7 0.065865 0.286568 0.254666
Si Si8 0.706298 0.776797 0.031836
O O1 0.551902 0.630450 0.688166
O O2 0.348577 0.699862 0.545609
O O3 0.299680 0.769808 0.774365
O O4 0.500000 0.000000 0.500000
O O5 0.266243 0.635744 0.154322
O O6 0.027293 0.752810 0.312909
O O7 0.904878 0.159909 0.010742
O O8 0.243286 0.003281 0.061624
O O9 0.204032 0.469639 0.513230
O O10 0.219872 0.109228 0.663752
O O11 0.126306 0.249277 0.401696
O O12 0.533215 0.732105 0.084032
O O13 0.500000 0.500000 0.000000
O O14 0.735368 0.647747 0.209158
O O15 0.942141 0.432451 0.263981
O O16 0.043083 0.864595 0.725890
O O17 0.201677 0.308254 0.090443
#
# Coordination Sequence:
#
# PCOD9042643 Si02
#       8
#     2   2   2   2   2   2   2   2
#     4  10  24  50  77 104 149 198 247 312 377 446
#     4  12  24  45  74 110 154 197 247 309 364 455
#     4  12  24  43  73 113 156 190 248 312 378 440
#     4  11  25  46  75 110 141 200 262 299 367 451
#     4  10  23  44  73 108 145 196 255 300 373 448
#     4  11  22  44  74 105 148 196 252 292 379 445
#     4  11  24  42  70 111 151 201 240 311 376 438
#     4  11  23  44  74 105 152 199 249 304 369 451
#
# _framework density 25.817919
#
# number of rings (size 3 to 8) (size 9 to 14) (size 15 to 20)
#    0.000    1.000    3.750    2.625    1.750    1.000 
#    4.500    0.625    0.000    0.000    0.000    0.000 
#    0.000    0.000    0.000    0.000    0.000    0.000 
#
# Total GULP energy -89538.911736 kJ/mol
# GULP energy per Si atom -5596.181984 kJ/mol
# Density = 2.575916 g / cm^3
# Si number density = 25.817919 Si / 1000 Ang^3
#
#
#
# Elastic Constant Matrix: (Units=GPa)
#
#
# Indices 1 2 3 4 5 6 
#
# 1 114.9173 66.2382 44.6801 3.4025 8.1113 6.2141
# 2 66.2382 154.8179 52.3850 -5.3425 5.1914 9.3813
# 3 44.6801 52.3850 105.4977 3.6001 17.0751 27.9339
# 4 3.4025 -5.3425 3.6001 50.1950 8.1542 -10.4960
# 5 8.1113 5.1914 17.0751 8.1542 39.4691 10.4796
# 6 6.2141 9.3813 27.9339 -10.4960 10.4796 59.0236
#
#
#
# Elastic Compliance Matrix: (Units=1/GPa)
#
#
# Indices 1 2 3 4 5 6 
#
# 1 0.012459 -0.004290 -0.003247 -0.000774 -0.000667 0.000888
# 2 -0.004290 0.009352 -0.003131 0.001559 0.000516 0.000633
# 3 -0.003247 -0.003131 0.014535 -0.001829 -0.003297 -0.005779
# 4 -0.000774 0.001559 -0.001829 0.022317 -0.005357 0.005619
# 5 -0.000667 0.000516 -0.003297 -0.005357 0.029155 -0.004581
# 6 0.000888 0.000633 -0.005779 0.005619 -0.004581 0.021296
#
#
# Mechanical properties :
#
#
# Convention : Reuss Voigt Hill
#
# Bulk Modulus (GPa) = 66.62284 77.98216 72.30250
# Shear Modulus (GPa) = 36.91269 43.86618 40.38944
#
# Velocity S-wave (km/s) = 3.78528 4.12644 3.95953
# Velocity P-wave (km/s) = 6.70562 7.27829 6.99782
#
# Compressibility (1/GPa) = 0.01500987
#
# Stress axis : x y z
#
# Youngs Moduli (GPa) = 80.26209 106.92486 68.79871
#
# Poissons Ratio (x) = 0.45871 0.22339
# Poissons Ratio (y) = 0.34433 0.21543
# Poissons Ratio (z) = 0.26062 0.33481
#
# Static dielectric constant tensor:
#      x y z
#    x 2.044000 0.048580 -0.042350 
#    y 0.048580 2.070830 -0.027580 
#    z -0.042350 -0.027580 2.058310 
# 
# From -- ./inp_files/490768.got.cif
#   From: 2010.05.17/outbox.cif.g08.bks.cpg/sg2_246_cif.got.tgz:490768.got - 2010.06.03 11:33:40.
