data_PCOD9042227
_publ_section_title
;
Structure prediction by ZEFSAII (Michael W. Deem and Ramdas Pophale) SiO2 
 PCOD9042227
Probable space group: P -1
;
_chemical_formula_sum "Si O2"
_cell_formula_units_Z 12
_cell_length_a 5.159698
_cell_length_b 19.173042
_cell_length_c 5.124663
_cell_angle_alpha 82.227677
_cell_angle_beta 90.393999
_cell_angle_gamma 122.192229
_cell_volume 423.802197
_symmetry_space_group_name_H-M "P -1"
_symmetry_group_IT_number 2
_symmetry_cell_setting 'triclinic'
loop_
_space_group_symop_operation_xyz
x,y,z
-x,-y,-z
loop_
_atom_site_type_symbol
_atom_site_label
_atom_site_fract_x
_atom_site_fract_y
_atom_site_fract_z
Si Si1 0.146937 0.200559 0.551075
Si Si2 0.344194 0.577731 0.979896
Si Si3 0.262602 0.374999 0.514949
Si Si4 0.296883 0.715296 0.096004
Si Si5 0.939524 0.931235 0.745451
Si Si6 0.647167 0.118818 0.962937
O O1 0.159148 0.283993 0.451590
O O2 0.243546 0.157660 0.363353
O O3 0.381669 0.229271 0.779504
O O4 0.800234 0.131861 0.675116
O O5 0.500329 0.406389 0.742636
O O6 0.553476 0.570878 0.763154
O O7 0.319611 0.659651 0.902560
O O8 0.000000 0.500000 0.000000
O O9 0.952393 0.354125 0.666981
O O10 0.209327 0.783718 0.001746
O O11 0.713200 0.926456 0.971133
O O12 0.228221 0.929168 0.851242
O O13 0.000000 0.000000 0.500000
#
# Coordination Sequence:
#
# PCOD9042227 Si02
#       6
#     2   2   2   2   2   2
#     4  10  24  43  70  98 133 188 237 299 350 437
#     4  11  24  44  67 106 149 188 238 301 364 428
#     4  10  24  40  71 100 140 192 242 294 361 431
#     4  10  23  44  70 102 134 193 244 296 355 437
#     4  12  27  43  70 104 142 182 234 301 367 429
#     4  11  24  46  67  98 139 183 238 289 358 429
#
# _framework density 28.315097000000002
#
# number of rings (size 3 to 8) (size 9 to 14) (size 15 to 20)
#    0.000    1.333    1.667    2.000    9.333    5.333 
#    0.000    0.000    0.000    0.000    0.000    0.000 
#    0.000    0.000    0.000    0.000    0.000    0.000 
#
# Total GULP energy -67255.653707 kJ/mol
# GULP energy per Si atom -5604.637809 kJ/mol
# Density = 2.825065 g / cm^3
# Si number density = 28.315097 Si / 1000 Ang^3
#
#
#
# Elastic Constant Matrix: (Units=GPa)
#
#
# Indices 1 2 3 4 5 6 
#
# 1 154.9955 26.5499 51.7498 3.2070 -30.3819 14.4757
# 2 26.5499 127.2600 7.5749 12.6006 -2.6131 -7.6365
# 3 51.7498 7.5749 137.9493 -5.3398 -32.6257 19.2846
# 4 3.2070 12.6006 -5.3398 36.7337 7.8839 -11.3881
# 5 -30.3819 -2.6131 -32.6257 7.8839 58.2573 -0.5238
# 6 14.4757 -7.6365 19.2846 -11.3881 -0.5238 54.2034
#
#
#
# Elastic Compliance Matrix: (Units=1/GPa)
#
#
# Indices 1 2 3 4 5 6 
#
# 1 0.008263 -0.001474 -0.002011 -0.001865 0.003351 -0.002059
# 2 -0.001474 0.008483 -0.000207 -0.002418 -0.000167 0.001153
# 3 -0.002011 -0.000207 0.009398 -0.000167 0.004202 -0.002830
# 4 -0.001865 -0.002418 -0.000167 0.031442 -0.005369 0.006771
# 5 0.003351 -0.000167 0.004202 -0.005369 0.021955 -0.003329
# 6 -0.002059 0.001153 -0.002830 0.006771 -0.003329 0.021559
#
#
# Mechanical properties :
#
#
# Convention : Reuss Voigt Hill
#
# Bulk Modulus (GPa) = 53.30443 65.77266 59.53854
# Shear Modulus (GPa) = 43.57750 52.12755 47.85253
#
# Velocity S-wave (km/s) = 3.92729 4.29532 4.11542
# Velocity P-wave (km/s) = 6.27942 6.91946 6.60720
#
# Compressibility (1/GPa) = 0.01876017
#
# Stress axis : x y z
#
# Youngs Moduli (GPa) = 121.01438 117.88272 106.40853
#
# Poissons Ratio (x) = 0.17380 0.21397
# Poissons Ratio (y) = 0.17841 0.02202
# Poissons Ratio (z) = 0.24334 0.02439
#
# Static dielectric constant tensor:
#      x y z
#    x 2.168930 -0.009610 0.025010 
#    y -0.009610 2.238790 -0.080000 
#    z 0.025010 -0.080000 2.174240 
# 
# From -- ./inp_files/3674.got.cif
#   From: 2010.05.17/outbox.cif.g08.bks.cpg/sg2_2_cif.got.tgz:3674.got - 2010.06.03 11:33:40.
