data_PCOD9042717
_publ_section_title
;
Structure prediction by ZEFSAII (Michael W. Deem and Ramdas Pophale) SiO2 
 PCOD9042717
Probable space group: P -1
;
_chemical_formula_sum "Si O2"
_cell_formula_units_Z 14
_cell_length_a 8.736330
_cell_length_b 9.264597
_cell_length_c 16.007688
_cell_angle_alpha 64.157422
_cell_angle_beta 116.917074
_cell_angle_gamma 146.782691
_cell_volume 628.527394
_symmetry_space_group_name_H-M "P -1"
_symmetry_group_IT_number 2
_symmetry_cell_setting 'triclinic'
loop_
_space_group_symop_operation_xyz
x,y,z
-x,-y,-z
loop_
_atom_site_type_symbol
_atom_site_label
_atom_site_fract_x
_atom_site_fract_y
_atom_site_fract_z
Si Si1 0.329485 0.211580 0.515042
Si Si2 0.448649 0.149554 0.096525
Si Si3 0.913755 0.680354 0.292819
Si Si4 0.581333 0.227660 0.420617
Si Si5 0.725775 0.768056 0.814179
Si Si6 0.042377 0.355154 0.010681
Si Si7 0.452591 0.937298 0.298146
O O1 0.500000 0.500000 0.500000
O O2 0.394516 0.204343 0.438484
O O3 0.443727 0.156478 0.619656
O O4 0.000000 0.000000 0.500000
O O5 0.288696 0.149568 0.121223
O O6 0.707583 0.438339 0.047559
O O7 0.545303 0.070073 0.197438
O O8 0.236027 0.924671 0.031076
O O9 0.871294 0.548216 0.401635
O O10 0.597277 0.486449 0.233197
O O11 0.110915 0.710833 0.276847
O O12 0.080277 0.972845 0.260961
O O13 0.500000 0.000000 0.500000
O O14 0.557931 0.146464 0.339577
O O15 0.858124 0.694345 0.881479
O O16 0.000000 0.500000 0.000000
#
# Coordination Sequence:
#
# PCOD9042717 Si02
#       7
#     2   2   2   2   2   2   2
#     4  11  28  45  65 100 144 179 215 271 344 406
#     4  11  22  43  71  96 128 178 226 284 319 394
#     4  11  21  41  71 105 126 167 235 282 326 373
#     4  10  23  44  74  95 134 177 228 276 327 399
#     4  11  23  42  71  98 133 168 230 284 325 397
#     4  12  26  45  64  98 141 179 218 265 352 407
#     4  10  24  45  73 100 132 173 236 277 331 390
#
# _framework density 22.274290000000001
#
# number of rings (size 3 to 8) (size 9 to 14) (size 15 to 20)
#    0.000    1.143    2.857    3.857    6.000    1.143 
#    7.714    0.000    0.000    0.000    0.000    0.000 
#    0.000    0.000    0.000    0.000    0.000    0.000 
#
# Total GULP energy -78071.252209 kJ/mol
# GULP energy per Si atom -5576.518015 kJ/mol
# Density = 2.222359 g / cm^3
# Si number density = 22.274290 Si / 1000 Ang^3
#
#
#
# Elastic Constant Matrix: (Units=GPa)
#
#
# Indices 1 2 3 4 5 6 
#
# 1 88.3685 48.2256 23.4330 -15.5231 24.7592 -12.7510
# 2 48.2256 142.0594 54.5193 -11.3922 18.9698 10.3994
# 3 23.4330 54.5193 118.1555 -28.7220 40.4118 6.5778
# 4 -15.5231 -11.3922 -28.7220 45.5611 -1.5493 -5.4754
# 5 24.7592 18.9698 40.4118 -1.5493 46.2624 -8.8386
# 6 -12.7510 10.3994 6.5778 -5.4754 -8.8386 34.2300
#
#
#
# Elastic Compliance Matrix: (Units=1/GPa)
#
#
# Indices 1 2 3 4 5 6 
#
# 1 0.018839 -0.006577 0.003951 0.007808 -0.009214 0.007126
# 2 -0.006577 0.010997 -0.005149 -0.003213 0.002509 -0.004668
# 3 0.003951 -0.005149 0.018409 0.010750 -0.016295 -0.002989
# 4 0.007808 -0.003213 0.010750 0.030712 -0.010453 0.004032
# 5 -0.009214 0.002509 -0.016295 -0.010453 0.040897 0.007825
# 6 0.007126 -0.004668 -0.002989 0.004032 0.007825 0.036527
#
#
# Mechanical properties :
#
#
# Convention : Reuss Voigt Hill
#
# Bulk Modulus (GPa) = 30.58558 66.77102 48.67830
# Shear Modulus (GPa) = 27.34791 40.03774 33.69282
#
# Velocity S-wave (km/s) = 3.50777 4.24428 3.89348
# Velocity P-wave (km/s) = 5.49246 7.35257 6.48951
#
# Compressibility (1/GPa) = 0.03269515
#
# Stress axis : x y z
#
# Youngs Moduli (GPa) = 53.08035 90.93230 54.32227
#
# Poissons Ratio (x) = 0.59806 -0.21465
# Poissons Ratio (y) = 0.34911 0.27973
# Poissons Ratio (z) = -0.20974 0.46824
#
# Static dielectric constant tensor:
#      x y z
#    x 1.805880 0.032060 0.012210 
#    y 0.032060 1.981380 0.075060 
#    z 0.012210 0.075060 2.032190 
# 
# From -- ./inp_files/557023.got.cif
#   From: 2010.05.17/outbox.cif.g08.bks.cpg/sg2_279_cif.got.tgz:557023.got - 2010.06.03 11:33:40.
