data_PCOD9042619
_publ_section_title
;
Structure prediction by ZEFSAII (Michael W. Deem and Ramdas Pophale) SiO2 
 PCOD9042619
Probable space group: P -1
;
_chemical_formula_sum "Si O2"
_cell_formula_units_Z 12
_cell_length_a 9.563575
_cell_length_b 9.567506
_cell_length_c 10.255658
_cell_angle_alpha 139.105916
_cell_angle_beta 51.900516
_cell_angle_gamma 112.648785
_cell_volume 477.375278
_symmetry_space_group_name_H-M "P -1"
_symmetry_group_IT_number 2
_symmetry_cell_setting 'triclinic'
loop_
_space_group_symop_operation_xyz
x,y,z
-x,-y,-z
loop_
_atom_site_type_symbol
_atom_site_label
_atom_site_fract_x
_atom_site_fract_y
_atom_site_fract_z
Si Si1 0.491841 0.803131 0.031107
Si Si2 0.221368 0.177764 0.331297
Si Si3 0.042031 0.615691 0.876883
Si Si4 0.963640 0.254046 0.314248
Si Si5 0.299522 0.467920 0.834243
Si Si6 0.407475 0.906862 0.610174
O O1 0.322013 0.985476 0.224570
O O2 0.611421 0.902971 0.138315
O O3 0.615606 0.746898 0.792440
O O4 0.405808 0.592720 0.964877
O O5 0.106001 0.368579 0.614774
O O6 0.089319 0.116036 0.250794
O O7 0.013535 0.758519 0.864277
O O8 0.202792 0.632144 0.896834
O O9 0.858213 0.631012 0.073541
O O10 0.764996 0.196273 0.404556
O O11 0.000000 0.500000 0.500000
O O12 0.446191 0.288810 0.558516
O O13 0.500000 0.000000 0.500000
#
# Coordination Sequence:
#
# PCOD9042619 Si02
#       6
#     2   2   2   2   2   2
#     4  11  26  45  76 102 142 190 237 296 353 425
#     4  10  23  46  68 107 136 189 242 286 349 425
#     4  10  23  44  73 104 143 191 236 291 351 426
#     4  10  24  45  73 101 142 190 231 291 350 419
#     4  11  25  46  71 105 147 189 233 295 360 417
#     4  12  29  48  73 109 143 184 240 299 355 423
#
# _framework density 25.137457000000001
#
# number of rings (size 3 to 8) (size 9 to 14) (size 15 to 20)
#    0.000    1.333    1.667    2.000   11.667    6.000 
#    0.000    0.000    0.000    0.000    0.000    0.000 
#    0.000    0.000    0.000    0.000    0.000    0.000 
#
# Total GULP energy -67133.808863 kJ/mol
# GULP energy per Si atom -5594.484072 kJ/mol
# Density = 2.508024 g / cm^3
# Si number density = 25.137457 Si / 1000 Ang^3
#
#
#
# Elastic Constant Matrix: (Units=GPa)
#
#
# Indices 1 2 3 4 5 6 
#
# 1 150.5012 42.3360 17.7265 5.8855 -4.0102 22.8411
# 2 42.3360 66.2596 1.8941 7.9774 9.2868 20.4102
# 3 17.7265 1.8941 69.9102 1.7292 6.9793 17.0761
# 4 5.8855 7.9774 1.7292 23.4477 2.6905 3.5593
# 5 -4.0102 9.2868 6.9793 2.6905 46.0492 3.9761
# 6 22.8411 20.4102 17.0761 3.5593 3.9761 49.4808
#
#
#
# Elastic Compliance Matrix: (Units=1/GPa)
#
#
# Indices 1 2 3 4 5 6 
#
# 1 0.008646 -0.005362 -0.001956 -0.000268 0.002256 -0.001266
# 2 -0.005362 0.021725 0.002998 -0.004721 -0.004438 -0.006824
# 3 -0.001956 0.002998 0.016407 -0.000554 -0.002734 -0.005736
# 4 -0.000268 -0.004721 -0.000554 0.044663 -0.001525 -0.000828
# 5 0.002256 -0.004438 -0.002734 -0.001525 0.023313 -0.000031
# 6 -0.001266 -0.006824 -0.005736 -0.000828 -0.000031 0.025651
#
#
# Mechanical properties :
#
#
# Convention : Reuss Voigt Hill
#
# Bulk Modulus (GPa) = 26.22185 45.62047 35.92116
# Shear Modulus (GPa) = 30.91017 38.77651 34.84334
#
# Velocity S-wave (km/s) = 3.51043 3.93183 3.72709
# Velocity P-wave (km/s) = 5.18507 6.22898 5.73084
#
# Compressibility (1/GPa) = 0.03813613
#
# Stress axis : x y z
#
# Youngs Moduli (GPa) = 115.65975 46.02953 60.95119
#
# Poissons Ratio (x) = 0.24682 0.11924
# Poissons Ratio (y) = 0.62020 -0.18272
# Poissons Ratio (z) = 0.22627 -0.13799
#
# Static dielectric constant tensor:
#      x y z
#    x 2.022510 -0.006360 -0.009390 
#    y -0.006360 1.972990 0.065080 
#    z -0.009390 0.065080 2.048310 
# 
# From -- ./inp_files/324677.got.cif
#   From: 2010.05.17/outbox.cif.g08.bks.cpg/sg2_163_cif.got.tgz:324677.got - 2010.06.03 11:33:40.
