data_PCOD9042830
_publ_section_title
;
Structure prediction by ZEFSAII (Michael W. Deem and Ramdas Pophale) SiO2 
 PCOD9042830
Probable space group: P -1
;
_chemical_formula_sum "Si O2"
_cell_formula_units_Z 12
_cell_length_a 9.770537
_cell_length_b 5.670176
_cell_length_c 15.104454
_cell_angle_alpha 118.998790
_cell_angle_beta 41.803694
_cell_angle_gamma 98.263553
_cell_volume 452.589885
_symmetry_space_group_name_H-M "P -1"
_symmetry_group_IT_number 2
_symmetry_cell_setting 'triclinic'
loop_
_space_group_symop_operation_xyz
x,y,z
-x,-y,-z
loop_
_atom_site_type_symbol
_atom_site_label
_atom_site_fract_x
_atom_site_fract_y
_atom_site_fract_z
Si Si1 0.325778 0.327042 0.559293
Si Si2 0.334423 0.671673 0.792654
Si Si3 0.989484 0.578511 0.619938
Si Si4 0.776957 0.850588 0.193716
Si Si5 0.532997 0.680513 0.887176
Si Si6 0.916971 0.206582 0.816149
O O1 0.387236 0.520629 0.639824
O O2 0.217608 0.446444 0.538053
O O3 0.105387 0.302840 0.703903
O O4 0.533692 0.027898 0.388207
O O5 0.201862 0.480333 0.862811
O O6 0.493665 0.668167 0.797819
O O7 0.234119 0.008592 0.871793
O O8 0.791518 0.499680 0.745189
O O9 0.000000 0.500000 0.500000
O O10 0.919562 0.923013 0.714790
O O11 0.966727 0.916153 0.167346
O O12 0.339109 0.594082 0.008405
O O13 0.500000 0.000000 0.000000
#
# Coordination Sequence:
#
# PCOD9042830 Si02
#       6
#     2   2   2   2   2   2
#     4  11  24  40  73 102 138 183 239 296 345 421
#     4  11  23  46  71 103 139 191 233 291 349 415
#     4  11  24  43  70  98 142 184 234 292 356 420
#     4  11  24  41  77 108 140 177 245 298 344 411
#     4  10  25  48  67 102 146 187 234 291 357 425
#     4  10  23  45  64 103 140 181 238 291 350 417
#
# _framework density 26.514068000000002
#
# number of rings (size 3 to 8) (size 9 to 14) (size 15 to 20)
#    0.000    1.333    1.667    3.500    7.000    4.667 
#   12.000    0.000    0.000    0.000    0.000    0.000 
#    0.000    0.000    0.000    0.000    0.000    0.000 
#
# Total GULP energy -66972.667217 kJ/mol
# GULP energy per Si atom -5581.055601 kJ/mol
# Density = 2.645372 g / cm^3
# Si number density = 26.514068 Si / 1000 Ang^3
#
#
#
# Elastic Constant Matrix: (Units=GPa)
#
#
# Indices 1 2 3 4 5 6 
#
# 1 185.8872 44.6828 85.5829 -6.8778 -3.9294 26.2784
# 2 44.6828 99.4375 16.4248 -7.6481 0.4726 2.7997
# 3 85.5829 16.4248 133.3271 -9.4453 -1.5773 13.9114
# 4 -6.8778 -7.6481 -9.4453 35.8008 16.5242 -6.0629
# 5 -3.9294 0.4726 -1.5773 16.5242 69.4140 -5.2615
# 6 26.2784 2.7997 13.9114 -6.0629 -5.2615 38.8210
#
#
#
# Elastic Compliance Matrix: (Units=1/GPa)
#
#
# Indices 1 2 3 4 5 6 
#
# 1 0.009028 -0.003197 -0.005041 -0.001164 0.000377 -0.004205
# 2 -0.003197 0.011550 0.000660 0.002616 -0.000761 0.001400
# 3 -0.005041 0.000660 0.010834 0.002267 -0.000602 -0.000245
# 4 -0.001164 0.002616 0.002267 0.033037 -0.007600 0.003917
# 5 0.000377 -0.000761 -0.000602 -0.007600 0.016307 0.001039
# 6 -0.004205 0.001400 -0.000245 0.003917 0.001039 0.029345
#
#
# Mechanical properties :
#
#
# Convention : Reuss Voigt Hill
#
# Bulk Modulus (GPa) = 61.51847 79.11476 70.31662
# Shear Modulus (GPa) = 38.26280 46.93792 42.60036
#
# Velocity S-wave (km/s) = 3.80295 4.21206 4.01272
# Velocity P-wave (km/s) = 6.52195 7.31839 6.93162
#
# Compressibility (1/GPa) = 0.01625528
#
# Stress axis : x y z
#
# Youngs Moduli (GPa) = 110.76368 86.58252 92.30411
#
# Poissons Ratio (x) = 0.27683 0.46527
# Poissons Ratio (y) = 0.35414 -0.06089
# Poissons Ratio (z) = 0.55832 -0.05712
#
# Static dielectric constant tensor:
#      x y z
#    x 2.046460 -0.018550 0.008730 
#    y -0.018550 2.157260 -0.146220 
#    z 0.008730 -0.146220 2.239440 
# 
# From -- ./inp_files/257923.got.cif
#   From: 2010.05.17/outbox.cif.g08.bks.cpg/sg2_129_cif.got.tgz:257923.got - 2010.06.03 11:33:40.
