data_PCOD9042299
_publ_section_title
;
Structure prediction by ZEFSAII (Michael W. Deem and Ramdas Pophale) SiO2 
 PCOD9042299
Probable space group: P -1
;
_chemical_formula_sum "Si O2"
_cell_formula_units_Z 14
_cell_length_a 10.573512
_cell_length_b 11.760941
_cell_length_c 9.118377
_cell_angle_alpha 128.717640
_cell_angle_beta 57.527904
_cell_angle_gamma 136.445979
_cell_volume 602.193000
_symmetry_space_group_name_H-M "P -1"
_symmetry_group_IT_number 2
_symmetry_cell_setting 'triclinic'
loop_
_space_group_symop_operation_xyz
x,y,z
-x,-y,-z
loop_
_atom_site_type_symbol
_atom_site_label
_atom_site_fract_x
_atom_site_fract_y
_atom_site_fract_z
Si Si1 0.711142 0.179087 0.027474
Si Si2 0.736281 0.442156 0.983384
Si Si3 0.566481 0.618781 0.410140
Si Si4 0.474882 0.322653 0.809082
Si Si5 0.064328 0.648294 0.704074
Si Si6 0.074957 0.953753 0.780942
Si Si7 0.152114 0.051038 0.327477
O O1 0.762853 0.329655 0.994727
O O2 0.834860 0.104296 0.865637
O O3 0.761703 0.272463 0.230590
O O4 0.500000 0.000000 0.000000
O O5 0.569764 0.291334 0.857665
O O6 0.897734 0.563812 0.861392
O O7 0.686099 0.561529 0.201915
O O8 0.500000 0.500000 0.500000
O O9 0.439411 0.610232 0.352305
O O10 0.666152 0.810073 0.581426
O O11 0.268293 0.141317 0.764904
O O12 0.500000 0.500000 0.000000
O O13 0.105790 0.813374 0.713292
O O14 0.000000 0.500000 0.500000
O O15 0.908882 0.873912 0.702521
O O16 0.000000 0.000000 0.000000
O O17 0.000000 0.000000 0.500000
#
# Coordination Sequence:
#
# PCOD9042299 Si02
#       7
#     2   2   2   2   2   2   2
#     4  12  27  51  74 109 153 198 249 313 383 445
#     4  11  26  47  73 105 154 190 247 311 374 447
#     4  11  24  41  72 109 144 190 243 298 372 450
#     4  10  23  44  70 109 144 190 242 306 370 440
#     4  12  29  48  75 108 149 204 250 310 378 446
#     4  12  24  46  74 104 148 191 253 304 370 444
#     4  12  26  45  75 106 145 195 247 306 373 441
#
# _framework density 23.248360000000002
#
# number of rings (size 3 to 8) (size 9 to 14) (size 15 to 20)
#    0.000    0.571    2.857    4.714   10.000    1.143 
#    0.000    2.143    0.000    0.000    0.000    0.000 
#    0.000    0.000    0.000    0.000    0.000    0.000 
#
# Total GULP energy -78078.624587 kJ/mol
# GULP energy per Si atom -5577.044613 kJ/mol
# Density = 2.319545 g / cm^3
# Si number density = 23.248360 Si / 1000 Ang^3
#
#
#
# Elastic Constant Matrix: (Units=GPa)
#
#
# Indices 1 2 3 4 5 6 
#
# 1 123.7709 35.0605 51.0471 -0.0168 46.1387 -26.3105
# 2 35.0605 91.0560 58.1464 3.8527 -0.9533 -27.0596
# 3 51.0471 58.1464 161.0913 -6.8655 41.9620 0.1120
# 4 -0.0168 3.8527 -6.8655 39.6903 2.0328 8.1801
# 5 46.1387 -0.9533 41.9620 2.0328 52.1902 -11.6535
# 6 -26.3105 -27.0596 0.1120 8.1801 -11.6535 45.5568
#
#
#
# Elastic Compliance Matrix: (Units=1/GPa)
#
#
# Indices 1 2 3 4 5 6 
#
# 1 0.014861 -0.006756 0.001557 0.001549 -0.014441 0.000594
# 2 -0.006756 0.032336 -0.016848 -0.012379 0.026000 0.024219
# 3 0.001557 -0.016848 0.017234 0.008846 -0.019391 -0.015699
# 4 0.001549 -0.012379 0.008846 0.031838 -0.013439 -0.015635
# 5 -0.014441 0.026000 -0.019391 -0.013439 0.053720 0.023306
# 6 0.000594 0.024219 -0.015699 -0.015635 0.023306 0.045487
#
#
# Mechanical properties :
#
#
# Convention : Reuss Voigt Hill
#
# Bulk Modulus (GPa) = 49.17308 73.82511 61.49909
# Shear Modulus (GPa) = 20.29645 42.93174 31.61409
#
# Velocity S-wave (km/s) = 2.95791 4.30194 3.69160
# Velocity P-wave (km/s) = 5.73260 7.51661 6.68439
#
# Compressibility (1/GPa) = 0.02033633
#
# Stress axis : x y z
#
# Youngs Moduli (GPa) = 67.29147 30.92561 58.02320
#
# Poissons Ratio (x) = 0.20895 -0.09033
# Poissons Ratio (y) = 0.45465 0.97755
# Poissons Ratio (z) = -0.10476 0.52102
#
# Static dielectric constant tensor:
#      x y z
#    x 1.997930 0.031540 -0.050710 
#    y 0.031540 1.836370 -0.039800 
#    z -0.050710 -0.039800 1.802930 
# 
# From -- ./inp_files/263401.got.cif
#   From: 2010.05.17/outbox.cif.g08.bks.cpg/sg2_132_cif.got.tgz:263401.got - 2010.06.03 11:33:40.
