data_PCOD9042647
_publ_section_title
;
Structure prediction by ZEFSAII (Michael W. Deem and Ramdas Pophale) SiO2 
 PCOD9042647
Probable space group: P -1
;
_chemical_formula_sum "Si O2"
_cell_formula_units_Z 14
_cell_length_a 9.834758
_cell_length_b 11.816384
_cell_length_c 11.463074
_cell_angle_alpha 113.520686
_cell_angle_beta 82.777623
_cell_angle_gamma 40.144861
_cell_volume 539.295066
_symmetry_space_group_name_H-M "P -1"
_symmetry_group_IT_number 2
_symmetry_cell_setting 'triclinic'
loop_
_space_group_symop_operation_xyz
x,y,z
-x,-y,-z
loop_
_atom_site_type_symbol
_atom_site_label
_atom_site_fract_x
_atom_site_fract_y
_atom_site_fract_z
Si Si1 0.857825 0.434223 0.662398
Si Si2 0.824652 0.790700 0.921245
Si Si3 0.732870 0.699231 0.205259
Si Si4 0.820091 0.224331 0.422663
Si Si5 0.560412 0.834165 0.673679
Si Si6 0.826706 0.047730 0.949008
Si Si7 0.643949 0.124219 0.516393
O O1 0.876063 0.303843 0.518271
O O2 0.814264 0.583220 0.635978
O O3 0.531651 0.679482 0.867114
O O4 0.125489 0.178676 0.619175
O O5 0.744941 0.917427 0.107650
O O6 0.037396 0.497871 0.788487
O O7 0.500000 0.000000 0.000000
O O8 0.944998 0.809631 0.844066
O O9 0.547292 0.727545 0.280423
O O10 0.472979 0.004072 0.316272
O O11 0.000000 0.500000 0.000000
O O12 0.500000 0.500000 0.500000
O O13 0.786460 0.140188 0.482188
O O14 0.086793 0.979290 0.200318
O O15 0.528789 0.768167 0.542065
O O16 0.000000 0.000000 0.000000
#
# Coordination Sequence:
#
# PCOD9042647 Si02
#       7
#     2   2   2   2   2   2   2
#     4  11  26  45  72 108 144 191 254 303 374 450
#     4  10  23  44  73 109 146 193 249 303 373 450
#     4  10  24  45  68 101 144 190 239 306 371 439
#     4  12  22  44  71 104 147 194 246 309 378 429
#     4  10  23  45  69  99 141 192 236 305 366 430
#     4  11  23  44  76 108 149 199 244 312 371 438
#     4  12  25  46  70 105 147 189 249 314 370 445
#
# _framework density 25.959813
#
# number of rings (size 3 to 8) (size 9 to 14) (size 15 to 20)
#    0.000    1.143    2.857    2.571    4.000    3.429 
#    2.571    0.000    0.000    0.000    0.000    0.000 
#    0.000    0.000    0.000    0.000    0.000    0.000 
#
# Total GULP energy -78043.249695 kJ/mol
# GULP energy per Si atom -5574.517835 kJ/mol
# Density = 2.590073 g / cm^3
# Si number density = 25.959813 Si / 1000 Ang^3
#
#
#
# Elastic Constant Matrix: (Units=GPa)
#
#
# Indices 1 2 3 4 5 6 
#
# 1 64.6167 62.2524 22.5451 -21.8529 -7.3025 33.9123
# 2 62.2524 205.9322 40.8085 8.4469 -18.6158 19.3370
# 3 22.5451 40.8085 137.3402 -19.2613 -12.7862 7.3421
# 4 -21.8529 8.4469 -19.2613 53.3527 9.9789 -5.5388
# 5 -7.3025 -18.6158 -12.7862 9.9789 42.9956 -8.9083
# 6 33.9123 19.3370 7.3421 -5.5388 -8.9083 57.9717
#
#
#
# Elastic Compliance Matrix: (Units=1/GPa)
#
#
# Indices 1 2 3 4 5 6 
#
# 1 0.045005 -0.012985 -0.000315 0.019484 -0.006979 -0.021167
# 2 -0.012985 0.009350 -0.001584 -0.007662 0.004098 0.004575
# 3 -0.000315 -0.001584 0.008309 0.002932 0.001073 0.000106
# 4 0.019484 -0.007662 0.002932 0.029629 -0.007577 -0.007546
# 5 -0.006979 0.004098 0.001073 -0.007577 0.027174 0.006032
# 6 -0.021167 0.004575 0.000106 -0.007546 0.006032 0.028298
#
#
# Mechanical properties :
#
#
# Convention : Reuss Voigt Hill
#
# Bulk Modulus (GPa) = 30.39966 73.23346 51.81656
# Shear Modulus (GPa) = 26.52525 49.68289 38.10407
#
# Velocity S-wave (km/s) = 3.20000 4.37949 3.83536
# Velocity P-wave (km/s) = 5.03875 7.33790 6.29420
#
# Compressibility (1/GPa) = 0.03289511
#
# Stress axis : x y z
#
# Youngs Moduli (GPa) = 22.21991 106.94801 120.34934
#
# Poissons Ratio (x) = 1.38870 0.03794
# Poissons Ratio (y) = 0.28852 0.19069
# Poissons Ratio (z) = 0.00701 0.16945
#
# Static dielectric constant tensor:
#      x y z
#    x 2.111780 -0.063560 -0.071350 
#    y -0.063560 2.196390 0.119500 
#    z -0.071350 0.119500 2.139850 
# 
# From -- ./inp_files/428369.got.cif
#   From: 2010.05.17/outbox.cif.g08.bks.cpg/sg2_215_cif.got.tgz:428369.got - 2010.06.03 11:33:40.
