data_PCOD9042974
_publ_section_title
;
Structure prediction by ZEFSAII (Michael W. Deem and Ramdas Pophale) SiO2 
 PCOD9042974
Probable space group: P -1
;
_chemical_formula_sum "Si O2"
_cell_formula_units_Z 16
_cell_length_a 13.855419
_cell_length_b 10.605323
_cell_length_c 13.728267
_cell_angle_alpha 147.985008
_cell_angle_beta 57.133034
_cell_angle_gamma 132.114409
_cell_volume 791.581830
_symmetry_space_group_name_H-M "P -1"
_symmetry_group_IT_number 2
_symmetry_cell_setting 'triclinic'
loop_
_space_group_symop_operation_xyz
x,y,z
-x,-y,-z
loop_
_atom_site_type_symbol
_atom_site_label
_atom_site_fract_x
_atom_site_fract_y
_atom_site_fract_z
Si Si1 0.499094 0.582451 0.439854
Si Si2 0.863567 0.869386 0.549221
Si Si3 0.834124 0.344803 0.134258
Si Si4 0.020279 0.271122 0.284787
Si Si5 0.226381 0.212246 0.244888
Si Si6 0.684316 0.133682 0.743044
Si Si7 0.619949 0.271861 0.068649
Si Si8 0.927191 0.665741 0.925112
O O1 0.500000 0.500000 0.500000
O O2 0.358470 0.413558 0.357946
O O3 0.591649 0.501980 0.274619
O O4 0.561784 0.901646 0.603921
O O5 0.810591 0.547918 0.349510
O O6 0.871222 0.914353 0.691042
O O7 0.768355 0.983823 0.635894
O O8 0.000000 0.000000 0.500000
O O9 0.766701 0.354108 0.076889
O O10 0.984287 0.413121 0.104733
O O11 0.760913 0.020779 0.975224
O O12 0.163200 0.331717 0.282753
O O13 0.007723 0.287854 0.186773
O O14 0.000000 0.500000 0.500000
O O15 0.934412 0.947271 0.140501
O O16 0.786972 0.412105 0.822609
O O17 0.621937 0.217802 0.920276
O O18 0.500000 0.000000 0.000000
#
# Coordination Sequence:
#
# PCOD9042974 Si02
#       8
#     2   2   2   2   2   2   2   2
#     4  12  21  38  59  90 129 168 200 236 298 376
#     4  12  22  33  56  93 130 160 190 243 314 373
#     4  11  20  35  60  86 126 158 196 246 299 366
#     4  10  23  45  67  84 115 157 213 262 313 358
#     4  11  23  39  61  91 117 163 210 244 303 367
#     4  12  24  37  57  93 135 159 200 251 301 371
#     4  12  21  35  56  90 132 167 196 233 298 372
#     4  10  24  42  60  92 119 157 207 266 307 350
#
# _framework density 20.212692000000001
#
# number of rings (size 3 to 8) (size 9 to 14) (size 15 to 20)
#    0.000    0.750    7.500    0.750    0.000    4.000 
#    0.000    0.625    0.000    1.500    0.000    0.000 
#    0.000    0.000    0.000    0.000    0.000    0.000 
#
# Total GULP energy -89127.877003 kJ/mol
# GULP energy per Si atom -5570.492313 kJ/mol
# Density = 2.016669 g / cm^3
# Si number density = 20.212692 Si / 1000 Ang^3
#
#
#
# Elastic Constant Matrix: (Units=GPa)
#
#
# Indices 1 2 3 4 5 6 
#
# 1 66.8993 9.2769 25.4492 8.5092 9.0857 13.7923
# 2 9.2769 65.6461 25.4061 12.0324 3.1870 12.4415
# 3 25.4492 25.4061 174.3933 14.3119 -6.0862 -1.9272
# 4 8.5092 12.0324 14.3119 30.7775 7.7682 3.1419
# 5 9.0857 3.1870 -6.0862 7.7682 30.6723 5.2834
# 6 13.7923 12.4415 -1.9272 3.1419 5.2834 13.4721
#
#
#
# Elastic Compliance Matrix: (Units=1/GPa)
#
#
# Indices 1 2 3 4 5 6 
#
# 1 0.021620 0.003639 -0.003851 -0.002429 -0.002727 -0.024409
# 2 0.003639 0.021421 -0.003379 -0.005817 0.001499 -0.023222
# 3 -0.003851 -0.003379 0.007135 -0.002267 0.002143 0.007771
# 4 -0.002429 -0.005817 -0.002267 0.038612 -0.009278 0.002169
# 5 -0.002727 0.001499 0.002143 -0.009278 0.037924 -0.010996
# 6 -0.024409 -0.023222 0.007771 0.002169 -0.010996 0.125580
#
#
# Mechanical properties :
#
#
# Convention : Reuss Voigt Hill
#
# Bulk Modulus (GPa) = 23.25864 47.46703 35.36283
# Shear Modulus (GPa) = 18.26130 31.43816 24.84973
#
# Velocity S-wave (km/s) = 3.00902 3.94809 3.51010
# Velocity P-wave (km/s) = 4.85841 6.65718 5.82761
#
# Compressibility (1/GPa) = 0.04299477
#
# Stress axis : x y z
#
# Youngs Moduli (GPa) = 46.25435 46.68277 140.15510
#
# Poissons Ratio (x) = -0.16986 0.53968
# Poissons Ratio (y) = -0.16831 0.47353
# Poissons Ratio (z) = 0.17811 0.15772
#
# Static dielectric constant tensor:
#      x y z
#    x 1.726100 0.002640 -0.039090 
#    y 0.002640 1.757180 0.070190 
#    z -0.039090 0.070190 1.820600 
# 
# From -- ./inp_files/532151.got.cif
#   From: 2010.05.17/outbox.cif.g08.bks.cpg/sg2_267_cif.got.tgz:532151.got - 2010.06.03 11:33:40.
