data_PCOD9042844
_publ_section_title
;
Structure prediction by ZEFSAII (Michael W. Deem and Ramdas Pophale) SiO2 
 PCOD9042844
Probable space group: P -1
;
_chemical_formula_sum "Si O2"
_cell_formula_units_Z 16
_cell_length_a 6.698867
_cell_length_b 18.671830
_cell_length_c 19.084309
_cell_angle_alpha 157.319261
_cell_angle_beta 65.254380
_cell_angle_gamma 103.075687
_cell_volume 743.593107
_symmetry_space_group_name_H-M "P -1"
_symmetry_group_IT_number 2
_symmetry_cell_setting 'triclinic'
loop_
_space_group_symop_operation_xyz
x,y,z
-x,-y,-z
loop_
_atom_site_type_symbol
_atom_site_label
_atom_site_fract_x
_atom_site_fract_y
_atom_site_fract_z
Si Si1 0.990772 0.474473 0.240956
Si Si2 0.325728 0.143299 0.282668
Si Si3 0.705262 0.115964 0.646690
Si Si4 0.888294 0.130645 0.869992
Si Si5 0.295612 0.457310 0.453961
Si Si6 0.491124 0.586195 0.931126
Si Si7 0.209240 0.267188 0.170151
Si Si8 0.580608 0.144689 0.527521
O O1 0.215804 0.485719 0.177592
O O2 0.116465 0.374476 0.206398
O O3 0.762452 0.694925 0.493577
O O4 0.909682 0.318637 0.074970
O O5 0.273743 0.278205 0.341799
O O6 0.173479 0.012489 0.197240
O O7 0.610532 0.973845 0.085135
O O8 0.616823 0.159089 0.618533
O O9 0.588137 0.970705 0.563347
O O10 0.611624 0.318549 0.892013
O O11 0.000000 0.000000 0.500000
O O12 0.667060 0.232566 0.937728
O O13 0.150202 0.990816 0.668001
O O14 0.500000 0.500000 0.500000
O O15 0.346073 0.374202 0.292365
O O16 0.038852 0.666549 0.688468
O O17 0.460529 0.381732 0.732646
#
# Coordination Sequence:
#
# PCOD9042844 Si02
#       8
#     2   2   2   2   2   2   2   2
#     4  11  25  43  66  99 136 176 223 276 333 403
#     4  11  24  44  70  98 134 176 223 275 331 398
#     4  11  24  45  69  98 135 179 227 277 334 405
#     4  12  25  43  67 100 134 174 229 275 336 400
#     4  10  24  46  70 101 136 176 223 274 330 398
#     4  12  24  43  68  98 138 174 224 281 333 401
#     4  10  23  45  65 100 136 169 225 270 326 400
#     4  11  25  44  69  99 133 178 224 278 340 393
#
# _framework density 21.517144999999999
#
# number of rings (size 3 to 8) (size 9 to 14) (size 15 to 20)
#    0.000    1.000    5.000    0.750    3.500    4.000 
#    6.750    0.000    0.000    0.000    0.000    0.000 
#    0.000    0.000    0.000    0.000    0.000    0.000 
#
# Total GULP energy -89441.280874 kJ/mol
# GULP energy per Si atom -5590.080055 kJ/mol
# Density = 2.146817 g / cm^3
# Si number density = 21.517145 Si / 1000 Ang^3
#
#
#
# Elastic Constant Matrix: (Units=GPa)
#
#
# Indices 1 2 3 4 5 6 
#
# 1 87.0817 22.4935 44.5073 2.1565 6.2446 5.9635
# 2 22.4935 56.4834 28.7454 1.3872 -4.8748 11.7547
# 3 44.5073 28.7454 182.2653 -19.9856 -11.3202 8.7923
# 4 2.1565 1.3872 -19.9856 33.8408 1.2609 8.5670
# 5 6.2446 -4.8748 -11.3202 1.2609 33.1256 -2.5241
# 6 5.9635 11.7547 8.7923 8.5670 -2.5241 27.4586
#
#
#
# Elastic Compliance Matrix: (Units=1/GPa)
#
#
# Indices 1 2 3 4 5 6 
#
# 1 0.014807 -0.004494 -0.003499 -0.002724 -0.004525 0.000262
# 2 -0.004494 0.022296 -0.001850 0.000134 0.002900 -0.007751
# 3 -0.003499 -0.001850 0.007467 0.005174 0.002573 -0.002217
# 4 -0.002724 0.000134 0.005174 0.035893 -0.000004 -0.012321
# 5 -0.004525 0.002900 0.002573 -0.000004 0.032493 0.001905
# 6 0.000262 -0.007751 -0.002217 -0.012321 0.001905 0.044409
#
#
# Mechanical properties :
#
#
# Convention : Reuss Voigt Hill
#
# Bulk Modulus (GPa) = 40.18890 57.48032 48.83461
# Shear Modulus (GPa) = 26.97679 34.22395 30.60037
#
# Velocity S-wave (km/s) = 3.54465 3.99249 3.77522
# Velocity P-wave (km/s) = 5.95575 6.93001 6.46127
#
# Compressibility (1/GPa) = 0.02488250
#
# Stress axis : x y z
#
# Youngs Moduli (GPa) = 67.53709 44.85183 133.92532
#
# Poissons Ratio (x) = 0.20156 0.46864
# Poissons Ratio (y) = 0.30350 0.24779
# Poissons Ratio (z) = 0.23633 0.08298
#
# Static dielectric constant tensor:
#      x y z
#    x 1.775540 0.011290 -0.007010 
#    y 0.011290 1.804610 -0.003070 
#    z -0.007010 -0.003070 1.772740 
# 
# From -- ./inp_files/584325.got.cif
#   From: 2010.05.17/outbox.cif.g08.bks.cpg/sg2_293_cif.got.tgz:584325.got - 2010.06.03 11:33:40.
