data_PCOD9042547
_publ_section_title
;
Structure prediction by ZEFSAII (Michael W. Deem and Ramdas Pophale) SiO2 
 PCOD9042547
Probable space group: P -1
;
_chemical_formula_sum "Si O2"
_cell_formula_units_Z 12
_cell_length_a 5.257264
_cell_length_b 9.396364
_cell_length_c 12.597982
_cell_angle_alpha 112.974382
_cell_angle_beta 104.417275
_cell_angle_gamma 56.636533
_cell_volume 478.063631
_symmetry_space_group_name_H-M "P -1"
_symmetry_group_IT_number 2
_symmetry_cell_setting 'triclinic'
loop_
_space_group_symop_operation_xyz
x,y,z
-x,-y,-z
loop_
_atom_site_type_symbol
_atom_site_label
_atom_site_fract_x
_atom_site_fract_y
_atom_site_fract_z
Si Si1 0.706732 0.876422 0.703635
Si Si2 0.120221 0.873029 0.245127
Si Si3 0.410374 0.786226 0.461154
Si Si4 0.693628 0.511185 0.926620
Si Si5 0.474171 0.864639 0.878357
Si Si6 0.047415 0.652649 0.495028
O O1 0.468285 0.865142 0.597404
O O2 0.736788 0.786189 0.792810
O O3 0.007312 0.769398 0.630200
O O4 0.645764 0.075216 0.770376
O O5 0.157994 0.900050 0.381903
O O6 0.210467 0.668065 0.183141
O O7 0.817587 0.003065 0.185348
O O8 0.318692 0.641337 0.450139
O O9 0.728419 0.739609 0.422147
O O10 0.500027 0.696855 0.895248
O O11 0.500000 0.500000 0.000000
O O12 0.000000 0.500000 0.000000
O O13 0.500000 0.000000 0.000000
O O14 0.000000 0.500000 0.500000
#
# Coordination Sequence:
#
# PCOD9042547 Si02
#       6
#     2   2   2   2   2   2
#     4  10  26  44  77 113 157 207 250 318 385 464
#     4  12  27  48  83 112 162 205 260 323 390 463
#     4  10  25  44  74 114 154 208 249 306 395 462
#     4  12  30  54  79 114 153 205 268 325 389 461
#     4  12  27  50  81 113 156 204 267 323 391 456
#     4  10  23  44  72 111 164 201 256 311 381 461
#
# _framework density 25.101261999999998
#
# number of rings (size 3 to 8) (size 9 to 14) (size 15 to 20)
#    1.000    0.000    1.667    3.000    7.000    4.000 
#    0.000    0.000    0.000    0.000    0.000    0.000 
#    0.000    0.000    0.000    0.000    0.000    0.000 
#
# Total GULP energy -66863.378372 kJ/mol
# GULP energy per Si atom -5571.948198 kJ/mol
# Density = 2.504413 g / cm^3
# Si number density = 25.101262 Si / 1000 Ang^3
#
#
#
# Elastic Constant Matrix: (Units=GPa)
#
#
# Indices 1 2 3 4 5 6 
#
# 1 117.8045 21.7673 38.2450 -0.7990 13.9971 35.0931
# 2 21.7673 159.0155 57.6227 -13.6445 5.0072 43.7792
# 3 38.2450 57.6227 141.6521 -19.9529 16.5243 13.1990
# 4 -0.7990 -13.6445 -19.9529 43.4617 12.1960 0.1950
# 5 13.9971 5.0072 16.5243 12.1960 40.5160 -5.0340
# 6 35.0931 43.7792 13.1990 0.1950 -5.0340 47.7731
#
#
#
# Elastic Compliance Matrix: (Units=1/GPa)
#
#
# Indices 1 2 3 4 5 6 
#
# 1 0.013141 0.002822 -0.002671 0.001578 -0.005780 -0.012117
# 2 0.002822 0.010474 -0.003219 0.002806 -0.003184 -0.011129
# 3 -0.002671 -0.003219 0.010052 0.004662 -0.003972 0.001697
# 4 0.001578 0.002806 0.004662 0.029597 -0.012505 -0.006457
# 5 -0.005780 -0.003184 -0.003972 -0.012505 0.033933 0.011888
# 6 -0.012117 -0.011129 0.001697 -0.006457 0.011888 0.040842
#
#
# Mechanical properties :
#
#
# Convention : Reuss Voigt Hill
#
# Bulk Modulus (GPa) = 36.32077 72.63801 54.47939
# Shear Modulus (GPa) = 32.60501 46.40598 39.50550
#
# Velocity S-wave (km/s) = 3.60799 4.30438 3.97148
# Velocity P-wave (km/s) = 5.64428 7.32832 6.54073
#
# Compressibility (1/GPa) = 0.02753246
#
# Stress axis : x y z
#
# Youngs Moduli (GPa) = 76.09624 95.47642 99.48343
#
# Poissons Ratio (x) = -0.26946 0.26567
# Poissons Ratio (y) = -0.21477 0.32024
# Poissons Ratio (z) = 0.20322 0.30734
#
# Static dielectric constant tensor:
#      x y z
#    x 2.292520 -0.131230 -0.031660 
#    y -0.131230 2.305770 0.052860 
#    z -0.031660 0.052860 1.944090 
# 
# From -- ./inp_files/360927.got.cif
#   From: 2010.05.17/outbox.cif.g08.bks.cpg/sg2_181_cif.got.tgz:360927.got - 2010.06.03 11:33:40.
