data_PCOD9042682
_publ_section_title
;
Structure prediction by ZEFSAII (Michael W. Deem and Ramdas Pophale) SiO2 
 PCOD9042682
Probable space group: P -1
;
_chemical_formula_sum "Si O2"
_cell_formula_units_Z 14
_cell_length_a 8.787228
_cell_length_b 13.287769
_cell_length_c 7.716002
_cell_angle_alpha 140.658246
_cell_angle_beta 121.461422
_cell_angle_gamma 71.906150
_cell_volume 479.913159
_symmetry_space_group_name_H-M "P -1"
_symmetry_group_IT_number 2
_symmetry_cell_setting 'triclinic'
loop_
_space_group_symop_operation_xyz
x,y,z
-x,-y,-z
loop_
_atom_site_type_symbol
_atom_site_label
_atom_site_fract_x
_atom_site_fract_y
_atom_site_fract_z
Si Si1 0.332787 0.848043 0.844567
Si Si2 0.082800 0.818543 0.317622
Si Si3 0.540290 0.162326 0.573257
Si Si4 0.487071 0.584816 0.392028
Si Si5 0.990230 0.813328 0.780024
Si Si6 0.109246 0.415627 0.314509
Si Si7 0.259167 0.245223 0.766739
O O1 0.205237 0.858164 0.615380
O O2 0.461707 0.726079 0.699576
O O3 0.185924 0.772646 0.798913
O O4 0.432734 0.019495 0.199241
O O5 0.248484 0.851535 0.319333
O O6 0.885185 0.858169 0.322036
O O7 0.004892 0.625507 0.981940
O O8 0.528744 0.329997 0.689504
O O9 0.428578 0.165838 0.690515
O O10 0.679759 0.534286 0.471069
O O11 0.340258 0.425099 0.113508
O O12 0.918689 0.768648 0.868817
O O13 0.851911 0.733891 0.446693
O O14 0.000000 0.000000 0.000000
O O15 0.000000 0.500000 0.500000
#
# Coordination Sequence:
#
# PCOD9042682 Si02
#       7
#     2   2   2   2   2   2   2
#     4  10  23  44  74 101 139 195 248 290 349 448
#     4  10  25  41  67 106 141 180 241 304 360 412
#     4  11  21  46  73 103 141 196 246 293 355 444
#     4  11  23  41  72 103 140 193 247 297 349 440
#     4  11  23  46  75 103 140 195 244 287 356 445
#     4  12  27  45  70 108 155 184 232 313 377 415
#     4  11  23  41  75 103 138 192 250 286 353 437
#
# _framework density 29.171945999999998
#
# number of rings (size 3 to 8) (size 9 to 14) (size 15 to 20)
#    0.000    1.143    2.857    3.000    6.000    4.571 
#    2.571   12.143    0.000    0.000    0.000    0.000 
#    0.000    0.000    0.000    0.000    0.000    0.000 
#
# Total GULP energy -78412.008656 kJ/mol
# GULP energy per Si atom -5600.857761 kJ/mol
# Density = 2.910555 g / cm^3
# Si number density = 29.171946 Si / 1000 Ang^3
#
#
#
# Elastic Constant Matrix: (Units=GPa)
#
#
# Indices 1 2 3 4 5 6 
#
# 1 278.1442 40.1685 40.7057 6.5381 8.4691 -18.9386
# 2 40.1685 89.5840 -6.0441 5.5949 1.6084 -11.5399
# 3 40.7057 -6.0441 116.4877 -3.5819 7.6917 -34.4628
# 4 6.5381 5.5949 -3.5819 33.0881 -6.9347 -7.7112
# 5 8.4691 1.6084 7.6917 -6.9347 72.6920 3.9443
# 6 -18.9386 -11.5399 -34.4628 -7.7112 3.9443 66.2378
#
#
#
# Elastic Compliance Matrix: (Units=1/GPa)
#
#
# Indices 1 2 3 4 5 6 
#
# 1 0.004123 -0.001904 -0.001546 -0.000737 -0.000344 -0.000023
# 2 -0.001904 0.012573 0.002106 -0.001012 -0.000520 0.002655
# 3 -0.001546 0.002106 0.011182 0.002335 -0.001157 0.006084
# 4 -0.000737 -0.001012 0.002335 0.032394 0.002711 0.004438
# 5 -0.000344 -0.000520 -0.001157 0.002711 0.014261 -0.001324
# 6 -0.000023 0.002655 0.006084 0.004438 -0.001324 0.019314
#
#
# Mechanical properties :
#
#
# Convention : Reuss Voigt Hill
#
# Bulk Modulus (GPa) = 39.69665 70.43069 55.06367
# Shear Modulus (GPa) = 47.65042 61.69599 54.67320
#
# Velocity S-wave (km/s) = 4.04596 4.60380 4.33387
# Velocity P-wave (km/s) = 5.95514 7.24263 6.63021
#
# Compressibility (1/GPa) = 0.02519104
#
# Stress axis : x y z
#
# Youngs Moduli (GPa) = 242.56019 79.53600 89.42791
#
# Poissons Ratio (x) = 0.15140 0.13826
# Poissons Ratio (y) = 0.46173 -0.18836
# Poissons Ratio (z) = 0.37502 -0.16753
#
# Static dielectric constant tensor:
#      x y z
#    x 2.307070 0.055320 -0.038170 
#    y 0.055320 2.404100 0.060020 
#    z -0.038170 0.060020 2.382030 
# 
# From -- ./inp_files/219076.got.cif
#   From: 2010.05.17/outbox.cif.g08.bks.cpg/sg2_110_cif.got.tgz:219076.got - 2010.06.03 11:33:40.
