data_PCOD9042408
_publ_section_title
;
Structure prediction by ZEFSAII (Michael W. Deem and Ramdas Pophale) SiO2 
 PCOD9042408
Probable space group: P -1
;
_chemical_formula_sum "Si O2"
_cell_formula_units_Z 14
_cell_length_a 5.219578
_cell_length_b 12.540001
_cell_length_c 11.954837
_cell_angle_alpha 51.940301
_cell_angle_beta 106.206346
_cell_angle_gamma 98.185207
_cell_volume 591.166683
_symmetry_space_group_name_H-M "P -1"
_symmetry_group_IT_number 2
_symmetry_cell_setting 'triclinic'
loop_
_space_group_symop_operation_xyz
x,y,z
-x,-y,-z
loop_
_atom_site_type_symbol
_atom_site_label
_atom_site_fract_x
_atom_site_fract_y
_atom_site_fract_z
Si Si1 0.279441 0.962027 0.408407
Si Si2 0.950104 0.221407 0.889778
Si Si3 0.228673 0.642709 0.613547
Si Si4 0.846255 0.145110 0.166990
Si Si5 0.776664 0.420055 0.092426
Si Si6 0.713949 0.516962 0.611690
Si Si7 0.627195 0.996873 0.873216
O O1 0.319663 0.993361 0.260318
O O2 0.023828 0.061811 0.331364
O O3 0.500000 0.000000 0.500000
O O4 0.249952 0.803026 0.514273
O O5 0.868850 0.373025 0.746617
O O6 0.735902 0.127619 0.862479
O O7 0.960419 0.224044 0.024080
O O8 0.228261 0.133900 0.963307
O O9 0.156167 0.592226 0.761118
O O10 0.511430 0.575606 0.647295
O O11 0.952067 0.610663 0.538259
O O12 0.715858 0.269340 0.138812
O O13 0.681467 0.034018 0.151741
O O14 0.500000 0.500000 0.000000
O O15 0.000000 0.500000 0.000000
O O16 0.500000 0.500000 0.500000
#
# Coordination Sequence:
#
# PCOD9042408 Si02
#       7
#     2   2   2   2   2   2   2
#     4  11  27  45  71 105 146 193 249 302 371 442
#     4  10  23  44  71 104 142 187 249 300 372 434
#     4  12  28  49  74 108 148 196 246 309 370 443
#     4  11  25  44  74 102 141 192 243 306 368 437
#     4  12  28  47  75 107 146 190 247 301 369 439
#     4  12  28  49  76 110 150 198 245 306 375 447
#     4  10  23  44  71 104 140 189 244 308 363 442
#
# _framework density 23.681982999999999
#
# number of rings (size 3 to 8) (size 9 to 14) (size 15 to 20)
#    0.000    0.857    0.000    5.143   16.000    1.143 
#    0.000    0.000    0.000    0.000    0.000    0.000 
#    0.000    0.000    0.000    0.000    0.000    0.000 
#
# Total GULP energy -78118.170431 kJ/mol
# GULP energy per Si atom -5579.869317 kJ/mol
# Density = 2.362808 g / cm^3
# Si number density = 23.681983 Si / 1000 Ang^3
#
#
#
# Elastic Constant Matrix: (Units=GPa)
#
#
# Indices 1 2 3 4 5 6 
#
# 1 103.4911 45.9003 44.9566 -10.0403 14.5966 12.1208
# 2 45.9003 144.9424 60.9152 -14.2275 26.0857 10.5386
# 3 44.9566 60.9152 149.3684 -17.8819 20.8632 7.1171
# 4 -10.0403 -14.2275 -17.8819 41.1019 -2.6655 4.0640
# 5 14.5966 26.0857 20.8632 -2.6655 39.3146 12.1091
# 6 12.1208 10.5386 7.1171 4.0640 12.1091 43.2028
#
#
#
# Elastic Compliance Matrix: (Units=1/GPa)
#
#
# Indices 1 2 3 4 5 6 
#
# 1 0.012281 -0.002463 -0.002297 0.001321 -0.000897 -0.002339
# 2 -0.002463 0.009572 -0.002424 0.001426 -0.003972 -0.000266
# 3 -0.002297 -0.002424 0.008952 0.002338 -0.002177 0.000151
# 4 0.001321 0.001426 0.002338 0.026543 0.000253 -0.003671
# 5 -0.000897 -0.003972 -0.002177 0.000253 0.031847 -0.007371
# 6 -0.002339 -0.000266 0.000151 -0.003671 -0.007371 0.026254
#
#
# Mechanical properties :
#
#
# Convention : Reuss Voigt Hill
#
# Bulk Modulus (GPa) = 60.83897 77.92736 69.38317
# Shear Modulus (GPa) = 36.95581 41.12582 39.04081
#
# Velocity S-wave (km/s) = 3.95461 4.17176 4.06463
# Velocity P-wave (km/s) = 6.82625 7.49546 7.16867
#
# Compressibility (1/GPa) = 0.01643683
#
# Stress axis : x y z
#
# Youngs Moduli (GPa) = 81.42342 104.46958 111.70991
#
# Poissons Ratio (x) = 0.25727 0.25662
# Poissons Ratio (y) = 0.20052 0.27083
# Poissons Ratio (z) = 0.18705 0.25327
#
# Static dielectric constant tensor:
#      x y z
#    x 2.118190 -0.018730 -0.047240 
#    y -0.018730 1.922130 0.047790 
#    z -0.047240 0.047790 1.852180 
# 
# From -- ./inp_files/70416.got.cif
#   From: 2010.05.17/outbox.cif.g08.bks.cpg/sg2_36_cif.got.tgz:70416.got - 2010.06.03 11:33:40.
