data_PCOD9042314
_publ_section_title
;
Structure prediction by ZEFSAII (Michael W. Deem and Ramdas Pophale) SiO2 
 PCOD9042314
Probable space group: P -1
;
_chemical_formula_sum "Si O2"
_cell_formula_units_Z 14
_cell_length_a 8.514392
_cell_length_b 15.916875
_cell_length_c 18.151229
_cell_angle_alpha 28.587945
_cell_angle_beta 43.833207
_cell_angle_gamma 63.476582
_cell_volume 673.267516
_symmetry_space_group_name_H-M "P -1"
_symmetry_group_IT_number 2
_symmetry_cell_setting 'triclinic'
loop_
_space_group_symop_operation_xyz
x,y,z
-x,-y,-z
loop_
_atom_site_type_symbol
_atom_site_label
_atom_site_fract_x
_atom_site_fract_y
_atom_site_fract_z
Si Si1 0.260612 0.875986 0.332170
Si Si2 0.260111 0.622456 0.873374
Si Si3 0.135787 0.884386 0.078055
Si Si4 0.831829 0.930068 0.922672
Si Si5 0.953428 0.184734 0.388529
Si Si6 0.653002 0.432707 0.554322
Si Si7 0.378862 0.016610 0.629219
O O1 0.085661 0.797680 0.525244
O O2 0.262943 0.698199 0.421434
O O3 0.177170 0.991025 0.215321
O O4 0.582378 0.037766 0.117780
O O5 0.530084 0.780430 0.611056
O O6 0.273942 0.800883 0.784272
O O7 0.000000 0.500000 0.000000
O O8 0.200490 0.417584 0.096174
O O9 0.923312 0.637471 0.334894
O O10 0.193367 0.943736 0.098988
O O11 0.000000 0.000000 0.000000
O O12 0.563836 0.697257 0.207409
O O13 0.122080 0.959761 0.809587
O O14 0.660972 0.099825 0.513053
O O15 0.000000 0.000000 0.500000
O O16 0.500000 0.500000 0.500000
#
# Coordination Sequence:
#
# PCOD9042314 Si02
#       7
#     2   2   2   2   2   2   2
#     4  11  26  42  63 101 137 169 221 274 328 392
#     4   9  22  43  68  92 129 169 232 272 329 386
#     4  11  21  42  67  97 130 170 216 266 328 393
#     4  11  25  41  67 100 137 167 219 272 330 399
#     4  11  26  45  68  97 136 175 228 278 328 395
#     4  11  23  41  70  96 131 174 219 266 329 398
#     4  10  23  44  70  95 129 179 223 273 337 392
#
# _framework density 20.794111999999998
#
# number of rings (size 3 to 8) (size 9 to 14) (size 15 to 20)
#    0.000    1.429    2.857    2.571    8.000    4.000 
#    2.571    0.000    0.000    0.000    0.000    0.000 
#    0.000    0.000    0.000    0.000    0.000    0.000 
#
# Total GULP energy -78138.269532 kJ/mol
# GULP energy per Si atom -5581.304967 kJ/mol
# Density = 2.074678 g / cm^3
# Si number density = 20.794112 Si / 1000 Ang^3
#
#
#
# Elastic Constant Matrix: (Units=GPa)
#
#
# Indices 1 2 3 4 5 6 
#
# 1 75.2515 5.5079 26.8640 -0.8918 15.4323 -0.2964
# 2 5.5079 58.3892 55.0772 7.1269 10.6445 -3.2949
# 3 26.8640 55.0772 163.3636 -17.7381 10.9120 0.7955
# 4 -0.8918 7.1269 -17.7381 32.1730 8.4616 -2.8194
# 5 15.4323 10.6445 10.9120 8.4616 36.5221 2.4119
# 6 -0.2964 -3.2949 0.7955 -2.8194 2.4119 30.2060
#
#
#
# Elastic Compliance Matrix: (Units=1/GPa)
#
#
# Indices 1 2 3 4 5 6 
#
# 1 0.015503 0.002611 -0.003003 -0.000009 -0.006480 0.001033
# 2 0.002611 0.030144 -0.011622 -0.011743 -0.003883 0.002834
# 3 -0.003003 -0.011622 0.011574 0.009036 -0.000850 -0.000691
# 4 -0.000009 -0.011743 0.009036 0.041312 -0.009047 0.003059
# 5 -0.006480 -0.003883 -0.000850 -0.009047 0.033866 -0.004013
# 6 0.001033 0.002834 -0.000691 0.003059 -0.004013 0.034049
#
#
# Mechanical properties :
#
#
# Convention : Reuss Voigt Hill
#
# Bulk Modulus (GPa) = 30.12623 52.43362 41.27992
# Shear Modulus (GPa) = 24.80908 33.75056 29.27982
#
# Velocity S-wave (km/s) = 3.45785 4.03312 3.75651
# Velocity P-wave (km/s) = 5.51920 6.85262 6.22174
#
# Compressibility (1/GPa) = 0.03319366
#
# Stress axis : x y z
#
# Youngs Moduli (GPa) = 64.50566 33.17449 86.39710
#
# Poissons Ratio (x) = -0.08661 0.25942
# Poissons Ratio (y) = -0.16841 1.00407
# Poissons Ratio (z) = 0.19369 0.38554
#
# Static dielectric constant tensor:
#      x y z
#    x 1.813240 0.004550 0.019840 
#    y 0.004550 1.711910 -0.009180 
#    z 0.019840 -0.009180 1.762110 
# 
# From -- ./inp_files/560699.got.cif
#   From: 2010.05.17/outbox.cif.g08.bks.cpg/sg2_281_cif.got.tgz:560699.got - 2010.06.03 11:33:40.
