data_PCOD9042622
_publ_section_title
;
Structure prediction by ZEFSAII (Michael W. Deem and Ramdas Pophale) SiO2 
 PCOD9042622
Probable space group: P -1
;
_chemical_formula_sum "Si O2"
_cell_formula_units_Z 16
_cell_length_a 9.879395
_cell_length_b 5.169034
_cell_length_c 15.094780
_cell_angle_alpha 104.673208
_cell_angle_beta 101.069481
_cell_angle_gamma 106.170426
_cell_volume 687.013613
_symmetry_space_group_name_H-M "P -1"
_symmetry_group_IT_number 2
_symmetry_cell_setting 'triclinic'
loop_
_space_group_symop_operation_xyz
x,y,z
-x,-y,-z
loop_
_atom_site_type_symbol
_atom_site_label
_atom_site_fract_x
_atom_site_fract_y
_atom_site_fract_z
Si Si1 0.923561 0.654805 0.612880
Si Si2 0.665969 0.346565 0.675025
Si Si3 0.077181 0.556449 0.154365
Si Si4 0.166562 0.371313 0.583823
Si Si5 0.509785 0.321802 0.397698
Si Si6 0.167142 0.867738 0.019449
Si Si7 0.323994 0.400783 0.967908
Si Si8 0.871681 0.807062 0.242254
O O1 0.776036 0.429057 0.612371
O O2 0.881923 0.792892 0.530280
O O3 0.043218 0.511439 0.595100
O O4 0.998085 0.890814 0.715638
O O5 0.773422 0.423608 0.778575
O O6 0.568161 0.545442 0.674025
O O7 0.572098 0.013386 0.630784
O O8 0.985357 0.274254 0.065345
O O9 0.959872 0.596370 0.212369
O O10 0.120810 0.814576 0.111154
O O11 0.322904 0.607048 0.603033
O O12 0.181833 0.224130 0.665187
O O13 0.500000 0.500000 0.500000
O O14 0.263871 0.662084 0.996070
O O15 0.257238 0.171896 0.017196
O O16 0.253247 0.249614 0.852626
O O17 0.500000 0.500000 0.000000
#
# Coordination Sequence:
#
# PCOD9042622 Si02
#       8
#     2   2   2   2   2   2   2   2
#     4  11  24  44  74  98 141 189 248 287 346 420
#     4  12  25  45  72 102 137 189 235 286 351 417
#     4  10  23  44  73 105 135 179 241 297 347 412
#     4  11  26  43  69 105 141 193 238 292 355 416
#     4  12  28  46  68 100 149 185 230 295 357 413
#     4  10  24  45  71 105 138 177 232 296 349 413
#     4  11  25  45  72 100 145 185 225 285 363 430
#     4  11  24  43  72 103 139 183 245 293 344 422
#
# _framework density 23.289204000000002
#
# number of rings (size 3 to 8) (size 9 to 14) (size 15 to 20)
#    0.000    1.000    2.500    2.625    3.500   10.500 
#    0.000    0.000    0.000    0.000    0.000    0.000 
#    0.000    0.000    0.000    0.000    0.000    0.000 
#
# Total GULP energy -89543.954249 kJ/mol
# GULP energy per Si atom -5596.497141 kJ/mol
# Density = 2.323620 g / cm^3
# Si number density = 23.289204 Si / 1000 Ang^3
#
#
#
# Elastic Constant Matrix: (Units=GPa)
#
#
# Indices 1 2 3 4 5 6 
#
# 1 106.6588 46.6864 32.8337 1.7634 18.7503 24.0397
# 2 46.6864 135.4654 31.5666 -7.9213 3.6587 22.4190
# 3 32.8337 31.5666 120.3031 -16.4263 19.5231 11.6192
# 4 1.7634 -7.9213 -16.4263 31.3676 -0.7953 1.9481
# 5 18.7503 3.6587 19.5231 -0.7953 34.9557 1.4218
# 6 24.0397 22.4190 11.6192 1.9481 1.4218 40.2612
#
#
#
# Elastic Compliance Matrix: (Units=1/GPa)
#
#
# Indices 1 2 3 4 5 6 
#
# 1 0.013684 -0.003396 -0.001677 -0.002314 -0.005878 -0.005476
# 2 -0.003396 0.009421 -0.001234 0.002155 0.001697 -0.003026
# 3 -0.001677 -0.001234 0.010752 0.005385 -0.004793 -0.001506
# 4 -0.002314 0.002155 0.005385 0.035537 -0.001059 -0.003055
# 5 -0.005878 0.001697 -0.004793 -0.001059 0.034122 0.002795
# 6 -0.005476 -0.003026 -0.001506 -0.003055 0.002795 0.030277
#
#
# Mechanical properties :
#
#
# Convention : Reuss Voigt Hill
#
# Bulk Modulus (GPa) = 47.07115 64.95562 56.01339
# Shear Modulus (GPa) = 32.57588 38.07294 35.32441
#
# Velocity S-wave (km/s) = 3.74405 4.04764 3.89880
# Velocity P-wave (km/s) = 6.24067 7.05662 6.66115
#
# Compressibility (1/GPa) = 0.02124443
#
# Stress axis : x y z
#
# Youngs Moduli (GPa) = 73.07749 106.14835 93.00263
#
# Poissons Ratio (x) = 0.36043 0.15595
# Poissons Ratio (y) = 0.24814 0.11477
# Poissons Ratio (z) = 0.12254 0.13099
#
# Static dielectric constant tensor:
#      x y z
#    x 1.909490 -0.063050 -0.037350 
#    y -0.063050 1.910820 -0.018720 
#    z -0.037350 -0.018720 1.952520 
# 
# From -- ./inp_files/488580.got.cif
#   From: 2010.05.17/outbox.cif.g08.bks.cpg/sg2_245_cif.got.tgz:488580.got - 2010.06.03 11:33:40.
