data_PCOD9042716
_publ_section_title
;
Structure prediction by ZEFSAII (Michael W. Deem and Ramdas Pophale) SiO2 
 PCOD9042716
Probable space group: P -1
;
_chemical_formula_sum "Si O2"
_cell_formula_units_Z 16
_cell_length_a 11.097417
_cell_length_b 8.719981
_cell_length_c 8.215158
_cell_angle_alpha 119.110631
_cell_angle_beta 69.495862
_cell_angle_gamma 113.147167
_cell_volume 626.002795
_symmetry_space_group_name_H-M "P -1"
_symmetry_group_IT_number 2
_symmetry_cell_setting 'triclinic'
loop_
_space_group_symop_operation_xyz
x,y,z
-x,-y,-z
loop_
_atom_site_type_symbol
_atom_site_label
_atom_site_fract_x
_atom_site_fract_y
_atom_site_fract_z
Si Si1 0.866299 0.474814 0.451830
Si Si2 0.863825 0.590550 0.161545
Si Si3 0.696033 0.286159 0.880354
Si Si4 0.626234 0.542767 0.793975
Si Si5 0.611063 0.744002 0.413137
Si Si6 0.337973 0.086443 0.164410
Si Si7 0.975687 0.035023 0.840498
Si Si8 0.220235 0.893732 0.573236
O O1 0.907927 0.560856 0.304297
O O2 0.768233 0.561262 0.646787
O O3 0.794072 0.258179 0.360248
O O4 0.000000 0.500000 0.500000
O O5 0.728261 0.648285 0.287920
O O6 0.964553 0.750891 0.102903
O O7 0.818049 0.408796 0.986643
O O8 0.629116 0.436876 0.908410
O O9 0.747276 0.198906 0.654056
O O10 0.628828 0.109907 0.934371
O O11 0.522024 0.400025 0.655779
O O12 0.610832 0.748151 0.904120
O O13 0.615711 0.813577 0.632349
O O14 0.658401 0.924793 0.371453
O O15 0.176088 0.029567 0.183342
O O16 0.080422 0.945615 0.651699
O O17 0.000000 0.000000 0.000000
#
# Coordination Sequence:
#
# PCOD9042716 Si02
#       8
#     2   2   2   2   2   2   2   2
#     4  11  24  40  72 105 141 184 232 296 350 419
#     4  11  25  44  69 104 143 178 239 287 358 421
#     4  10  25  43  66 104 135 184 226 294 352 417
#     4  11  23  47  72  98 143 182 245 286 354 415
#     4  10  23  44  74  95 131 197 234 291 345 421
#     4  11  23  42  69  99 136 182 234 288 346 424
#     4  11  25  44  70 102 142 188 236 290 354 424
#     4   9  23  44  68  97 140 182 234 278 362 407
#
# _framework density 25.558993999999998
#
# number of rings (size 3 to 8) (size 9 to 14) (size 15 to 20)
#    0.000    1.500    1.250    1.875    7.000    9.000 
#    0.000    0.625    0.000    0.000    0.000    0.000 
#    0.000    0.000    0.000    0.000    0.000    0.000 
#
# Total GULP energy -89603.892705 kJ/mol
# GULP energy per Si atom -5600.243294 kJ/mol
# Density = 2.550082 g / cm^3
# Si number density = 25.558994 Si / 1000 Ang^3
#
#
#
# Elastic Constant Matrix: (Units=GPa)
#
#
# Indices 1 2 3 4 5 6 
#
# 1 108.4681 60.4245 20.1087 0.8187 15.5400 -16.3454
# 2 60.4245 241.9838 45.0451 -1.7679 14.0671 -23.7342
# 3 20.1087 45.0451 61.0292 4.6445 19.6092 -5.8645
# 4 0.8187 -1.7679 4.6445 43.5977 -7.8991 -2.6970
# 5 15.5400 14.0671 19.6092 -7.8991 44.8047 7.1335
# 6 -16.3454 -23.7342 -5.8645 -2.6970 7.1335 43.3501
#
#
#
# Elastic Compliance Matrix: (Units=1/GPa)
#
#
# Indices 1 2 3 4 5 6 
#
# 1 0.011675 -0.002232 -0.000566 -0.000712 -0.003814 0.003687
# 2 -0.002232 0.005455 -0.003312 0.000789 0.000382 0.001683
# 3 -0.000566 -0.003312 0.022723 -0.004176 -0.009828 0.002405
# 4 -0.000712 0.000789 -0.004176 0.024546 0.006136 0.000116
# 5 -0.003814 0.000382 -0.009828 0.006136 0.030039 -0.007120
# 6 0.003687 0.001683 0.002405 0.000116 -0.007120 0.026884
#
#
# Mechanical properties :
#
#
# Convention : Reuss Voigt Hill
#
# Bulk Modulus (GPa) = 36.18707 73.62640 54.90673
# Shear Modulus (GPa) = 35.02577 45.41070 40.21823
#
# Velocity S-wave (km/s) = 3.70589 4.21967 3.97110
# Velocity P-wave (km/s) = 5.70092 7.25326 6.52343
#
# Compressibility (1/GPa) = 0.02763418
#
# Stress axis : x y z
#
# Youngs Moduli (GPa) = 85.65474 183.31843 44.00761
#
# Poissons Ratio (x) = 0.40914 0.02489
# Poissons Ratio (y) = 0.19117 0.14575
# Poissons Ratio (z) = 0.04845 0.60715
#
# Static dielectric constant tensor:
#      x y z
#    x 2.024500 -0.046790 -0.060140 
#    y -0.046790 2.066960 0.010160 
#    z -0.060140 0.010160 1.955160 
# 
# From -- ./inp_files/245484.got.cif
#   From: 2010.05.17/outbox.cif.g08.bks.cpg/sg2_123_cif.got.tgz:245484.got - 2010.06.03 11:33:40.
