data_PCOD9042906
_publ_section_title
;
Structure prediction by ZEFSAII (Michael W. Deem and Ramdas Pophale) SiO2 
 PCOD9042906
Probable space group: P -1
;
_chemical_formula_sum "Si O2"
_cell_formula_units_Z 14
_cell_length_a 5.482011
_cell_length_b 8.731380
_cell_length_c 26.944296
_cell_angle_alpha 31.090286
_cell_angle_beta 114.364464
_cell_angle_gamma 122.142059
_cell_volume 561.171416
_symmetry_space_group_name_H-M "P -1"
_symmetry_group_IT_number 2
_symmetry_cell_setting 'triclinic'
loop_
_space_group_symop_operation_xyz
x,y,z
-x,-y,-z
loop_
_atom_site_type_symbol
_atom_site_label
_atom_site_fract_x
_atom_site_fract_y
_atom_site_fract_z
Si Si1 0.620117 0.857686 0.315319
Si Si2 0.417729 0.294111 0.927012
Si Si3 0.786809 0.300849 0.494056
Si Si4 0.027390 0.729801 0.852748
Si Si5 0.839871 0.872114 0.947715
Si Si6 0.933199 0.237828 0.760135
Si Si7 0.780873 0.028817 0.395976
O O1 0.729906 0.581073 0.382287
O O2 0.287311 0.740166 0.305655
O O3 0.666420 0.913374 0.362553
O O4 0.800254 0.173365 0.211130
O O5 0.682287 0.611689 0.844991
O O6 0.399922 0.267772 0.991937
O O7 0.098189 0.180661 0.908016
O O8 0.500000 0.000000 0.000000
O O9 0.000000 0.500000 0.500000
O O10 0.480921 0.102412 0.550146
O O11 0.955151 0.097596 0.539095
O O12 0.115609 0.041279 0.808211
O O13 0.060557 0.427195 0.966066
O O14 0.756434 0.004484 0.854439
O O15 0.104501 0.589431 0.697091
#
# Coordination Sequence:
#
# PCOD9042906 Si02
#       7
#     2   2   2   2   2   2   2
#     4  11  27  46  76 107 144 191 248 306 379 447
#     4   9  21  41  72  95 136 196 243 300 362 433
#     4  10  24  52  82 109 149 198 244 314 383 446
#     4  11  25  44  68 106 146 195 243 308 365 446
#     4  10  23  45  66 105 146 194 246 301 371 435
#     4  12  29  42  73 109 147 196 248 306 372 449
#     4  11  28  50  80 111 151 195 251 310 379 451
#
# _framework density 24.947814000000001
#
# number of rings (size 3 to 8) (size 9 to 14) (size 15 to 20)
#    0.000    1.429    0.000    3.000   16.000    5.714 
#    0.000    0.000    0.000    0.000    0.000    0.000 
#    0.000    0.000    0.000    0.000    0.000    0.000 
#
# Total GULP energy -78339.517091 kJ/mol
# GULP energy per Si atom -5595.679792 kJ/mol
# Density = 2.489103 g / cm^3
# Si number density = 24.947814 Si / 1000 Ang^3
#
#
#
# Elastic Constant Matrix: (Units=GPa)
#
#
# Indices 1 2 3 4 5 6 
#
# 1 130.5172 27.8645 39.6821 -10.5278 -2.5304 -4.2778
# 2 27.8645 79.1533 43.5510 -6.1879 8.3005 -1.6946
# 3 39.6821 43.5510 131.9745 -19.4606 9.9959 2.7089
# 4 -10.5278 -6.1879 -19.4606 33.4733 -4.0228 7.7586
# 5 -2.5304 8.3005 9.9959 -4.0228 45.4355 -10.9004
# 6 -4.2778 -1.6946 2.7089 7.7586 -10.9004 25.9338
#
#
#
# Elastic Compliance Matrix: (Units=1/GPa)
#
#
# Indices 1 2 3 4 5 6 
#
# 1 0.008910 -0.002100 -0.002026 0.000990 0.001905 0.002049
# 2 -0.002100 0.016093 -0.004656 -0.000766 -0.001957 0.000598
# 3 -0.002026 -0.004656 0.010791 0.005518 -0.002188 -0.004336
# 4 0.000990 -0.000766 0.005518 0.035831 -0.000588 -0.011430
# 5 0.001905 -0.001957 -0.002188 -0.000588 0.025628 0.011363
# 6 0.002049 0.000598 -0.004336 -0.011430 0.011363 0.047585
#
#
# Mechanical properties :
#
#
# Convention : Reuss Voigt Hill
#
# Bulk Modulus (GPa) = 54.85751 62.64892 58.75321
# Shear Modulus (GPa) = 29.67694 36.33833 33.00764
#
# Velocity S-wave (km/s) = 3.45274 3.82065 3.64135
# Velocity P-wave (km/s) = 6.15889 6.68054 6.42501
#
# Compressibility (1/GPa) = 0.01822905
#
# Stress axis : x y z
#
# Youngs Moduli (GPa) = 112.23020 62.13858 92.66608
#
# Poissons Ratio (x) = 0.13051 0.18778
# Poissons Ratio (y) = 0.23571 0.43147
# Poissons Ratio (z) = 0.22742 0.28933
#
# Static dielectric constant tensor:
#      x y z
#    x 2.078180 -0.005930 0.056560 
#    y -0.005930 1.991990 -0.009820 
#    z 0.056560 -0.009820 1.994500 
# 
# From -- ./inp_files/615217.got.cif
#   From: 2010.05.17/outbox.cif.g08.bks.cpg/sg2_308_cif.got.tgz:615217.got - 2010.06.03 11:33:40.
