data_PCOD9042715
_publ_section_title
;
Structure prediction by ZEFSAII (Michael W. Deem and Ramdas Pophale) SiO2 
 PCOD9042715
Probable space group: P -1
;
_chemical_formula_sum "Si O2"
_cell_formula_units_Z 14
_cell_length_a 9.293415
_cell_length_b 13.481463
_cell_length_c 9.088605
_cell_angle_alpha 56.970865
_cell_angle_beta 53.903588
_cell_angle_gamma 44.813706
_cell_volume 632.127831
_symmetry_space_group_name_H-M "P -1"
_symmetry_group_IT_number 2
_symmetry_cell_setting 'triclinic'
loop_
_space_group_symop_operation_xyz
x,y,z
-x,-y,-z
loop_
_atom_site_type_symbol
_atom_site_label
_atom_site_fract_x
_atom_site_fract_y
_atom_site_fract_z
Si Si1 0.090083 0.776621 0.653022
Si Si2 0.188388 0.496260 0.297893
Si Si3 0.549426 0.698147 0.453094
Si Si4 0.663741 0.985535 0.588471
Si Si5 0.309051 0.948169 0.811704
Si Si6 0.902276 0.210536 0.007860
Si Si7 0.967175 0.466695 0.208270
O O1 0.319393 0.743482 0.493139
O O2 0.067088 0.659506 0.681296
O O3 0.094380 0.770075 0.833862
O O4 0.873931 0.925214 0.610017
O O5 0.393991 0.400974 0.355818
O O6 0.139747 0.650348 0.163486
O O7 0.000000 0.500000 0.500000
O O8 0.172278 0.430758 0.209525
O O9 0.513980 0.845950 0.405954
O O10 0.749584 0.606489 0.296567
O O11 0.544864 0.906211 0.749559
O O12 0.729773 0.976767 0.385878
O O13 0.130582 0.066369 0.935982
O O14 0.271125 0.823843 0.908207
O O15 0.000000 0.500000 0.000000
#
# Coordination Sequence:
#
# PCOD9042715 Si02
#       7
#     2   2   2   2   2   2   2
#     4  12  26  44  67 105 146 183 231 289 346 421
#     4  10  23  44  74  94 138 182 233 284 351 413
#     4  11  25  47  70 103 140 191 228 286 350 421
#     4  11  25  46  72 101 140 190 233 280 358 414
#     4  10  24  44  72 101 139 184 240 284 346 419
#     4  11  23  46  68 108 137 180 239 295 340 417
#     4  11  24  46  69 106 141 178 236 289 354 410
#
# _framework density 22.147421000000001
#
# number of rings (size 3 to 8) (size 9 to 14) (size 15 to 20)
#    0.000    1.143    2.857    2.571    8.000    1.143 
#    2.571    0.000    0.000    0.000    0.000    0.000 
#    0.000    0.000    0.000    0.000    0.000    0.000 
#
# Total GULP energy -78275.078330 kJ/mol
# GULP energy per Si atom -5591.077024 kJ/mol
# Density = 2.209701 g / cm^3
# Si number density = 22.147421 Si / 1000 Ang^3
#
#
#
# Elastic Constant Matrix: (Units=GPa)
#
#
# Indices 1 2 3 4 5 6 
#
# 1 131.2601 25.2499 27.3682 -7.1290 -13.1025 -4.9767
# 2 25.2499 96.2482 17.2663 13.2499 3.1514 -1.9383
# 3 27.3682 17.2663 63.9143 14.1830 -2.8449 -7.8862
# 4 -7.1290 13.2499 14.1830 36.9601 9.8223 -4.4667
# 5 -13.1025 3.1514 -2.8449 9.8223 39.5802 -5.9274
# 6 -4.9767 -1.9383 -7.8862 -4.4667 -5.9274 35.8831
#
#
#
# Elastic Compliance Matrix: (Units=1/GPa)
#
#
# Indices 1 2 3 4 5 6 
#
# 1 0.009356 -0.002302 -0.003963 0.003690 0.002250 0.001133
# 2 -0.002302 0.011816 -0.001449 -0.003957 -0.000921 -0.000644
# 3 -0.003963 -0.001449 0.020100 -0.008312 0.002792 0.003216
# 4 0.003690 -0.003957 -0.008312 0.034529 -0.007398 0.001547
# 5 0.002250 -0.000921 0.002792 -0.007398 0.028826 0.004717
# 6 0.001133 -0.000644 0.003216 0.001547 0.004717 0.029669
#
#
# Mechanical properties :
#
#
# Convention : Reuss Voigt Hill
#
# Bulk Modulus (GPa) = 38.69465 47.91017 43.30241
# Shear Modulus (GPa) = 31.57822 37.25389 34.41606
#
# Velocity S-wave (km/s) = 3.78010 4.10577 3.94630
# Velocity P-wave (km/s) = 6.04661 6.64499 6.35285
#
# Compressibility (1/GPa) = 0.02584337
#
# Stress axis : x y z
#
# Youngs Moduli (GPa) = 106.88885 84.63420 49.75196
#
# Poissons Ratio (x) = 0.19484 0.19716
# Poissons Ratio (y) = 0.24608 0.07207
# Poissons Ratio (z) = 0.42359 0.12260
#
# Static dielectric constant tensor:
#      x y z
#    x 1.813610 0.017340 -0.026080 
#    y 0.017340 1.897960 -0.027660 
#    z -0.026080 -0.027660 1.801410 
# 
# From -- ./inp_files/158069.got.cif
#   From: 2010.05.17/outbox.cif.g08.bks.cpg/sg2_80_cif.got.tgz:158069.got - 2010.06.03 11:33:40.
