data_PCOD9042485
_publ_section_title
;
Structure prediction by ZEFSAII (Michael W. Deem and Ramdas Pophale) SiO2 
 PCOD9042485
Probable space group: P -1
;
_chemical_formula_sum "Si O2"
_cell_formula_units_Z 13
_cell_length_a 8.661563
_cell_length_b 9.792254
_cell_length_c 11.919021
_cell_angle_alpha 36.156591
_cell_angle_beta 128.355740
_cell_angle_gamma 112.690355
_cell_volume 452.961055
_symmetry_space_group_name_H-M "P -1"
_symmetry_group_IT_number 2
_symmetry_cell_setting 'triclinic'
loop_
_space_group_symop_operation_xyz
x,y,z
-x,-y,-z
loop_
_atom_site_type_symbol
_atom_site_label
_atom_site_fract_x
_atom_site_fract_y
_atom_site_fract_z
Si Si1 0.725567 0.517420 0.567936
Si Si2 0.269517 0.568178 0.987895
Si Si3 0.000000 0.000000 0.000000
Si Si4 0.728454 0.873630 0.161390
Si Si5 0.307036 0.344669 0.919132
Si Si6 0.804585 0.777852 0.633097
Si Si7 0.857150 0.125959 0.601527
O O1 0.500000 0.500000 0.500000
O O2 0.753924 0.610009 0.395430
O O3 0.733267 0.745139 0.498545
O O4 0.892989 0.273987 0.828729
O O5 0.456895 0.688618 0.985314
O O6 0.258998 0.436543 0.187141
O O7 0.299547 0.373648 0.029356
O O8 0.046421 0.730223 0.759734
O O9 0.159640 0.910708 0.248699
O O10 0.778788 0.850741 0.063747
O O11 0.898154 0.973994 0.229968
O O12 0.500000 0.000000 0.000000
O O13 0.195603 0.604242 0.648089
O O14 0.744002 0.994949 0.548552
#
# Coordination Sequence:
#
# PCOD9042485 Si02
#       7
#     2   2   1   2   2   2   2
#     4  12  27  51  79 112 154 200 263 311 394 462
#     4  10  23  44  72 100 151 192 252 308 382 448
#     4  12  26  48  76 110 150 202 250 322 372 460
#     4  12  26  47  75 107 153 200 254 319 381 461
#     4  11  24  45  71 111 147 197 258 315 376 465
#     4  11  25  47  73 107 152 203 244 322 379 466
#     4  12  27  43  74 108 151 198 256 308 391 452
#
# _framework density 28.700039
#
# number of rings (size 3 to 8) (size 9 to 14) (size 15 to 20)
#    0.000    0.615    1.538    6.000    4.308    5.538 
#    2.769    0.000    0.000    0.000    0.000    0.000 
#    0.000    0.000    0.000    0.000    0.000    0.000 
#
# Total GULP energy -72706.790235 kJ/mol
# GULP energy per Si atom -5592.830018 kJ/mol
# Density = 2.863472 g / cm^3
# Si number density = 28.700039 Si / 1000 Ang^3
#
#
#
# Elastic Constant Matrix: (Units=GPa)
#
#
# Indices 1 2 3 4 5 6 
#
# 1 104.2491 24.5248 34.1017 13.1781 8.6246 -29.4572
# 2 24.5248 199.6179 11.6059 5.3068 -6.2384 -5.1557
# 3 34.1017 11.6059 138.8771 -10.2184 -21.9107 -11.0524
# 4 13.1781 5.3068 -10.2184 35.4274 2.4977 -10.1490
# 5 8.6246 -6.2384 -21.9107 2.4977 51.7524 11.0264
# 6 -29.4572 -5.1557 -11.0524 -10.1490 11.0264 46.6766
#
#
#
# Elastic Compliance Matrix: (Units=1/GPa)
#
#
# Indices 1 2 3 4 5 6 
#
# 1 0.014657 -0.001438 -0.003978 -0.003432 -0.006014 0.008823
# 2 -0.001438 0.005215 -0.000013 -0.000521 0.001036 -0.000693
# 3 -0.003978 -0.000013 0.009100 0.003611 0.004474 -0.000629
# 4 -0.003432 -0.000521 0.003611 0.032352 -0.000769 0.005848
# 5 -0.006014 0.001036 0.004474 -0.000769 0.024193 -0.008504
# 6 0.008823 -0.000693 -0.000629 0.005848 -0.008504 0.030047
#
#
# Mechanical properties :
#
#
# Convention : Reuss Voigt Hill
#
# Bulk Modulus (GPa) = 55.20616 64.80099 60.00357
# Shear Modulus (GPa) = 37.74699 51.60540 44.67619
#
# Velocity S-wave (km/s) = 3.63054 4.24500 3.94973
# Velocity P-wave (km/s) = 6.07056 6.83040 6.46166
#
# Compressibility (1/GPa) = 0.01811392
#
# Stress axis : x y z
#
# Youngs Moduli (GPa) = 68.22828 191.74161 109.89060
#
# Poissons Ratio (x) = 0.27577 0.43715
# Poissons Ratio (y) = 0.09813 0.00140
# Poissons Ratio (z) = 0.27141 0.00245
#
# Static dielectric constant tensor:
#      x y z
#    x -0.468550 -0.424420 0.644190 
#    y -0.424420 2.132580 0.074460 
#    z 0.644190 0.074460 2.060480 
# 
# From -- ./inp_files/377801.got.cif
#   From: 2010.05.17/outbox.cif.g08.bks.cpg/sg2_189_cif.got.tgz:377801.got - 2010.06.03 11:33:40.
