data_PCOD9042893
_publ_section_title
;
Structure prediction by ZEFSAII (Michael W. Deem and Ramdas Pophale) SiO2 
 PCOD9042893
Probable space group: P -1
;
_chemical_formula_sum "Si O2"
_cell_formula_units_Z 16
_cell_length_a 17.512469
_cell_length_b 14.169442
_cell_length_c 25.595883
_cell_angle_alpha 157.559109
_cell_angle_beta 161.752447
_cell_angle_gamma 23.179802
_cell_volume 711.996066
_symmetry_space_group_name_H-M "P -1"
_symmetry_group_IT_number 2
_symmetry_cell_setting 'triclinic'
loop_
_space_group_symop_operation_xyz
x,y,z
-x,-y,-z
loop_
_atom_site_type_symbol
_atom_site_label
_atom_site_fract_x
_atom_site_fract_y
_atom_site_fract_z
Si Si1 0.995137 0.939344 0.096726
Si Si2 0.822996 0.301395 0.334229
Si Si3 0.362955 0.523299 0.506035
Si Si4 0.953719 0.799639 0.110238
Si Si5 0.256363 0.997242 0.196262
Si Si6 0.637978 0.102684 0.210775
Si Si7 0.890192 0.422836 0.739989
Si Si8 0.269685 0.521283 0.753426
O O1 0.766952 0.215253 0.102535
O O2 0.085343 0.825169 0.154360
O O3 0.196448 0.996664 0.218624
O O4 0.917973 0.708673 0.901913
O O5 0.635068 0.257994 0.234247
O O6 0.705922 0.425954 0.265921
O O7 0.001371 0.460997 0.552461
O O8 0.015387 0.002573 0.292873
O O9 0.290476 0.730307 0.611736
O O10 0.663477 0.454273 0.650386
O O11 0.202957 0.637325 0.407844
O O12 0.318325 0.255730 0.354801
O O13 0.639112 0.913752 0.962843
O O14 0.000000 0.500000 0.000000
O O15 0.493062 0.728392 0.201239
O O16 0.000000 0.000000 0.000000
O O17 0.848872 0.811197 0.195085
#
# Coordination Sequence:
#
# PCOD9042893 Si02
#       8
#     2   2   2   2   2   2   2   2
#     4  11  24  45  68 100 134 183 225 280 348 401
#     4  10  23  45  66 100 134 185 226 282 344 398
#     4  11  25  45  67 105 136 181 229 285 343 411
#     4  11  25  41  68 103 137 178 231 285 346 405
#     4  12  26  44  70 101 139 184 230 278 343 411
#     4  12  24  42  73  99 135 180 227 287 350 406
#     4  11  24  45  71  99 139 176 232 289 343 408
#     4  10  25  46  68  96 145 178 231 283 335 417
#
# _framework density 22.472034000000001
#
# number of rings (size 3 to 8) (size 9 to 14) (size 15 to 20)
#    0.000    1.000    2.500    3.000    7.000    0.500 
#    4.500    2.500    0.000    0.000    0.000    0.000 
#    0.000    0.000    0.000    0.000    0.000    0.000 
#
# Total GULP energy -89500.549967 kJ/mol
# GULP energy per Si atom -5593.784373 kJ/mol
# Density = 2.242089 g / cm^3
# Si number density = 22.472034 Si / 1000 Ang^3
#
#
#
# Elastic Constant Matrix: (Units=GPa)
#
#
# Indices 1 2 3 4 5 6 
#
# 1 87.8265 6.2111 1.6904 16.6911 13.7713 -1.2087
# 2 6.2111 108.2786 40.3690 7.7862 6.3476 -0.1017
# 3 1.6904 40.3690 71.2849 23.7012 3.7212 0.9194
# 4 16.6911 7.7862 23.7012 30.9892 -1.8699 -2.6656
# 5 13.7713 6.3476 3.7212 -1.8699 46.4763 12.6061
# 6 -1.2087 -0.1017 0.9194 -2.6656 12.6061 23.5671
#
#
#
# Elastic Compliance Matrix: (Units=1/GPa)
#
#
# Indices 1 2 3 4 5 6 
#
# 1 0.014328 -0.001304 0.004232 -0.010761 -0.005453 0.002264
# 2 -0.001304 0.012092 -0.008089 0.003904 -0.000774 0.001156
# 3 0.004232 -0.008089 0.025269 -0.019871 -0.002508 -0.001710
# 4 -0.010761 0.003904 -0.019871 0.052896 0.005482 0.003291
# 5 -0.005453 -0.000774 -0.002508 0.005482 0.027536 -0.014294
# 6 0.002264 0.001156 -0.001710 0.003291 -0.014294 0.050638
#
#
# Mechanical properties :
#
#
# Convention : Reuss Voigt Hill
#
# Bulk Modulus (GPa) = 24.17446 40.43677 32.30562
# Shear Modulus (GPa) = 24.16971 34.81450 29.49211
#
# Velocity S-wave (km/s) = 3.28311 3.94030 3.62662
# Velocity P-wave (km/s) = 5.01524 6.22372 5.65187
#
# Compressibility (1/GPa) = 0.04136597
#
# Stress axis : x y z
#
# Youngs Moduli (GPa) = 69.79296 82.70039 39.57460
#
# Poissons Ratio (x) = 0.10785 -0.16748
# Poissons Ratio (y) = 0.09101 0.32013
# Poissons Ratio (z) = -0.29536 0.66898
#
# Static dielectric constant tensor:
#      x y z
#    x 1.853650 0.001570 -0.044960 
#    y 0.001570 1.842260 0.023340 
#    z -0.044960 0.023340 1.855420 
# 
# From -- ./inp_files/620492.got.cif
#   From: 2010.05.17/outbox.cif.g08.bks.cpg/sg2_311_cif.got.tgz:620492.got - 2010.06.03 11:33:40.
