data_PCOD9042697
_publ_section_title
;
Structure prediction by ZEFSAII (Michael W. Deem and Ramdas Pophale) SiO2 
 PCOD9042697
Probable space group: P -1
;
_chemical_formula_sum "Si O2"
_cell_formula_units_Z 14
_cell_length_a 23.331345
_cell_length_b 8.649579
_cell_length_c 9.292857
_cell_angle_alpha 54.828479
_cell_angle_beta 40.888229
_cell_angle_gamma 30.041886
_cell_volume 596.720373
_symmetry_space_group_name_H-M "P -1"
_symmetry_group_IT_number 2
_symmetry_cell_setting 'triclinic'
loop_
_space_group_symop_operation_xyz
x,y,z
-x,-y,-z
loop_
_atom_site_type_symbol
_atom_site_label
_atom_site_fract_x
_atom_site_fract_y
_atom_site_fract_z
Si Si1 0.440743 0.173005 0.171035
Si Si2 0.123740 0.519031 0.620950
Si Si3 0.381371 0.088769 0.759520
Si Si4 0.154516 0.777933 0.758999
Si Si5 0.159857 0.012692 0.891682
Si Si6 0.669985 0.233341 0.016903
Si Si7 0.055254 0.221863 0.455196
O O1 0.286573 0.333693 0.421259
O O2 0.402227 0.460807 0.080519
O O3 0.582336 0.922389 0.140437
O O4 0.500000 0.000000 0.000000
O O5 0.137676 0.268827 0.749298
O O6 0.063921 0.656617 0.496662
O O7 0.990791 0.797050 0.839824
O O8 0.233681 0.437479 0.792579
O O9 0.500000 0.000000 0.500000
O O10 0.414054 0.815915 0.807974
O O11 0.215924 0.804917 0.755787
O O12 0.127297 0.945163 0.576387
O O13 0.000000 0.000000 0.000000
O O14 0.283928 0.794750 0.894999
O O15 0.817900 0.928809 0.811571
O O16 0.000000 0.500000 0.500000
#
# Coordination Sequence:
#
# PCOD9042697 Si02
#       7
#     2   2   2   2   2   2   2
#     4  12  28  47  73 103 147 193 243 296 364 445
#     4  10  24  44  72 107 143 188 238 301 366 422
#     4  12  28  49  71 105 150 193 239 296 368 437
#     4  12  27  42  75 107 145 189 245 296 359 430
#     4  10  23  44  74 105 144 184 244 303 358 426
#     4  11  26  47  72 105 144 191 241 297 363 428
#     4  11  23  43  74 110 143 183 237 308 355 424
#
# _framework density 23.461576000000001
#
# number of rings (size 3 to 8) (size 9 to 14) (size 15 to 20)
#    0.000    0.857    1.429    3.857   14.000    2.286 
#    0.000    2.857    0.000    0.000    0.000    0.000 
#    0.000    0.000    0.000    0.000    0.000    0.000 
#
# Total GULP energy -78223.281061 kJ/mol
# GULP energy per Si atom -5587.377219 kJ/mol
# Density = 2.340818 g / cm^3
# Si number density = 23.461576 Si / 1000 Ang^3
#
#
#
# Elastic Constant Matrix: (Units=GPa)
#
#
# Indices 1 2 3 4 5 6 
#
# 1 84.6759 22.2508 29.6345 -28.3856 3.6381 -16.7643
# 2 22.2508 95.2156 21.2710 -20.8141 -1.5097 1.1219
# 3 29.6345 21.2710 85.9498 -20.8747 -12.7398 0.2895
# 4 -28.3856 -20.8141 -20.8747 37.0629 -4.2560 1.9134
# 5 3.6381 -1.5097 -12.7398 -4.2560 44.7822 -13.3041
# 6 -16.7643 1.1219 0.2895 1.9134 -13.3041 47.3176
#
#
#
# Elastic Compliance Matrix: (Units=1/GPa)
#
#
# Indices 1 2 3 4 5 6 
#
# 1 0.018200 -0.001147 -0.003218 0.011217 0.000467 0.006173
# 2 -0.001147 0.012244 -0.001264 0.005375 0.000423 -0.000787
# 3 -0.003218 -0.001264 0.015281 0.006022 0.005138 -0.000003
# 4 0.011217 0.005375 0.006022 0.042492 0.006157 0.003823
# 5 0.000467 0.000423 0.005138 0.006157 0.026533 0.007335
# 6 0.006173 -0.000787 -0.000003 0.003823 0.007335 0.025247
#
#
# Mechanical properties :
#
#
# Convention : Reuss Voigt Hill
#
# Bulk Modulus (GPa) = 29.01448 45.79488 37.40468
# Shear Modulus (GPa) = 30.72308 38.67820 34.70064
#
# Velocity S-wave (km/s) = 3.62264 4.06467 3.85000
# Velocity P-wave (km/s) = 5.46732 6.44905 5.97837
#
# Compressibility (1/GPa) = 0.03446555
#
# Stress axis : x y z
#
# Youngs Moduli (GPa) = 54.94577 81.67371 65.43938
#
# Poissons Ratio (x) = 0.09372 0.21062
# Poissons Ratio (y) = 0.06305 0.08270
# Poissons Ratio (z) = 0.17684 0.10321
#
# Static dielectric constant tensor:
#      x y z
#    x 2.069010 0.005900 -0.023440 
#    y 0.005900 1.865580 -0.002090 
#    z -0.023440 -0.002090 1.859280 
# 
# From -- ./inp_files/298075.got.cif
#   From: 2010.05.17/outbox.cif.g08.bks.cpg/sg2_150_cif.got.tgz:298075.got - 2010.06.03 11:33:40.
