data_PCOD9042013
_publ_section_title
;
Structure prediction by ZEFSAII (Michael W. Deem and Ramdas Pophale) SiO2 
 PCOD9042013
Probable space group: P -1
;
_chemical_formula_sum "Si O2"
_cell_formula_units_Z 16
_cell_length_a 15.172041
_cell_length_b 11.609017
_cell_length_c 9.365285
_cell_angle_alpha 120.939969
_cell_angle_beta 66.774008
_cell_angle_gamma 61.093627
_cell_volume 639.859910
_symmetry_space_group_name_H-M "P -1"
_symmetry_group_IT_number 2
_symmetry_cell_setting 'triclinic'
loop_
_space_group_symop_operation_xyz
x,y,z
-x,-y,-z
loop_
_atom_site_type_symbol
_atom_site_label
_atom_site_fract_x
_atom_site_fract_y
_atom_site_fract_z
Si Si1 0.792296 0.317479 0.872054
Si Si2 0.748011 0.502302 0.728285
Si Si3 0.035178 0.364651 0.530371
Si Si4 0.254983 0.677625 0.655355
Si Si5 0.234881 0.158256 0.769546
Si Si6 0.537309 0.313530 0.495377
Si Si7 0.351749 0.107582 0.345117
Si Si8 0.091358 0.663563 0.924622
O O1 0.698329 0.487854 0.897473
O O2 0.635443 0.418180 0.121384
O O3 0.837374 0.382361 0.994318
O O4 0.000000 0.000000 0.500000
O O5 0.959239 0.312067 0.495774
O O6 0.737833 0.405926 0.550882
O O7 0.583548 0.814530 0.999634
O O8 0.000000 0.500000 0.500000
O O9 0.245506 0.134602 0.320358
O O10 0.891277 0.586126 0.891969
O O11 0.442366 0.410483 0.464282
O O12 0.285487 0.799371 0.702716
O O13 0.082883 0.815470 0.943043
O O14 0.299158 0.135933 0.561886
O O15 0.399968 0.899662 0.603802
O O16 0.098843 0.194639 0.850273
O O17 0.246727 0.378567 0.562957
#
# Coordination Sequence:
#
# PCOD9042013 Si02
#       8
#     2   2   2   2   2   2   2   2
#     4  11  25  45  67 103 133 178 238 290 342 412
#     4  12  25  43  74 103 137 182 226 294 353 401
#     4  11  26  43  66 110 142 177 228 292 347 410
#     4  10  25  45  63 102 135 182 231 274 347 416
#     4  11  22  43  72  97 138 185 228 282 344 413
#     4  10  24  47  68  95 137 186 233 280 344 416
#     4  11  24  44  72 105 140 179 235 283 347 423
#     4  10  23  44  68  98 140 183 223 279 349 416
#
# _framework density 25.005472999999999
#
# number of rings (size 3 to 8) (size 9 to 14) (size 15 to 20)
#    0.000    1.250    1.250    4.500    7.000    5.000 
#    9.000    0.000    0.000    0.000    0.000    0.000 
#    0.000    0.000    0.000    0.000    0.000    0.000 
#
# Total GULP energy -89570.746796 kJ/mol
# GULP energy per Si atom -5598.171675 kJ/mol
# Density = 2.494856 g / cm^3
# Si number density = 25.005473 Si / 1000 Ang^3
#
#
#
# Elastic Constant Matrix: (Units=GPa)
#
#
# Indices 1 2 3 4 5 6 
#
# 1 127.0322 10.7373 20.0195 -17.9137 -6.4587 -20.1664
# 2 10.7373 89.0475 16.4488 -20.0322 6.6247 -12.7867
# 3 20.0195 16.4488 79.6861 0.9451 -3.1073 -4.9526
# 4 -17.9137 -20.0322 0.9451 49.9819 -9.3762 1.2878
# 5 -6.4587 6.6247 -3.1073 -9.3762 24.3444 -8.1613
# 6 -20.1664 -12.7867 -4.9526 1.2878 -8.1613 50.0954
#
#
#
# Elastic Compliance Matrix: (Units=1/GPa)
#
#
# Indices 1 2 3 4 5 6 
#
# 1 0.009854 0.000521 -0.002131 0.004707 0.005582 0.004677
# 2 0.000521 0.013396 -0.002797 0.005387 -0.000753 0.003091
# 3 -0.002131 -0.002797 0.013734 -0.001916 0.001223 0.000035
# 4 0.004707 0.005387 -0.001916 0.025825 0.010889 0.004191
# 5 0.005582 -0.000753 0.001223 0.010889 0.050507 0.010124
# 6 0.004677 0.003091 0.000035 0.004191 0.010124 0.024179
#
#
# Mechanical properties :
#
#
# Convention : Reuss Voigt Hill
#
# Bulk Modulus (GPa) = 35.49852 43.35300 39.42576
# Shear Modulus (GPa) = 32.11336 41.45503 36.78419
#
# Velocity S-wave (km/s) = 3.58754 4.07607 3.83958
# Velocity P-wave (km/s) = 5.60247 6.28709 5.95463
#
# Compressibility (1/GPa) = 0.02817019
#
# Stress axis : x y z
#
# Youngs Moduli (GPa) = 101.48274 74.65076 72.80979
#
# Poissons Ratio (x) = -0.03887 0.15512
# Poissons Ratio (y) = -0.05284 0.20366
# Poissons Ratio (z) = 0.21621 0.20881
#
# Static dielectric constant tensor:
#      x y z
#    x 1.957940 -0.002030 -0.062630 
#    y -0.002030 2.020100 0.053950 
#    z -0.062630 0.053950 2.002940 
# 
# From -- ./inp_files/272651.got.cif
#   From: 2010.05.17/outbox.cif.g08.bks.cpg/sg2_137_cif.got.tgz:272651.got - 2010.06.03 11:33:40.
