data_PCOD9042073
_publ_section_title
;
Structure prediction by ZEFSAII (Michael W. Deem and Ramdas Pophale) SiO2 
 PCOD9042073
Probable space group: P -1
;
_chemical_formula_sum "Si O2"
_cell_formula_units_Z 16
_cell_length_a 14.270320
_cell_length_b 13.555839
_cell_length_c 7.796655
_cell_angle_alpha 57.623062
_cell_angle_beta 64.227074
_cell_angle_gamma 29.199648
_cell_volume 619.461035
_symmetry_space_group_name_H-M "P -1"
_symmetry_group_IT_number 2
_symmetry_cell_setting 'triclinic'
loop_
_space_group_symop_operation_xyz
x,y,z
-x,-y,-z
loop_
_atom_site_type_symbol
_atom_site_label
_atom_site_fract_x
_atom_site_fract_y
_atom_site_fract_z
Si Si1 0.953467 0.889255 0.029013
Si Si2 0.171890 0.377337 0.609054
Si Si3 0.173765 0.814068 0.399070
Si Si4 0.675961 0.967576 0.991888
Si Si5 0.186327 0.276534 0.239635
Si Si6 0.301477 0.410077 0.181795
Si Si7 0.511689 0.663893 0.399475
Si Si8 0.678191 0.070148 0.348868
O O1 0.899405 0.066433 0.835355
O O2 0.842647 0.897923 0.989421
O O3 0.873452 0.937065 0.237575
O O4 0.174081 0.645426 0.051859
O O5 0.270656 0.387624 0.419779
O O6 0.323471 0.135399 0.770100
O O7 0.000000 0.500000 0.500000
O O8 0.041086 0.531571 0.732300
O O9 0.357477 0.721309 0.384687
O O10 0.274690 0.592123 0.523847
O O11 0.000000 0.000000 0.500000
O O12 0.501531 0.208849 0.828381
O O13 0.744601 0.834661 0.892022
O O14 0.526265 0.223235 0.171556
O O15 0.234304 0.365518 0.159880
O O16 0.286449 0.095648 0.466381
O O17 0.411641 0.780353 0.555424
#
# Coordination Sequence:
#
# PCOD9042073 Si02
#       8
#     2   2   2   2   2   2   2   2
#     4  11  22  40  64  90 125 166 207 268 318 371
#     4  10  17  33  58  85 128 165 208 256 300 358
#     4  10  23  47  72  94 119 156 209 265 331 385
#     4  10  19  36  63  89 123 176 208 254 324 353
#     4  10  19  36  60  87 133 174 215 262 298 361
#     4  11  22  37  59  92 129 175 212 255 306 368
#     4   9  23  44  67  92 128 161 205 271 315 372
#     4  11  23  41  60  94 131 169 213 253 313 375
#
# _framework density 25.828906
#
# number of rings (size 3 to 8) (size 9 to 14) (size 15 to 20)
#    0.000    1.750    3.750    1.500    0.000    4.500 
#    2.250    8.125    0.000    0.000    0.000    0.000 
#    0.000    0.000    0.000    0.000    0.000    0.000 
#
# Total GULP energy -89529.894725 kJ/mol
# GULP energy per Si atom -5595.618420 kJ/mol
# Density = 2.577012 g / cm^3
# Si number density = 25.828906 Si / 1000 Ang^3
#
#
#
# Elastic Constant Matrix: (Units=GPa)
#
#
# Indices 1 2 3 4 5 6 
#
# 1 64.3116 13.0003 9.5807 0.7144 -0.2429 1.8967
# 2 13.0003 187.8586 60.8772 -36.7255 0.3101 8.4461
# 3 9.5807 60.8772 133.1937 -19.7833 13.7697 12.4653
# 4 0.7144 -36.7255 -19.7833 46.1226 -0.0185 0.1597
# 5 -0.2429 0.3101 13.7697 -0.0185 23.5293 6.5432
# 6 1.8967 8.4461 12.4653 0.1597 6.5432 32.6562
#
#
#
# Elastic Compliance Matrix: (Units=1/GPa)
#
#
# Indices 1 2 3 4 5 6 
#
# 1 0.015938 -0.001078 -0.000920 -0.001498 0.000843 -0.000457
# 2 -0.001078 0.007195 -0.002591 0.004639 0.001743 -0.001181
# 3 -0.000920 -0.002591 0.009799 0.002159 -0.005153 -0.001995
# 4 -0.001498 0.004639 0.002159 0.026330 -0.000789 -0.001907
# 5 0.000843 0.001743 -0.005153 -0.000789 0.047753 -0.008097
# 6 -0.000457 -0.001181 -0.001995 -0.001907 -0.008097 0.033347
#
#
# Mechanical properties :
#
#
# Convention : Reuss Voigt Hill
#
# Bulk Modulus (GPa) = 42.10497 61.36450 51.73474
# Shear Modulus (GPa) = 31.75439 40.58865 36.17152
#
# Velocity S-wave (km/s) = 3.51010 3.96844 3.74629
# Velocity P-wave (km/s) = 5.72404 6.69386 6.22785
#
# Compressibility (1/GPa) = 0.02375016
#
# Stress axis : x y z
#
# Youngs Moduli (GPa) = 62.74422 138.99268 102.05616
#
# Poissons Ratio (x) = 0.14989 0.09394
# Poissons Ratio (y) = 0.06766 0.26447
# Poissons Ratio (z) = 0.05776 0.36019
#
# Static dielectric constant tensor:
#      x y z
#    x 2.101780 0.017390 0.065900 
#    y 0.017390 2.083490 0.030330 
#    z 0.065900 0.030330 2.055260 
# 
# From -- ./inp_files/348863.got.cif
#   From: 2010.05.17/outbox.cif.g08.bks.cpg/sg2_175_cif.got.tgz:348863.got - 2010.06.03 11:33:40.
