data_PCOD9042637
_publ_section_title
;
Structure prediction by ZEFSAII (Michael W. Deem and Ramdas Pophale) SiO2 
 PCOD9042637
Probable space group: P -1
;
_chemical_formula_sum "Si O2"
_cell_formula_units_Z 14
_cell_length_a 11.720545
_cell_length_b 19.723885
_cell_length_c 13.904798
_cell_angle_alpha 157.191713
_cell_angle_beta 29.046132
_cell_angle_gamma 147.980485
_cell_volume 589.731620
_symmetry_space_group_name_H-M "P -1"
_symmetry_group_IT_number 2
_symmetry_cell_setting 'triclinic'
loop_
_space_group_symop_operation_xyz
x,y,z
-x,-y,-z
loop_
_atom_site_type_symbol
_atom_site_label
_atom_site_fract_x
_atom_site_fract_y
_atom_site_fract_z
Si Si1 0.520569 0.977517 0.737320
Si Si2 0.235892 0.028337 0.263222
Si Si3 0.956930 0.241175 0.108991
Si Si4 0.567999 0.852926 0.326595
Si Si5 0.091718 0.548469 0.266416
Si Si6 0.395428 0.358737 0.307038
Si Si7 0.189244 0.426470 0.830606
O O1 0.745504 0.997454 0.669886
O O2 0.584855 0.938195 0.531358
O O3 0.297679 0.818014 0.726729
O O4 0.434142 0.163740 0.048871
O O5 0.209489 0.229236 0.526367
O O6 0.069629 0.888375 0.134062
O O7 0.500000 0.000000 0.000000
O O8 0.181253 0.203339 0.954296
O O9 0.014741 0.436242 0.273293
O O10 0.347167 0.681853 0.265904
O O11 0.500000 0.000000 0.500000
O O12 0.880845 0.645875 0.517799
O O13 0.116826 0.427336 0.996288
O O14 0.500000 0.500000 0.500000
O O15 0.556491 0.437538 0.199312
O O16 0.000000 0.500000 0.000000
#
# Coordination Sequence:
#
# PCOD9042637 Si02
#       7
#     2   2   2   2   2   2   2
#     4  11  25  45  74 102 141 194 233 293 367 421
#     4  10  23  44  73 107 141 183 235 294 362 423
#     4  11  25  46  72 100 142 182 242 298 352 430
#     4  12  28  46  69 102 143 191 244 293 350 434
#     4  12  27  45  69 105 142 189 244 294 353 435
#     4  12  23  42  71 104 144 181 238 299 358 424
#     4  12  26  42  73 107 144 187 234 296 368 418
#
# _framework density 23.739612000000001
#
# number of rings (size 3 to 8) (size 9 to 14) (size 15 to 20)
#    0.000    0.571    1.429    7.286    4.000    5.143 
#    0.000    0.000    0.000    0.000    0.000    0.000 
#    0.000    0.000    0.000    0.000    0.000    0.000 
#
# Total GULP energy -78475.931840 kJ/mol
# GULP energy per Si atom -5605.423703 kJ/mol
# Density = 2.368558 g / cm^3
# Si number density = 23.739612 Si / 1000 Ang^3
#
#
#
# Elastic Constant Matrix: (Units=GPa)
#
#
# Indices 1 2 3 4 5 6 
#
# 1 100.2729 14.1315 13.6714 -6.6263 -20.5024 7.3704
# 2 14.1315 91.9660 -1.2579 4.2793 -18.2376 3.2732
# 3 13.6714 -1.2579 82.5527 7.5930 -24.0858 7.2144
# 4 -6.6263 4.2793 7.5930 42.3168 -7.1852 -3.4944
# 5 -20.5024 -18.2376 -24.0858 -7.1852 42.6164 -8.7196
# 6 7.3704 3.2732 7.2144 -3.4944 -8.7196 54.7759
#
#
#
# Elastic Compliance Matrix: (Units=1/GPa)
#
#
# Indices 1 2 3 4 5 6 
#
# 1 0.011457 -0.000858 -0.000622 0.002841 0.005190 -0.000401
# 2 -0.000858 0.012238 0.002118 -0.000751 0.005894 -0.000005
# 3 -0.000622 0.002118 0.014986 -0.001592 0.008657 -0.000740
# 4 0.002841 -0.000751 -0.001592 0.025458 0.004903 0.002277
# 5 0.005190 0.005894 0.008657 0.004903 0.034958 0.003687
# 6 -0.000401 -0.000005 -0.000740 0.002277 0.003687 0.019140
#
#
# Mechanical properties :
#
#
# Convention : Reuss Voigt Hill
#
# Bulk Modulus (GPa) = 25.02766 36.43127 30.72946
# Shear Modulus (GPa) = 38.37878 44.49161 41.43519
#
# Velocity S-wave (km/s) = 4.02513 4.33384 4.18233
# Velocity P-wave (km/s) = 5.67165 6.35786 6.02454
#
# Compressibility (1/GPa) = 0.03995579
#
# Stress axis : x y z
#
# Youngs Moduli (GPa) = 87.28409 81.71077 66.73092
#
# Poissons Ratio (x) = 0.07008 0.04154
# Poissons Ratio (y) = 0.07486 -0.14131
# Poissons Ratio (z) = 0.05433 -0.17304
#
# Static dielectric constant tensor:
#      x y z
#    x 1.896830 -0.027710 0.030290 
#    y -0.027710 1.914490 -0.052370 
#    z 0.030290 -0.052370 1.927150 
# 
# From -- ./inp_files/188506.got.cif
#   From: 2010.05.17/outbox.cif.g08.bks.cpg/sg2_95_cif.got.tgz:188506.got - 2010.06.03 11:33:40.
