data_PCOD9042273
_publ_section_title
;
Structure prediction by ZEFSAII (Michael W. Deem and Ramdas Pophale) SiO2 
 PCOD9042273
Probable space group: P -1
;
_chemical_formula_sum "Si O2"
_cell_formula_units_Z 14
_cell_length_a 27.417670
_cell_length_b 4.964235
_cell_length_c 5.126342
_cell_angle_alpha 92.024995
_cell_angle_beta 125.466908
_cell_angle_gamma 112.440306
_cell_volume 493.727259
_symmetry_space_group_name_H-M "P -1"
_symmetry_group_IT_number 2
_symmetry_cell_setting 'triclinic'
loop_
_space_group_symop_operation_xyz
x,y,z
-x,-y,-z
loop_
_atom_site_type_symbol
_atom_site_label
_atom_site_fract_x
_atom_site_fract_y
_atom_site_fract_z
Si Si1 0.998193 0.698279 0.250774
Si Si2 0.116230 0.192552 0.336985
Si Si3 0.784180 0.460314 0.747540
Si Si4 0.509955 0.336119 0.269156
Si Si5 0.804018 0.029389 0.154263
Si Si6 0.633584 0.217665 0.139263
Si Si7 0.347711 0.263340 0.113672
O O1 0.000000 0.500000 0.500000
O O2 0.934524 0.763725 0.018442
O O3 0.063483 0.042914 0.414397
O O4 0.000000 0.500000 0.000000
O O5 0.188792 0.487775 0.465249
O O6 0.146335 0.953427 0.456952
O O7 0.700838 0.257673 0.502651
O O8 0.805887 0.792323 0.943738
O O9 0.819229 0.324107 0.042632
O O10 0.500000 0.500000 0.500000
O O11 0.590601 0.449260 0.533705
O O12 0.500000 0.500000 0.000000
O O13 0.447423 0.985804 0.050958
O O14 0.726389 0.864720 0.004894
O O15 0.650860 0.564182 0.143903
O O16 0.637512 0.016922 0.899253
#
# Coordination Sequence:
#
# PCOD9042273 Si02
#       7
#     2   2   2   2   2   2   2
#     4  11  28  51  82 114 155 198 253 307 378 456
#     4  11  28  46  76 111 158 194 256 307 384 454
#     4  12  27  45  75 110 152 202 258 315 385 454
#     4  10  23  44  70 104 144 200 256 319 385 449
#     4  12  27  45  75 110 152 202 258 315 385 454
#     4  11  23  45  70 105 147 197 256 319 383 452
#     4  11  23  45  70 105 147 197 256 319 383 452
#
# _framework density 28.355736
#
# number of rings (size 3 to 8) (size 9 to 14) (size 15 to 20)
#    0.000    0.857    1.429    3.857    8.000    3.429 
#    0.000    6.429    0.000    0.000    0.000    0.000 
#    0.000    0.000    0.000    0.000    0.000    0.000 
#
# Total GULP energy -78212.529438 kJ/mol
# GULP energy per Si atom -5586.609246 kJ/mol
# Density = 2.829120 g / cm^3
# Si number density = 28.355736 Si / 1000 Ang^3
#
#
#
# Elastic Constant Matrix: (Units=GPa)
#
#
# Indices 1 2 3 4 5 6 
#
# 1 100.6302 71.1390 71.4724 -3.3452 17.4461 15.6148
# 2 71.1390 154.6902 65.3051 -32.5626 1.4998 31.0485
# 3 71.4724 65.3051 141.8882 -13.9608 29.8530 22.5798
# 4 -3.3452 -32.5626 -13.9608 73.4470 5.5285 4.5458
# 5 17.4461 1.4998 29.8530 5.5285 73.9191 8.0311
# 6 15.6148 31.0485 22.5798 4.5458 8.0311 54.3790
#
#
#
# Elastic Compliance Matrix: (Units=1/GPa)
#
#
# Indices 1 2 3 4 5 6 
#
# 1 0.019996 -0.007396 -0.006986 -0.003689 -0.001683 0.001939
# 2 -0.007396 0.012453 -0.001110 0.005139 0.002129 -0.005270
# 3 -0.006986 -0.001110 0.012278 0.001897 -0.003196 -0.002145
# 4 -0.003689 0.005139 0.001897 0.016389 -0.000800 -0.003914
# 5 -0.001683 0.002129 -0.003196 -0.000800 0.015408 -0.001614
# 6 0.001939 -0.005270 -0.002145 -0.003914 -0.001614 0.022298
#
#
# Mechanical properties :
#
#
# Convention : Reuss Voigt Hill
#
# Bulk Modulus (GPa) = 72.76046 90.33795 81.54921
# Shear Modulus (GPa) = 37.20619 52.96851 45.08735
#
# Velocity S-wave (km/s) = 3.62625 4.32673 3.99188
# Velocity P-wave (km/s) = 6.57636 7.54246 7.07592
#
# Compressibility (1/GPa) = 0.01374373
#
# Stress axis : x y z
#
# Youngs Moduli (GPa) = 50.01085 80.30043 81.44648
#
# Poissons Ratio (x) = 0.59389 0.56897
# Poissons Ratio (y) = 0.36988 0.09040
# Poissons Ratio (z) = 0.34936 0.08913
#
# Static dielectric constant tensor:
#      x y z
#    x 2.293800 -0.041580 -0.088180 
#    y -0.041580 2.163350 0.131900 
#    z -0.088180 0.131900 2.508840 
# 
# From -- ./inp_files/127915.got.cif
#   From: 2010.05.17/outbox.cif.g08.bks.cpg/sg2_64_cif.got.tgz:127915.got - 2010.06.03 11:33:40.
