data_PCOD9042932
_publ_section_title
;
Structure prediction by ZEFSAII (Michael W. Deem and Ramdas Pophale) SiO2 
 PCOD9042932
Probable space group: P -1
;
_chemical_formula_sum "Si O2"
_cell_formula_units_Z 15
_cell_length_a 6.665550
_cell_length_b 14.316943
_cell_length_c 10.260677
_cell_angle_alpha 140.613894
_cell_angle_beta 106.584130
_cell_angle_gamma 84.216151
_cell_volume 583.812071
_symmetry_space_group_name_H-M "P -1"
_symmetry_group_IT_number 2
_symmetry_cell_setting 'triclinic'
loop_
_space_group_symop_operation_xyz
x,y,z
-x,-y,-z
loop_
_atom_site_type_symbol
_atom_site_label
_atom_site_fract_x
_atom_site_fract_y
_atom_site_fract_z
Si Si1 0.345743 0.412979 0.572839
Si Si2 0.400348 0.718900 0.339370
Si Si3 0.091078 0.219114 0.978741
Si Si4 0.295183 0.047572 0.448316
Si Si5 0.031079 0.825745 0.810806
Si Si6 0.500000 0.500000 0.000000
Si Si7 0.920010 0.700223 0.210378
Si Si8 0.548634 0.275739 0.215759
O O1 0.500230 0.423566 0.741210
O O2 0.473575 0.334602 0.403513
O O3 0.347447 0.576060 0.689642
O O4 0.126494 0.296191 0.438917
O O5 0.582473 0.862139 0.555304
O O6 0.439495 0.673985 0.150361
O O7 0.163154 0.726565 0.333136
O O8 0.089394 0.330645 0.979488
O O9 0.333556 0.193912 0.013948
O O10 0.895411 0.084353 0.768638
O O11 0.034746 0.260454 0.157611
O O12 0.168782 0.148434 0.620315
O O13 0.500000 0.000000 0.500000
O O14 0.276826 0.823300 0.830984
O O15 0.000000 0.000000 0.000000
O O16 0.763709 0.569341 0.110703
#
# Coordination Sequence:
#
# PCOD9042932 Si02
#       8
#     2   2   2   2   2   1   2   2
#     4  10  23  45  67 100 129 184 231 281 350 400
#     4  11  23  41  69  95 139 177 227 279 338 411
#     4  11  24  40  67  99 135 181 226 276 346 409
#     4  11  24  41  61  99 137 180 226 273 340 415
#     4  11  25  44  69 103 136 178 234 292 344 405
#     4  10  24  40  60  98 130 170 230 272 330 398
#     4  11  24  42  65  97 135 183 220 281 342 413
#     4  10  24  44  69  96 136 178 232 290 341 407
#
# _framework density 25.693200999999998
#
# number of rings (size 3 to 8) (size 9 to 14) (size 15 to 20)
#    0.000    1.333    1.333    2.800    1.867    7.467 
#    0.000    1.333    0.000    0.000    0.000    0.000 
#    0.000    0.000    0.000    0.000    0.000    0.000 
#
# Total GULP energy -83590.212232 kJ/mol
# GULP energy per Si atom -5572.680815 kJ/mol
# Density = 2.563472 g / cm^3
# Si number density = 25.693201 Si / 1000 Ang^3
#
#
#
# Elastic Constant Matrix: (Units=GPa)
#
#
# Indices 1 2 3 4 5 6 
#
# 1 201.8904 57.2163 67.6155 18.0116 43.0732 -31.6707
# 2 57.2163 86.2466 32.4258 -3.1777 7.2971 -10.3414
# 3 67.6155 32.4258 108.4110 4.2622 39.6841 -20.5592
# 4 18.0116 -3.1777 4.2622 37.3038 2.6245 -1.6192
# 5 43.0732 7.2971 39.6841 2.6245 54.9830 6.2352
# 6 -31.6707 -10.3414 -20.5592 -1.6192 6.2352 50.9133
#
#
#
# Elastic Compliance Matrix: (Units=1/GPa)
#
#
# Indices 1 2 3 4 5 6 
#
# 1 0.009028 -0.004696 -0.000863 -0.004010 -0.006196 0.004945
# 2 -0.004696 0.015715 -0.003844 0.003663 0.004385 -0.001702
# 3 -0.000863 -0.003844 0.016350 -0.000693 -0.011336 0.006651
# 4 -0.004010 0.003663 -0.000693 0.028940 0.001927 -0.001346
# 5 -0.006196 0.004385 -0.011336 0.001927 0.031840 -0.011379
# 6 0.004945 -0.001702 0.006651 -0.001346 -0.011379 0.026408
#
#
# Mechanical properties :
#
#
# Convention : Reuss Voigt Hill
#
# Bulk Modulus (GPa) = 44.86527 79.00704 61.93615
# Shear Modulus (GPa) = 32.35934 44.59273 38.47604
#
# Velocity S-wave (km/s) = 3.55273 4.17055 3.87398
# Velocity P-wave (km/s) = 5.85909 7.34903 6.64595
#
# Compressibility (1/GPa) = 0.02228896
#
# Stress axis : x y z
#
# Youngs Moduli (GPa) = 110.76169 63.63477 61.16223
#
# Poissons Ratio (x) = 0.29880 0.05278
# Poissons Ratio (y) = 0.52009 0.23508
# Poissons Ratio (z) = 0.09558 0.24458
#
# Static dielectric constant tensor:
#      x y z
#    x 2.046960 0.038370 -0.077060 
#    y 0.038370 2.315750 -0.133630 
#    z -0.077060 -0.133630 2.290840 
# 
# From -- ./inp_files/131614.got.cif
#   From: 2010.05.17/outbox.cif.g08.bks.cpg/sg2_66_cif.got.tgz:131614.got - 2010.06.03 11:33:40.
