data_PCOD9042500
_publ_section_title
;
Structure prediction by ZEFSAII (Michael W. Deem and Ramdas Pophale) SiO2 
 PCOD9042500
Probable space group: P -1
;
_chemical_formula_sum "Si O2"
_cell_formula_units_Z 16
_cell_length_a 22.700615
_cell_length_b 22.998049
_cell_length_c 5.540762
_cell_angle_alpha 77.579724
_cell_angle_beta 101.851686
_cell_angle_gamma 167.958025
_cell_volume 589.192249
_symmetry_space_group_name_H-M "P -1"
_symmetry_group_IT_number 2
_symmetry_cell_setting 'triclinic'
loop_
_space_group_symop_operation_xyz
x,y,z
-x,-y,-z
loop_
_atom_site_type_symbol
_atom_site_label
_atom_site_fract_x
_atom_site_fract_y
_atom_site_fract_z
Si Si1 0.567175 0.809991 0.830499
Si Si2 0.825953 0.423822 0.352897
Si Si3 0.329761 0.498004 0.545104
Si Si4 0.226596 0.239925 0.164025
Si Si5 0.034615 0.305436 0.122450
Si Si6 0.702487 0.050361 0.420387
Si Si7 0.105702 0.008251 0.553685
Si Si8 0.405930 0.940589 0.220837
O O1 0.456959 0.641556 0.779489
O O2 0.631022 0.914204 0.566480
O O3 0.304164 0.585419 0.946433
O O4 0.835905 0.072996 0.993921
O O5 0.595834 0.204553 0.580625
O O6 0.575608 0.167461 0.177819
O O7 0.059029 0.694146 0.425403
O O8 0.068018 0.615667 0.261626
O O9 0.608209 0.752568 0.394393
O O10 0.162207 0.389150 0.370692
O O11 0.103030 0.225612 0.603889
O O12 0.231797 0.193974 0.414208
O O13 0.500000 0.500000 0.000000
O O14 0.106749 0.183850 0.234037
O O15 0.000000 0.000000 0.000000
O O16 0.860891 0.193361 0.174630
O O17 0.500000 0.000000 0.500000
O O18 0.500000 0.000000 0.000000
#
# Coordination Sequence:
#
# PCOD9042500 Si02
#       8
#     2   2   2   2   2   2   2   2
#     4  12  25  44  71 100 141 191 230 294 355 407
#     4  10  23  44  72 102 135 192 236 297 358 434
#     4  12  25  45  70  98 145 176 232 286 340 438
#     4  11  24  45  70  96 133 169 221 289 342 416
#     4  12  25  44  71 100 141 191 230 294 355 407
#     4  11  23  48  65 104 144 177 248 285 348 420
#     4  11  25  44  68 100 131 180 220 282 356 410
#     4  11  24  48  73 106 153 192 246 313 382 441
#
# _framework density 27.155819999999999
#
# number of rings (size 3 to 8) (size 9 to 14) (size 15 to 20)
#    0.000    0.750    0.000    8.250    0.000    6.000 
#   22.500    2.500    0.000    0.000    0.000    0.000 
#    0.000    0.000    0.000    0.000    0.000    0.000 
#
# Total GULP energy -89351.231878 kJ/mol
# GULP energy per Si atom -5584.451992 kJ/mol
# Density = 2.709401 g / cm^3
# Si number density = 27.155820 Si / 1000 Ang^3
#
#
#
# Elastic Constant Matrix: (Units=GPa)
#
#
# Indices 1 2 3 4 5 6 
#
# 1 80.6961 63.4338 45.2750 -14.3073 -27.6367 15.2904
# 2 63.4338 240.9903 53.7617 -19.4977 -32.4554 26.2346
# 3 45.2750 53.7617 109.4456 -8.1933 -32.7108 18.2924
# 4 -14.3073 -19.4977 -8.1933 56.9415 4.6492 -22.1807
# 5 -27.6367 -32.4554 -32.7108 4.6492 47.1933 -0.9954
# 6 15.2904 26.2346 18.2924 -22.1807 -0.9954 64.7332
#
#
#
# Elastic Compliance Matrix: (Units=1/GPa)
#
#
# Indices 1 2 3 4 5 6 
#
# 1 0.020220 -0.003128 -0.004557 0.002324 0.006274 -0.001328
# 2 -0.003128 0.005482 -0.000787 0.000446 0.001325 -0.001087
# 3 -0.004557 -0.000787 0.013673 -0.001023 0.006311 -0.002722
# 4 0.002324 0.000446 -0.001023 0.020832 -0.000952 0.006683
# 5 0.006274 0.001325 0.006311 -0.000952 0.030166 -0.003665
# 6 -0.001328 -0.001087 -0.002722 0.006683 -0.003665 0.019205
#
#
# Mechanical properties :
#
#
# Convention : Reuss Voigt Hill
#
# Bulk Modulus (GPa) = 44.58292 84.00812 64.29552
# Shear Modulus (GPa) = 37.31353 51.68436 44.49894
#
# Velocity S-wave (km/s) = 3.71084 4.36736 4.05242
# Velocity P-wave (km/s) = 5.90030 7.51229 6.75456
#
# Compressibility (1/GPa) = 0.02243011
#
# Stress axis : x y z
#
# Youngs Moduli (GPa) = 49.45490 182.43164 73.13557
#
# Poissons Ratio (x) = 0.57070 0.33327
# Poissons Ratio (y) = 0.15471 0.05759
# Poissons Ratio (z) = 0.22536 0.14365
#
# Static dielectric constant tensor:
#      x y z
#    x 2.540570 -0.099040 0.093400 
#    y -0.099040 2.029090 -0.054890 
#    z 0.093400 -0.054890 2.130780 
# 
# From -- ./inp_files/127772.got.cif
#   From: 2010.05.17/outbox.cif.g08.bks.cpg/sg2_64_cif.got.tgz:127772.got - 2010.06.03 11:33:40.
