data_PCOD9042706
_publ_section_title
;
Structure prediction by ZEFSAII (Michael W. Deem and Ramdas Pophale) SiO2 
 PCOD9042706
Probable space group: P -1
;
_chemical_formula_sum "Si O2"
_cell_formula_units_Z 16
_cell_length_a 17.071013
_cell_length_b 5.240842
_cell_length_c 21.231211
_cell_angle_alpha 105.874395
_cell_angle_beta 21.713234
_cell_angle_gamma 110.178505
_cell_volume 653.548285
_symmetry_space_group_name_H-M "P -1"
_symmetry_group_IT_number 2
_symmetry_cell_setting 'triclinic'
loop_
_space_group_symop_operation_xyz
x,y,z
-x,-y,-z
loop_
_atom_site_type_symbol
_atom_site_label
_atom_site_fract_x
_atom_site_fract_y
_atom_site_fract_z
Si Si1 0.353378 0.482349 0.205554
Si Si2 0.920873 0.180406 0.310747
Si Si3 0.191749 0.611526 0.814241
Si Si4 0.968411 0.036241 0.403779
Si Si5 0.440549 0.242258 0.672083
Si Si6 0.064690 0.635211 0.134177
Si Si7 0.694036 0.266662 0.862679
Si Si8 0.466944 0.367685 0.249921
O O1 0.283996 0.699553 0.226871
O O2 0.396344 0.500092 0.248251
O O3 0.142589 0.225050 0.333526
O O4 0.581327 0.473225 0.998587
O O5 0.954949 0.211328 0.363005
O O6 0.673201 0.183713 0.480936
O O7 0.056657 0.411483 0.179078
O O8 0.971918 0.891923 0.238286
O O9 0.371765 0.445783 0.686891
O O10 0.084521 0.523438 0.821271
O O11 0.276346 0.940427 0.777913
O O12 0.000000 0.500000 0.000000
O O13 0.733158 0.880725 0.594888
O O14 0.088716 0.801185 0.279097
O O15 0.465751 0.406890 0.730275
O O16 0.318718 0.738170 0.931761
O O17 0.500000 0.000000 0.000000
#
# Coordination Sequence:
#
# PCOD9042706 Si02
#       8
#     2   2   2   2   2   2   2   2
#     4  10  23  44  74 107 150 210 262 315 384 462
#     4  12  29  50  77 119 156 203 266 315 390 456
#     4  12  26  52  81 117 160 196 255 320 416 452
#     4  11  25  47  72 105 164 202 252 329 384 453
#     4  12  28  51  82 112 161 205 251 332 388 469
#     4  12  29  49  83 116 151 207 258 328 380 489
#     4   9  21  43  69 104 146 207 247 325 386 442
#     4  12  27  47  76 118 153 205 271 317 391 464
#
# _framework density 24.481743999999999
#
# number of rings (size 3 to 8) (size 9 to 14) (size 15 to 20)
#    0.000    0.750    1.250    4.500   10.500    3.500 
#    9.000    0.000    0.000    0.000    0.000    0.000 
#    0.000    0.000    0.000    0.000    0.000    0.000 
#
# Total GULP energy -89594.569357 kJ/mol
# GULP energy per Si atom -5599.660585 kJ/mol
# Density = 2.442602 g / cm^3
# Si number density = 24.481744 Si / 1000 Ang^3
#
#
#
# Elastic Constant Matrix: (Units=GPa)
#
#
# Indices 1 2 3 4 5 6 
#
# 1 198.4214 62.0006 37.0254 -12.6658 -19.1643 -11.6162
# 2 62.0006 91.0235 14.4744 -1.1361 -7.6235 -20.7503
# 3 37.0254 14.4744 125.5103 -9.8339 -12.3663 -10.7229
# 4 -12.6658 -1.1361 -9.8339 27.1807 -5.4111 -7.6124
# 5 -19.1643 -7.6235 -12.3663 -5.4111 34.5680 -1.5186
# 6 -11.6162 -20.7503 -10.7229 -7.6124 -1.5186 41.8946
#
#
#
# Elastic Compliance Matrix: (Units=1/GPa)
#
#
# Indices 1 2 3 4 5 6 
#
# 1 0.007124 -0.004303 -0.000983 0.003522 0.003215 0.000349
# 2 -0.004303 0.015576 0.000293 0.000986 0.001609 0.006834
# 3 -0.000983 0.000293 0.009209 0.004505 0.003659 0.003181
# 4 0.003522 0.000986 0.004505 0.045541 0.011407 0.011306
# 5 0.003215 0.001609 0.003659 0.011407 0.034422 0.005945
# 6 0.000349 0.006834 0.003181 0.011306 0.005945 0.030435
#
#
# Mechanical properties :
#
#
# Convention : Reuss Voigt Hill
#
# Bulk Modulus (GPa) = 45.61640 71.32843 58.47242
# Shear Modulus (GPa) = 31.32860 40.82563 36.07711
#
# Velocity S-wave (km/s) = 3.58113 4.08805 3.84296
# Velocity P-wave (km/s) = 5.98102 7.17506 6.60508
#
# Compressibility (1/GPa) = 0.02192194
#
# Stress axis : x y z
#
# Youngs Moduli (GPa) = 140.37987 64.20291 108.59092
#
# Poissons Ratio (x) = 0.27628 0.10670
# Poissons Ratio (y) = 0.60408 -0.03179
# Poissons Ratio (z) = 0.13794 -0.01880
#
# Static dielectric constant tensor:
#      x y z
#    x 2.275940 0.263030 -0.151220 
#    y 0.263030 2.142430 -0.066390 
#    z -0.151220 -0.066390 2.035190 
# 
# From -- ./inp_files/612583.got.cif
#   From: 2010.05.17/outbox.cif.g08.bks.cpg/sg2_307_cif.got.tgz:612583.got - 2010.06.03 11:33:40.
