data_PCOD9042114
_publ_section_title
;
Structure prediction by ZEFSAII (Michael W. Deem and Ramdas Pophale) SiO2 
 PCOD9042114
Probable space group: P -1
;
_chemical_formula_sum "Si O2"
_cell_formula_units_Z 14
_cell_length_a 16.104082
_cell_length_b 8.080995
_cell_length_c 11.118934
_cell_angle_alpha 144.051361
_cell_angle_beta 128.635945
_cell_angle_gamma 41.245743
_cell_volume 559.584838
_symmetry_space_group_name_H-M "P -1"
_symmetry_group_IT_number 2
_symmetry_cell_setting 'triclinic'
loop_
_space_group_symop_operation_xyz
x,y,z
-x,-y,-z
loop_
_atom_site_type_symbol
_atom_site_label
_atom_site_fract_x
_atom_site_fract_y
_atom_site_fract_z
Si Si1 0.937894 0.391039 0.148887
Si Si2 0.613780 0.511352 0.053701
Si Si3 0.567670 0.742170 0.623522
Si Si4 0.155486 0.616900 0.701715
Si Si5 0.445898 0.389024 0.204161
Si Si6 0.077763 0.679378 0.159447
Si Si7 0.188035 0.404376 0.341191
O O1 0.864541 0.560515 0.306297
O O2 0.061326 0.400894 0.242878
O O3 0.856014 0.479753 0.004023
O O4 0.000000 0.000000 0.000000
O O5 0.748378 0.284536 0.103933
O O6 0.563721 0.904477 0.264000
O O7 0.500000 0.500000 0.000000
O O8 0.629783 0.436133 0.882217
O O9 0.544944 0.505410 0.378362
O O10 0.612527 0.557668 0.684864
O O11 0.667950 0.819982 0.707577
O O12 0.212026 0.444544 0.525488
O O13 0.021711 0.936526 0.733130
O O14 0.500000 0.000000 0.000000
O O15 0.140496 0.657326 0.331183
O O16 0.000000 0.500000 0.000000
#
# Coordination Sequence:
#
# PCOD9042114 Si02
#       7
#     2   2   2   2   2   2   2
#     4   9  21  41  62  92 130 171 221 272 338 394
#     4  11  25  40  68 104 143 182 221 284 340 412
#     4  10  23  44  69 106 135 178 235 271 349 407
#     4  11  23  41  63  97 133 175 225 274 344 398
#     4   9  21  47  68  94 138 183 228 276 335 411
#     4   9  21  41  63  91 125 178 224 271 331 399
#     4  11  22  40  69  97 131 173 220 289 328 410
#
# _framework density 25.018550000000001
#
# number of rings (size 3 to 8) (size 9 to 14) (size 15 to 20)
#    0.000    2.000    0.000    1.714    8.000    2.286 
#    0.000   12.857    0.000    0.000    0.000    0.000 
#    0.000    0.000    0.000    0.000    0.000    0.000 
#
# Total GULP energy -77966.602972 kJ/mol
# GULP energy per Si atom -5569.043069 kJ/mol
# Density = 2.496161 g / cm^3
# Si number density = 25.018550 Si / 1000 Ang^3
#
#
#
# Elastic Constant Matrix: (Units=GPa)
#
#
# Indices 1 2 3 4 5 6 
#
# 1 165.5761 34.6201 44.5883 -21.5394 -13.6274 0.8140
# 2 34.6201 60.7906 37.5973 -27.6537 -24.4674 6.4722
# 3 44.5883 37.5973 104.2707 -37.3700 -5.5254 7.6395
# 4 -21.5394 -27.6537 -37.3700 43.9369 13.8072 -9.4449
# 5 -13.6274 -24.4674 -5.5254 13.8072 48.6039 -10.0513
# 6 0.8140 6.4722 7.6395 -9.4449 -10.0513 36.8812
#
#
#
# Elastic Compliance Matrix: (Units=1/GPa)
#
#
# Indices 1 2 3 4 5 6 
#
# 1 0.007220 -0.002575 -0.002168 0.000071 0.000656 0.000938
# 2 -0.002575 0.030400 -0.005950 0.009520 0.011517 0.001531
# 3 -0.002168 -0.005950 0.016150 0.010256 -0.004878 -0.000956
# 4 0.000071 0.009520 0.010256 0.039993 -0.004292 0.005275
# 5 0.000656 0.011517 -0.004878 -0.004292 0.028381 0.005611
# 6 0.000938 0.001531 -0.000956 0.005275 0.005611 0.029903
#
#
# Mechanical properties :
#
#
# Convention : Reuss Voigt Hill
#
# Bulk Modulus (GPa) = 30.87912 62.69430 46.78671
# Shear Modulus (GPa) = 27.14055 40.13985 33.64020
#
# Velocity S-wave (km/s) = 3.29723 4.00985 3.67087
# Velocity P-wave (km/s) = 5.18314 6.82290 6.05875
#
# Compressibility (1/GPa) = 0.03238435
#
# Stress axis : x y z
#
# Youngs Moduli (GPa) = 138.49976 32.89525 61.91930
#
# Poissons Ratio (x) = 0.08471 0.13422
# Poissons Ratio (y) = 0.35665 0.36842
# Poissons Ratio (z) = 0.30021 0.19573
#
# Static dielectric constant tensor:
#      x y z
#    x 2.263970 -0.503730 -0.298690 
#    y -0.503730 2.991260 0.536310 
#    z -0.298690 0.536310 2.395120 
# 
# From -- ./inp_files/460881.got.cif
#   From: 2010.05.17/outbox.cif.g08.bks.cpg/sg2_231_cif.got.tgz:460881.got - 2010.06.03 11:33:40.
