data_PCOD9042593
_publ_section_title
;
Structure prediction by ZEFSAII (Michael W. Deem and Ramdas Pophale) SiO2 
 PCOD9042593
Probable space group: P -1
;
_chemical_formula_sum "Si O2"
_cell_formula_units_Z 13
_cell_length_a 11.106225
_cell_length_b 12.888594
_cell_length_c 4.911562
_cell_angle_alpha 99.415507
_cell_angle_beta 77.974966
_cell_angle_gamma 51.906383
_cell_volume 500.680761
_symmetry_space_group_name_H-M "P -1"
_symmetry_group_IT_number 2
_symmetry_cell_setting 'triclinic'
loop_
_space_group_symop_operation_xyz
x,y,z
-x,-y,-z
loop_
_atom_site_type_symbol
_atom_site_label
_atom_site_fract_x
_atom_site_fract_y
_atom_site_fract_z
Si Si1 0.291587 0.328856 0.641726
Si Si2 0.825952 0.920087 0.893371
Si Si3 0.306520 0.550954 0.863636
Si Si4 0.604080 0.044117 0.553673
Si Si5 0.000000 0.000000 0.500000
Si Si6 0.875857 0.656778 0.754347
Si Si7 0.290634 0.690284 0.426101
O O1 0.240015 0.479805 0.749549
O O2 0.476992 0.209813 0.616942
O O3 0.284022 0.281152 0.329697
O O4 0.170912 0.336748 0.909164
O O5 0.913967 0.756806 0.742241
O O6 0.662287 0.007097 0.819124
O O7 0.928363 0.958679 0.748432
O O8 0.767997 0.960162 0.250134
O O9 0.255100 0.676624 0.746013
O O10 0.507309 0.422460 0.724701
O O11 0.247526 0.616488 0.217717
O O12 0.500000 0.000000 0.500000
O O13 0.808656 0.154468 0.582215
O O14 0.000000 0.500000 0.500000
#
# Coordination Sequence:
#
# PCOD9042593 Si02
#       7
#     2   2   2   2   1   2   2
#     4  12  24  42  76 101 136 182 240 298 365 417
#     4  12  27  46  72 106 149 185 241 290 373 432
#     4  10  23  44  73 101 135 189 240 302 343 437
#     4  12  23  47  73 105 140 186 241 306 356 426
#     4  12  30  48  74 110 152 202 232 312 362 454
#     4  12  26  44  67 106 139 187 231 298 357 436
#     4  10  24  47  68 101 144 185 246 285 360 422
#
# _framework density 25.964648
#
# number of rings (size 3 to 8) (size 9 to 14) (size 15 to 20)
#    0.000    0.615    3.077    3.692    4.308    7.385 
#    0.000    0.000    0.000    0.000    0.000    0.000 
#    0.000    0.000    0.000    0.000    0.000    0.000 
#
# Total GULP energy -72599.017167 kJ/mol
# GULP energy per Si atom -5584.539782 kJ/mol
# Density = 2.590555 g / cm^3
# Si number density = 25.964648 Si / 1000 Ang^3
#
#
#
# Elastic Constant Matrix: (Units=GPa)
#
#
# Indices 1 2 3 4 5 6 
#
# 1 51.4715 24.0151 24.1367 2.2542 -5.9030 16.2451
# 2 24.0151 193.9952 17.1287 4.6603 -8.6869 -2.5725
# 3 24.1367 17.1287 90.8597 -11.4819 -6.0246 9.0789
# 4 2.2542 4.6603 -11.4819 32.2558 -2.5285 -2.8744
# 5 -5.9030 -8.6869 -6.0246 -2.5285 43.1277 -4.6713
# 6 16.2451 -2.5725 9.0789 -2.8744 -4.6713 53.7126
#
#
#
# Elastic Compliance Matrix: (Units=1/GPa)
#
#
# Indices 1 2 3 4 5 6 
#
# 1 0.026112 -0.002628 -0.006184 -0.004188 0.001166 -0.007101
# 2 -0.002628 0.005591 -0.000502 -0.000636 0.000787 0.001182
# 3 -0.006184 -0.000502 0.013514 0.005410 0.001253 -0.000040
# 4 -0.004188 -0.000636 0.005410 0.033698 0.002282 0.002323
# 5 0.001166 0.000787 0.001253 0.002282 0.023996 0.001682
# 6 -0.007101 0.001182 -0.000040 0.002323 0.001682 0.021099
#
#
# Mechanical properties :
#
#
# Convention : Reuss Voigt Hill
#
# Bulk Modulus (GPa) = 37.60845 51.87637 44.74241
# Shear Modulus (GPa) = 33.00309 43.88894 38.44601
#
# Velocity S-wave (km/s) = 3.56909 4.11583 3.85217
# Velocity P-wave (km/s) = 5.61252 6.52761 6.08729
#
# Compressibility (1/GPa) = 0.02658977
#
# Stress axis : x y z
#
# Youngs Moduli (GPa) = 38.29610 178.87183 73.99732
#
# Poissons Ratio (x) = 0.47005 0.45757
# Poissons Ratio (y) = 0.10064 0.03715
# Poissons Ratio (z) = 0.23681 0.08981
#
# Static dielectric constant tensor:
#      x y z
#    x 2.038140 -0.063500 -0.021560 
#    y -0.063500 2.072580 0.031900 
#    z -0.021560 0.031900 1.932350 
# 
# From -- ./inp_files/66695.got.cif
#   From: 2010.05.17/outbox.cif.g08.bks.cpg/sg2_34_cif.got.tgz:66695.got - 2010.06.03 11:33:40.
