data_PCOD9042601
_publ_section_title
;
Structure prediction by ZEFSAII (Michael W. Deem and Ramdas Pophale) SiO2 
 PCOD9042601
Probable space group: P -1
;
_chemical_formula_sum "Si O2"
_cell_formula_units_Z 14
_cell_length_a 22.650956
_cell_length_b 9.031887
_cell_length_c 9.173020
_cell_angle_alpha 133.650564
_cell_angle_beta 46.789490
_cell_angle_gamma 148.736661
_cell_volume 681.934710
_symmetry_space_group_name_H-M "P -1"
_symmetry_group_IT_number 2
_symmetry_cell_setting 'triclinic'
loop_
_space_group_symop_operation_xyz
x,y,z
-x,-y,-z
loop_
_atom_site_type_symbol
_atom_site_label
_atom_site_fract_x
_atom_site_fract_y
_atom_site_fract_z
Si Si1 0.658408 0.836768 0.296690
Si Si2 0.025893 0.093150 0.349596
Si Si3 0.121135 0.842565 0.043045
Si Si4 0.616169 0.291819 0.082525
Si Si5 0.441870 0.711059 0.491786
Si Si6 0.779900 0.255579 0.647964
Si Si7 0.193410 0.075476 0.410180
O O1 0.643219 0.568900 0.168737
O O2 0.540103 0.716401 0.351049
O O3 0.689414 0.006575 0.510564
O O4 0.770518 0.067043 0.158646
O O5 0.110135 0.439732 0.413155
O O6 0.093034 0.011637 0.132017
O O7 0.000000 0.000000 0.500000
O O8 0.899490 0.920263 0.380487
O O9 0.155994 0.938524 0.218087
O O10 0.000000 0.500000 0.000000
O O11 0.594139 0.270344 0.276608
O O12 0.717893 0.318049 0.889459
O O13 0.500000 0.000000 0.000000
O O14 0.324666 0.404847 0.409920
O O15 0.500000 0.000000 0.500000
O O16 0.813402 0.127036 0.605971
#
# Coordination Sequence:
#
# PCOD9042601 Si02
#       7
#     2   2   2   2   2   2   2
#     4  12  25  48  72 106 147 190 241 289 369 425
#     4  10  23  44  73 102 141 189 237 291 361 419
#     4  11  26  46  74 106 145 191 238 301 364 426
#     4  12  25  46  72 103 145 192 238 285 364 430
#     4  12  29  45  73 109 146 190 240 301 355 430
#     4  12  24  47  75 107 145 189 238 303 354 432
#     4  11  26  46  70 107 150 184 243 300 356 427
#
# _framework density 20.529826
#
# number of rings (size 3 to 8) (size 9 to 14) (size 15 to 20)
#    0.000    0.571    4.286    3.429   10.000    0.571 
#    0.000    2.143    0.000    0.000    0.000    0.000 
#    0.000    0.000    0.000    0.000    0.000    0.000 
#
# Total GULP energy -78312.941313 kJ/mol
# GULP energy per Si atom -5593.781522 kJ/mol
# Density = 2.048310 g / cm^3
# Si number density = 20.529826 Si / 1000 Ang^3
#
#
#
# Elastic Constant Matrix: (Units=GPa)
#
#
# Indices 1 2 3 4 5 6 
#
# 1 128.6167 69.8886 23.3525 2.6799 -14.9118 6.7883
# 2 69.8886 168.4290 33.7809 8.3609 5.8063 5.2242
# 3 23.3525 33.7809 76.4566 -6.7327 -0.3184 16.2311
# 4 2.6799 8.3609 -6.7327 38.4247 6.5055 -2.0385
# 5 -14.9118 5.8063 -0.3184 6.5055 38.0312 -0.4240
# 6 6.7883 5.2242 16.2311 -2.0385 -0.4240 44.7052
#
#
#
# Elastic Compliance Matrix: (Units=1/GPa)
#
#
# Indices 1 2 3 4 5 6 
#
# 1 0.011087 -0.004441 -0.001344 -0.000953 0.005169 -0.000671
# 2 -0.004441 0.008463 -0.002643 -0.001493 -0.002794 0.000550
# 3 -0.001344 -0.002643 0.016043 0.003310 -0.000613 -0.005167
# 4 -0.000953 -0.001493 0.003310 0.027840 -0.004877 0.000341
# 5 0.005169 -0.002794 -0.000613 -0.004877 0.029575 -0.000178
# 6 -0.000671 0.000550 -0.005167 0.000341 -0.000178 0.024296
#
#
# Mechanical properties :
#
#
# Convention : Reuss Voigt Hill
#
# Bulk Modulus (GPa) = 53.36845 69.72737 61.54791
# Shear Modulus (GPa) = 35.61104 40.66423 38.13764
#
# Velocity S-wave (km/s) = 4.16937 4.45538 4.31475
# Velocity P-wave (km/s) = 7.01642 7.77849 7.40726
#
# Compressibility (1/GPa) = 0.01873766
#
# Stress axis : x y z
#
# Youngs Moduli (GPa) = 90.19708 118.15638 62.33122
#
# Poissons Ratio (x) = 0.52472 0.08378
# Poissons Ratio (y) = 0.40056 0.16473
# Poissons Ratio (z) = 0.12124 0.31227
#
# Static dielectric constant tensor:
#      x y z
#    x 1.709000 0.000150 -0.014120 
#    y 0.000150 1.708590 -0.027790 
#    z -0.014120 -0.027790 1.742880 
# 
# From -- ./inp_files/185628.got.cif
#   From: 2010.05.17/outbox.cif.g08.bks.cpg/sg2_93_cif.got.tgz:185628.got - 2010.06.03 11:33:40.
