data_PCOD9042345
_publ_section_title
;
Structure prediction by ZEFSAII (Michael W. Deem and Ramdas Pophale) SiO2 
 PCOD9042345
Probable space group: P -1
;
_chemical_formula_sum "Si O2"
_cell_formula_units_Z 16
_cell_length_a 8.491173
_cell_length_b 5.430363
_cell_length_c 15.449559
_cell_angle_alpha 117.640472
_cell_angle_beta 84.696208
_cell_angle_gamma 92.538788
_cell_volume 628.379023
_symmetry_space_group_name_H-M "P -1"
_symmetry_group_IT_number 2
_symmetry_cell_setting 'triclinic'
loop_
_space_group_symop_operation_xyz
x,y,z
-x,-y,-z
loop_
_atom_site_type_symbol
_atom_site_label
_atom_site_fract_x
_atom_site_fract_y
_atom_site_fract_z
Si Si1 0.710427 0.618880 0.777471
Si Si2 0.493480 0.916046 0.236607
Si Si3 0.649807 0.489520 0.053966
Si Si4 0.884701 0.666555 0.947558
Si Si5 0.530623 0.826752 0.555613
Si Si6 0.176140 0.782039 0.861116
Si Si7 0.897094 0.835602 0.546314
Si Si8 0.035235 0.652486 0.667153
O O1 0.611554 0.347551 0.768297
O O2 0.775286 0.746184 0.884571
O O3 0.867079 0.548444 0.700503
O O4 0.606481 0.845058 0.767854
O O5 0.630124 0.791824 0.148903
O O6 0.567520 0.048217 0.340145
O O7 0.667099 0.284996 0.101821
O O8 0.500000 0.500000 0.000000
O O9 0.792163 0.440250 0.971626
O O10 0.047826 0.576304 0.881727
O O11 0.892338 0.924045 0.055366
O O12 0.500000 0.500000 0.500000
O O13 0.713271 0.886016 0.576515
O O14 0.500000 0.000000 0.500000
O O15 0.151616 0.716699 0.750970
O O16 0.895974 0.541891 0.444660
O O17 0.975186 0.893757 0.645580
O O18 0.000000 0.000000 0.500000
#
# Coordination Sequence:
#
# PCOD9042345 Si02
#       8
#     2   2   2   2   2   2   2   2
#     4  11  23  46  72 110 140 198 248 301 367 451
#     4  12  26  44  76 104 151 196 248 297 384 449
#     4  12  25  42  68 107 146 192 244 303 367 451
#     4  10  23  44  70  98 147 189 247 302 369 429
#     4  12  29  50  76 111 159 196 248 319 395 456
#     4  10  24  44  68 102 144 193 246 308 371 438
#     4  11  25  47  79 105 145 197 261 312 382 451
#     4  10  24  44  74 103 142 190 258 308 368 450
#
# _framework density 25.462340999999999
#
# number of rings (size 3 to 8) (size 9 to 14) (size 15 to 20)
#    0.000    1.000    2.500    2.625    7.000    3.000 
#    4.500    0.000    0.000    0.000    0.000    0.000 
#    0.000    0.000    0.000    0.000    0.000    0.000 
#
# Total GULP energy -89338.699467 kJ/mol
# GULP energy per Si atom -5583.668717 kJ/mol
# Density = 2.540439 g / cm^3
# Si number density = 25.462341 Si / 1000 Ang^3
#
#
#
# Elastic Constant Matrix: (Units=GPa)
#
#
# Indices 1 2 3 4 5 6 
#
# 1 58.3332 29.3552 32.8717 -21.7175 1.0224 -3.8139
# 2 29.3552 115.8888 32.3829 -26.3889 18.0084 -10.3128
# 3 32.8717 32.3829 182.0504 -24.7862 19.4001 -14.4064
# 4 -21.7175 -26.3889 -24.7862 55.5420 -7.9161 3.8742
# 5 1.0224 18.0084 19.4001 -7.9161 58.6561 -16.9908
# 6 -3.8139 -10.3128 -14.4064 3.8742 -16.9908 44.2070
#
#
#
# Elastic Compliance Matrix: (Units=1/GPa)
#
#
# Indices 1 2 3 4 5 6 
#
# 1 0.023071 -0.004012 -0.002855 0.006194 0.002800 0.000657
# 2 -0.004012 0.010920 -0.000481 0.002994 -0.002480 0.000829
# 3 -0.002855 -0.000481 0.006510 0.001275 -0.001469 0.001087
# 4 0.006194 0.002994 0.001275 0.022638 0.001698 0.000317
# 5 0.002800 -0.002480 -0.001469 0.001698 0.020476 0.006906
# 6 0.000657 0.000829 0.001087 0.000317 0.006906 0.025852
#
#
# Mechanical properties :
#
#
# Convention : Reuss Voigt Hill
#
# Bulk Modulus (GPa) = 38.75190 60.61023 49.68107
# Shear Modulus (GPa) = 37.66054 49.12520 43.39287
#
# Velocity S-wave (km/s) = 3.85004 4.39718 4.13267
# Velocity P-wave (km/s) = 5.91744 7.04527 6.50584
#
# Compressibility (1/GPa) = 0.02580518
#
# Stress axis : x y z
#
# Youngs Moduli (GPa) = 43.34483 91.57120 153.60557
#
# Poissons Ratio (x) = 0.36742 0.43857
# Poissons Ratio (y) = 0.17392 0.07381
# Poissons Ratio (z) = 0.12376 0.04400
#
# Static dielectric constant tensor:
#      x y z
#    x 2.122280 0.002010 -0.071510 
#    y 0.002010 2.244180 0.089830 
#    z -0.071510 0.089830 2.008900 
# 
# From -- ./inp_files/488637.got.cif
#   From: 2010.05.17/outbox.cif.g08.bks.cpg/sg2_245_cif.got.tgz:488637.got - 2010.06.03 11:33:40.
