data_PCOD9042092
_publ_section_title
;
Structure prediction by ZEFSAII (Michael W. Deem and Ramdas Pophale) SiO2 
 PCOD9042092
Probable space group: P -1
;
_chemical_formula_sum "Si O2"
_cell_formula_units_Z 14
_cell_length_a 10.690944
_cell_length_b 10.508419
_cell_length_c 11.226068
_cell_angle_alpha 125.927693
_cell_angle_beta 79.405535
_cell_angle_gamma 56.723530
_cell_volume 567.497640
_symmetry_space_group_name_H-M "P -1"
_symmetry_group_IT_number 2
_symmetry_cell_setting 'triclinic'
loop_
_space_group_symop_operation_xyz
x,y,z
-x,-y,-z
loop_
_atom_site_type_symbol
_atom_site_label
_atom_site_fract_x
_atom_site_fract_y
_atom_site_fract_z
Si Si1 0.281078 0.316828 0.671658
Si Si2 0.020888 0.214437 0.863823
Si Si3 0.318187 0.844149 0.818788
Si Si4 0.449722 0.655039 0.360842
Si Si5 0.686350 0.729918 0.634125
Si Si6 0.788921 0.217852 0.746002
Si Si7 0.159379 0.103428 0.245376
O O1 0.345839 0.434354 0.727321
O O2 0.244872 0.312887 0.539194
O O3 0.500000 0.000000 0.500000
O O4 0.069346 0.536881 0.918240
O O5 0.825419 0.335277 0.883997
O O6 0.130863 0.004134 0.839128
O O7 0.235506 0.983883 0.610719
O O8 0.492822 0.529091 0.648774
O O9 0.467767 0.842771 0.749864
O O10 0.190878 0.003472 0.053068
O O11 0.410159 0.604524 0.216158
O O12 0.671696 0.919761 0.792449
O O13 0.903891 0.423868 0.483704
O O14 0.798870 0.061214 0.747160
O O15 0.000000 0.000000 0.500000
#
# Coordination Sequence:
#
# PCOD9042092 Si02
#       7
#     2   2   2   2   2   2   2
#     4  12  26  43  68  98 141 186 233 283 349 419
#     4  11  24  44  70 104 135 179 231 290 347 409
#     4  12  24  44  75 106 137 182 236 289 349 414
#     4  11  25  44  70 101 141 178 232 290 348 411
#     4  11  24  44  66 103 141 185 235 283 345 415
#     4  10  23  44  69 104 137 182 231 287 348 408
#     4  11  24  43  71  99 144 185 233 288 342 415
#
# _framework density 24.669705
#
# number of rings (size 3 to 8) (size 9 to 14) (size 15 to 20)
#    0.000    0.857    2.857    4.286    2.000    5.143 
#    0.000    2.857    0.000    0.000    0.000    0.000 
#    0.000    0.000    0.000    0.000    0.000    0.000 
#
# Total GULP energy -78262.888886 kJ/mol
# GULP energy per Si atom -5590.206349 kJ/mol
# Density = 2.461356 g / cm^3
# Si number density = 24.669705 Si / 1000 Ang^3
#
#
#
# Elastic Constant Matrix: (Units=GPa)
#
#
# Indices 1 2 3 4 5 6 
#
# 1 59.1963 9.1110 -7.0258 -9.3603 -15.4326 -1.8663
# 2 9.1110 130.3830 23.2222 -15.1187 4.0717 -12.6771
# 3 -7.0258 23.2222 109.7937 -5.1027 -2.7109 7.9873
# 4 -9.3603 -15.1187 -5.1027 43.7617 -9.9269 3.1626
# 5 -15.4326 4.0717 -2.7109 -9.9269 30.3233 -9.5434
# 6 -1.8663 -12.6771 7.9873 3.1626 -9.5434 43.4704
#
#
#
# Elastic Compliance Matrix: (Units=1/GPa)
#
#
# Indices 1 2 3 4 5 6 
#
# 1 0.022762 -0.001256 0.002258 0.008001 0.015526 0.003023
# 2 -0.001256 0.008633 -0.002003 0.002192 -0.000450 0.002573
# 3 0.002258 -0.002003 0.009946 0.001594 0.002217 -0.001944
# 4 0.008001 0.002192 0.001594 0.028511 0.013770 0.001639
# 5 0.015526 -0.000450 0.002217 0.013770 0.048738 0.009826
# 6 0.003023 0.002573 -0.001944 0.001639 0.009826 0.026280
#
#
# Mechanical properties :
#
#
# Convention : Reuss Voigt Hill
#
# Bulk Modulus (GPa) = 25.41993 38.88755 32.15374
# Shear Modulus (GPa) = 31.25296 41.78212 36.51754
#
# Velocity S-wave (km/s) = 3.56315 4.11988 3.85159
# Velocity P-wave (km/s) = 5.22059 6.19909 5.73076
#
# Compressibility (1/GPa) = 0.03933921
#
# Stress axis : x y z
#
# Youngs Moduli (GPa) = 43.93235 115.83986 100.54022
#
# Poissons Ratio (x) = 0.14548 -0.22697
# Poissons Ratio (y) = 0.05517 0.20135
# Poissons Ratio (z) = -0.09918 0.23199
#
# Static dielectric constant tensor:
#      x y z
#    x 1.964870 -0.003640 -0.039120 
#    y -0.003640 1.914530 -0.002480 
#    z -0.039120 -0.002480 2.027900 
# 
# From -- ./inp_files/426688.got.cif
#   From: 2010.05.17/outbox.cif.g08.bks.cpg/sg2_214_cif.got.tgz:426688.got - 2010.06.03 11:33:40.
