data_PCOD9042005
_publ_section_title
;
Structure prediction by ZEFSAII (Michael W. Deem and Ramdas Pophale) SiO2 
 PCOD9042005
Probable space group: P -1
;
_chemical_formula_sum "Si O2"
_cell_formula_units_Z 14
_cell_length_a 6.364419
_cell_length_b 13.344170
_cell_length_c 13.600041
_cell_angle_alpha 30.759474
_cell_angle_beta 77.180891
_cell_angle_gamma 68.614786
_cell_volume 539.807397
_symmetry_space_group_name_H-M "P -1"
_symmetry_group_IT_number 2
_symmetry_cell_setting 'triclinic'
loop_
_space_group_symop_operation_xyz
x,y,z
-x,-y,-z
loop_
_atom_site_type_symbol
_atom_site_label
_atom_site_fract_x
_atom_site_fract_y
_atom_site_fract_z
Si Si1 0.092590 0.026652 0.576213
Si Si2 0.851164 0.677924 0.139123
Si Si3 0.287460 0.708123 0.455033
Si Si4 0.045752 0.707809 0.286549
Si Si5 0.222764 0.416621 0.187082
Si Si6 0.482171 0.694160 0.927660
Si Si7 0.436341 0.032484 0.812218
O O1 0.218041 0.198229 0.412504
O O2 0.898729 0.118874 0.602907
O O3 0.275669 0.810282 0.775460
O O4 0.000000 0.000000 0.500000
O O5 0.734427 0.510386 0.326065
O O6 0.047337 0.688456 0.185543
O O7 0.982278 0.587973 0.100555
O O8 0.650416 0.899070 0.968716
O O9 0.232401 0.724606 0.329947
O O10 0.519020 0.757760 0.402208
O O11 0.000000 0.500000 0.500000
O O12 0.812727 0.900859 0.171541
O O13 0.286801 0.379024 0.097813
O O14 0.419917 0.499468 0.138729
O O15 0.462387 0.871668 0.857388
#
# Coordination Sequence:
#
# PCOD9042005 Si02
#       7
#     2   2   2   2   2   2   2
#     4  11  22  41  67  99 133 179 226 270 336 402
#     4  10  24  43  66 101 131 181 228 272 336 401
#     4  10  23  44  68  98 137 176 220 284 332 391
#     4  10  23  47  67  99 138 176 227 281 335 395
#     4  10  24  42  65  97 141 173 219 282 330 396
#     4  11  24  42  66 101 135 177 223 275 343 395
#     4  12  24  43  72  99 133 180 227 274 340 403
#
# _framework density 25.935178000000001
#
# number of rings (size 3 to 8) (size 9 to 14) (size 15 to 20)
#    0.000    1.429    1.429    2.571    0.000    9.714 
#    2.571    0.000    0.000    0.000    0.000    0.000 
#    0.000    0.000    0.000    0.000    0.000    0.000 
#
# Total GULP energy -78377.847199 kJ/mol
# GULP energy per Si atom -5598.417657 kJ/mol
# Density = 2.587615 g / cm^3
# Si number density = 25.935178 Si / 1000 Ang^3
#
#
#
# Elastic Constant Matrix: (Units=GPa)
#
#
# Indices 1 2 3 4 5 6 
#
# 1 63.8277 36.4241 28.9492 6.6610 -22.9578 13.9518
# 2 36.4241 156.7833 16.3457 -2.6219 2.5082 9.4334
# 3 28.9492 16.3457 75.0265 -15.5579 -12.7919 5.5318
# 4 6.6610 -2.6219 -15.5579 34.6623 8.2720 2.9986
# 5 -22.9578 2.5082 -12.7919 8.2720 42.9956 -3.5179
# 6 13.9518 9.4334 5.5318 2.9986 -3.5179 59.4120
#
#
#
# Elastic Compliance Matrix: (Units=1/GPa)
#
#
# Indices 1 2 3 4 5 6 
#
# 1 0.033832 -0.006976 -0.011554 -0.016131 0.017819 -0.003892
# 2 -0.006976 0.008049 0.000882 0.003460 -0.004612 -0.000170
# 3 -0.011554 0.000882 0.019569 0.011703 -0.002650 0.000004
# 4 -0.016131 0.003460 0.011703 0.040677 -0.013215 -0.000687
# 5 0.017819 -0.004612 -0.002650 -0.013215 0.034757 -0.000481
# 6 -0.003892 -0.000170 0.000004 -0.000687 -0.000481 0.017778
#
#
# Mechanical properties :
#
#
# Convention : Reuss Voigt Hill
#
# Bulk Modulus (GPa) = 38.23550 51.00838 44.62194
# Shear Modulus (GPa) = 25.16652 41.67523 33.42088
#
# Velocity S-wave (km/s) = 3.11844 4.01296 3.59365
# Velocity P-wave (km/s) = 5.26697 6.41733 5.87040
#
# Compressibility (1/GPa) = 0.02615371
#
# Stress axis : x y z
#
# Youngs Moduli (GPa) = 29.55790 124.24226 51.10033
#
# Poissons Ratio (x) = 0.86670 0.59042
# Poissons Ratio (y) = 0.20619 -0.04507
# Poissons Ratio (z) = 0.34152 -0.10957
#
# Static dielectric constant tensor:
#      x y z
#    x 2.064200 0.021390 0.024170 
#    y 0.021390 1.992530 0.042170 
#    z 0.024170 0.042170 2.035300 
# 
# From -- ./inp_files/484081.got.cif
#   From: 2010.05.17/outbox.cif.g08.bks.cpg/sg2_243_cif.got.tgz:484081.got - 2010.06.03 11:33:40.
