data_PCOD9042979
_publ_section_title
;
Structure prediction by ZEFSAII (Michael W. Deem and Ramdas Pophale) SiO2 
 PCOD9042979
Probable space group: P -1
;
_chemical_formula_sum "Si O2"
_cell_formula_units_Z 14
_cell_length_a 5.002045
_cell_length_b 14.428134
_cell_length_c 16.721944
_cell_angle_alpha 37.083951
_cell_angle_beta 94.000185
_cell_angle_gamma 77.540092
_cell_volume 647.829363
_symmetry_space_group_name_H-M "P -1"
_symmetry_group_IT_number 2
_symmetry_cell_setting 'triclinic'
loop_
_space_group_symop_operation_xyz
x,y,z
-x,-y,-z
loop_
_atom_site_type_symbol
_atom_site_label
_atom_site_fract_x
_atom_site_fract_y
_atom_site_fract_z
Si Si1 0.789768 0.934192 0.996989
Si Si2 0.323735 0.806073 0.893450
Si Si3 0.800769 0.846440 0.573266
Si Si4 0.646578 0.252505 0.457700
Si Si5 0.917486 0.490745 0.094882
Si Si6 0.761758 0.382203 0.848189
Si Si7 0.325376 0.981531 0.248936
O O1 0.977261 0.726815 0.133303
O O2 0.500000 0.000000 0.000000
O O3 0.708016 0.010264 0.852740
O O4 0.000000 0.000000 0.000000
O O5 0.427143 0.951633 0.775542
O O6 0.565722 0.621488 0.996691
O O7 0.327141 0.761326 0.018421
O O8 0.980241 0.874490 0.816142
O O9 0.638721 0.768534 0.565455
O O10 0.058843 0.859175 0.514496
O O11 0.989532 0.703683 0.741631
O O12 0.500000 0.000000 0.500000
O O13 0.532523 0.455397 0.301715
O O14 0.661324 0.188077 0.592916
O O15 0.084311 0.558877 0.116631
O O16 0.000000 0.500000 0.000000
#
# Coordination Sequence:
#
# PCOD9042979 Si02
#       7
#     2   2   2   2   2   2   2
#     4  11  23  40  69  99 126 161 212 268 327 385
#     4  11  20  42  62  92 126 167 215 263 309 371
#     4  11  25  41  60  91 131 172 220 266 315 372
#     4  11  24  44  64  88 129 178 207 261 331 379
#     4  11  24  40  66  96 127 172 225 261 315 372
#     4  10  23  45  67  93 133 171 213 268 323 385
#     4  11  24  40  69  94 126 166 215 258 328 380
#
# _framework density 21.610628999999999
#
# number of rings (size 3 to 8) (size 9 to 14) (size 15 to 20)
#    0.000    1.143    4.286    3.000    4.000    0.571 
#    0.000    1.429    0.000    0.000    0.000    0.000 
#    0.000    0.000    0.000    0.000    0.000    0.000 
#
# Total GULP energy -78022.893578 kJ/mol
# GULP energy per Si atom -5573.063827 kJ/mol
# Density = 2.156144 g / cm^3
# Si number density = 21.610629 Si / 1000 Ang^3
#
#
#
# Elastic Constant Matrix: (Units=GPa)
#
#
# Indices 1 2 3 4 5 6 
#
# 1 116.0360 27.5589 15.6571 5.6114 -9.9069 -26.0117
# 2 27.5589 101.9273 37.2388 1.2262 7.0558 -31.0254
# 3 15.6571 37.2388 108.2024 7.6138 -19.2340 -18.8974
# 4 5.6114 1.2262 7.6138 24.2616 -2.4182 -0.5420
# 5 -9.9069 7.0558 -19.2340 -2.4182 27.2390 0.9096
# 6 -26.0117 -31.0254 -18.8974 -0.5420 0.9096 42.2393
#
#
#
# Elastic Compliance Matrix: (Units=1/GPa)
#
#
# Indices 1 2 3 4 5 6 
#
# 1 0.010671 -0.001897 0.001067 -0.002110 0.004754 0.005526
# 2 -0.001897 0.015165 -0.005112 0.000612 -0.008436 0.007873
# 3 0.001067 -0.005112 0.013455 -0.003070 0.010852 0.002649
# 4 -0.002110 0.000612 -0.003070 0.042675 0.000751 -0.001692
# 5 0.004754 -0.008436 0.010852 0.000751 0.048338 0.000555
# 6 0.005526 0.007873 0.002649 -0.001692 0.000555 0.034012
#
#
# Mechanical properties :
#
#
# Convention : Reuss Voigt Hill
#
# Bulk Modulus (GPa) = 36.48681 54.11947 45.30314
# Shear Modulus (GPa) = 26.97832 35.12871 31.05351
#
# Velocity S-wave (km/s) = 3.53708 4.03616 3.79483
# Velocity P-wave (km/s) = 5.79669 6.84238 6.34113
#
# Compressibility (1/GPa) = 0.02740716
#
# Stress axis : x y z
#
# Youngs Moduli (GPa) = 93.70924 65.94318 74.32418
#
# Poissons Ratio (x) = 0.12508 -0.07934
# Poissons Ratio (y) = 0.17775 0.37996
# Poissons Ratio (z) = -0.10003 0.33712
#
# Static dielectric constant tensor:
#      x y z
#    x 1.904350 -0.062600 -0.010460 
#    y -0.062600 1.843490 -0.042980 
#    z -0.010460 -0.042980 1.903470 
# 
# From -- ./inp_files/484237.got.cif
#   From: 2010.05.17/outbox.cif.g08.bks.cpg/sg2_243_cif.got.tgz:484237.got - 2010.06.03 11:33:40.
