data_PCOD9042871
_publ_section_title
;
Structure prediction by ZEFSAII (Michael W. Deem and Ramdas Pophale) SiO2 
 PCOD9042871
Probable space group: P -1
;
_chemical_formula_sum "Si O2"
_cell_formula_units_Z 11
_cell_length_a 9.069683
_cell_length_b 13.870753
_cell_length_c 10.002031
_cell_angle_alpha 131.993953
_cell_angle_beta 89.836372
_cell_angle_gamma 49.685185
_cell_volume 455.939186
_symmetry_space_group_name_H-M "P -1"
_symmetry_group_IT_number 2
_symmetry_cell_setting 'triclinic'
loop_
_space_group_symop_operation_xyz
x,y,z
-x,-y,-z
loop_
_atom_site_type_symbol
_atom_site_label
_atom_site_fract_x
_atom_site_fract_y
_atom_site_fract_z
Si Si1 0.292194 0.226274 0.818594
Si Si2 0.520841 0.777462 0.766153
Si Si3 0.913982 0.692712 0.835172
Si Si4 0.682439 0.164085 0.752888
Si Si5 0.628795 0.355306 0.673939
Si Si6 0.500000 0.500000 0.500000
O O1 0.476388 0.209258 0.853320
O O2 0.500000 0.000000 0.500000
O O3 0.176152 0.224875 0.935723
O O4 0.000000 0.500000 0.000000
O O5 0.705688 0.736697 0.819782
O O6 0.502093 0.646633 0.697044
O O7 0.743294 0.605279 0.476196
O O8 0.190672 0.093995 0.038698
O O9 0.606118 0.248273 0.674200
O O10 0.609478 0.355980 0.003425
O O11 0.030227 0.860099 0.492783
O O12 0.592833 0.368433 0.527674
#
# Coordination Sequence:
#
# PCOD9042871 Si02
#       6
#     2   2   2   2   2   1
#     4  12  25  39  71  99 128 178 235 281 318 419
#     4  10  24  43  68  96 137 177 217 286 345 412
#     4  10  23  45  65  95 138 178 218 275 360 401
#     4  10  23  47  63  96 136 183 213 274 357 404
#     4  10  24  42  70  93 138 174 221 280 343 409
#     4  12  26  42  74 110 130 180 244 294 328 412
#
# _framework density 24.126024999999998
#
# number of rings (size 3 to 8) (size 9 to 14) (size 15 to 20)
#    0.000    1.455    0.000    3.273    5.091    8.727 
#    0.000    0.000    0.000    0.000    0.000    0.000 
#    0.000    0.000    0.000    0.000    0.000    0.000 
#
# Total GULP energy -61287.408883 kJ/mol
# GULP energy per Si atom -5571.582626 kJ/mol
# Density = 2.407111 g / cm^3
# Si number density = 24.126025 Si / 1000 Ang^3
#
#
#
# Elastic Constant Matrix: (Units=GPa)
#
#
# Indices 1 2 3 4 5 6 
#
# 1 52.3002 6.3000 -7.6420 7.7601 22.9592 9.7809
# 2 6.3000 119.1293 29.2594 -23.0748 -3.2181 9.3562
# 3 -7.6420 29.2594 114.9554 3.6095 -1.9827 -6.2278
# 4 7.7601 -23.0748 3.6095 35.5832 8.4936 -3.0219
# 5 22.9592 -3.2181 -1.9827 8.4936 30.5095 3.7819
# 6 9.7809 9.3562 -6.2278 -3.0219 3.7819 22.7372
#
#
#
# Elastic Compliance Matrix: (Units=1/GPa)
#
#
# Indices 1 2 3 4 5 6 
#
# 1 0.031602 -0.002994 0.002160 -0.004651 -0.021571 -0.008801
# 2 -0.002994 0.011187 -0.003448 0.007595 0.001529 -0.003505
# 3 0.002160 -0.003448 0.009968 -0.003283 -0.000789 0.002915
# 4 -0.004651 0.007595 -0.003283 0.036252 -0.006485 0.003873
# 5 -0.021571 0.001529 -0.000789 -0.006485 0.051039 -0.000917
# 6 -0.008801 -0.003505 0.002915 0.003873 -0.000917 0.050675
#
#
# Mechanical properties :
#
#
# Convention : Reuss Voigt Hill
#
# Bulk Modulus (GPa) = 22.62847 38.02440 30.32644
# Shear Modulus (GPa) = 23.36248 34.99715 29.17982
#
# Velocity S-wave (km/s) = 3.11521 3.81280 3.48152
# Velocity P-wave (km/s) = 4.72642 5.93113 5.36271
#
# Compressibility (1/GPa) = 0.04419211
#
# Stress axis : x y z
#
# Youngs Moduli (GPa) = 31.64336 89.38779 100.32362
#
# Poissons Ratio (x) = 0.26765 -0.21672
# Poissons Ratio (y) = 0.09475 0.34596
# Poissons Ratio (z) = -0.06835 0.30825
#
# Static dielectric constant tensor:
#      x y z
#    x 1.919480 -0.023980 0.009050 
#    y -0.023980 1.933390 -0.077720 
#    z 0.009050 -0.077720 1.898680 
# 
# From -- ./inp_files/59641.got.cif
#   From: 2010.05.17/outbox.cif.g08.bks.cpg/sg2_30_cif.got.tgz:59641.got - 2010.06.03 11:33:40.
