data_PCOD9042081
_publ_section_title
;
Structure prediction by ZEFSAII (Michael W. Deem and Ramdas Pophale) SiO2 
 PCOD9042081
Probable space group: P -1
;
_chemical_formula_sum "Si O2"
_cell_formula_units_Z 15
_cell_length_a 14.473989
_cell_length_b 6.627978
_cell_length_c 12.024149
_cell_angle_alpha 75.876304
_cell_angle_beta 139.474726
_cell_angle_gamma 114.939420
_cell_volume 673.892071
_symmetry_space_group_name_H-M "P -1"
_symmetry_group_IT_number 2
_symmetry_cell_setting 'triclinic'
loop_
_space_group_symop_operation_xyz
x,y,z
-x,-y,-z
loop_
_atom_site_type_symbol
_atom_site_label
_atom_site_fract_x
_atom_site_fract_y
_atom_site_fract_z
Si Si1 0.315529 0.953058 0.728687
Si Si2 0.793465 0.225285 0.912886
Si Si3 0.495889 0.737442 0.483902
Si Si4 0.675095 0.180920 0.493001
Si Si5 0.570407 0.381719 0.988454
Si Si6 0.978699 0.310570 0.851246
Si Si7 0.000000 0.000000 0.500000
Si Si8 0.164529 0.159799 0.872284
O O1 0.337362 0.858999 0.641946
O O2 0.354874 0.787904 0.871075
O O3 0.145571 0.945081 0.592920
O O4 0.432252 0.212050 0.811689
O O5 0.640157 0.234462 0.717212
O O6 0.902425 0.210209 0.912780
O O7 0.884744 0.458418 0.026213
O O8 0.768278 0.023063 0.000901
O O9 0.500000 0.500000 0.500000
O O10 0.452303 0.753434 0.570053
O O11 0.648417 0.940613 0.559008
O O12 0.841952 0.355196 0.655269
O O13 0.704242 0.593673 0.030780
O O14 0.500000 0.500000 0.000000
O O15 0.034143 0.160898 0.840065
O O16 0.901436 0.898393 0.304747
#
# Coordination Sequence:
#
# PCOD9042081 Si02
#       8
#     2   2   2   2   2   2   1   2
#     4  11  26  50  71 105 147 191 258 300 367 441
#     4  10  25  45  71 104 144 180 244 297 368 447
#     4  10  24  45  70 105 141 187 241 296 374 443
#     4  10  23  44  69 103 139 183 232 307 358 440
#     4  11  27  47  72 102 144 197 247 300 364 441
#     4  10  23  45  70 102 136 189 226 305 365 431
#     4  12  26  48  74 108 146 194 250 314 352 434
#     4  12  26  45  72 106 143 193 239 304 370 426
#
# _framework density 22.258755000000001
#
# number of rings (size 3 to 8) (size 9 to 14) (size 15 to 20)
#    0.000    1.333    2.667    0.400    5.600    9.067 
#    0.000    0.000    0.000    0.000    0.000    0.000 
#    0.000    0.000    0.000    0.000    0.000    0.000 
#
# Total GULP energy -83598.487933 kJ/mol
# GULP energy per Si atom -5573.232529 kJ/mol
# Density = 2.220809 g / cm^3
# Si number density = 22.258755 Si / 1000 Ang^3
#
#
#
# Elastic Constant Matrix: (Units=GPa)
#
#
# Indices 1 2 3 4 5 6 
#
# 1 77.3209 18.3053 24.5201 -9.5068 2.0589 -7.5435
# 2 18.3053 99.6246 47.7289 3.9661 0.3530 1.7660
# 3 24.5201 47.7289 101.3947 13.7896 6.0840 7.5229
# 4 -9.5068 3.9661 13.7896 26.7209 -8.4573 1.3528
# 5 2.0589 0.3530 6.0840 -8.4573 32.7968 7.8087
# 6 -7.5435 1.7660 7.5229 1.3528 7.8087 20.3635
#
#
#
# Elastic Compliance Matrix: (Units=1/GPa)
#
#
# Indices 1 2 3 4 5 6 
#
# 1 0.016613 -0.000993 -0.005286 0.008522 0.000363 0.007488
# 2 -0.000993 0.013140 -0.006222 0.001335 0.001378 0.000174
# 3 -0.005286 -0.006222 0.016088 -0.010268 -0.004009 -0.005143
# 4 0.008522 0.001335 -0.010268 0.050377 0.014874 -0.002216
# 5 0.000363 0.001378 -0.004009 0.014874 0.038419 -0.014224
# 6 0.007488 0.000174 -0.005143 -0.002216 -0.014224 0.059368
#
#
# Mechanical properties :
#
#
# Convention : Reuss Voigt Hill
#
# Bulk Modulus (GPa) = 47.98905 51.04986 49.51946
# Shear Modulus (GPa) = 22.12822 28.49528 25.31175
#
# Velocity S-wave (km/s) = 3.15641 3.58185 3.37584
# Velocity P-wave (km/s) = 5.90681 6.33172 6.12295
#
# Compressibility (1/GPa) = 0.02083809
#
# Stress axis : x y z
#
# Youngs Moduli (GPa) = 60.19248 76.10298 62.15633
#
# Poissons Ratio (x) = 0.07559 0.32858
# Poissons Ratio (y) = 0.05978 0.38675
# Poissons Ratio (z) = 0.31820 0.47353
#
# Static dielectric constant tensor:
#      x y z
#    x 1.877380 0.055380 -0.002080 
#    y 0.055380 1.827090 0.003740 
#    z -0.002080 0.003740 1.839670 
# 
# From -- ./inp_files/441854.got.cif
#   From: 2010.05.17/outbox.cif.g08.bks.cpg/sg2_221_cif.got.tgz:441854.got - 2010.06.03 11:33:40.
