data_PCOD9042808
_publ_section_title
;
Structure prediction by ZEFSAII (Michael W. Deem and Ramdas Pophale) SiO2 
 PCOD9042808
Probable space group: P -1
;
_chemical_formula_sum "Si O2"
_cell_formula_units_Z 10
_cell_length_a 14.615995
_cell_length_b 9.259539
_cell_length_c 5.015276
_cell_angle_alpha 77.539397
_cell_angle_beta 70.945302
_cell_angle_gamma 36.173503
_cell_volume 377.280888
_symmetry_space_group_name_H-M "P -1"
_symmetry_group_IT_number 2
_symmetry_cell_setting 'triclinic'
loop_
_space_group_symop_operation_xyz
x,y,z
-x,-y,-z
loop_
_atom_site_type_symbol
_atom_site_label
_atom_site_fract_x
_atom_site_fract_y
_atom_site_fract_z
Si Si1 0.097383 0.770218 0.807843
Si Si2 0.362170 0.288435 0.510428
Si Si3 0.225648 0.017687 0.985093
Si Si4 0.811841 0.743253 0.588110
Si Si5 0.382423 0.584109 0.340262
O O1 0.256350 0.468454 0.796755
O O2 0.196655 0.771858 0.538965
O O3 0.955022 0.827259 0.857340
O O4 0.000000 0.000000 0.000000
O O5 0.241976 0.353682 0.403374
O O6 0.429886 0.359258 0.309865
O O7 0.500000 0.000000 0.500000
O O8 0.249860 0.122122 0.126643
O O9 0.344709 0.740620 0.071720
O O10 0.234093 0.075695 0.659538
O O11 0.000000 0.500000 0.500000
O O12 0.500000 0.500000 0.500000
#
# Coordination Sequence:
#
# PCOD9042808 Si02
#       5
#     2   2   2   2   2
#     4  10  23  44  79 114 153 203 270 322 389 474
#     4  10  24  47  75 113 160 203 259 331 399 463
#     4  12  25  48  80 115 154 208 267 324 393 484
#     4  12  25  48  77 117 156 202 264 332 399 466
#     4  10  23  47  77 110 157 208 260 322 394 474
#
# _framework density 26.505451000000001
#
# number of rings (size 3 to 8) (size 9 to 14) (size 15 to 20)
#    1.200    0.000    2.000    3.600    0.000    1.600 
#    0.000   15.000    0.000    0.000    0.000    0.000 
#    0.000    0.000    0.000    0.000    0.000    0.000 
#
# Total GULP energy -55770.144889 kJ/mol
# GULP energy per Si atom -5577.014489 kJ/mol
# Density = 2.644512 g / cm^3
# Si number density = 26.505451 Si / 1000 Ang^3
#
#
#
# Elastic Constant Matrix: (Units=GPa)
#
#
# Indices 1 2 3 4 5 6 
#
# 1 193.8426 15.3531 24.6794 -10.6262 -13.9449 18.8290
# 2 15.3531 195.7925 33.3907 26.0372 -13.2007 21.9306
# 3 24.6794 33.3907 88.2630 0.5693 -11.2646 7.3530
# 4 -10.6262 26.0372 0.5693 40.4843 12.6646 8.7923
# 5 -13.9449 -13.2007 -11.2646 12.6646 36.3188 7.6140
# 6 18.8290 21.9306 7.3530 8.7923 7.6140 52.0422
#
#
#
# Elastic Compliance Matrix: (Units=1/GPa)
#
#
# Indices 1 2 3 4 5 6 
#
# 1 0.005760 -0.000065 -0.001165 0.001532 0.001799 -0.002414
# 2 -0.000065 0.006604 -0.001741 -0.005019 0.004059 -0.002259
# 3 -0.001165 -0.001741 0.012810 -0.000117 0.003164 -0.001098
# 4 0.001532 -0.005019 -0.000117 0.032614 -0.012195 -0.002149
# 5 0.001799 0.004059 0.003164 -0.012195 0.036201 -0.006044
# 6 -0.002414 -0.002259 -0.001098 -0.002149 -0.006044 0.022443
#
#
# Mechanical properties :
#
#
# Convention : Reuss Voigt Hill
#
# Bulk Modulus (GPa) = 52.00004 69.41605 60.70805
# Shear Modulus (GPa) = 38.82434 52.73404 45.77919
#
# Velocity S-wave (km/s) = 3.83138 4.46528 4.16042
# Velocity P-wave (km/s) = 6.26369 7.26851 6.78473
#
# Compressibility (1/GPa) = 0.01923075
#
# Stress axis : x y z
#
# Youngs Moduli (GPa) = 173.60612 151.43158 78.06159
#
# Poissons Ratio (x) = 0.00984 0.09096
# Poissons Ratio (y) = 0.01129 0.13594
# Poissons Ratio (z) = 0.20230 0.26371
#
# Static dielectric constant tensor:
#      x y z
#    x 2.056930 0.034420 -0.053350 
#    y 0.034420 2.042610 0.033690 
#    z -0.053350 0.033690 2.170110 
# 
# From -- ./inp_files/90410.got.cif
#   From: 2010.05.17/outbox.cif.g08.bks.cpg/sg2_46_cif.got.tgz:90410.got - 2010.06.03 11:33:40.
