data_PCOD9042926
_publ_section_title
;
Structure prediction by ZEFSAII (Michael W. Deem and Ramdas Pophale) SiO2 
 PCOD9042926
Probable space group: P -1
;
_chemical_formula_sum "Si O2"
_cell_formula_units_Z 16
_cell_length_a 8.906706
_cell_length_b 8.549466
_cell_length_c 21.177701
_cell_angle_alpha 30.480245
_cell_angle_beta 116.708797
_cell_angle_gamma 117.099717
_cell_volume 722.391402
_symmetry_space_group_name_H-M "P -1"
_symmetry_group_IT_number 2
_symmetry_cell_setting 'triclinic'
loop_
_space_group_symop_operation_xyz
x,y,z
-x,-y,-z
loop_
_atom_site_type_symbol
_atom_site_label
_atom_site_fract_x
_atom_site_fract_y
_atom_site_fract_z
Si Si1 0.675000 0.202696 0.486975
Si Si2 0.648847 0.693820 0.415892
Si Si3 0.523411 0.153327 0.147016
Si Si4 0.075692 0.735098 0.987451
Si Si5 0.592368 0.864844 0.124770
Si Si6 0.280890 0.412355 0.237922
Si Si7 0.013020 0.309676 0.436683
Si Si8 0.835714 0.182402 0.809773
O O1 0.635173 0.486838 0.422105
O O2 0.826672 0.315442 0.428251
O O3 0.500000 0.000000 0.500000
O O4 0.753928 0.953243 0.631841
O O5 0.500000 0.500000 0.500000
O O6 0.832087 0.696298 0.482442
O O7 0.635545 0.043830 0.264079
O O8 0.566179 0.013329 0.136249
O O9 0.340254 0.985536 0.192796
O O10 0.500000 0.500000 0.000000
O O11 0.210850 0.029089 0.887986
O O12 0.180205 0.525509 0.121848
O O13 0.938291 0.897601 0.943670
O O14 0.000000 0.500000 0.000000
O O15 0.483684 0.522074 0.228950
O O16 0.500000 0.000000 0.000000
O O17 0.214375 0.600339 0.218740
O O18 0.068413 0.598314 0.300963
O O19 0.000000 0.000000 0.500000
#
# Coordination Sequence:
#
# PCOD9042926 Si02
#       8
#     2   2   2   2   2   2   2   2
#     4  12  26  46  76 104 142 192 243 299 367 439
#     4  12  27  49  75 109 152 193 244 309 368 441
#     4  11  24  46  73 103 142 187 237 294 364 432
#     4  11  24  39  68 103 139 180 237 301 360 422
#     4   9  21  42  64  97 138 181 231 290 352 426
#     4  10  23  45  66  97 140 186 238 289 363 437
#     4  12  26  49  73 107 147 195 246 301 371 438
#     4  11  23  44  70 100 147 185 240 297 360 435
#
# _framework density 22.148658999999999
#
# number of rings (size 3 to 8) (size 9 to 14) (size 15 to 20)
#    0.000    1.000    2.500    3.750    5.250    4.000 
#    6.750    0.000    0.000    0.000    0.000    0.000 
#    0.000    0.000    0.000    0.000    0.000    0.000 
#
# Total GULP energy -89271.100992 kJ/mol
# GULP energy per Si atom -5579.443812 kJ/mol
# Density = 2.209825 g / cm^3
# Si number density = 22.148659 Si / 1000 Ang^3
#
#
#
# Elastic Constant Matrix: (Units=GPa)
#
#
# Indices 1 2 3 4 5 6 
#
# 1 119.6086 27.1756 19.7006 14.2942 -12.4745 15.0099
# 2 27.1756 75.2194 31.6893 18.0359 0.8918 15.9221
# 3 19.7006 31.6893 137.3715 7.8654 -5.7868 2.8321
# 4 14.2942 18.0359 7.8654 25.5601 -0.4928 7.4771
# 5 -12.4745 0.8918 -5.7868 -0.4928 36.4928 0.0367
# 6 15.0099 15.9221 2.8321 7.4771 0.0367 29.8428
#
#
#
# Elastic Compliance Matrix: (Units=1/GPa)
#
#
# Indices 1 2 3 4 5 6 
#
# 1 0.010022 -0.002021 -0.000593 -0.003008 0.003344 -0.003156
# 2 -0.002021 0.019180 -0.003537 -0.009446 -0.001842 -0.006512
# 3 -0.000593 -0.003537 0.008206 -0.000093 0.001182 0.001428
# 4 -0.003008 -0.009446 -0.000093 0.049182 -0.000142 -0.005761
# 5 0.003344 -0.001842 0.001182 -0.000142 0.028777 -0.000811
# 6 -0.003156 -0.006512 0.001428 -0.005761 -0.000811 0.039880
#
#
# Mechanical properties :
#
#
# Convention : Reuss Voigt Hill
#
# Bulk Modulus (GPa) = 39.83170 54.37009 47.10089
# Shear Modulus (GPa) = 28.42242 35.28807 31.85524
#
# Velocity S-wave (km/s) = 3.58614 3.99587 3.79654
# Velocity P-wave (km/s) = 5.93044 6.77424 6.36634
#
# Compressibility (1/GPa) = 0.02510563
#
# Stress axis : x y z
#
# Youngs Moduli (GPa) = 99.78243 52.13781 121.85932
#
# Poissons Ratio (x) = 0.10538 0.07224
# Poissons Ratio (y) = 0.20168 0.43103
# Poissons Ratio (z) = 0.05915 0.18442
#
# Static dielectric constant tensor:
#      x y z
#    x 1.884190 0.050890 0.021230 
#    y 0.050890 1.749300 0.051130 
#    z 0.021230 0.051130 1.842180 
# 
# From -- ./inp_files/587721.got.cif
#   From: 2010.05.17/outbox.cif.g08.bks.cpg/sg2_294_cif.got.tgz:587721.got - 2010.06.03 11:33:40.
