data_PCOD9042311
_publ_section_title
;
Structure prediction by ZEFSAII (Michael W. Deem and Ramdas Pophale) SiO2 
 PCOD9042311
Probable space group: P -1
;
_chemical_formula_sum "Si O2"
_cell_formula_units_Z 12
_cell_length_a 8.214328
_cell_length_b 12.474767
_cell_length_c 15.428290
_cell_angle_alpha 35.446015
_cell_angle_beta 50.975187
_cell_angle_gamma 35.104958
_cell_volume 524.040177
_symmetry_space_group_name_H-M "P -1"
_symmetry_group_IT_number 2
_symmetry_cell_setting 'triclinic'
loop_
_space_group_symop_operation_xyz
x,y,z
-x,-y,-z
loop_
_atom_site_type_symbol
_atom_site_label
_atom_site_fract_x
_atom_site_fract_y
_atom_site_fract_z
Si Si1 0.803161 0.430761 0.953155
Si Si2 0.220410 0.015846 0.951215
Si Si3 0.277328 0.568582 0.829425
Si Si4 0.859615 0.824048 0.641895
Si Si5 0.274252 0.974994 0.613879
Si Si6 0.760963 0.789747 0.363330
O O1 0.878319 0.393185 0.054269
O O2 0.500000 0.500000 0.000000
O O3 0.779702 0.654073 0.780281
O O4 0.066328 0.191159 0.970405
O O5 0.247334 0.141313 0.779074
O O6 0.499348 0.728288 0.065922
O O7 0.000000 0.000000 0.000000
O O8 0.394930 0.701035 0.731030
O O9 0.083000 0.713886 0.715808
O O10 0.958016 0.840265 0.504711
O O11 0.556216 0.097783 0.586346
O O12 0.500000 0.000000 0.500000
O O13 0.182992 0.071391 0.679560
O O14 0.000000 0.500000 0.500000
#
# Coordination Sequence:
#
# PCOD9042311 Si02
#       6
#     2   2   2   2   2   2
#     4  12  23  45  70 102 135 178 228 273 340 411
#     4  12  25  40  73 103 132 180 230 276 334 409
#     4  12  25  45  69 104 141 171 229 289 343 393
#     4  11  24  45  69  99 144 177 220 292 341 389
#     4  10  23  44  70  94 134 186 224 276 336 407
#     4  11  24  43  69 101 134 183 233 271 331 419
#
# _framework density 22.899007000000001
#
# number of rings (size 3 to 8) (size 9 to 14) (size 15 to 20)
#    0.000    0.667    3.333    5.000    4.667    0.667 
#    3.000    0.833    0.000    0.000    0.000    0.000 
#    0.000    0.000    0.000    0.000    0.000    0.000 
#
# Total GULP energy -67019.726947 kJ/mol
# GULP energy per Si atom -5584.977246 kJ/mol
# Density = 2.284689 g / cm^3
# Si number density = 22.899007 Si / 1000 Ang^3
#
#
#
# Elastic Constant Matrix: (Units=GPa)
#
#
# Indices 1 2 3 4 5 6 
#
# 1 89.7479 45.0933 29.4825 -15.7551 23.5193 6.3404
# 2 45.0933 170.1667 57.9337 -18.6427 23.8252 18.9776
# 3 29.4825 57.9337 125.5710 -17.3512 19.3106 5.5605
# 4 -15.7551 -18.6427 -17.3512 46.9732 5.3054 4.1232
# 5 23.5193 23.8252 19.3106 5.3054 59.4177 0.6211
# 6 6.3404 18.9776 5.5605 4.1232 0.6211 23.3736
#
#
#
# Elastic Compliance Matrix: (Units=1/GPa)
#
#
# Indices 1 2 3 4 5 6 
#
# 1 0.014853 -0.002067 -0.000985 0.004621 -0.005114 -0.002796
# 2 -0.002067 0.008516 -0.002527 0.002511 -0.001935 -0.006144
# 3 -0.000985 -0.002527 0.010075 0.002669 -0.002104 -0.000493
# 4 0.004621 0.002511 0.002669 0.026231 -0.005958 -0.008396
# 5 -0.005114 -0.001935 -0.002104 -0.005958 0.020805 0.003957
# 6 -0.002796 -0.006144 -0.000493 -0.008396 0.003957 0.050023
#
#
# Mechanical properties :
#
#
# Convention : Reuss Voigt Hill
#
# Bulk Modulus (GPa) = 44.87015 72.27827 58.57421
# Shear Modulus (GPa) = 33.53691 42.81797 38.17744
#
# Velocity S-wave (km/s) = 3.83111 4.32888 4.08758
# Velocity P-wave (km/s) = 6.26156 7.52450 6.92189
#
# Compressibility (1/GPa) = 0.02228653
#
# Stress axis : x y z
#
# Youngs Moduli (GPa) = 67.32593 117.42861 99.25519
#
# Poissons Ratio (x) = 0.24267 0.09778
# Poissons Ratio (y) = 0.13913 0.25082
# Poissons Ratio (z) = 0.06633 0.29674
#
# Static dielectric constant tensor:
#      x y z
#    x 1.949230 -0.002460 0.062920 
#    y -0.002460 1.747990 0.112010 
#    z 0.062920 0.112010 2.010300 
# 
# From -- ./inp_files/497400.got.cif
#   From: 2010.05.17/outbox.cif.g08.bks.cpg/sg2_249_cif.got.tgz:497400.got - 2010.06.03 11:33:40.
