data_PCOD9042574
_publ_section_title
;
Structure prediction by ZEFSAII (Michael W. Deem and Ramdas Pophale) SiO2 
 PCOD9042574
Probable space group: P -1
;
_chemical_formula_sum "Si O2"
_cell_formula_units_Z 14
_cell_length_a 11.684252
_cell_length_b 8.265371
_cell_length_c 14.088555
_cell_angle_alpha 33.945684
_cell_angle_beta 62.655690
_cell_angle_gamma 55.143830
_cell_volume 623.132352
_symmetry_space_group_name_H-M "P -1"
_symmetry_group_IT_number 2
_symmetry_cell_setting 'triclinic'
loop_
_space_group_symop_operation_xyz
x,y,z
-x,-y,-z
loop_
_atom_site_type_symbol
_atom_site_label
_atom_site_fract_x
_atom_site_fract_y
_atom_site_fract_z
Si Si1 0.602498 0.770458 0.150425
Si Si2 0.221342 0.116421 0.622260
Si Si3 0.917707 0.285199 0.701062
Si Si4 0.076543 0.245727 0.358065
Si Si5 0.620318 0.128372 0.513070
Si Si6 0.092611 0.351607 0.945857
Si Si7 0.421898 0.860843 0.829506
O O1 0.556561 0.502046 0.342411
O O2 0.612661 0.965582 0.142407
O O3 0.760351 0.605171 0.131253
O O4 0.500000 0.000000 0.000000
O O5 0.187025 0.489210 0.446517
O O6 0.067143 0.112897 0.678009
O O7 0.324546 0.980629 0.561404
O O8 0.284939 0.942346 0.778997
O O9 0.933548 0.520568 0.661943
O O10 0.870024 0.021597 0.887758
O O11 0.240000 0.018749 0.404550
O O12 0.000000 0.000000 0.500000
O O13 0.005075 0.483442 0.185130
O O14 0.515269 0.990228 0.665045
O O15 0.000000 0.500000 0.000000
O O16 0.500000 0.500000 0.000000
#
# Coordination Sequence:
#
# PCOD9042574 Si02
#       7
#     2   2   2   2   2   2   2
#     4  12  28  47  69 104 146 185 237 286 356 422
#     4  10  23  44  72  99 136 175 237 285 357 412
#     4  10  24  42  74 102 137 180 230 298 348 417
#     4  11  24  45  70 101 141 179 238 287 356 417
#     4  11  25  46  70 100 139 187 228 295 350 424
#     4  12  27  43  75 104 140 185 237 292 349 419
#     4  12  28  44  71 100 140 188 234 286 354 423
#
# _framework density 22.467136
#
# number of rings (size 3 to 8) (size 9 to 14) (size 15 to 20)
#    0.000    0.857    1.429    3.857   14.000    0.000 
#    0.000    0.000    0.000    0.000    0.000    0.000 
#    0.000    0.000    0.000    0.000    0.000    0.000 
#
# Total GULP energy -78229.042510 kJ/mol
# GULP energy per Si atom -5587.788751 kJ/mol
# Density = 2.241600 g / cm^3
# Si number density = 22.467136 Si / 1000 Ang^3
#
#
#
# Elastic Constant Matrix: (Units=GPa)
#
#
# Indices 1 2 3 4 5 6 
#
# 1 53.6542 3.2935 24.5953 -1.5237 22.8699 -5.3204
# 2 3.2935 84.6859 4.5339 1.9018 0.7902 4.3441
# 3 24.5953 4.5339 169.9434 -17.6227 15.7693 1.4932
# 4 -1.5237 1.9018 -17.6227 35.2587 -2.8811 1.6651
# 5 22.8699 0.7902 15.7693 -2.8811 61.7481 -0.0145
# 6 -5.3204 4.3441 1.4932 1.6651 -0.0145 22.7173
#
#
#
# Elastic Compliance Matrix: (Units=1/GPa)
#
#
# Indices 1 2 3 4 5 6 
#
# 1 0.024102 -0.000990 -0.002887 -0.001310 -0.008236 0.006115
# 2 -0.000990 0.011999 -0.000248 -0.000678 0.000244 -0.002460
# 3 -0.002887 -0.000248 0.006704 0.003261 -0.000488 -0.001309
# 4 -0.001310 -0.000678 0.003261 0.030182 0.001069 -0.002603
# 5 -0.008236 0.000244 -0.000488 0.001069 0.019416 -0.002010
# 6 0.006115 -0.002460 -0.001309 -0.002603 -0.002010 0.046197
#
#
# Mechanical properties :
#
#
# Convention : Reuss Voigt Hill
#
# Bulk Modulus (GPa) = 28.94008 41.45876 35.19942
# Shear Modulus (GPa) = 31.57177 42.33554 36.95366
#
# Velocity S-wave (km/s) = 3.75272 4.34560 4.06000
# Velocity P-wave (km/s) = 5.62906 6.60849 6.13834
#
# Compressibility (1/GPa) = 0.03455416
#
# Stress axis : x y z
#
# Youngs Moduli (GPa) = 41.49038 83.33831 149.17159
#
# Poissons Ratio (x) = 0.08252 0.43067
# Poissons Ratio (y) = 0.04108 0.03702
# Poissons Ratio (z) = 0.11978 0.02068
#
# Static dielectric constant tensor:
#      x y z
#    x 1.875490 0.001400 0.002710 
#    y 0.001400 1.895880 -0.057300 
#    z 0.002710 -0.057300 1.849880 
# 
# From -- ./inp_files/158450.got.cif
#   From: 2010.05.17/outbox.cif.g08.bks.cpg/sg2_80_cif.got.tgz:158450.got - 2010.06.03 11:33:40.
