data_PCOD9042598
_publ_section_title
;
Structure prediction by ZEFSAII (Michael W. Deem and Ramdas Pophale) SiO2 
 PCOD9042598
Probable space group: P -1
;
_chemical_formula_sum "Si O2"
_cell_formula_units_Z 12
_cell_length_a 18.865908
_cell_length_b 8.186395
_cell_length_c 5.909228
_cell_angle_alpha 60.795144
_cell_angle_beta 102.014871
_cell_angle_gamma 140.165205
_cell_volume 487.147589
_symmetry_space_group_name_H-M "P -1"
_symmetry_group_IT_number 2
_symmetry_cell_setting 'triclinic'
loop_
_space_group_symop_operation_xyz
x,y,z
-x,-y,-z
loop_
_atom_site_type_symbol
_atom_site_label
_atom_site_fract_x
_atom_site_fract_y
_atom_site_fract_z
Si Si1 0.592074 0.238692 0.700054
Si Si2 0.259760 0.827193 0.178857
Si Si3 0.842875 0.903656 0.476617
Si Si4 0.112004 0.642027 0.594364
Si Si5 0.061794 0.229691 0.147468
Si Si6 0.452874 0.474177 0.733718
O O1 0.651871 0.164706 0.716277
O O2 0.708083 0.584613 0.620725
O O3 0.544588 0.293535 0.447829
O O4 0.500000 0.000000 0.000000
O O5 0.218953 0.851644 0.357159
O O6 0.147159 0.507290 0.199517
O O7 0.328709 0.121703 0.887833
O O8 0.899645 0.905926 0.722829
O O9 0.866137 0.168641 0.319871
O O10 0.927455 0.993779 0.276402
O O11 0.000000 0.500000 0.500000
O O12 0.093714 0.396309 0.829166
O O13 0.500000 0.500000 0.500000
O O14 0.500000 0.500000 0.000000
#
# Coordination Sequence:
#
# PCOD9042598 Si02
#       6
#     2   2   2   2   2   2
#     4  11  25  50  77 106 150 200 259 317 387 457
#     4  11  26  46  74 108 146 195 252 311 385 460
#     4  10  23  44  73 101 147 192 242 310 375 457
#     4  12  25  40  70 108 145 193 241 302 377 459
#     4  10  23  46  67 103 150 185 244 304 383 451
#     4  12  29  51  79 112 155 204 266 324 390 460
#
# _framework density 24.633189000000002
#
# number of rings (size 3 to 8) (size 9 to 14) (size 15 to 20)
#    0.000    1.000    3.333    1.500    7.000    2.667 
#    3.000    0.000    0.000    0.000    0.000    0.000 
#    0.000    0.000    0.000    0.000    0.000    0.000 
#
# Total GULP energy -66951.416053 kJ/mol
# GULP energy per Si atom -5579.284671 kJ/mol
# Density = 2.457712 g / cm^3
# Si number density = 24.633189 Si / 1000 Ang^3
#
#
#
# Elastic Constant Matrix: (Units=GPa)
#
#
# Indices 1 2 3 4 5 6 
#
# 1 132.5637 15.2142 56.5487 4.9705 10.2838 15.1340
# 2 15.2142 104.8473 27.0291 -3.3249 -8.9095 8.6648
# 3 56.5487 27.0291 171.2649 -25.8174 12.9624 24.9519
# 4 4.9705 -3.3249 -25.8174 47.6163 6.9615 2.5416
# 5 10.2838 -8.9095 12.9624 6.9615 38.4746 -19.4656
# 6 15.1340 8.6648 24.9519 2.5416 -19.4656 26.7200
#
#
#
# Elastic Compliance Matrix: (Units=1/GPa)
#
#
# Indices 1 2 3 4 5 6 
#
# 1 0.009781 -0.000939 -0.001275 -0.000278 -0.006944 -0.009076
# 2 -0.000939 0.010469 -0.002645 -0.001694 0.005948 0.004101
# 3 -0.001275 -0.002645 0.014649 0.012781 -0.022578 -0.029764
# 4 -0.000278 -0.001694 0.012781 0.033911 -0.028621 -0.035304
# 5 -0.006944 0.005948 -0.022578 -0.028621 0.087213 0.089346
# 6 -0.009076 0.004101 -0.029764 -0.035304 0.089346 0.137477
#
#
# Mechanical properties :
#
#
# Convention : Reuss Voigt Hill
#
# Bulk Modulus (GPa) = 39.71490 67.36220 53.53855
# Shear Modulus (GPa) = 16.04561 43.22110 29.63336
#
# Velocity S-wave (km/s) = 2.55499 4.19332 3.47217
# Velocity P-wave (km/s) = 4.98613 7.13097 6.15273
#
# Compressibility (1/GPa) = 0.02517947
#
# Stress axis : x y z
#
# Youngs Moduli (GPa) = 102.24300 95.52344 68.26276
#
# Poissons Ratio (x) = 0.08973 0.08705
# Poissons Ratio (y) = 0.09604 0.18056
# Poissons Ratio (z) = 0.13038 0.25266
#
# Static dielectric constant tensor:
#      x y z
#    x 1.925170 0.006530 0.043500 
#    y 0.006530 2.066400 0.069250 
#    z 0.043500 0.069250 1.956400 
# 
# From -- ./inp_files/26389.got.cif
#   From: 2010.05.17/outbox.cif.g08.bks.cpg/sg2_14_cif.got.tgz:26389.got - 2010.06.03 11:33:40.
