data_PCOD9042848
_publ_section_title
;
Structure prediction by ZEFSAII (Michael W. Deem and Ramdas Pophale) SiO2 
 PCOD9042848
Probable space group: P -1
;
_chemical_formula_sum "Si O2"
_cell_formula_units_Z 12
_cell_length_a 9.193578
_cell_length_b 11.820528
_cell_length_c 7.582999
_cell_angle_alpha 85.546920
_cell_angle_beta 115.363075
_cell_angle_gamma 46.736009
_cell_volume 447.717764
_symmetry_space_group_name_H-M "P -1"
_symmetry_group_IT_number 2
_symmetry_cell_setting 'triclinic'
loop_
_space_group_symop_operation_xyz
x,y,z
-x,-y,-z
loop_
_atom_site_type_symbol
_atom_site_label
_atom_site_fract_x
_atom_site_fract_y
_atom_site_fract_z
Si Si1 0.738320 0.008674 0.181331
Si Si2 0.857270 0.702453 0.164042
Si Si3 0.281306 0.024220 0.409847
Si Si4 0.858223 0.416705 0.991195
Si Si5 0.579691 0.640341 0.478042
Si Si6 0.459966 0.649833 0.033655
O O1 0.752653 0.978000 0.400159
O O2 0.906418 0.812534 0.204840
O O3 0.436787 0.153699 0.936879
O O4 0.767053 0.127570 0.152497
O O5 0.117322 0.496451 0.400443
O O6 0.893454 0.665752 0.976238
O O7 0.393067 0.850831 0.394159
O O8 0.500000 0.000000 0.500000
O O9 0.002116 0.222757 0.158994
O O10 0.719668 0.552927 0.070376
O O11 0.634043 0.546704 0.704103
O O12 0.479587 0.633712 0.254992
O O13 0.500000 0.500000 0.000000
#
# Coordination Sequence:
#
# PCOD9042848 Si02
#       6
#     2   2   2   2   2   2
#     4  11  21  41  68 105 142 171 231 274 342 420
#     4   9  21  40  69 104 134 170 215 289 353 395
#     4  12  22  39  72 106 141 171 215 282 358 411
#     4  10  23  45  65 102 134 176 228 275 344 401
#     4  10  24  45  66 102 137 174 226 281 339 402
#     4  12  27  46  70  95 137 193 233 274 329 398
#
# _framework density 26.802596999999999
#
# number of rings (size 3 to 8) (size 9 to 14) (size 15 to 20)
#    1.000    0.333    3.333    2.000    4.667    3.333 
#    0.000    6.667    0.000    0.000    0.000    0.000 
#    0.000    0.000    0.000    0.000    0.000    0.000 
#
# Total GULP energy -66996.042692 kJ/mol
# GULP energy per Si atom -5583.003558 kJ/mol
# Density = 2.674159 g / cm^3
# Si number density = 26.802597 Si / 1000 Ang^3
#
#
#
# Elastic Constant Matrix: (Units=GPa)
#
#
# Indices 1 2 3 4 5 6 
#
# 1 48.4489 9.4148 4.7210 -2.3242 -12.2176 16.3277
# 2 9.4148 233.7103 72.4340 -7.1038 -0.5115 3.4821
# 3 4.7210 72.4340 172.5872 -3.8634 -19.1536 15.1384
# 4 -2.3242 -7.1038 -3.8634 48.6664 -0.4758 5.8632
# 5 -12.2176 -0.5115 -19.1536 -0.4758 28.5564 -7.9644
# 6 16.3277 3.4821 15.1384 5.8632 -7.9644 31.5152
#
#
#
# Elastic Compliance Matrix: (Units=1/GPa)
#
#
# Indices 1 2 3 4 5 6 
#
# 1 0.027810 -0.001482 0.002175 0.002994 0.009640 -0.013410
# 2 -0.001482 0.005064 -0.002357 0.000367 -0.001897 0.000793
# 3 0.002175 -0.002357 0.007601 0.000821 0.005053 -0.003393
# 4 0.002994 0.000367 0.000821 0.021520 0.000566 -0.005847
# 5 0.009640 -0.001897 0.005053 0.000566 0.043535 0.003684
# 6 -0.013410 0.000793 -0.003393 -0.005847 0.003684 0.042239
#
#
# Mechanical properties :
#
#
# Convention : Reuss Voigt Hill
#
# Bulk Modulus (GPa) = 26.92073 69.76510 48.34291
# Shear Modulus (GPa) = 30.58463 46.29269 38.43866
#
# Velocity S-wave (km/s) = 3.38169 4.16043 3.79111
# Velocity P-wave (km/s) = 5.03127 7.01175 6.10239
#
# Compressibility (1/GPa) = 0.03714610
#
# Stress axis : x y z
#
# Youngs Moduli (GPa) = 35.95780 197.46753 131.56852
#
# Poissons Ratio (x) = 0.29272 -0.28610
# Poissons Ratio (y) = 0.05330 0.31006
# Poissons Ratio (z) = -0.07819 0.46537
#
# Static dielectric constant tensor:
#      x y z
#    x 2.534420 0.139430 0.029170 
#    y 0.139430 2.035830 -0.000450 
#    z 0.029170 -0.000450 2.067860 
# 
# From -- ./inp_files/258604.got.cif
#   From: 2010.05.17/outbox.cif.g08.bks.cpg/sg2_130_cif.got.tgz:258604.got - 2010.06.03 11:33:40.
