data_PCOD9042043
_publ_section_title
;
Structure prediction by ZEFSAII (Michael W. Deem and Ramdas Pophale) SiO2 
 PCOD9042043
Probable space group: P -1
;
_chemical_formula_sum "Si O2"
_cell_formula_units_Z 16
_cell_length_a 20.238417
_cell_length_b 8.931146
_cell_length_c 6.725023
_cell_angle_alpha 62.029899
_cell_angle_beta 134.426569
_cell_angle_gamma 123.502493
_cell_volume 716.866071
_symmetry_space_group_name_H-M "P -1"
_symmetry_group_IT_number 2
_symmetry_cell_setting 'triclinic'
loop_
_space_group_symop_operation_xyz
x,y,z
-x,-y,-z
loop_
_atom_site_type_symbol
_atom_site_label
_atom_site_fract_x
_atom_site_fract_y
_atom_site_fract_z
Si Si1 0.871363 0.818105 0.766177
Si Si2 0.693086 0.674913 0.719269
Si Si3 0.989458 0.108553 0.610874
Si Si4 0.663790 0.317627 0.106782
Si Si5 0.471331 0.329325 0.901180
Si Si6 0.986260 0.301470 0.147274
Si Si7 0.606322 0.037031 0.804108
Si Si8 0.243989 0.904687 0.278710
O O1 0.763495 0.684206 0.671579
O O2 0.936488 0.744708 0.804174
O O3 0.885327 0.006028 0.564295
O O4 0.928381 0.866923 0.065419
O O5 0.583719 0.627055 0.432497
O O6 0.725471 0.883889 0.727214
O O7 0.704185 0.529297 0.990817
O O8 0.004900 0.296855 0.424873
O O9 0.000000 0.000000 0.500000
O O10 0.730492 0.226032 0.425489
O O11 0.568575 0.294402 0.056108
O O12 0.628475 0.198452 0.908289
O O13 0.500000 0.500000 0.000000
O O14 0.402678 0.147301 0.982276
O O15 0.873066 0.173902 0.954317
O O16 0.000000 0.500000 0.000000
O O17 0.500000 0.000000 0.500000
O O18 0.691580 0.090270 0.785079
#
# Coordination Sequence:
#
# PCOD9042043 Si02
#       8
#     2   2   2   2   2   2   2   2
#     4  10  23  44  69 100 140 183 238 294 354 420
#     4  12  26  46  76 105 144 194 245 294 363 436
#     4   9  19  42  65  93 132 176 224 289 348 410
#     4  12  27  48  73 108 152 185 244 303 359 436
#     4  12  25  47  74 108 149 194 238 297 368 432
#     4  11  27  44  71 104 146 186 241 299 363 431
#     4  12  24  46  76 105 149 190 236 307 359 426
#     4  12  27  48  73 111 143 194 245 297 369 429
#
# _framework density 22.319371
#
# number of rings (size 3 to 8) (size 9 to 14) (size 15 to 20)
#    0.000    0.750    2.500    5.250    5.250    1.500 
#    2.250    0.000    0.000    0.000    0.000    0.000 
#    0.000    0.000    0.000    0.000    0.000    0.000 
#
# Total GULP energy -89402.475175 kJ/mol
# GULP energy per Si atom -5587.654698 kJ/mol
# Density = 2.226857 g / cm^3
# Si number density = 22.319371 Si / 1000 Ang^3
#
#
#
# Elastic Constant Matrix: (Units=GPa)
#
#
# Indices 1 2 3 4 5 6 
#
# 1 114.6652 18.4120 32.6161 -6.2385 -0.7459 0.1939
# 2 18.4120 96.8586 27.3124 -29.1741 -11.3818 -7.6338
# 3 32.6161 27.3124 94.7957 -34.7516 -13.5422 -1.7608
# 4 -6.2385 -29.1741 -34.7516 46.7543 8.7106 -10.2008
# 5 -0.7459 -11.3818 -13.5422 8.7106 32.2404 -2.6052
# 6 0.1939 -7.6338 -1.7608 -10.2008 -2.6052 32.0629
#
#
#
# Elastic Compliance Matrix: (Units=1/GPa)
#
#
# Indices 1 2 3 4 5 6 
#
# 1 0.010100 -0.002020 -0.004359 -0.003285 -0.001581 -0.001955
# 2 -0.002020 0.014529 0.000927 0.010434 0.003227 0.007104
# 3 -0.004359 0.000927 0.017433 0.013406 0.004398 0.005827
# 4 -0.003285 0.010434 0.013406 0.041075 -0.000545 0.016264
# 5 -0.001581 0.003227 0.004398 -0.000545 0.034408 0.003642
# 6 -0.001955 0.007104 0.005827 0.016264 0.003642 0.038682
#
#
# Mechanical properties :
#
#
# Convention : Reuss Voigt Hill
#
# Bulk Modulus (GPa) = 32.09589 51.44450 41.77020
# Shear Modulus (GPa) = 28.16619 37.41011 32.78815
#
# Velocity S-wave (km/s) = 3.55626 4.09850 3.83697
# Velocity P-wave (km/s) = 5.59233 6.74509 6.19558
#
# Compressibility (1/GPa) = 0.03115663
#
# Stress axis : x y z
#
# Youngs Moduli (GPa) = 99.01266 68.82922 57.36219
#
# Poissons Ratio (x) = 0.13903 0.25007
# Poissons Ratio (y) = 0.20000 -0.05317
# Poissons Ratio (z) = 0.43164 -0.06380
#
# Static dielectric constant tensor:
#      x y z
#    x 1.816120 -0.028420 0.034770 
#    y -0.028420 1.926580 -0.084750 
#    z 0.034770 -0.084750 1.894920 
# 
# From -- ./inp_files/106562.got.cif
#   From: 2010.05.17/outbox.cif.g08.bks.cpg/sg2_54_cif.got.tgz:106562.got - 2010.06.03 11:33:40.
