data_PCOD9042144
_publ_section_title
;
Structure prediction by ZEFSAII (Michael W. Deem and Ramdas Pophale) SiO2 
 PCOD9042144
Probable space group: P -1
;
_chemical_formula_sum "Si O2"
_cell_formula_units_Z 16
_cell_length_a 15.060392
_cell_length_b 15.056975
_cell_length_c 9.202255
_cell_angle_alpha 37.588647
_cell_angle_beta 38.154589
_cell_angle_gamma 38.700497
_cell_volume 714.572098
_symmetry_space_group_name_H-M "P -1"
_symmetry_group_IT_number 2
_symmetry_cell_setting 'triclinic'
loop_
_space_group_symop_operation_xyz
x,y,z
-x,-y,-z
loop_
_atom_site_type_symbol
_atom_site_label
_atom_site_fract_x
_atom_site_fract_y
_atom_site_fract_z
Si Si1 0.636384 0.482480 0.177331
Si Si2 0.682117 0.889647 0.931199
Si Si3 0.434030 0.795441 0.861216
Si Si4 0.039767 0.019913 0.590703
Si Si5 0.343453 0.424057 0.655579
Si Si6 0.046186 0.709415 0.146303
Si Si7 0.170640 0.690288 0.318677
Si Si8 0.289479 0.155476 0.705688
O O1 0.526070 0.385171 0.430427
O O2 0.685117 0.471715 0.296739
O O3 0.521194 0.666080 0.044108
O O4 0.792439 0.422699 0.956551
O O5 0.794916 0.965839 0.626633
O O6 0.702004 0.720525 0.060605
O O7 0.720204 0.861878 0.088313
O O8 0.500000 0.000000 0.000000
O O9 0.569522 0.795809 0.580415
O O10 0.339300 0.977253 0.804222
O O11 0.314458 0.731722 0.025461
O O12 0.912401 0.181934 0.614026
O O13 0.000000 0.000000 0.500000
O O14 0.041249 0.873938 0.872631
O O15 0.241321 0.519923 0.526639
O O16 0.058952 0.705805 0.307700
O O17 0.877952 0.716944 0.303959
#
# Coordination Sequence:
#
# PCOD9042144 Si02
#       8
#     2   2   2   2   2   2   2   2
#     4  10  23  45  72  99 138 187 227 288 351 416
#     4  12  26  43  72 102 135 182 240 286 339 419
#     4  10  23  44  69  95 141 180 231 279 349 417
#     4  12  24  46  70 101 144 182 230 287 348 410
#     4  10  24  45  70 102 139 183 237 280 351 415
#     4  12  25  43  70 105 138 184 231 287 355 406
#     4  11  25  43  73 100 138 184 234 284 346 420
#     4  11  25  43  67 103 140 180 229 290 350 408
#
# _framework density 22.391023000000001
#
# number of rings (size 3 to 8) (size 9 to 14) (size 15 to 20)
#    0.000    1.000    2.500    2.625    5.250    6.000 
#    0.000    0.000    0.000    0.000    0.000    0.000 
#    0.000    0.000    0.000    0.000    0.000    0.000 
#
# Total GULP energy -89532.584427 kJ/mol
# GULP energy per Si atom -5595.786527 kJ/mol
# Density = 2.234006 g / cm^3
# Si number density = 22.391023 Si / 1000 Ang^3
#
#
#
# Elastic Constant Matrix: (Units=GPa)
#
#
# Indices 1 2 3 4 5 6 
#
# 1 98.7172 20.3102 -5.9529 8.9218 9.9309 -17.0681
# 2 20.3102 65.0278 3.5889 13.0388 -2.2862 -8.8182
# 3 -5.9529 3.5889 52.0983 7.7717 -17.3745 -3.3306
# 4 8.9218 13.0388 7.7717 33.4077 -3.5951 1.6410
# 5 9.9309 -2.2862 -17.3745 -3.5951 38.9490 4.3274
# 6 -17.0681 -8.8182 -3.3306 1.6410 4.3274 23.6424
#
#
#
# Elastic Compliance Matrix: (Units=1/GPa)
#
#
# Indices 1 2 3 4 5 6 
#
# 1 0.013185 -0.002206 0.001445 -0.003950 -0.004319 0.009964
# 2 -0.002206 0.018191 -0.000016 -0.006740 0.000380 0.005588
# 3 0.001445 -0.000016 0.023385 -0.004968 0.009273 0.002979
# 4 -0.003950 -0.006740 -0.004968 0.035506 0.002675 -0.009020
# 5 -0.004319 0.000380 0.009273 0.002675 0.032039 -0.007720
# 6 0.009964 0.005588 0.002979 -0.009020 -0.007720 0.054033
#
#
# Mechanical properties :
#
#
# Convention : Reuss Voigt Hill
#
# Bulk Modulus (GPa) = 18.79505 27.97063 23.38284
# Shear Modulus (GPa) = 25.55868 32.39296 28.97582
#
# Velocity S-wave (km/s) = 3.38223 3.80767 3.60124
# Velocity P-wave (km/s) = 4.86466 5.64359 5.26854
#
# Compressibility (1/GPa) = 0.05320550
#
# Stress axis : x y z
#
# Youngs Moduli (GPa) = 75.84240 54.97319 42.76321
#
# Poissons Ratio (x) = 0.12130 -0.06178
# Poissons Ratio (y) = 0.16734 0.00067
# Poissons Ratio (z) = -0.10956 0.00086
#
# Static dielectric constant tensor:
#      x y z
#    x 1.803150 0.004110 -0.027620 
#    y 0.004110 1.839850 -0.006660 
#    z -0.027620 -0.006660 1.826390 
# 
# From -- ./inp_files/209077.got.cif
#   From: 2010.05.17/outbox.cif.g08.bks.cpg/sg2_105_cif.got.tgz:209077.got - 2010.06.03 11:33:40.
