data_PCOD9042216
_publ_section_title
;
Structure prediction by ZEFSAII (Michael W. Deem and Ramdas Pophale) SiO2 
 PCOD9042216
Probable space group: P -1
;
_chemical_formula_sum "Si O2"
_cell_formula_units_Z 16
_cell_length_a 8.486187
_cell_length_b 12.196615
_cell_length_c 23.058053
_cell_angle_alpha 35.417015
_cell_angle_beta 131.484121
_cell_angle_gamma 149.014177
_cell_volume 706.768649
_symmetry_space_group_name_H-M "P -1"
_symmetry_group_IT_number 2
_symmetry_cell_setting 'triclinic'
loop_
_space_group_symop_operation_xyz
x,y,z
-x,-y,-z
loop_
_atom_site_type_symbol
_atom_site_label
_atom_site_fract_x
_atom_site_fract_y
_atom_site_fract_z
Si Si1 0.783122 0.081967 0.563683
Si Si2 0.942453 0.068251 0.731712
Si Si3 0.588332 0.038471 0.757625
Si Si4 0.212549 0.450984 0.943171
Si Si5 0.199492 0.682703 0.192465
Si Si6 0.655528 0.654308 0.637066
Si Si7 0.864617 0.207674 0.077208
Si Si8 0.540791 0.348449 0.533564
O O1 0.754967 0.024273 0.650029
O O2 0.091412 0.410050 0.492295
O O3 0.500000 0.000000 0.500000
O O4 0.805771 0.898111 0.613914
O O5 0.788791 0.031563 0.769609
O O6 0.293461 0.376799 0.682926
O O7 0.964292 0.856292 0.822968
O O8 0.777926 0.266049 0.755901
O O9 0.457096 0.107750 0.652252
O O10 0.339284 0.746827 0.855499
O O11 0.073916 0.376474 0.877218
O O12 0.500000 0.500000 0.000000
O O13 0.945555 0.232155 0.018514
O O14 0.191245 0.451586 0.280940
O O15 0.510952 0.954620 0.118513
O O16 0.637620 0.735090 0.533790
O O17 0.000000 0.500000 0.000000
O O18 0.500000 0.500000 0.500000
#
# Coordination Sequence:
#
# PCOD9042216 Si02
#       8
#     2   2   2   2   2   2   2   2
#     4  11  24  43  69  99 135 185 231 268 340 410
#     4  10  24  44  69 100 140 178 226 287 337 401
#     4  12  24  45  69 102 143 175 231 284 344 405
#     4  12  27  48  68 102 138 181 229 289 349 403
#     4  11  26  43  74 103 133 181 233 279 349 415
#     4  10  23  44  70 101 137 182 232 274 338 414
#     4  11  23  48  70  99 133 180 230 288 344 404
#     4  11  24  42  66 102 145 177 220 286 340 396
#
# _framework density 22.638242000000002
#
# number of rings (size 3 to 8) (size 9 to 14) (size 15 to 20)
#    0.000    1.000    3.750    1.875    3.500    6.000 
#    0.000    0.000    0.000    0.000    0.000    0.000 
#    0.000    0.000    0.000    0.000    0.000    0.000 
#
# Total GULP energy -89523.846487 kJ/mol
# GULP energy per Si atom -5595.240405 kJ/mol
# Density = 2.258672 g / cm^3
# Si number density = 22.638242 Si / 1000 Ang^3
#
#
#
# Elastic Constant Matrix: (Units=GPa)
#
#
# Indices 1 2 3 4 5 6 
#
# 1 92.7955 38.7346 36.8488 8.8659 1.3077 -2.9106
# 2 38.7346 96.6896 47.3977 4.0813 -2.0336 3.3723
# 3 36.8488 47.3977 137.1665 5.5753 8.6264 9.7260
# 4 8.8659 4.0813 5.5753 30.1317 -13.4615 7.5823
# 5 1.3077 -2.0336 8.6264 -13.4615 37.2528 6.8325
# 6 -2.9106 3.3723 9.7260 7.5823 6.8325 33.0224
#
#
#
# Elastic Compliance Matrix: (Units=1/GPa)
#
#
# Indices 1 2 3 4 5 6 
#
# 1 0.014276 -0.004664 -0.002104 -0.005641 -0.003094 0.004290
# 2 -0.004664 0.014086 -0.003741 0.001840 0.002784 -0.001746
# 3 -0.002104 -0.003741 0.009482 -0.001275 -0.002458 -0.001795
# 4 -0.005641 0.001840 -0.001275 0.048088 0.020843 -0.015664
# 5 -0.003094 0.002784 -0.002458 0.020843 0.037474 -0.012373
# 6 0.004290 -0.001746 -0.001795 -0.015664 -0.012373 0.037524
#
#
# Mechanical properties :
#
#
# Convention : Reuss Voigt Hill
#
# Bulk Modulus (GPa) = 59.42869 63.62376 61.52622
# Shear Modulus (GPa) = 26.65873 33.65943 30.15908
#
# Velocity S-wave (km/s) = 3.43534 3.86014 3.65392
# Velocity P-wave (km/s) = 6.48412 6.93059 6.71107
#
# Compressibility (1/GPa) = 0.01682689
#
# Stress axis : x y z
#
# Youngs Moduli (GPa) = 70.04844 70.99059 105.46627
#
# Poissons Ratio (x) = 0.33113 0.22186
# Poissons Ratio (y) = 0.32673 0.39450
# Poissons Ratio (z) = 0.14736 0.26554
#
# Static dielectric constant tensor:
#      x y z
#    x 1.853900 0.021940 -0.009710 
#    y 0.021940 1.840270 -0.018150 
#    z -0.009710 -0.018150 1.832420 
# 
# From -- ./inp_files/39446.got.cif
#   From: 2010.05.17/outbox.cif.g08.bks.cpg/sg2_20_cif.got.tgz:39446.got - 2010.06.03 11:33:40.
