data_PCOD9042533
_publ_section_title
;
Structure prediction by ZEFSAII (Michael W. Deem and Ramdas Pophale) SiO2 
 PCOD9042533
Probable space group: P -1
;
_chemical_formula_sum "Si O2"
_cell_formula_units_Z 16
_cell_length_a 17.020720
_cell_length_b 9.522408
_cell_length_c 7.233169
_cell_angle_alpha 67.761722
_cell_angle_beta 62.641452
_cell_angle_gamma 117.419560
_cell_volume 612.908149
_symmetry_space_group_name_H-M "P -1"
_symmetry_group_IT_number 2
_symmetry_cell_setting 'triclinic'
loop_
_space_group_symop_operation_xyz
x,y,z
-x,-y,-z
loop_
_atom_site_type_symbol
_atom_site_label
_atom_site_fract_x
_atom_site_fract_y
_atom_site_fract_z
Si Si1 0.089567 0.717196 0.431264
Si Si2 0.385309 0.196165 0.947598
Si Si3 0.154058 0.542332 0.730712
Si Si4 0.315750 0.982768 0.519171
Si Si5 0.606852 0.453390 0.070630
Si Si6 0.322963 0.481014 0.475222
Si Si7 0.095001 0.231697 0.400660
Si Si8 0.120846 0.015808 0.785044
O O1 0.105976 0.630930 0.632479
O O2 0.000000 0.500000 0.500000
O O3 0.991988 0.732528 0.536050
O O4 0.248451 0.977081 0.084797
O O5 0.383218 0.364382 0.947006
O O6 0.367359 0.061383 0.211163
O O7 0.540982 0.371386 0.621548
O O8 0.219200 0.705547 0.763887
O O9 0.272721 0.587489 0.497027
O O10 0.020348 0.257764 0.984629
O O11 0.228154 0.020659 0.623418
O O12 0.455830 0.177405 0.391985
O O13 0.628868 0.492858 0.802075
O O14 0.744232 0.547944 0.944306
O O15 0.198047 0.195520 0.789843
O O16 0.102862 0.151197 0.625152
O O17 0.000000 0.000000 0.500000
#
# Coordination Sequence:
#
# PCOD9042533 Si02
#       8
#     2   2   2   2   2   2   2   2
#     4  11  23  37  54  85 118 147 180 235 291 333
#     4  10  17  34  59  81 111 141 195 241 272 321
#     4  11  24  36  54  88 123 144 180 239 295 327
#     4  10  18  33  57  84 111 144 186 239 284 312
#     4  10  17  33  59  84 108 140 198 242 266 326
#     4  10  19  33  59  84 108 147 195 234 276 325
#     4  11  20  34  61  85 109 150 192 224 275 338
#     4  11  20  37  60  82 115 152 189 230 275 346
#
# _framework density 26.105053000000002
#
# number of rings (size 3 to 8) (size 9 to 14) (size 15 to 20)
#    0.000    1.500    5.000    3.750    0.000    5.500 
#    0.000    0.000    0.000    9.000    0.000    0.000 
#    0.000    0.000    0.000    0.000    0.000    0.000 
#
# Total GULP energy -89219.690696 kJ/mol
# GULP energy per Si atom -5576.230669 kJ/mol
# Density = 2.604564 g / cm^3
# Si number density = 26.105053 Si / 1000 Ang^3
#
#
#
# Elastic Constant Matrix: (Units=GPa)
#
#
# Indices 1 2 3 4 5 6 
#
# 1 132.3137 56.1442 77.9018 -16.4552 -29.0485 -32.3872
# 2 56.1442 159.8338 73.8934 -46.7201 -38.4345 -36.9421
# 3 77.9018 73.8934 181.0945 -44.5148 -70.8494 -11.7394
# 4 -16.4552 -46.7201 -44.5148 53.1030 13.8420 -10.0371
# 5 -29.0485 -38.4345 -70.8494 13.8420 70.2983 -1.1698
# 6 -32.3872 -36.9421 -11.7394 -10.0371 -1.1698 54.9619
#
#
#
# Elastic Compliance Matrix: (Units=1/GPa)
#
#
# Indices 1 2 3 4 5 6 
#
# 1 0.011856 -0.000641 -0.004202 0.000603 0.000291 0.005774
# 2 -0.000641 0.014402 0.001023 0.014055 0.006076 0.012217
# 3 -0.004202 0.001023 0.013377 0.008573 0.010665 0.002861
# 4 0.000603 0.014055 0.008573 0.039821 0.009051 0.019098
# 5 0.000291 0.006076 0.010665 0.009051 0.026779 0.008756
# 6 0.005774 0.012217 0.002861 0.019098 0.008756 0.034093
#
#
# Mechanical properties :
#
#
# Convention : Reuss Voigt Hill
#
# Bulk Modulus (GPa) = 31.25510 98.79117 65.02314
# Shear Modulus (GPa) = 31.51901 53.35948 42.43925
#
# Velocity S-wave (km/s) = 3.47852 4.52600 4.03638
# Velocity P-wave (km/s) = 5.30399 8.07705 6.83268
#
# Compressibility (1/GPa) = 0.03199477
#
# Stress axis : x y z
#
# Youngs Moduli (GPa) = 84.34361 69.43602 74.75327
#
# Poissons Ratio (x) = 0.04453 0.31415
# Poissons Ratio (y) = 0.05409 -0.07650
# Poissons Ratio (z) = 0.35445 -0.07106
#
# Static dielectric constant tensor:
#      x y z
#    x 2.226900 0.346440 0.043380 
#    y 0.346440 2.291610 0.050260 
#    z 0.043380 0.050260 2.334450 
# 
# From -- ./inp_files/316129.got.cif
#   From: 2010.05.17/outbox.cif.g08.bks.cpg/sg2_159_cif.got.tgz:316129.got - 2010.06.03 11:33:40.
