data_PCOD9042868
_publ_section_title
;
Structure prediction by ZEFSAII (Michael W. Deem and Ramdas Pophale) SiO2 
 PCOD9042868
Probable space group: P -1
;
_chemical_formula_sum "Si O2"
_cell_formula_units_Z 12
_cell_length_a 10.575859
_cell_length_b 10.225198
_cell_length_c 12.776491
_cell_angle_alpha 45.792934
_cell_angle_beta 33.945589
_cell_angle_gamma 39.137448
_cell_volume 481.262507
_symmetry_space_group_name_H-M "P -1"
_symmetry_group_IT_number 2
_symmetry_cell_setting 'triclinic'
loop_
_space_group_symop_operation_xyz
x,y,z
-x,-y,-z
loop_
_atom_site_type_symbol
_atom_site_label
_atom_site_fract_x
_atom_site_fract_y
_atom_site_fract_z
Si Si1 0.090006 0.120724 0.991107
Si Si2 0.971857 0.558203 0.773237
Si Si3 0.450105 0.601085 0.177793
Si Si4 0.123133 0.131809 0.525600
Si Si5 0.564587 0.192921 0.225941
Si Si6 0.219927 0.688830 0.706644
O O1 0.067275 0.312609 0.827854
O O2 0.338813 0.914585 0.893855
O O3 0.834458 0.098148 0.157238
O O4 0.030276 0.219475 0.092982
O O5 0.932626 0.700390 0.621073
O O6 0.164236 0.579982 0.709693
O O7 0.686787 0.644581 0.972482
O O8 0.161343 0.790676 0.275201
O O9 0.457780 0.439267 0.175374
O O10 0.536559 0.467628 0.301905
O O11 0.335508 0.149279 0.440931
O O12 0.235659 0.892593 0.546440
#
# Coordination Sequence:
#
# PCOD9042868 Si02
#       6
#     2   2   2   2   2   2
#     4   9  20  43  74  88 125 180 205 259 327 373
#     4  10  23  45  65  94 130 170 215 260 315 379
#     4  10  24  45  66  94 128 172 212 260 321 377
#     4  12  25  39  66 102 128 165 211 268 320 373
#     4   9  21  43  63  99 128 163 215 262 319 382
#     4  10  23  45  65  94 130 170 215 260 315 379
#
# _framework density 24.934418000000001
#
# number of rings (size 3 to 8) (size 9 to 14) (size 15 to 20)
#    0.000    2.333    0.000    3.000    4.667    6.667 
#   18.000    0.000    0.000    0.000    0.000    0.000 
#    0.000    0.000    0.000    0.000    0.000    0.000 
#
# Total GULP energy -67096.933035 kJ/mol
# GULP energy per Si atom -5591.411086 kJ/mol
# Density = 2.487767 g / cm^3
# Si number density = 24.934418 Si / 1000 Ang^3
#
#
#
# Elastic Constant Matrix: (Units=GPa)
#
#
# Indices 1 2 3 4 5 6 
#
# 1 95.5457 48.5937 20.0526 -11.8590 -13.5288 -7.4841
# 2 48.5937 92.9458 22.1140 -0.0048 -14.4721 -18.9714
# 3 20.0526 22.1140 89.9437 -15.1378 -12.5034 -9.5665
# 4 -11.8590 -0.0048 -15.1378 50.6417 -5.2560 -1.8287
# 5 -13.5288 -14.4721 -12.5034 -5.2560 44.9476 -3.0486
# 6 -7.4841 -18.9714 -9.5665 -1.8287 -3.0486 26.0386
#
#
#
# Elastic Compliance Matrix: (Units=1/GPa)
#
#
# Indices 1 2 3 4 5 6 
#
# 1 0.015166 -0.007595 -0.000698 0.003546 0.002278 -0.000915
# 2 -0.007595 0.017767 -0.001275 -0.001397 0.003637 0.010621
# 3 -0.000698 -0.001275 0.013356 0.004399 0.003917 0.004545
# 4 0.003546 -0.001397 0.004399 0.022518 0.004729 0.003753
# 5 0.002278 0.003637 0.003917 0.004729 0.026301 0.008155
# 6 -0.000915 0.010621 0.004545 0.003753 0.008155 0.048768
#
#
# Mechanical properties :
#
#
# Convention : Reuss Voigt Hill
#
# Bulk Modulus (GPa) = 36.82772 51.10620 43.96696
# Shear Modulus (GPa) = 29.05909 36.83726 32.94818
#
# Velocity S-wave (km/s) = 3.41753 3.84782 3.63904
# Velocity P-wave (km/s) = 5.51131 6.34679 5.94375
#
# Compressibility (1/GPa) = 0.02715346
#
# Stress axis : x y z
#
# Youngs Moduli (GPa) = 65.93511 56.28297 74.87548
#
# Poissons Ratio (x) = 0.42748 0.05225
# Poissons Ratio (y) = 0.50079 0.09546
# Poissons Ratio (z) = 0.04601 0.07175
#
# Static dielectric constant tensor:
#      x y z
#    x 1.966770 -0.019040 0.100580 
#    y -0.019040 1.929220 -0.000440 
#    z 0.100580 -0.000440 2.035700 
# 
# From -- ./inp_files/517560.got.cif
#   From: 2010.05.17/outbox.cif.g08.bks.cpg/sg2_259_cif.got.tgz:517560.got - 2010.06.03 11:33:40.
