data_PCOD9042350
_publ_section_title
;
Structure prediction by ZEFSAII (Michael W. Deem and Ramdas Pophale) SiO2 
 PCOD9042350
Probable space group: P -1
;
_chemical_formula_sum "Si O2"
_cell_formula_units_Z 16
_cell_length_a 7.688055
_cell_length_b 10.799015
_cell_length_c 13.157839
_cell_angle_alpha 69.178711
_cell_angle_beta 130.104733
_cell_angle_gamma 125.254331
_cell_volume 682.072852
_symmetry_space_group_name_H-M "P -1"
_symmetry_group_IT_number 2
_symmetry_cell_setting 'triclinic'
loop_
_space_group_symop_operation_xyz
x,y,z
-x,-y,-z
loop_
_atom_site_type_symbol
_atom_site_label
_atom_site_fract_x
_atom_site_fract_y
_atom_site_fract_z
Si Si1 0.517158 0.115999 0.384279
Si Si2 0.231206 0.662515 0.067021
Si Si3 0.104968 0.565721 0.629657
Si Si4 0.742176 0.722957 0.630763
Si Si5 0.954382 0.072083 0.860714
Si Si6 0.623682 0.396406 0.653277
Si Si7 0.195377 0.911480 0.878649
Si Si8 0.637218 0.600584 0.119412
O O1 0.775902 0.253414 0.392132
O O2 0.394277 0.209891 0.366509
O O3 0.500000 0.000000 0.500000
O O4 0.345961 0.010947 0.258189
O O5 0.327160 0.687010 0.211222
O O6 0.462763 0.667354 0.083742
O O7 0.112112 0.770345 0.963244
O O8 0.000000 0.500000 0.000000
O O9 0.306207 0.508903 0.756021
O O10 0.000000 0.500000 0.500000
O O11 0.868811 0.482071 0.644692
O O12 0.628625 0.544218 0.662268
O O13 0.630127 0.710935 0.477666
O O14 0.050578 0.826406 0.743850
O O15 0.096840 0.252145 0.857621
O O16 0.082268 0.020350 0.834161
O O17 0.000000 0.000000 0.000000
O O18 0.500000 0.000000 0.000000
O O19 0.500000 0.500000 0.000000
#
# Coordination Sequence:
#
# PCOD9042350 Si02
#       8
#     2   2   2   2   2   2   2   2
#     4  11  24  47  69 100 142 184 226 289 358 421
#     4  12  25  43  73 102 143 186 237 292 345 419
#     4  12  25  43  73 100 141 183 235 287 345 422
#     4  10  23  44  70  99 138 183 231 291 347 417
#     4  11  26  43  70 100 143 182 230 291 352 415
#     4  11  24  44  71 107 137 181 240 290 348 405
#     4  11  24  47  69  97 142 190 232 285 354 420
#     4  12  27  46  70 109 135 185 244 289 351 419
#
# _framework density 23.457903999999999
#
# number of rings (size 3 to 8) (size 9 to 14) (size 15 to 20)
#    0.000    0.750    3.750    3.000    7.000    1.000 
#    0.000    1.250    0.000    0.000    0.000    0.000 
#    0.000    0.000    0.000    0.000    0.000    0.000 
#
# Total GULP energy -89329.150089 kJ/mol
# GULP energy per Si atom -5583.071881 kJ/mol
# Density = 2.340451 g / cm^3
# Si number density = 23.457904 Si / 1000 Ang^3
#
#
#
# Elastic Constant Matrix: (Units=GPa)
#
#
# Indices 1 2 3 4 5 6 
#
# 1 76.9113 10.8271 11.8708 8.3656 -8.5186 -3.0507
# 2 10.8271 143.0405 63.4354 20.3307 -6.0971 8.3752
# 3 11.8708 63.4354 194.3677 29.3048 -10.2414 10.8535
# 4 8.3656 20.3307 29.3048 54.9273 1.1085 11.6261
# 5 -8.5186 -6.0971 -10.2414 1.1085 28.4196 1.0186
# 6 -3.0507 8.3752 10.8535 11.6261 1.0186 32.1927
#
#
#
# Elastic Compliance Matrix: (Units=1/GPa)
#
#
# Indices 1 2 3 4 5 6 
#
# 1 0.013903 -0.000584 -0.000223 -0.002342 0.003972 0.002265
# 2 -0.000584 0.008402 -0.002372 -0.001583 0.000867 -0.000897
# 3 -0.000223 -0.002372 0.006435 -0.002397 0.001864 -0.000767
# 4 -0.002342 -0.001583 -0.002397 0.021926 -0.002515 -0.006841
# 5 0.003972 0.000867 0.001864 -0.002515 0.037360 -0.000751
# 6 0.002265 -0.000897 -0.000767 -0.006841 -0.000751 0.034264
#
#
# Mechanical properties :
#
#
# Convention : Reuss Voigt Hill
#
# Bulk Modulus (GPa) = 44.67756 65.17623 54.92690
# Shear Modulus (GPa) = 36.73562 44.98700 40.86131
#
# Velocity S-wave (km/s) = 3.96159 4.38399 4.17813
# Velocity P-wave (km/s) = 6.32557 7.31235 6.83679
#
# Compressibility (1/GPa) = 0.02238260
#
# Stress axis : x y z
#
# Youngs Moduli (GPa) = 71.92647 119.02510 155.40001
#
# Poissons Ratio (x) = 0.06952 0.03458
# Poissons Ratio (y) = 0.04201 0.36860
# Poissons Ratio (z) = 0.01601 0.28232
#
# Static dielectric constant tensor:
#      x y z
#    x 1.408200 -1.878060 0.829200 
#    y -1.878060 -4.472330 2.495030 
#    z 0.829200 2.495030 0.889840 
# 
# From -- ./inp_files/392480.got.cif
#   From: 2010.05.17/outbox.cif.g08.bks.cpg/sg2_197_cif.got.tgz:392480.got - 2010.06.03 11:33:40.
