data_PCOD9042225
_publ_section_title
;
Structure prediction by ZEFSAII (Michael W. Deem and Ramdas Pophale) SiO2 
 PCOD9042225
Probable space group: P -1
;
_chemical_formula_sum "Si O2"
_cell_formula_units_Z 14
_cell_length_a 18.927780
_cell_length_b 12.062382
_cell_length_c 12.442485
_cell_angle_alpha 143.126140
_cell_angle_beta 26.298384
_cell_angle_gamma 153.934626
_cell_volume 552.815709
_symmetry_space_group_name_H-M "P -1"
_symmetry_group_IT_number 2
_symmetry_cell_setting 'triclinic'
loop_
_space_group_symop_operation_xyz
x,y,z
-x,-y,-z
loop_
_atom_site_type_symbol
_atom_site_label
_atom_site_fract_x
_atom_site_fract_y
_atom_site_fract_z
Si Si1 0.033937 0.946991 0.292583
Si Si2 0.737966 0.395015 0.326132
Si Si3 0.138672 0.683102 0.677109
Si Si4 0.682868 0.231343 0.855086
Si Si5 0.486375 0.153749 0.857687
Si Si6 0.907088 0.047503 0.329734
Si Si7 0.702068 0.782299 0.188172
O O1 0.924747 0.657915 0.217346
O O2 0.923872 0.977542 0.371710
O O3 0.292098 0.128523 0.061023
O O4 0.000000 0.000000 0.500000
O O5 0.820641 0.367457 0.300953
O O6 0.618860 0.137487 0.223560
O O7 0.555085 0.403109 0.611842
O O8 0.885354 0.474731 0.831397
O O9 0.300889 0.692563 0.387300
O O10 0.216780 0.954393 0.765460
O O11 0.552459 0.252735 0.965464
O O12 0.799816 0.162687 0.573348
O O13 0.500000 0.000000 0.000000
O O14 0.768278 0.827445 0.258828
O O15 0.147910 0.237479 0.098429
#
# Coordination Sequence:
#
# PCOD9042225 Si02
#       7
#     2   2   2   2   2   2   2
#     4  12  26  43  64 102 142 178 217 279 345 399
#     4  11  22  43  70  98 132 177 228 274 331 399
#     4  11  22  43  73  98 130 176 230 278 328 398
#     4  12  25  44  66 101 138 174 220 276 341 401
#     4  11  23  44  67  95 130 178 232 266 326 404
#     4  11  23  45  66  97 142 168 228 274 339 398
#     4  10  23  44  70 102 128 178 232 281 329 394
#
# _framework density 25.324895000000001
#
# number of rings (size 3 to 8) (size 9 to 14) (size 15 to 20)
#    0.000    0.857    2.857    6.857    0.000    2.857 
#    7.714    2.857    0.000    0.000    0.000    0.000 
#    0.000    0.000    0.000    0.000    0.000    0.000 
#
# Total GULP energy -78488.735687 kJ/mol
# GULP energy per Si atom -5606.338263 kJ/mol
# Density = 2.526725 g / cm^3
# Si number density = 25.324895 Si / 1000 Ang^3
#
#
#
# Elastic Constant Matrix: (Units=GPa)
#
#
# Indices 1 2 3 4 5 6 
#
# 1 180.5743 33.5504 5.6548 -4.3964 -9.7536 12.0567
# 2 33.5504 93.9212 14.2247 -22.7991 -2.2382 15.0696
# 3 5.6548 14.2247 114.9922 -10.9998 -7.6967 11.2971
# 4 -4.3964 -22.7991 -10.9998 39.4204 7.1474 -6.8956
# 5 -9.7536 -2.2382 -7.6967 7.1474 40.2305 -4.9286
# 6 12.0567 15.0696 11.2971 -6.8956 -4.9286 24.2743
#
#
#
# Elastic Compliance Matrix: (Units=1/GPa)
#
#
# Indices 1 2 3 4 5 6 
#
# 1 0.006098 -0.002141 0.000128 -0.001081 0.001357 -0.001791
# 2 -0.002141 0.014097 -0.000511 0.007083 -0.001802 -0.005804
# 3 0.000128 -0.000511 0.009308 0.001518 0.001094 -0.003425
# 4 -0.001081 0.007083 0.001518 0.031206 -0.004712 0.003341
# 5 0.001357 -0.001802 0.001094 -0.004712 0.026622 0.004002
# 6 -0.001791 -0.005804 -0.003425 0.003341 0.004002 0.049045
#
#
# Mechanical properties :
#
#
# Convention : Reuss Voigt Hill
#
# Bulk Modulus (GPa) = 40.88989 55.14973 48.01981
# Shear Modulus (GPa) = 33.42792 43.18890 38.30841
#
# Velocity S-wave (km/s) = 3.63707 4.13412 3.89354
# Velocity P-wave (km/s) = 5.81540 6.67923 6.26223
#
# Compressibility (1/GPa) = 0.02445592
#
# Stress axis : x y z
#
# Youngs Moduli (GPa) = 163.98452 70.93671 107.43311
#
# Poissons Ratio (x) = 0.15184 -0.01378
# Poissons Ratio (y) = 0.35102 0.05494
# Poissons Ratio (z) = -0.02103 0.03628
#
# Static dielectric constant tensor:
#      x y z
#    x 1.942150 0.026950 -0.003380 
#    y 0.026950 2.047330 0.069770 
#    z -0.003380 0.069770 2.040940 
# 
# From -- ./inp_files/465132.got.cif
#   From: 2010.05.17/outbox.cif.g08.bks.cpg/sg2_233_cif.got.tgz:465132.got - 2010.06.03 11:33:40.
