data_PCOD9042467
_publ_section_title
;
Structure prediction by ZEFSAII (Michael W. Deem and Ramdas Pophale) SiO2 
 PCOD9042467
Probable space group: P -1
;
_chemical_formula_sum "Si O2"
_cell_formula_units_Z 12
_cell_length_a 13.741448
_cell_length_b 20.989785
_cell_length_c 24.899753
_cell_angle_alpha 15.113448
_cell_angle_beta 15.946106
_cell_angle_gamma 23.086460
_cell_volume 510.939255
_symmetry_space_group_name_H-M "P -1"
_symmetry_group_IT_number 2
_symmetry_cell_setting 'triclinic'
loop_
_space_group_symop_operation_xyz
x,y,z
-x,-y,-z
loop_
_atom_site_type_symbol
_atom_site_label
_atom_site_fract_x
_atom_site_fract_y
_atom_site_fract_z
Si Si1 0.194250 0.798904 0.301774
Si Si2 0.834172 0.373352 0.769996
Si Si3 0.875032 0.378113 0.400196
Si Si4 0.594036 0.770739 0.494080
Si Si5 0.274486 0.887156 0.761865
Si Si6 0.840128 0.963763 0.555582
O O1 0.028008 0.711331 0.519111
O O2 0.128436 0.538522 0.516299
O O3 0.068937 0.971906 0.180475
O O4 0.500000 0.000000 0.000000
O O5 0.621852 0.552495 0.699451
O O6 0.056273 0.224402 0.732291
O O7 0.537473 0.207272 0.096177
O O8 0.500000 0.500000 0.500000
O O9 0.898941 0.167012 0.515406
O O10 0.170360 0.601129 0.045832
O O11 0.576564 0.012801 0.342512
O O12 0.256638 0.781170 0.626174
O O13 0.500000 0.000000 0.500000
O O14 0.000000 0.000000 0.500000
#
# Coordination Sequence:
#
# PCOD9042467 Si02
#       6
#     2   2   2   2   2   2
#     4  11  23  42  69  99 132 178 233 282 342 412
#     4  10  24  45  71 100 139 183 228 289 352 415
#     4  12  26  42  67 103 140 183 232 285 349 412
#     4  10  23  44  71  98 137 181 229 284 353 411
#     4  11  23  43  70  98 138 178 233 288 344 411
#     4  12  28  43  69 103 140 182 235 289 344 415
#
# _framework density 23.486158
#
# number of rings (size 3 to 8) (size 9 to 14) (size 15 to 20)
#    0.000    1.000    1.667    4.500    4.667    4.000 
#    0.000    0.000    0.000    0.000    0.000    0.000 
#    0.000    0.000    0.000    0.000    0.000    0.000 
#
# Total GULP energy -66885.698373 kJ/mol
# GULP energy per Si atom -5573.808198 kJ/mol
# Density = 2.343270 g / cm^3
# Si number density = 23.486158 Si / 1000 Ang^3
#
#
#
# Elastic Constant Matrix: (Units=GPa)
#
#
# Indices 1 2 3 4 5 6 
#
# 1 151.3448 42.8041 17.2029 -2.4682 16.3138 3.7313
# 2 42.8041 114.3978 15.6538 0.6572 9.3374 11.7710
# 3 17.2029 15.6538 110.3979 -2.8208 12.3106 5.4330
# 4 -2.4682 0.6572 -2.8208 18.0759 0.4116 7.3640
# 5 16.3138 9.3374 12.3106 0.4116 40.5282 0.2657
# 6 3.7313 11.7710 5.4330 7.3640 0.2657 41.0268
#
#
#
# Elastic Compliance Matrix: (Units=1/GPa)
#
#
# Indices 1 2 3 4 5 6 
#
# 1 0.007678 -0.002609 -0.000533 0.001141 -0.002339 -0.000069
# 2 -0.002609 0.010178 -0.000786 0.000240 -0.001041 -0.002615
# 3 -0.000533 -0.000786 0.009657 0.002075 -0.002550 -0.001361
# 4 0.001141 0.000240 0.002075 0.060428 -0.001685 -0.011283
# 5 -0.002339 -0.001041 -0.002550 -0.001685 0.026641 0.000979
# 6 -0.000069 -0.002615 -0.001361 -0.011283 0.000979 0.027330
#
#
# Mechanical properties :
#
#
# Convention : Reuss Voigt Hill
#
# Bulk Modulus (GPa) = 50.86984 58.60690 54.73837
# Shear Modulus (GPa) = 31.98570 39.95814 35.97192
#
# Velocity S-wave (km/s) = 3.69439 4.12922 3.91784
# Velocity P-wave (km/s) = 6.31700 6.90955 6.61991
#
# Compressibility (1/GPa) = 0.01965801
#
# Stress axis : x y z
#
# Youngs Moduli (GPa) = 130.23828 98.25418 103.55213
#
# Poissons Ratio (x) = 0.25630 0.05522
# Poissons Ratio (y) = 0.33973 0.08136
# Poissons Ratio (z) = 0.06945 0.07720
#
# Static dielectric constant tensor:
#      x y z
#    x 0.040510 -0.760020 1.023180 
#    y -0.760020 1.657150 0.469730 
#    z 1.023180 0.469730 1.294500 
# 
# From -- ./inp_files/295948.got.cif
#   From: 2010.05.17/outbox.cif.g08.bks.cpg/sg2_148_cif.got.tgz:295948.got - 2010.06.03 11:33:40.
