data_PCOD9042957
_publ_section_title
;
Structure prediction by ZEFSAII (Michael W. Deem and Ramdas Pophale) SiO2 
 PCOD9042957
Probable space group: P -1
;
_chemical_formula_sum "Si O2"
_cell_formula_units_Z 15
_cell_length_a 8.210406
_cell_length_b 12.197117
_cell_length_c 9.839571
_cell_angle_alpha 47.634169
_cell_angle_beta 113.925009
_cell_angle_gamma 108.779274
_cell_volume 663.761277
_symmetry_space_group_name_H-M "P -1"
_symmetry_group_IT_number 2
_symmetry_cell_setting 'triclinic'
loop_
_space_group_symop_operation_xyz
x,y,z
-x,-y,-z
loop_
_atom_site_type_symbol
_atom_site_label
_atom_site_fract_x
_atom_site_fract_y
_atom_site_fract_z
Si Si1 0.649410 0.384341 0.617998
Si Si2 0.253877 0.261913 0.953520
Si Si3 0.500000 0.500000 0.000000
Si Si4 0.422443 0.871231 0.981786
Si Si5 0.672605 0.259416 0.435804
Si Si6 0.816240 0.899646 0.414483
Si Si7 0.089891 0.341761 0.550863
Si Si8 0.202084 0.041489 0.353415
O O1 0.500000 0.500000 0.500000
O O2 0.655120 0.267341 0.839302
O O3 0.612119 0.298481 0.535275
O O4 0.830587 0.489990 0.579878
O O5 0.340273 0.410006 0.930379
O O6 0.420680 0.184220 0.010013
O O7 0.126713 0.292601 0.758440
O O8 0.163827 0.149337 0.126918
O O9 0.438080 0.658165 0.783039
O O10 0.500000 0.000000 0.000000
O O11 0.279226 0.952630 0.779104
O O12 0.883598 0.317202 0.460966
O O13 0.670771 0.083416 0.550055
O O14 0.792165 0.761997 0.417796
O O15 0.752275 0.861995 0.576813
O O16 0.024909 0.946782 0.424064
#
# Coordination Sequence:
#
# PCOD9042957 Si02
#       8
#     2   2   1   2   2   2   2   2
#     4  12  23  41  67 101 138 177 225 292 338 395
#     4  12  25  44  68 103 137 183 229 284 341 413
#     4  12  26  42  64  98 140 176 228 284 340 414
#     4  12  23  39  66 100 133 175 231 282 333 401
#     4  11  25  44  71 100 138 183 233 283 347 415
#     4  10  23  45  67 103 137 175 230 283 345 411
#     4  11  24  45  72 103 138 181 237 281 341 415
#     4  10  25  44  72  98 140 180 223 287 351 410
#
# _framework density 22.598486000000001
#
# number of rings (size 3 to 8) (size 9 to 14) (size 15 to 20)
#    0.000    0.800    4.000    2.000    1.867    6.400 
#    0.000    0.000    0.000    8.800    0.000    0.000 
#    0.000    0.000    0.000    0.000    0.000    0.000 
#
# Total GULP energy -83678.216955 kJ/mol
# GULP energy per Si atom -5578.547797 kJ/mol
# Density = 2.254705 g / cm^3
# Si number density = 22.598486 Si / 1000 Ang^3
#
#
#
# Elastic Constant Matrix: (Units=GPa)
#
#
# Indices 1 2 3 4 5 6 
#
# 1 76.5299 29.7989 40.9929 7.4294 0.6519 -21.0037
# 2 29.7989 110.5572 28.3344 1.2767 -15.7443 -5.4796
# 3 40.9929 28.3344 151.3339 7.6017 -8.3265 -6.9683
# 4 7.4294 1.2767 7.6017 34.7539 1.2447 4.4922
# 5 0.6519 -15.7443 -8.3265 1.2447 41.6711 0.9857
# 6 -21.0037 -5.4796 -6.9683 4.4922 0.9857 36.5094
#
#
#
# Elastic Compliance Matrix: (Units=1/GPa)
#
#
# Indices 1 2 3 4 5 6 
#
# 1 0.020435 -0.004255 -0.004160 -0.004617 -0.002880 0.010970
# 2 -0.004255 0.010895 -0.000752 0.000678 0.004040 -0.001149
# 3 -0.004160 -0.000752 0.007948 -0.000751 0.001414 -0.000935
# 4 -0.004617 0.000678 -0.000751 0.030757 -0.000588 -0.006466
# 5 -0.002880 0.004040 0.001414 -0.000588 0.025902 -0.001408
# 6 0.010970 -0.001149 -0.000935 -0.006466 -0.001408 0.034184
#
#
# Mechanical properties :
#
#
# Convention : Reuss Voigt Hill
#
# Bulk Modulus (GPa) = 47.74590 59.63037 53.68813
# Shear Modulus (GPa) = 32.16729 38.53986 35.35357
#
# Velocity S-wave (km/s) = 3.77693 4.13415 3.95957
# Velocity P-wave (km/s) = 6.33987 7.01658 6.68679
#
# Compressibility (1/GPa) = 0.02094421
#
# Stress axis : x y z
#
# Youngs Moduli (GPa) = 48.93482 91.78347 125.81634
#
# Poissons Ratio (x) = 0.39053 0.52343
# Poissons Ratio (y) = 0.20822 0.09461
# Poissons Ratio (z) = 0.20358 0.06902
#
# Static dielectric constant tensor:
#      x y z
#    x 1.878610 0.019190 0.021250 
#    y 0.019190 1.906830 0.038120 
#    z 0.021250 0.038120 1.826590 
# 
# From -- ./inp_files/174560.got.cif
#   From: 2010.05.17/outbox.cif.g08.bks.cpg/sg2_88_cif.got.tgz:174560.got - 2010.06.03 11:33:40.
