data_PCOD9042037
_publ_section_title
;
Structure prediction by ZEFSAII (Michael W. Deem and Ramdas Pophale) SiO2 
 PCOD9042037
Probable space group: P -1
;
_chemical_formula_sum "Si O2"
_cell_formula_units_Z 16
_cell_length_a 22.365857
_cell_length_b 5.845035
_cell_length_c 5.390892
_cell_angle_alpha 95.320072
_cell_angle_beta 88.061047
_cell_angle_gamma 89.508230
_cell_volume 701.260826
_symmetry_space_group_name_H-M "P -1"
_symmetry_group_IT_number 2
_symmetry_cell_setting 'triclinic'
loop_
_space_group_symop_operation_xyz
x,y,z
-x,-y,-z
loop_
_atom_site_type_symbol
_atom_site_label
_atom_site_fract_x
_atom_site_fract_y
_atom_site_fract_z
Si Si1 0.566208 0.101364 0.973134
Si Si2 0.064992 0.105443 0.974906
Si Si3 0.066655 0.391887 0.498743
Si Si4 0.807466 0.383789 0.594773
Si Si5 0.188134 0.851589 0.924094
Si Si6 0.565073 0.389021 0.503320
Si Si7 0.308108 0.000418 0.899369
Si Si8 0.689580 0.536836 0.382157
O O1 0.570597 0.247422 0.236717
O O2 0.630397 0.970075 0.953199
O O3 0.565367 0.238818 0.733312
O O4 0.500000 0.000000 0.000000
O O5 0.067850 0.246317 0.735070
O O6 0.073019 0.251900 0.232896
O O7 0.120072 0.930963 0.956661
O O8 0.000000 0.000000 0.000000
O O9 0.127182 0.537160 0.496676
O O10 0.000000 0.500000 0.500000
O O11 0.808010 0.348340 0.887251
O O12 0.748466 0.529984 0.544915
O O13 0.800390 0.173406 0.376972
O O14 0.241874 0.012312 0.028190
O O15 0.500000 0.500000 0.500000
O O16 0.624581 0.539829 0.520880
O O17 0.308621 0.722436 0.781767
O O18 0.308766 0.223665 0.743609
#
# Coordination Sequence:
#
# PCOD9042037 Si02
#       8
#     2   2   2   2   2   2   2   2
#     4  11  23  42  66 100 136 180 228 283 342 408
#     4  12  24  41  64  94 130 175 224 282 340 406
#     4  12  24  41  64  94 130 175 224 282 340 406
#     4  11  23  43  66  96 131 173 222 281 340 406
#     4  11  23  43  66  96 131 173 222 281 340 406
#     4  11  23  42  66 100 136 180 228 283 342 408
#     4  10  23  44  69 100 137 180 228 282 342 408
#     4  10  23  44  69 100 137 180 228 282 342 408
#
# _framework density 22.816047999999999
#
# number of rings (size 3 to 8) (size 9 to 14) (size 15 to 20)
#    0.000    1.000    0.000    6.750    0.000    4.000 
#    0.000   11.250    0.000    0.000    0.000    0.000 
#    0.000    0.000    0.000    0.000    0.000    0.000 
#
# Total GULP energy -89098.667959 kJ/mol
# GULP energy per Si atom -5568.666747 kJ/mol
# Density = 2.276412 g / cm^3
# Si number density = 22.816048 Si / 1000 Ang^3
#
#
#
# Elastic Constant Matrix: (Units=GPa)
#
#
# Indices 1 2 3 4 5 6 
#
# 1 238.7710 37.8988 20.1981 -40.0558 13.4083 0.2413
# 2 37.8988 74.2648 45.8124 -24.3286 14.2030 3.0435
# 3 20.1981 45.8124 143.9480 -28.0603 12.0578 3.2036
# 4 -40.0558 -24.3286 -28.0603 61.1567 -1.1581 2.2187
# 5 13.4083 14.2030 12.0578 -1.1581 44.7890 -23.0399
# 6 0.2413 3.0435 3.2036 2.2187 -23.0399 39.7988
#
#
#
# Elastic Compliance Matrix: (Units=1/GPa)
#
#
# Indices 1 2 3 4 5 6 
#
# 1 0.004965 -0.001567 0.000518 0.002874 -0.001584 -0.001029
# 2 -0.001567 0.020441 -0.004511 0.005105 -0.007727 -0.005948
# 3 0.000518 -0.004511 0.009039 0.002715 -0.001942 -0.001662
# 4 0.002874 0.005105 0.002715 0.021587 -0.005117 -0.004792
# 5 -0.001584 -0.007727 -0.001942 -0.005117 0.037280 0.022624
# 6 -0.001029 -0.005948 -0.001662 -0.004792 0.022624 0.039085
#
#
# Mechanical properties :
#
#
# Convention : Reuss Voigt Hill
#
# Bulk Modulus (GPa) = 42.87129 73.86692 58.36910
# Shear Modulus (GPa) = 33.04844 52.68720 42.86782
#
# Velocity S-wave (km/s) = 3.81001 4.81064 4.33927
# Velocity P-wave (km/s) = 6.17946 7.95623 7.12346
#
# Compressibility (1/GPa) = 0.02332563
#
# Stress axis : x y z
#
# Youngs Moduli (GPa) = 201.40801 48.92013 110.63201
#
# Poissons Ratio (x) = 0.07664 -0.05727
# Poissons Ratio (y) = 0.31553 0.49906
# Poissons Ratio (z) = -0.10426 0.22068
#
# Static dielectric constant tensor:
#      x y z
#    x 1.700730 -0.013870 -0.056150 
#    y -0.013870 1.988040 0.055050 
#    z -0.056150 0.055050 1.817520 
# 
# From -- ./inp_files/114532.got.cif
#   From: 2010.05.17/outbox.cif.g08.bks.cpg/sg2_58_cif.got.tgz:114532.got - 2010.06.03 11:33:40.
