data_PCOD9042867
_publ_section_title
;
Structure prediction by ZEFSAII (Michael W. Deem and Ramdas Pophale) SiO2 
 PCOD9042867
Probable space group: P -1
;
_chemical_formula_sum "Si O2"
_cell_formula_units_Z 16
_cell_length_a 14.347807
_cell_length_b 7.020554
_cell_length_c 13.737267
_cell_angle_alpha 82.692812
_cell_angle_beta 148.841345
_cell_angle_gamma 84.514079
_cell_volume 651.370320
_symmetry_space_group_name_H-M "P -1"
_symmetry_group_IT_number 2
_symmetry_cell_setting 'triclinic'
loop_
_space_group_symop_operation_xyz
x,y,z
-x,-y,-z
loop_
_atom_site_type_symbol
_atom_site_label
_atom_site_fract_x
_atom_site_fract_y
_atom_site_fract_z
Si Si1 0.202648 0.345748 0.815883
Si Si2 0.391518 0.995124 0.777423
Si Si3 0.607012 0.759733 0.809417
Si Si4 0.782410 0.547216 0.469941
Si Si5 0.303843 0.629732 0.757655
Si Si6 0.776899 0.008121 0.803773
Si Si7 0.154573 0.311245 0.270063
Si Si8 0.729675 0.427114 0.801710
O O1 0.168463 0.540567 0.701652
O O2 0.987949 0.354999 0.640096
O O3 0.267297 0.380709 0.979657
O O4 0.386425 0.125397 0.971265
O O5 0.436338 0.935929 0.706089
O O6 0.354374 0.553147 0.695963
O O7 0.265657 0.870722 0.712171
O O8 0.281923 0.241185 0.665724
O O9 0.567895 0.612769 0.705104
O O10 0.736061 0.865772 0.859668
O O11 0.795628 0.626706 0.583789
O O12 0.500000 0.500000 0.000000
O O13 0.661256 0.248176 0.716656
O O14 0.735024 0.915244 0.670577
O O15 0.000000 0.000000 0.000000
O O16 0.196720 0.475237 0.227954
O O17 0.926507 0.342287 0.051162
#
# Coordination Sequence:
#
# PCOD9042867 Si02
#       8
#     2   2   2   2   2   2   2   2
#     4   9  21  42  65  91 129 162 213 267 311 380
#     4   9  23  42  62  94 129 163 213 260 317 381
#     4   9  18  38  57  89 127 160 207 257 301 371
#     4  12  22  40  69  94 128 170 207 269 322 364
#     4  10  23  45  65  94 129 166 212 266 319 387
#     4   9  18  30  58  94 122 163 213 250 308 377
#     4   9  18  32  54  90 125 159 207 255 301 372
#     4   9  16  33  57  84 130 166 196 254 315 354
#
# _framework density 24.563599
#
# number of rings (size 3 to 8) (size 9 to 14) (size 15 to 20)
#    0.750    1.750    1.250    1.125    0.000    4.500 
#    2.250    5.000    0.000    4.500    0.000    0.000 
#    0.000    0.000    0.000    0.000    0.000    0.000 
#
# Total GULP energy -89075.599268 kJ/mol
# GULP energy per Si atom -5567.224954 kJ/mol
# Density = 2.450769 g / cm^3
# Si number density = 24.563599 Si / 1000 Ang^3
#
#
#
# Elastic Constant Matrix: (Units=GPa)
#
#
# Indices 1 2 3 4 5 6 
#
# 1 78.0833 22.4180 30.5594 4.6258 -6.2849 -1.2112
# 2 22.4180 129.2048 17.3036 3.2408 -7.1692 -12.0865
# 3 30.5594 17.3036 79.4000 11.2801 -16.0508 -12.8750
# 4 4.6258 3.2408 11.2801 36.9468 -15.0632 -0.5225
# 5 -6.2849 -7.1692 -16.0508 -15.0632 37.5667 -0.7094
# 6 -1.2112 -12.0865 -12.8750 -0.5225 -0.7094 28.8122
#
#
#
# Elastic Compliance Matrix: (Units=1/GPa)
#
#
# Indices 1 2 3 4 5 6 
#
# 1 0.015777 -0.002222 -0.006168 -0.000161 -0.000542 -0.003041
# 2 -0.002222 0.008542 -0.000211 0.000173 0.001302 0.003431
# 3 -0.006168 -0.000211 0.017736 -0.002157 0.005786 0.007681
# 4 -0.000161 0.000173 -0.002157 0.032702 0.012197 -0.000005
# 5 -0.000542 0.001302 0.005786 0.012197 0.034219 0.004173
# 6 -0.003041 0.003431 0.007681 -0.000005 0.004173 0.039554
#
#
# Mechanical properties :
#
#
# Convention : Reuss Voigt Hill
#
# Bulk Modulus (GPa) = 40.23662 47.47223 43.85442
# Shear Modulus (GPa) = 28.73271 35.09228 31.91250
#
# Velocity S-wave (km/s) = 3.42384 3.78382 3.60832
# Velocity P-wave (km/s) = 5.66095 6.20145 5.93735
#
# Compressibility (1/GPa) = 0.02485298
#
# Stress axis : x y z
#
# Youngs Moduli (GPa) = 63.38141 117.06379 56.38261
#
# Poissons Ratio (x) = 0.26012 0.34777
# Poissons Ratio (y) = 0.14083 0.01192
# Poissons Ratio (z) = 0.39094 0.02475
#
# Static dielectric constant tensor:
#      x y z
#    x 2.115090 0.034900 0.060820 
#    y 0.034900 2.020980 0.065680 
#    z 0.060820 0.065680 2.076050 
# 
# From -- ./inp_files/525708.got.cif
#   From: 2010.05.17/outbox.cif.g08.bks.cpg/sg2_263_cif.got.tgz:525708.got - 2010.06.03 11:33:40.
