data_PCOD9042895
_publ_section_title
;
Structure prediction by ZEFSAII (Michael W. Deem and Ramdas Pophale) SiO2 
 PCOD9042895
Probable space group: P -1
;
_chemical_formula_sum "Si O2"
_cell_formula_units_Z 16
_cell_length_a 17.106602
_cell_length_b 8.427806
_cell_length_c 21.251064
_cell_angle_alpha 135.867493
_cell_angle_beta 161.514794
_cell_angle_gamma 44.424414
_cell_volume 668.588379
_symmetry_space_group_name_H-M "P -1"
_symmetry_group_IT_number 2
_symmetry_cell_setting 'triclinic'
loop_
_space_group_symop_operation_xyz
x,y,z
-x,-y,-z
loop_
_atom_site_type_symbol
_atom_site_label
_atom_site_fract_x
_atom_site_fract_y
_atom_site_fract_z
Si Si1 0.802101 0.478765 0.016394
Si Si2 0.881350 0.300846 0.887513
Si Si3 0.638501 0.051833 0.820846
Si Si4 0.843912 0.996413 0.198284
Si Si5 0.855303 0.543020 0.622269
Si Si6 0.270786 0.989086 0.415599
Si Si7 0.264496 0.947732 0.609675
Si Si8 0.374984 0.322005 0.896203
O O1 0.634499 0.320784 0.880767
O O2 0.743153 0.752936 0.051591
O O3 0.792965 0.396798 0.914727
O O4 0.079059 0.426047 0.245149
O O5 0.084493 0.078166 0.995490
O O6 0.000000 0.500000 0.000000
O O7 0.706358 0.209630 0.675906
O O8 0.498741 0.956066 0.628463
O O9 0.493321 0.003330 0.758404
O O10 0.020801 0.007868 0.396716
O O11 0.021348 0.999244 0.272254
O O12 0.609871 0.195156 0.078026
O O13 0.747222 0.770985 0.567335
O O14 0.712064 0.326056 0.439948
O O15 0.134126 0.458237 0.784405
O O16 0.267806 0.116321 0.718685
O O17 0.500000 0.500000 0.000000
#
# Coordination Sequence:
#
# PCOD9042895 Si02
#       8
#     2   2   2   2   2   2   2   2
#     4  11  24  45  69  99 137 177 226 281 332 403
#     4  12  25  45  73  98 137 175 226 280 338 403
#     4  11  25  44  68 101 134 180 222 277 337 396
#     4  10  23  45  66 100 137 176 224 281 330 396
#     4  11  24  45  68  99 142 177 225 282 329 402
#     4  11  23  45  67 102 138 176 223 278 339 396
#     4  10  25  44  64 100 138 175 226 277 328 399
#     4  12  23  42  73  98 134 182 226 270 344 396
#
# _framework density 23.931018000000002
#
# number of rings (size 3 to 8) (size 9 to 14) (size 15 to 20)
#    0.000    1.000    3.750    2.250    1.750    3.500 
#    2.250    0.000    0.000    0.000    0.000    0.000 
#    0.000    0.000    0.000    0.000    0.000    0.000 
#
# Total GULP energy -89621.357011 kJ/mol
# GULP energy per Si atom -5601.334813 kJ/mol
# Density = 2.387655 g / cm^3
# Si number density = 23.931018 Si / 1000 Ang^3
#
#
#
# Elastic Constant Matrix: (Units=GPa)
#
#
# Indices 1 2 3 4 5 6 
#
# 1 87.3239 15.7443 16.2857 17.8389 4.4766 14.4433
# 2 15.7443 66.1092 5.7632 15.9749 10.1672 27.5782
# 3 16.2857 5.7632 88.4359 18.9833 -13.1351 -12.3405
# 4 17.8389 15.9749 18.9833 49.1461 4.6088 5.4571
# 5 4.4766 10.1672 -13.1351 4.6088 44.9484 15.3478
# 6 14.4433 27.5782 -12.3405 5.4571 15.3478 39.0345
#
#
#
# Elastic Compliance Matrix: (Units=1/GPa)
#
#
# Indices 1 2 3 4 5 6 
#
# 1 0.013480 0.000049 -0.002502 -0.003354 0.000097 -0.005383
# 2 0.000049 0.023559 -0.002891 -0.004684 0.000092 -0.016958
# 3 -0.002502 -0.002891 0.014437 -0.004802 0.003249 0.006927
# 4 -0.003354 -0.004684 -0.004802 0.025136 -0.002798 0.000618
# 5 0.000097 0.000092 0.003249 -0.002798 0.026571 -0.009130
# 6 -0.005383 -0.016958 0.006927 0.000618 -0.009130 0.045284
#
#
# Mechanical properties :
#
#
# Convention : Reuss Voigt Hill
#
# Bulk Modulus (GPa) = 24.51856 35.27283 29.89569
# Shear Modulus (GPa) = 28.94321 40.23086 34.58703
#
# Velocity S-wave (km/s) = 3.48148 4.10459 3.80581
# Velocity P-wave (km/s) = 5.14088 6.10204 5.64197
#
# Compressibility (1/GPa) = 0.04078543
#
# Stress axis : x y z
#
# Youngs Moduli (GPa) = 74.18456 42.44666 69.26740
#
# Poissons Ratio (x) = -0.00207 0.17333
# Poissons Ratio (y) = -0.00361 0.20028
# Poissons Ratio (z) = 0.18564 0.12273
#
# Static dielectric constant tensor:
#      x y z
#    x 1.973880 -0.029350 0.000230 
#    y -0.029350 1.876490 0.000340 
#    z 0.000230 0.000340 1.915990 
# 
# From -- ./inp_files/206169.got.cif
#   From: 2010.05.17/outbox.cif.g08.bks.cpg/sg2_104_cif.got.tgz:206169.got - 2010.06.03 11:33:40.
