data_PCOD9042516
_publ_section_title
;
Structure prediction by ZEFSAII (Michael W. Deem and Ramdas Pophale) SiO2 
 PCOD9042516
Probable space group: P -1
;
_chemical_formula_sum "Si O2"
_cell_formula_units_Z 16
_cell_length_a 9.161236
_cell_length_b 12.102612
_cell_length_c 21.253797
_cell_angle_alpha 34.611721
_cell_angle_beta 30.687961
_cell_angle_gamma 47.772387
_cell_volume 677.937939
_symmetry_space_group_name_H-M "P -1"
_symmetry_group_IT_number 2
_symmetry_cell_setting 'triclinic'
loop_
_space_group_symop_operation_xyz
x,y,z
-x,-y,-z
loop_
_atom_site_type_symbol
_atom_site_label
_atom_site_fract_x
_atom_site_fract_y
_atom_site_fract_z
Si Si1 0.903014 0.170716 0.583238
Si Si2 0.607669 0.791696 0.041098
Si Si3 0.669147 0.239754 0.396046
Si Si4 0.813567 0.087979 0.292344
Si Si5 0.451680 0.367856 0.732342
Si Si6 0.719765 0.803431 0.753643
Si Si7 0.904230 0.214103 0.947078
Si Si8 0.251203 0.498715 0.223885
O O1 0.616207 0.234301 0.689660
O O2 0.098209 0.365262 0.398096
O O3 0.821147 0.038112 0.613226
O O4 0.044129 0.049437 0.643544
O O5 0.479386 0.663732 0.206744
O O6 0.490468 0.666770 0.082570
O O7 0.948278 0.836980 0.881401
O O8 0.500000 0.000000 0.000000
O O9 0.713593 0.253267 0.297609
O O10 0.493617 0.405290 0.410234
O O11 0.987849 0.265089 0.294430
O O12 0.467836 0.034526 0.576011
O O13 0.112219 0.301171 0.884347
O O14 0.651833 0.664460 0.783657
O O15 0.428542 0.782893 0.912416
O O16 0.958670 0.367563 0.797439
O O17 0.000000 0.000000 0.000000
#
# Coordination Sequence:
#
# PCOD9042516 Si02
#       8
#     2   2   2   2   2   2   2   2
#     4  11  24  46  74 108 150 187 244 303 358 431
#     4  12  26  46  74 106 143 195 242 300 366 423
#     4  10  23  44  72 103 143 193 237 301 365 423
#     4  10  23  47  70 102 150 189 241 302 357 432
#     4  12  25  45  71 108 144 191 242 297 364 431
#     4  11  24  50  73 103 152 189 240 304 359 437
#     4  12  25  49  73 108 146 189 237 300 363 433
#     4  12  26  45  78 108 143 198 239 293 374 426
#
# _framework density 23.600981999999998
#
# number of rings (size 3 to 8) (size 9 to 14) (size 15 to 20)
#    0.000    0.750    3.750    3.750    3.500    2.000 
#    9.000    0.000    0.000    0.000    0.000    0.000 
#    0.000    0.000    0.000    0.000    0.000    0.000 
#
# Total GULP energy -89308.390380 kJ/mol
# GULP energy per Si atom -5581.774399 kJ/mol
# Density = 2.354727 g / cm^3
# Si number density = 23.600982 Si / 1000 Ang^3
#
#
#
# Elastic Constant Matrix: (Units=GPa)
#
#
# Indices 1 2 3 4 5 6 
#
# 1 59.7603 41.5379 20.2742 -2.4434 -12.6085 15.6486
# 2 41.5379 150.7689 40.8650 -4.6563 -8.0469 11.7166
# 3 20.2742 40.8650 81.4163 6.3271 -9.5239 9.8590
# 4 -2.4434 -4.6563 6.3271 33.5021 -0.5277 -1.1584
# 5 -12.6085 -8.0469 -9.5239 -0.5277 36.3049 -10.8197
# 6 15.6486 11.7166 9.8590 -1.1584 -10.8197 35.2801
#
#
#
# Elastic Compliance Matrix: (Units=1/GPa)
#
#
# Indices 1 2 3 4 5 6 
#
# 1 0.023852 -0.005198 -0.002065 0.001243 0.004571 -0.006833
# 2 -0.005198 0.008997 -0.003430 0.001513 -0.000651 0.000126
# 3 -0.002065 -0.003430 0.015230 -0.003532 0.001955 -0.001717
# 4 0.001243 0.001513 -0.003532 0.030866 0.000629 0.001140
# 5 0.004571 -0.000651 0.001955 0.000629 0.031712 0.007388
# 6 -0.006833 0.000126 -0.001717 0.001140 0.007388 0.034117
#
#
# Mechanical properties :
#
#
# Convention : Reuss Voigt Hill
#
# Bulk Modulus (GPa) = 37.46519 55.25552 46.36036
# Shear Modulus (GPa) = 28.56216 33.63531 31.09873
#
# Velocity S-wave (km/s) = 3.48258 3.77923 3.63394
# Velocity P-wave (km/s) = 5.66393 6.51971 6.10683
#
# Compressibility (1/GPa) = 0.02669144
#
# Stress axis : x y z
#
# Youngs Moduli (GPa) = 41.92541 111.15111 65.66165
#
# Poissons Ratio (x) = 0.57780 0.13557
# Poissons Ratio (y) = 0.21794 0.22524
# Poissons Ratio (z) = 0.08656 0.38129
#
# Static dielectric constant tensor:
#      x y z
#    x 1.950970 -0.016830 -0.007910 
#    y -0.016830 1.932440 -0.031800 
#    z -0.007910 -0.031800 1.872390 
# 
# From -- ./inp_files/589428.got.cif
#   From: 2010.05.17/outbox.cif.g08.bks.cpg/sg2_295_cif.got.tgz:589428.got - 2010.06.03 11:33:40.
