data_PCOD9042432
_publ_section_title
;
Structure prediction by ZEFSAII (Michael W. Deem and Ramdas Pophale) SiO2 
 PCOD9042432
Probable space group: P -1
;
_chemical_formula_sum "Si O2"
_cell_formula_units_Z 12
_cell_length_a 14.314465
_cell_length_b 11.934342
_cell_length_c 17.658476
_cell_angle_alpha 150.300907
_cell_angle_beta 150.111413
_cell_angle_gamma 19.084927
_cell_volume 468.478410
_symmetry_space_group_name_H-M "P -1"
_symmetry_group_IT_number 2
_symmetry_cell_setting 'triclinic'
loop_
_space_group_symop_operation_xyz
x,y,z
-x,-y,-z
loop_
_atom_site_type_symbol
_atom_site_label
_atom_site_fract_x
_atom_site_fract_y
_atom_site_fract_z
Si Si1 0.679042 0.190582 0.110329
Si Si2 0.160247 0.759237 0.896909
Si Si3 0.482061 0.788681 0.411168
Si Si4 0.129685 0.245609 0.573059
Si Si5 0.455079 0.168622 0.239161
Si Si6 0.229690 0.089662 0.833538
O O1 0.882127 0.071950 0.113386
O O2 0.486541 0.584260 0.233358
O O3 0.843046 0.966653 0.171792
O O4 0.490109 0.149690 0.927516
O O5 0.126139 0.521848 0.725074
O O6 0.500000 0.500000 0.000000
O O7 0.000000 0.000000 0.000000
O O8 0.795901 0.483878 0.497824
O O9 0.500000 0.000000 0.500000
O O10 0.223028 0.054340 0.445908
O O11 0.370535 0.948027 0.629959
O O12 0.096149 0.522813 0.195317
O O13 0.608018 0.164525 0.275603
O O14 0.500000 0.000000 0.000000
#
# Coordination Sequence:
#
# PCOD9042432 Si02
#       6
#     2   2   2   2   2   2
#     4  11  25  45  74 103 139 182 235 286 344 415
#     4  12  26  41  71 107 137 178 234 290 347 405
#     4  12  27  46  67 103 147 185 226 280 353 421
#     4  12  26  47  67 103 146 182 226 290 348 413
#     4  11  24  45  74 102 138 179 239 288 342 407
#     4  10  23  44  71 107 134 178 235 296 340 398
#
# _framework density 25.614841999999999
#
# number of rings (size 3 to 8) (size 9 to 14) (size 15 to 20)
#    0.000    0.667    3.333    4.500    2.333    5.333 
#    0.000    5.000    0.000    0.000    0.000    0.000 
#    0.000    0.000    0.000    0.000    0.000    0.000 
#
# Total GULP energy -67160.805455 kJ/mol
# GULP energy per Si atom -5596.733788 kJ/mol
# Density = 2.555654 g / cm^3
# Si number density = 25.614842 Si / 1000 Ang^3
#
#
#
# Elastic Constant Matrix: (Units=GPa)
#
#
# Indices 1 2 3 4 5 6 
#
# 1 182.9188 58.9013 26.8612 -8.7880 -29.4916 -8.5421
# 2 58.9013 120.1967 30.2891 -20.0201 -2.2049 -19.6757
# 3 26.8612 30.2891 92.8576 -3.6456 -15.0072 -10.2283
# 4 -8.7880 -20.0201 -3.6456 37.1890 -5.1172 -10.6817
# 5 -29.4916 -2.2049 -15.0072 -5.1172 35.0791 -4.4231
# 6 -8.5421 -19.6757 -10.2283 -10.6817 -4.4231 55.2624
#
#
#
# Elastic Compliance Matrix: (Units=1/GPa)
#
#
# Indices 1 2 3 4 5 6 
#
# 1 0.007678 -0.003345 0.000051 0.001131 0.006526 0.000746
# 2 -0.003345 0.012468 -0.002574 0.006785 -0.001556 0.004633
# 3 0.000051 -0.002574 0.012830 0.001316 0.005838 0.002188
# 4 0.001131 0.006785 0.001316 0.035039 0.008347 0.010275
# 5 0.006526 -0.001556 0.005838 0.008347 0.038395 0.006222
# 6 0.000746 0.004633 0.002188 0.010275 0.006222 0.022749
#
#
# Mechanical properties :
#
#
# Convention : Reuss Voigt Hill
#
# Bulk Modulus (GPa) = 47.08082 69.78628 58.43355
# Shear Modulus (GPa) = 33.78977 44.16753 38.97865
#
# Velocity S-wave (km/s) = 3.63595 4.15697 3.90516
# Velocity P-wave (km/s) = 6.00392 7.09536 6.57233
#
# Compressibility (1/GPa) = 0.02124007
#
# Stress axis : x y z
#
# Youngs Moduli (GPa) = 130.24525 80.20805 77.94197
#
# Poissons Ratio (x) = 0.26831 -0.00401
# Poissons Ratio (y) = 0.43570 0.20061
# Poissons Ratio (z) = -0.00669 0.20645
#
# Static dielectric constant tensor:
#      x y z
#    x 2.003230 0.065130 0.029520 
#    y 0.065130 2.133480 0.009730 
#    z 0.029520 0.009730 2.022630 
# 
# From -- ./inp_files/491485.got.cif
#   From: 2010.05.17/outbox.cif.g08.bks.cpg/sg2_246_cif.got.tgz:491485.got - 2010.06.03 11:33:40.
