data_PCOD9042781
_publ_section_title
;
Structure prediction by ZEFSAII (Michael W. Deem and Ramdas Pophale) SiO2 
 PCOD9042781
Probable space group: P -1
;
_chemical_formula_sum "Si O2"
_cell_formula_units_Z 16
_cell_length_a 13.394267
_cell_length_b 10.146299
_cell_length_c 10.641746
_cell_angle_alpha 55.996320
_cell_angle_beta 144.070279
_cell_angle_gamma 129.622564
_cell_volume 650.731261
_symmetry_space_group_name_H-M "P -1"
_symmetry_group_IT_number 2
_symmetry_cell_setting 'triclinic'
loop_
_space_group_symop_operation_xyz
x,y,z
-x,-y,-z
loop_
_atom_site_type_symbol
_atom_site_label
_atom_site_fract_x
_atom_site_fract_y
_atom_site_fract_z
Si Si1 0.597928 0.921197 0.500115
Si Si2 0.981775 0.365689 0.165774
Si Si3 0.000386 0.860935 0.241270
Si Si4 0.318081 0.333002 0.427492
Si Si5 0.684382 0.643110 0.855078
Si Si6 0.496127 0.650464 0.011422
Si Si7 0.743532 0.018826 0.981615
Si Si8 0.100918 0.641504 0.631262
O O1 0.629686 0.833023 0.448236
O O2 0.575094 0.770939 0.658599
O O3 0.796735 0.069317 0.649826
O O4 0.419994 0.964910 0.277814
O O5 0.175724 0.339537 0.381240
O O6 0.219633 0.336879 0.191283
O O7 0.000000 0.500000 0.000000
O O8 0.821888 0.184244 0.062315
O O9 0.033207 0.793436 0.446258
O O10 0.841638 0.713129 0.082020
O O11 0.916119 0.006155 0.089867
O O12 0.500000 0.500000 0.500000
O O13 0.542379 0.452827 0.841904
O O14 0.941549 0.414477 0.238438
O O15 0.500000 0.500000 0.000000
O O16 0.659333 0.832347 0.063221
O O17 0.314389 0.693141 0.790099
O O18 0.000000 0.500000 0.500000
#
# Coordination Sequence:
#
# PCOD9042781 Si02
#       8
#     2   2   2   2   2   2   2   2
#     4  10  24  45  74 112 154 206 266 335 386 472
#     4  12  28  51  81 118 154 213 269 331 400 478
#     4  12  23  48  75 114 157 208 259 334 398 476
#     4  10  23  47  73 108 150 198 263 327 393 459
#     4  10  23  44  76 109 155 207 258 326 396 460
#     4  12  24  47  73 113 159 207 262 323 397 477
#     4  12  25  49  76 115 159 208 272 321 407 468
#     4  12  27  50  78 114 164 211 262 328 407 472
#
# _framework density 24.587723
#
# number of rings (size 3 to 8) (size 9 to 14) (size 15 to 20)
#    0.750    0.000    5.000    1.875    0.000    3.500 
#    2.250    0.000    0.000    0.000    0.000    0.000 
#    0.000    0.000    0.000    0.000    0.000    0.000 
#
# Total GULP energy -89356.701350 kJ/mol
# GULP energy per Si atom -5584.793834 kJ/mol
# Density = 2.453176 g / cm^3
# Si number density = 24.587723 Si / 1000 Ang^3
#
#
#
# Elastic Constant Matrix: (Units=GPa)
#
#
# Indices 1 2 3 4 5 6 
#
# 1 93.1403 42.2734 44.0035 4.2609 14.9323 -8.1239
# 2 42.2734 151.0681 43.7006 12.9651 -2.8438 22.3035
# 3 44.0035 43.7006 174.5507 -12.0058 15.6694 11.9832
# 4 4.2609 12.9651 -12.0058 43.4682 4.5652 4.9272
# 5 14.9323 -2.8438 15.6694 4.5652 39.3549 -8.0990
# 6 -8.1239 22.3035 11.9832 4.9272 -8.0990 45.4358
#
#
#
# Elastic Compliance Matrix: (Units=1/GPa)
#
#
# Indices 1 2 3 4 5 6 
#
# 1 0.015005 -0.004063 -0.002853 -0.001214 -0.003701 0.004901
# 2 -0.004063 0.008991 -0.001297 -0.002394 0.002130 -0.004159
# 3 -0.002853 -0.001297 0.007452 0.003341 -0.002926 -0.002723
# 4 -0.001214 -0.002394 0.003341 0.025663 -0.004751 -0.003553
# 5 -0.003701 0.002130 -0.002926 -0.004751 0.029687 0.004872
# 6 0.004901 -0.004159 -0.002723 -0.003553 0.004872 0.026899
#
#
# Mechanical properties :
#
#
# Convention : Reuss Voigt Hill
#
# Bulk Modulus (GPa) = 66.56757 75.41265 70.99011
# Shear Modulus (GPa) = 37.00140 44.90388 40.95264
#
# Velocity S-wave (km/s) = 3.88348 4.27813 4.08557
# Velocity P-wave (km/s) = 6.87319 7.42567 7.15477
#
# Compressibility (1/GPa) = 0.01502233
#
# Stress axis : x y z
#
# Youngs Moduli (GPa) = 66.64540 111.22078 134.18353
#
# Poissons Ratio (x) = 0.45184 0.38286
# Poissons Ratio (y) = 0.27075 0.17407
# Poissons Ratio (z) = 0.19016 0.14428
#
# Static dielectric constant tensor:
#      x y z
#    x 2.057610 -0.042880 -0.004710 
#    y -0.042880 2.083330 -0.036090 
#    z -0.004710 -0.036090 1.992550 
# 
# From -- ./inp_files/545004.got.cif
#   From: 2010.05.17/outbox.cif.g08.bks.cpg/sg2_273_cif.got.tgz:545004.got - 2010.06.03 11:33:40.
