data_PCOD9042811
_publ_section_title
;
Structure prediction by ZEFSAII (Michael W. Deem and Ramdas Pophale) SiO2 
 PCOD9042811
Probable space group: P -1
;
_chemical_formula_sum "Si O2"
_cell_formula_units_Z 12
_cell_length_a 7.818245
_cell_length_b 6.541562
_cell_length_c 10.324975
_cell_angle_alpha 105.431064
_cell_angle_beta 57.786999
_cell_angle_gamma 102.650031
_cell_volume 428.736083
_symmetry_space_group_name_H-M "P -1"
_symmetry_group_IT_number 2
_symmetry_cell_setting 'triclinic'
loop_
_space_group_symop_operation_xyz
x,y,z
-x,-y,-z
loop_
_atom_site_type_symbol
_atom_site_label
_atom_site_fract_x
_atom_site_fract_y
_atom_site_fract_z
Si Si1 0.268205 0.544905 0.650931
Si Si2 0.962022 0.841191 0.870323
Si Si3 0.672168 0.781123 0.778345
Si Si4 0.015173 0.746457 0.464061
Si Si5 0.452947 0.930669 0.357451
Si Si6 0.676666 0.558941 0.097426
O O1 0.500000 0.500000 0.500000
O O2 0.107778 0.365799 0.623607
O O3 0.171054 0.772366 0.712916
O O4 0.255363 0.521483 0.805672
O O5 0.798230 0.935757 0.855345
O O6 0.842752 0.620606 0.933252
O O7 0.389789 0.212147 0.795178
O O8 0.000000 0.000000 0.000000
O O9 0.864877 0.665693 0.628161
O O10 0.582272 0.888193 0.705837
O O11 0.504709 0.623171 0.890468
O O12 0.000000 0.000000 0.500000
O O13 0.251581 0.761909 0.402853
O O14 0.500000 0.000000 0.500000
#
# Coordination Sequence:
#
# PCOD9042811 Si02
#       6
#     2   2   2   2   2   2
#     4  12  27  53  86 121 164 221 288 347 417 501
#     4  12  32  51  80 122 174 228 278 342 426 506
#     4  11  26  51  79 118 172 221 275 347 422 506
#     4  10  23  44  80 121 157 207 281 348 409 482
#     4  11  27  45  84 125 163 214 284 346 426 503
#     4  12  27  49  78 121 165 219 275 345 422 506
#
# _framework density 27.989246999999999
#
# number of rings (size 3 to 8) (size 9 to 14) (size 15 to 20)
#    0.000    0.667    1.667    4.000   11.667    2.000 
#    3.000    0.000    0.000    0.000    0.000    0.000 
#    0.000    0.000    0.000    0.000    0.000    0.000 
#
# Total GULP energy -67076.932811 kJ/mol
# GULP energy per Si atom -5589.744401 kJ/mol
# Density = 2.792554 g / cm^3
# Si number density = 27.989247 Si / 1000 Ang^3
#
#
#
# Elastic Constant Matrix: (Units=GPa)
#
#
# Indices 1 2 3 4 5 6 
#
# 1 173.4969 64.1304 56.3669 6.3859 6.1168 29.4425
# 2 64.1304 161.0345 37.8256 3.6939 -3.9046 34.4912
# 3 56.3669 37.8256 134.9093 -31.2818 -6.5630 19.1037
# 4 6.3859 3.6939 -31.2818 60.7703 13.5089 3.6230
# 5 6.1168 -3.9046 -6.5630 13.5089 59.8425 9.0052
# 6 29.4425 34.4912 19.1037 3.6230 9.0052 52.4715
#
#
#
# Elastic Compliance Matrix: (Units=1/GPa)
#
#
# Indices 1 2 3 4 5 6 
#
# 1 0.007867 -0.002025 -0.002958 -0.002000 -0.000542 -0.001775
# 2 -0.002025 0.008177 -0.001006 -0.000880 0.001440 -0.004059
# 3 -0.002958 -0.001006 0.010591 0.005859 0.000377 -0.002004
# 4 -0.002000 -0.000880 0.005859 0.020627 -0.003682 -0.001225
# 5 -0.000542 0.001440 0.000377 -0.003682 0.018284 -0.003663
# 6 -0.001775 -0.004059 -0.002004 -0.001225 -0.003663 0.024165
#
#
# Mechanical properties :
#
#
# Convention : Reuss Voigt Hill
#
# Bulk Modulus (GPa) = 68.22475 87.34293 77.78384
# Shear Modulus (GPa) = 46.91530 55.35804 51.13667
#
# Velocity S-wave (km/s) = 4.09857 4.45211 4.27899
# Velocity P-wave (km/s) = 6.84295 7.59618 7.22938
#
# Compressibility (1/GPa) = 0.01465744
#
# Stress axis : x y z
#
# Youngs Moduli (GPa) = 127.10668 122.29287 94.41915
#
# Poissons Ratio (x) = 0.24769 0.27929
# Poissons Ratio (y) = 0.25744 0.09496
# Poissons Ratio (z) = 0.37598 0.12299
#
# Static dielectric constant tensor:
#      x y z
#    x 2.387720 -0.033780 0.069680 
#    y -0.033780 2.305290 -0.051780 
#    z 0.069680 -0.051780 2.221950 
# 
# From -- ./inp_files/165696.got.cif
#   From: 2010.05.17/outbox.cif.g08.bks.cpg/sg2_83_cif.got.tgz:165696.got - 2010.06.03 11:33:40.
