data_PCOD9042417
_publ_section_title
;
Structure prediction by ZEFSAII (Michael W. Deem and Ramdas Pophale) SiO2 
 PCOD9042417
Probable space group: P -1
;
_chemical_formula_sum "Si O2"
_cell_formula_units_Z 16
_cell_length_a 13.698076
_cell_length_b 12.586708
_cell_length_c 5.096833
_cell_angle_alpha 107.002898
_cell_angle_beta 58.275466
_cell_angle_gamma 84.252873
_cell_volume 679.076845
_symmetry_space_group_name_H-M "P -1"
_symmetry_group_IT_number 2
_symmetry_cell_setting 'triclinic'
loop_
_space_group_symop_operation_xyz
x,y,z
-x,-y,-z
loop_
_atom_site_type_symbol
_atom_site_label
_atom_site_fract_x
_atom_site_fract_y
_atom_site_fract_z
Si Si1 0.570749 0.231766 0.405004
Si Si2 0.982049 0.897991 0.274367
Si Si3 0.409834 0.249284 0.161336
Si Si4 0.799167 0.314533 0.123483
Si Si5 0.038257 0.622064 0.414671
Si Si6 0.377797 0.031217 0.855259
Si Si7 0.131538 0.152141 0.082256
Si Si8 0.163244 0.450012 0.527151
O O1 0.466249 0.277596 0.369790
O O2 0.667499 0.301749 0.305279
O O3 0.637807 0.093680 0.142783
O O4 0.507455 0.240887 0.784925
O O5 0.905598 0.850463 0.561390
O O6 0.911125 0.926831 0.122714
O O7 0.000000 0.000000 0.500000
O O8 0.109208 0.801215 0.961522
O O9 0.284427 0.344273 0.324097
O O10 0.388915 0.122805 0.125252
O O11 0.811923 0.436201 0.300500
O O12 0.864033 0.313117 0.750356
O O13 0.120583 0.501026 0.333358
O O14 0.939369 0.714894 0.802260
O O15 0.952187 0.595808 0.291281
O O16 0.500000 0.000000 0.500000
O O17 0.273683 0.106167 0.863648
#
# Coordination Sequence:
#
# PCOD9042417 Si02
#       8
#     2   2   2   2   2   2   2   2
#     4  11  27  45  71 101 146 183 240 285 360 415
#     4  11  24  40  65 100 139 179 223 276 355 415
#     4  11  26  46  72 104 134 195 234 297 343 419
#     4  11  25  43  69 103 146 187 230 294 355 426
#     4  10  23  44  71 105 139 184 234 296 352 418
#     4  10  23  47  71 102 137 185 239 292 345 417
#     4  11  22  42  67 101 131 177 227 284 345 409
#     4  11  23  45  73 101 143 182 246 288 355 415
#
# _framework density 23.561396999999999
#
# number of rings (size 3 to 8) (size 9 to 14) (size 15 to 20)
#    0.000    1.250    2.500    1.875    3.500    7.000 
#    0.000    0.000    0.000    0.000    0.000    0.000 
#    0.000    0.000    0.000    0.000    0.000    0.000 
#
# Total GULP energy -89251.718089 kJ/mol
# GULP energy per Si atom -5578.232381 kJ/mol
# Density = 2.350777 g / cm^3
# Si number density = 23.561397 Si / 1000 Ang^3
#
#
#
# Elastic Constant Matrix: (Units=GPa)
#
#
# Indices 1 2 3 4 5 6 
#
# 1 115.6894 32.5878 31.0225 -0.0203 4.1985 18.1909
# 2 32.5878 97.4114 27.1064 10.4099 -9.4793 22.7257
# 3 31.0225 27.1064 64.6555 12.3768 2.6319 4.0534
# 4 -0.0203 10.4099 12.3768 41.5580 -1.4865 4.5953
# 5 4.1985 -9.4793 2.6319 -1.4865 28.5733 4.9947
# 6 18.1909 22.7257 4.0534 4.5953 4.9947 43.1964
#
#
#
# Elastic Compliance Matrix: (Units=1/GPa)
#
#
# Indices 1 2 3 4 5 6 
#
# 1 0.010993 -0.001984 -0.004612 0.002194 -0.001166 -0.003252
# 2 -0.001984 0.014722 -0.004817 -0.001224 0.006799 -0.007114
# 3 -0.004612 -0.004817 0.020677 -0.005480 -0.003731 0.003550
# 4 0.002194 -0.001224 -0.005480 0.026366 0.001630 -0.002759
# 5 -0.001166 0.006799 -0.003731 0.001630 0.039153 -0.007436
# 6 -0.003252 -0.007114 0.003550 -0.002759 -0.007436 0.029082
#
#
# Mechanical properties :
#
#
# Convention : Reuss Voigt Hill
#
# Bulk Modulus (GPa) = 42.43037 51.02107 46.72572
# Shear Modulus (GPa) = 29.12521 35.13485 32.13003
#
# Velocity S-wave (km/s) = 3.51969 3.86580 3.69680
# Velocity P-wave (km/s) = 5.87922 6.45193 6.17222
#
# Compressibility (1/GPa) = 0.02356802
#
# Stress axis : x y z
#
# Youngs Moduli (GPa) = 90.96527 67.92687 48.36320
#
# Poissons Ratio (x) = 0.13475 0.22303
# Poissons Ratio (y) = 0.18045 0.23295
# Poissons Ratio (z) = 0.41950 0.32718
#
# Static dielectric constant tensor:
#      x y z
#    x 1.888550 0.000270 0.049370 
#    y 0.000270 2.062510 0.008720 
#    z 0.049370 0.008720 1.951960 
# 
# From -- ./inp_files/78541.got.cif
#   From: 2010.05.17/outbox.cif.g08.bks.cpg/sg2_40_cif.got.tgz:78541.got - 2010.06.03 11:33:40.
