data_PCOD9042224
_publ_section_title
;
Structure prediction by ZEFSAII (Michael W. Deem and Ramdas Pophale) SiO2 
 PCOD9042224
Probable space group: P -1
;
_chemical_formula_sum "Si O2"
_cell_formula_units_Z 12
_cell_length_a 7.472594
_cell_length_b 11.304683
_cell_length_c 8.927378
_cell_angle_alpha 54.754128
_cell_angle_beta 83.863418
_cell_angle_gamma 50.148669
_cell_volume 429.254930
_symmetry_space_group_name_H-M "P -1"
_symmetry_group_IT_number 2
_symmetry_cell_setting 'triclinic'
loop_
_space_group_symop_operation_xyz
x,y,z
-x,-y,-z
loop_
_atom_site_type_symbol
_atom_site_label
_atom_site_fract_x
_atom_site_fract_y
_atom_site_fract_z
Si Si1 0.970453 0.871188 0.952031
Si Si2 0.166412 0.848806 0.459023
Si Si3 0.005301 0.585334 0.283170
Si Si4 0.475774 0.867794 0.963340
Si Si5 0.730409 0.443267 0.111746
Si Si6 0.407818 0.153831 0.527115
O O1 0.729203 0.770806 0.102762
O O2 0.009032 0.006709 0.772487
O O3 0.126203 0.676884 0.194855
O O4 0.726303 0.055896 0.944385
O O5 0.232047 0.652038 0.656608
O O6 0.408239 0.820517 0.452817
O O7 0.000000 0.000000 0.500000
O O8 0.164093 0.380345 0.321182
O O9 0.000000 0.500000 0.500000
O O10 0.028404 0.735884 0.891239
O O11 0.373363 0.058999 0.732570
O O12 0.604106 0.670756 0.991922
O O13 0.500000 0.500000 0.000000
O O14 0.500000 0.000000 0.500000
#
# Coordination Sequence:
#
# PCOD9042224 Si02
#       6
#     2   2   2   2   2   2
#     4  11  23  46  73 104 150 187 250 315 364 439
#     4  10  23  44  70 101 154 194 232 312 374 432
#     4  12  24  43  73 111 145 184 249 315 371 436
#     4  12  26  46  77 110 146 196 251 315 377 433
#     4  11  26  48  71 108 152 200 251 302 375 459
#     4  12  25  43  76 110 142 194 256 309 374 445
#
# _framework density 27.955416
#
# number of rings (size 3 to 8) (size 9 to 14) (size 15 to 20)
#    0.000    0.667    3.333    4.500    4.667    2.667 
#    0.000    0.000    0.000    0.000    0.000    0.000 
#    0.000    0.000    0.000    0.000    0.000    0.000 
#
# Total GULP energy -66891.541298 kJ/mol
# GULP energy per Si atom -5574.295108 kJ/mol
# Density = 2.789179 g / cm^3
# Si number density = 27.955416 Si / 1000 Ang^3
#
#
#
# Elastic Constant Matrix: (Units=GPa)
#
#
# Indices 1 2 3 4 5 6 
#
# 1 61.1125 23.5991 18.5607 4.5292 -13.0374 5.1691
# 2 23.5991 185.4934 58.0412 -0.4229 -7.4444 -3.2610
# 3 18.5607 58.0412 247.5741 -14.3560 -34.6449 -14.3714
# 4 4.5292 -0.4229 -14.3560 71.6203 -6.7826 -2.6910
# 5 -13.0374 -7.4444 -34.6449 -6.7826 39.1449 2.3189
# 6 5.1691 -3.2610 -14.3714 -2.6910 2.3189 52.8322
#
#
#
# Elastic Compliance Matrix: (Units=1/GPa)
#
#
# Indices 1 2 3 4 5 6 
#
# 1 0.018713 -0.002102 -0.000317 -0.000821 0.005548 -0.002332
# 2 -0.002102 0.006059 -0.001372 -0.000174 -0.000806 0.000233
# 3 -0.000317 -0.001372 0.005157 0.001507 0.004386 0.001233
# 4 -0.000821 -0.000174 0.001507 0.014688 0.003509 0.001074
# 5 0.005548 -0.000806 0.004386 0.003509 0.031767 -0.000615
# 6 -0.002332 0.000233 0.001233 0.001074 -0.000615 0.019588
#
#
# Mechanical properties :
#
#
# Convention : Reuss Voigt Hill
#
# Bulk Modulus (GPa) = 44.74735 77.17576 60.96156
# Shear Modulus (GPa) = 45.04364 58.98476 52.01420
#
# Velocity S-wave (km/s) = 4.01841 4.59841 4.31816
# Velocity P-wave (km/s) = 6.12957 7.47399 6.83492
#
# Compressibility (1/GPa) = 0.02234769
#
# Stress axis : x y z
#
# Youngs Moduli (GPa) = 53.43920 165.03911 193.89289
#
# Poissons Ratio (x) = 0.34688 0.06142
# Poissons Ratio (y) = 0.11232 0.26608
# Poissons Ratio (z) = 0.01693 0.22649
#
# Static dielectric constant tensor:
#      x y z
#    x 2.915490 -0.001980 -0.045890 
#    y -0.001980 2.289740 0.070040 
#    z -0.045890 0.070040 2.295490 
# 
# From -- ./inp_files/174011.got.cif
#   From: 2010.05.17/outbox.cif.g08.bks.cpg/sg2_88_cif.got.tgz:174011.got - 2010.06.03 11:33:40.
