data_PCOD9042261
_publ_section_title
;
Structure prediction by ZEFSAII (Michael W. Deem and Ramdas Pophale) SiO2 
 PCOD9042261
Probable space group: P -1
;
_chemical_formula_sum "Si O2"
_cell_formula_units_Z 14
_cell_length_a 26.442569
_cell_length_b 19.720020
_cell_length_c 5.375537
_cell_angle_alpha 123.367706
_cell_angle_beta 130.357861
_cell_angle_gamma 16.081829
_cell_volume 555.990002
_symmetry_space_group_name_H-M "P -1"
_symmetry_group_IT_number 2
_symmetry_cell_setting 'triclinic'
loop_
_space_group_symop_operation_xyz
x,y,z
-x,-y,-z
loop_
_atom_site_type_symbol
_atom_site_label
_atom_site_fract_x
_atom_site_fract_y
_atom_site_fract_z
Si Si1 0.387415 0.229841 0.272918
Si Si2 0.228647 0.500422 0.826310
Si Si3 0.088326 0.960834 0.504524
Si Si4 0.200914 0.173443 0.083536
Si Si5 0.776493 0.038261 0.254131
Si Si6 0.344198 0.539724 0.185402
Si Si7 0.811176 0.701840 0.115876
O O1 0.298182 0.382763 0.540256
O O2 0.634838 0.965620 0.510596
O O3 0.271144 0.393997 0.983566
O O4 0.361691 0.164215 0.101579
O O5 0.352433 0.442058 0.145900
O O6 0.975178 0.811253 0.621164
O O7 0.167824 0.961228 0.781959
O O8 0.290116 0.679261 0.464139
O O9 0.000000 0.000000 0.500000
O O10 0.875879 0.214263 0.171898
O O11 0.953362 0.483369 0.930477
O O12 0.262981 0.129987 0.914929
O O13 0.229345 0.049136 0.010539
O O14 0.550915 0.316053 0.227709
O O15 0.000000 0.500000 0.500000
#
# Coordination Sequence:
#
# PCOD9042261 Si02
#       7
#     2   2   2   2   2   2   2
#     4  12  26  47  72 106 147 193 242 307 364 431
#     4  11  26  44  74 106 146 189 249 301 363 433
#     4  10  24  43  69 107 146 186 240 305 364 441
#     4  11  25  44  70 103 142 192 245 301 368 432
#     4  11  22  47  72 103 146 192 247 300 369 439
#     4  10  23  44  70 103 144 190 242 298 368 436
#     4  11  26  45  70 103 146 190 245 304 362 437
#
# _framework density 25.180308
#
# number of rings (size 3 to 8) (size 9 to 14) (size 15 to 20)
#    0.000    1.143    2.857    1.714    8.000    2.286 
#    2.571    0.000    0.000    0.000    0.000    0.000 
#    0.000    0.000    0.000    0.000    0.000    0.000 
#
# Total GULP energy -78224.607758 kJ/mol
# GULP energy per Si atom -5587.471983 kJ/mol
# Density = 2.512300 g / cm^3
# Si number density = 25.180308 Si / 1000 Ang^3
#
#
#
# Elastic Constant Matrix: (Units=GPa)
#
#
# Indices 1 2 3 4 5 6 
#
# 1 139.8964 18.6706 58.6304 17.8370 52.0324 17.9675
# 2 18.6706 113.0555 11.8664 -7.9046 18.5350 -12.0107
# 3 58.6304 11.8664 77.8973 -6.6844 25.5677 10.5344
# 4 17.8370 -7.9046 -6.6844 24.5579 1.1661 14.3479
# 5 52.0324 18.5350 25.5677 1.1661 58.5009 0.9544
# 6 17.9675 -12.0107 10.5344 14.3479 0.9544 42.5498
#
#
#
# Elastic Compliance Matrix: (Units=1/GPa)
#
#
# Indices 1 2 3 4 5 6 
#
# 1 0.017917 -0.001149 -0.011453 -0.016433 -0.010251 0.000716
# 2 -0.001149 0.009838 -0.000011 0.002697 -0.002183 0.002404
# 3 -0.011453 -0.000011 0.024439 0.019557 -0.000754 -0.007795
# 4 -0.016433 0.002697 0.019557 0.071028 0.004144 -0.021185
# 5 -0.010251 -0.002183 -0.000754 0.004144 0.027119 0.001893
# 6 0.000716 0.002404 -0.007795 -0.021185 0.001893 0.032909
#
#
# Mechanical properties :
#
#
# Convention : Reuss Voigt Hill
#
# Bulk Modulus (GPa) = 37.08072 56.57601 46.82836
# Shear Modulus (GPa) = 22.99211 41.23385 32.11298
#
# Velocity S-wave (km/s) = 3.02503 4.05105 3.57504
# Velocity P-wave (km/s) = 5.19222 6.66322 5.97317
#
# Compressibility (1/GPa) = 0.02696819
#
# Stress axis : x y z
#
# Youngs Moduli (GPa) = 55.81208 101.64587 40.91794
#
# Poissons Ratio (x) = 0.11680 0.46864
# Poissons Ratio (y) = 0.06413 0.00045
# Poissons Ratio (z) = 0.63922 0.00111
#
# Static dielectric constant tensor:
#      x y z
#    x 2.168240 -0.085020 -0.048470 
#    y -0.085020 2.139460 0.133230 
#    z -0.048470 0.133230 2.045680 
# 
# From -- ./inp_files/46909.got.cif
#   From: 2010.05.17/outbox.cif.g08.bks.cpg/sg2_24_cif.got.tgz:46909.got - 2010.06.03 11:33:40.
