data_PCOD9042054
_publ_section_title
;
Structure prediction by ZEFSAII (Michael W. Deem and Ramdas Pophale) SiO2 
 PCOD9042054
Probable space group: P -1
;
_chemical_formula_sum "Si O2"
_cell_formula_units_Z 14
_cell_length_a 8.065690
_cell_length_b 20.320599
_cell_length_c 6.155157
_cell_angle_alpha 67.347675
_cell_angle_beta 93.718848
_cell_angle_gamma 140.378058
_cell_volume 545.728679
_symmetry_space_group_name_H-M "P -1"
_symmetry_group_IT_number 2
_symmetry_cell_setting 'triclinic'
loop_
_space_group_symop_operation_xyz
x,y,z
-x,-y,-z
loop_
_atom_site_type_symbol
_atom_site_label
_atom_site_fract_x
_atom_site_fract_y
_atom_site_fract_z
Si Si1 0.727236 0.074393 0.732685
Si Si2 0.493533 0.208500 0.636538
Si Si3 0.055915 0.370126 0.677342
Si Si4 0.834103 0.817447 0.056383
Si Si5 0.466540 0.411600 0.880860
Si Si6 0.217369 0.544841 0.785610
Si Si7 0.656793 0.956382 0.493927
O O1 0.631399 0.101606 0.521956
O O2 0.027151 0.181279 0.739375
O O3 0.707915 0.993801 0.699580
O O4 0.500000 0.000000 0.000000
O O5 0.268768 0.146411 0.883620
O O6 0.620758 0.330327 0.445284
O O7 0.380086 0.134078 0.499643
O O8 0.749533 0.250780 0.702751
O O9 0.180168 0.353632 0.869747
O O10 0.280665 0.461686 0.387264
O O11 0.056165 0.443393 0.720666
O O12 0.586801 0.686164 0.093626
O O13 0.078087 0.918223 0.774593
O O14 0.562901 0.432773 0.107369
O O15 0.000000 0.500000 0.000000
#
# Coordination Sequence:
#
# PCOD9042054 Si02
#       7
#     2   2   2   2   2   2   2
#     4   9  21  46  67  94 137 177 232 286 338 409
#     4  12  24  44  69 104 145 183 228 292 350 408
#     4  11  24  47  69  97 139 186 240 281 342 411
#     4  11  23  42  68 100 142 182 228 288 345 411
#     4  11  24  44  71  98 134 188 234 286 340 412
#     4  12  24  45  65 103 141 181 232 290 349 404
#     4  10  23  44  69 101 136 183 233 280 346 423
#
# _framework density 25.653773999999999
#
# number of rings (size 3 to 8) (size 9 to 14) (size 15 to 20)
#    0.000    1.143    2.857    3.000    2.000    0.571 
#   18.000    0.000    0.000    0.000    0.000    0.000 
#    0.000    0.000    0.000    0.000    0.000    0.000 
#
# Total GULP energy -78446.292459 kJ/mol
# GULP energy per Si atom -5603.306604 kJ/mol
# Density = 2.559538 g / cm^3
# Si number density = 25.653774 Si / 1000 Ang^3
#
#
#
# Elastic Constant Matrix: (Units=GPa)
#
#
# Indices 1 2 3 4 5 6 
#
# 1 93.2023 2.2059 28.0934 -2.3618 -3.3923 7.4197
# 2 2.2059 110.1437 24.9384 25.1949 -10.1542 -17.1395
# 3 28.0934 24.9384 81.4850 6.8064 -14.9846 -3.6581
# 4 -2.3618 25.1949 6.8064 36.1704 -5.8181 -7.0232
# 5 -3.3923 -10.1542 -14.9846 -5.8181 46.2282 10.7859
# 6 7.4197 -17.1395 -3.6581 -7.0232 10.7859 56.0072
#
#
#
# Elastic Compliance Matrix: (Units=1/GPa)
#
#
# Indices 1 2 3 4 5 6 
#
# 1 0.012233 0.000241 -0.004454 0.001146 0.000048 -0.001703
# 2 0.000241 0.011768 -0.002947 -0.007123 0.000180 0.002449
# 3 -0.004454 -0.002947 0.015486 -0.000534 0.004011 -0.000140
# 4 0.001146 -0.007123 -0.000534 0.033413 0.002226 0.001395
# 5 0.000048 0.000180 0.004011 0.002226 0.024205 -0.004072
# 6 -0.001703 0.002449 -0.000140 0.001395 -0.004072 0.019780
#
#
# Mechanical properties :
#
#
# Convention : Reuss Voigt Hill
#
# Bulk Modulus (GPa) = 39.73630 43.92293 41.82961
# Shear Modulus (GPa) = 35.81812 42.98737 39.40275
#
# Velocity S-wave (km/s) = 3.74065 4.09794 3.92336
# Velocity P-wave (km/s) = 5.84634 6.28883 6.07162
#
# Compressibility (1/GPa) = 0.02516590
#
# Stress axis : x y z
#
# Youngs Moduli (GPa) = 81.74774 84.97329 64.57555
#
# Poissons Ratio (x) = -0.02046 0.28765
# Poissons Ratio (y) = -0.01968 0.19029
# Poissons Ratio (z) = 0.36414 0.25040
#
# Static dielectric constant tensor:
#      x y z
#    x 2.109160 -0.017710 0.015910 
#    y -0.017710 1.951500 0.011730 
#    z 0.015910 0.011730 1.988410 
# 
# From -- ./inp_files/52907.got.cif
#   From: 2010.05.17/outbox.cif.g08.bks.cpg/sg2_27_cif.got.tgz:52907.got - 2010.06.03 11:33:40.
