data_PCOD9042730
_publ_section_title
;
Structure prediction by ZEFSAII (Michael W. Deem and Ramdas Pophale) SiO2 
 PCOD9042730
Probable space group: P -1
;
_chemical_formula_sum "Si O2"
_cell_formula_units_Z 14
_cell_length_a 8.413651
_cell_length_b 13.371554
_cell_length_c 8.156667
_cell_angle_alpha 69.271486
_cell_angle_beta 91.457970
_cell_angle_gamma 136.531045
_cell_volume 550.929931
_symmetry_space_group_name_H-M "P -1"
_symmetry_group_IT_number 2
_symmetry_cell_setting 'triclinic'
loop_
_space_group_symop_operation_xyz
x,y,z
-x,-y,-z
loop_
_atom_site_type_symbol
_atom_site_label
_atom_site_fract_x
_atom_site_fract_y
_atom_site_fract_z
Si Si1 0.701572 0.344528 0.557474
Si Si2 0.554670 0.025920 0.793603
Si Si3 0.898840 0.867377 0.846477
Si Si4 0.949765 0.274826 0.188544
Si Si5 0.587452 0.418447 0.190293
Si Si6 0.068670 0.174581 0.744018
Si Si7 0.678623 0.531519 0.647440
O O1 0.598666 0.172149 0.664148
O O2 0.632222 0.362890 0.373631
O O3 0.590819 0.370177 0.676675
O O4 0.000000 0.500000 0.500000
O O5 0.803803 0.088752 0.749219
O O6 0.332961 0.853179 0.791071
O O7 0.500000 0.000000 0.000000
O O8 0.618028 0.732359 0.852998
O O9 0.020943 0.837308 0.762374
O O10 0.908867 0.836554 0.055147
O O11 0.058499 0.056085 0.723120
O O12 0.061668 0.361372 0.315703
O O13 0.147233 0.425218 0.977807
O O14 0.472648 0.471677 0.226218
O O15 0.254246 0.357007 0.568359
#
# Coordination Sequence:
#
# PCOD9042730 Si02
#       7
#     2   2   2   2   2   2   2
#     4  12  26  48  74 108 146 190 238 294 364 428
#     4  12  26  46  75 101 152 186 234 296 358 433
#     4  10  23  44  75 102 145 186 243 299 353 425
#     4  11  25  47  71 109 147 190 234 297 360 427
#     4  11  26  47  75 105 147 186 247 293 356 426
#     4  11  24  44  73 111 138 190 245 296 363 417
#     4  11  25  45  77 105 147 184 249 296 353 423
#
# _framework density 25.411577999999999
#
# number of rings (size 3 to 8) (size 9 to 14) (size 15 to 20)
#    0.000    0.857    2.857    3.857    4.000    6.286 
#    0.000    2.143    0.000    0.000    0.000    0.000 
#    0.000    0.000    0.000    0.000    0.000    0.000 
#
# Total GULP energy -78520.330690 kJ/mol
# GULP energy per Si atom -5608.595049 kJ/mol
# Density = 2.535374 g / cm^3
# Si number density = 25.411578 Si / 1000 Ang^3
#
#
#
# Elastic Constant Matrix: (Units=GPa)
#
#
# Indices 1 2 3 4 5 6 
#
# 1 81.7811 50.9977 35.6011 0.7948 11.9769 20.0454
# 2 50.9977 189.1620 51.5820 -7.7107 17.8251 25.2515
# 3 35.6011 51.5820 101.9882 -0.6634 19.2503 11.3442
# 4 0.7948 -7.7107 -0.6634 39.6153 10.4067 -7.5186
# 5 11.9769 17.8251 19.2503 10.4067 37.4952 1.4214
# 6 20.0454 25.2515 11.3442 -7.5186 1.4214 52.8799
#
#
#
# Elastic Compliance Matrix: (Units=1/GPa)
#
#
# Indices 1 2 3 4 5 6 
#
# 1 0.016958 -0.002885 -0.003675 -0.001379 -0.001609 -0.004415
# 2 -0.002885 0.007062 -0.002048 0.001562 -0.001758 -0.001570
# 3 -0.003675 -0.002048 0.013066 0.001148 -0.004875 -0.000138
# 4 -0.001379 0.001562 0.001148 0.028689 -0.009000 0.003851
# 5 -0.001609 -0.001758 -0.004875 -0.009000 0.033008 0.000328
# 6 -0.004415 -0.001570 -0.000138 0.003851 0.000328 0.021902
#
#
# Mechanical properties :
#
#
# Convention : Reuss Voigt Hill
#
# Bulk Modulus (GPa) = 50.32504 72.14365 61.23435
# Shear Modulus (GPa) = 34.59661 41.64813 38.12237
#
# Velocity S-wave (km/s) = 3.69379 4.05278 3.87744
# Velocity P-wave (km/s) = 6.16758 7.09589 6.64796
#
# Compressibility (1/GPa) = 0.01987082
#
# Stress axis : x y z
#
# Youngs Moduli (GPa) = 58.97085 141.61156 76.53265
#
# Poissons Ratio (x) = 0.40855 0.28122
# Poissons Ratio (y) = 0.17013 0.15672
# Poissons Ratio (z) = 0.21669 0.28999
#
# Static dielectric constant tensor:
#      x y z
#    x 2.058240 0.075930 -0.042810 
#    y 0.075930 2.040760 0.001740 
#    z -0.042810 0.001740 1.982920 
# 
# From -- ./inp_files/206009.got.cif
#   From: 2010.05.17/outbox.cif.g08.bks.cpg/sg2_104_cif.got.tgz:206009.got - 2010.06.03 11:33:40.
