data_PCOD9042493
_publ_section_title
;
Structure prediction by ZEFSAII (Michael W. Deem and Ramdas Pophale) SiO2 
 PCOD9042493
Probable space group: P -1
;
_chemical_formula_sum "Si O2"
_cell_formula_units_Z 10
_cell_length_a 9.499910
_cell_length_b 5.327225
_cell_length_c 11.460949
_cell_angle_alpha 113.644980
_cell_angle_beta 56.148665
_cell_angle_gamma 131.523201
_cell_volume 360.168113
_symmetry_space_group_name_H-M "P -1"
_symmetry_group_IT_number 2
_symmetry_cell_setting 'triclinic'
loop_
_space_group_symop_operation_xyz
x,y,z
-x,-y,-z
loop_
_atom_site_type_symbol
_atom_site_label
_atom_site_fract_x
_atom_site_fract_y
_atom_site_fract_z
Si Si1 0.055591 0.655582 0.374698
Si Si2 0.775399 0.706040 0.809335
Si Si3 0.778343 0.171602 0.079354
Si Si4 0.219681 0.224528 0.572785
Si Si5 0.606754 0.623447 0.243390
O O1 0.180058 0.562399 0.218987
O O2 0.000000 0.500000 0.500000
O O3 0.832603 0.519360 0.397642
O O4 0.202608 0.035982 0.426577
O O5 0.598496 0.505156 0.758030
O O6 0.998642 0.989357 0.703160
O O7 0.713700 0.885097 0.959482
O O8 0.649375 0.334974 0.170447
O O9 0.770059 0.971674 0.162291
O O10 0.000000 0.500000 0.000000
O O11 0.385883 0.303475 0.608185
#
# Coordination Sequence:
#
# PCOD9042493 Si02
#       5
#     2   2   2   2   2
#     4   9  22  44  70 100 139 186 228 290 350 413
#     4  11  25  44  72 101 145 182 234 289 347 411
#     4  12  27  46  72 104 144 187 231 287 351 416
#     4  10  23  44  72 101 139 184 236 284 352 409
#     4  12  28  45  74 107 139 186 237 286 346 421
#
# _framework density 27.764814000000001
#
# number of rings (size 3 to 8) (size 9 to 14) (size 15 to 20)
#    0.000    1.200    2.000    1.800   11.200    0.800 
#    0.000    9.000    0.000    0.000    0.000    0.000 
#    0.000    0.000    0.000    0.000    0.000    0.000 
#
# Total GULP energy -55853.323252 kJ/mol
# GULP energy per Si atom -5585.332325 kJ/mol
# Density = 2.770162 g / cm^3
# Si number density = 27.764814 Si / 1000 Ang^3
#
#
#
# Elastic Constant Matrix: (Units=GPa)
#
#
# Indices 1 2 3 4 5 6 
#
# 1 169.3541 28.2222 36.1301 24.9619 16.0985 -7.9024
# 2 28.2222 106.1248 60.4460 14.4643 11.7304 -21.1683
# 3 36.1301 60.4460 97.1638 11.3968 4.5363 -19.6853
# 4 24.9619 14.4643 11.3968 58.0966 -12.4797 1.5640
# 5 16.0985 11.7304 4.5363 -12.4797 56.5267 11.8980
# 6 -7.9024 -21.1683 -19.6853 1.5640 11.8980 50.9541
#
#
#
# Elastic Compliance Matrix: (Units=1/GPa)
#
#
# Indices 1 2 3 4 5 6 
#
# 1 0.007131 0.000311 -0.002059 -0.003402 -0.002940 0.001230
# 2 0.000311 0.016133 -0.008595 -0.003553 -0.004497 0.004589
# 3 -0.002059 -0.008595 0.016938 -0.000279 0.000409 0.002567
# 4 -0.003402 -0.003553 -0.000279 0.021320 0.007381 -0.004489
# 5 -0.002940 -0.004497 0.000409 0.007381 0.022676 -0.007688
# 6 0.001230 0.004589 0.002567 -0.004489 -0.007688 0.024647
#
#
# Mechanical properties :
#
#
# Convention : Reuss Voigt Hill
#
# Bulk Modulus (GPa) = 51.24528 69.13771 60.19149
# Shear Modulus (GPa) = 36.75466 49.63844 43.19655
#
# Velocity S-wave (km/s) = 3.64233 4.23285 3.94864
# Velocity P-wave (km/s) = 6.01546 6.98889 6.52037
#
# Compressibility (1/GPa) = 0.01951399
#
# Stress axis : x y z
#
# Youngs Moduli (GPa) = 140.24025 61.98652 59.03728
#
# Poissons Ratio (x) = -0.01925 0.12157
# Poissons Ratio (y) = -0.04356 0.50744
# Poissons Ratio (z) = 0.28878 0.53279
#
# Static dielectric constant tensor:
#      x y z
#    x 2.387940 -0.126430 -0.088090 
#    y -0.126430 2.569600 0.005660 
#    z -0.088090 0.005660 2.140240 
# 
# From -- ./inp_files/24925.got.cif
#   From: 2010.05.17/outbox.cif.g08.bks.cpg/sg2_13_cif.got.tgz:24925.got - 2010.06.03 11:33:40.
