data_PCOD9042015
_publ_section_title
;
Structure prediction by ZEFSAII (Michael W. Deem and Ramdas Pophale) SiO2 
 PCOD9042015
Probable space group: P -1
;
_chemical_formula_sum "Si O2"
_cell_formula_units_Z 14
_cell_length_a 13.359859
_cell_length_b 14.040726
_cell_length_c 9.274241
_cell_angle_alpha 51.742212
_cell_angle_beta 55.367672
_cell_angle_gamma 27.346359
_cell_volume 626.713974
_symmetry_space_group_name_H-M "P -1"
_symmetry_group_IT_number 2
_symmetry_cell_setting 'triclinic'
loop_
_space_group_symop_operation_xyz
x,y,z
-x,-y,-z
loop_
_atom_site_type_symbol
_atom_site_label
_atom_site_fract_x
_atom_site_fract_y
_atom_site_fract_z
Si Si1 0.511111 0.115305 0.792588
Si Si2 0.952447 0.540394 0.172793
Si Si3 0.249523 0.804372 0.103019
Si Si4 0.353264 0.614006 0.660860
Si Si5 0.686092 0.898791 0.544688
Si Si6 0.822028 0.055095 0.280804
Si Si7 0.090164 0.141767 0.116319
O O1 0.265495 0.361364 0.740279
O O2 0.584488 0.012129 0.675187
O O3 0.693836 0.043186 0.787616
O O4 0.500000 0.000000 0.000000
O O5 0.117685 0.352108 0.333067
O O6 0.000000 0.500000 0.000000
O O7 0.930956 0.702198 0.064332
O O8 0.084701 0.842967 0.271707
O O9 0.489343 0.587984 0.169279
O O10 0.142395 0.015331 0.055640
O O11 0.758565 0.189036 0.068538
O O12 0.500000 0.500000 0.500000
O O13 0.289988 0.792804 0.628472
O O14 0.500000 0.000000 0.500000
O O15 0.760243 0.970282 0.369111
O O16 0.878985 0.266083 0.259679
#
# Coordination Sequence:
#
# PCOD9042015 Si02
#       7
#     2   2   2   2   2   2   2
#     4  10  23  44  68  98 142 184 240 284 348 429
#     4  11  24  43  72 103 141 194 233 285 364 420
#     4  10  24  47  74  94 147 190 233 300 358 428
#     4  11  26  42  77 108 135 184 242 304 361 418
#     4  12  28  44  70 108 150 184 237 299 354 428
#     4  10  26  48  66 104 144 187 239 291 363 431
#     4  10  24  41  76 105 137 187 247 285 365 429
#
# _framework density 22.338737999999999
#
# number of rings (size 3 to 8) (size 9 to 14) (size 15 to 20)
#    0.000    1.429    2.857    0.429   12.000    2.857 
#    0.000    0.000    0.000    0.000    0.000    0.000 
#    0.000    0.000    0.000    0.000    0.000    0.000 
#
# Total GULP energy -78100.332381 kJ/mol
# GULP energy per Si atom -5578.595170 kJ/mol
# Density = 2.228789 g / cm^3
# Si number density = 22.338738 Si / 1000 Ang^3
#
#
#
# Elastic Constant Matrix: (Units=GPa)
#
#
# Indices 1 2 3 4 5 6 
#
# 1 144.0470 52.9419 33.9520 -2.9418 -6.9986 -22.5709
# 2 52.9419 101.6590 37.9043 -0.6272 -3.3264 -33.7258
# 3 33.9520 37.9043 74.2018 -4.6908 4.8505 -6.4122
# 4 -2.9418 -0.6272 -4.6908 37.5362 2.3648 9.8744
# 5 -6.9986 -3.3264 4.8505 2.3648 38.4090 -4.4339
# 6 -22.5709 -33.7258 -6.4122 9.8744 -4.4339 44.0810
#
#
#
# Elastic Compliance Matrix: (Units=1/GPa)
#
#
# Indices 1 2 3 4 5 6 
#
# 1 0.009089 -0.002915 -0.002626 -0.000407 0.002030 0.002337
# 2 -0.002915 0.018603 -0.007579 -0.004536 0.003822 0.013039
# 3 -0.002626 -0.007579 0.018580 0.003771 -0.004374 -0.005726
# 4 -0.000407 -0.004536 0.003771 0.029948 -0.003969 -0.010238
# 5 0.002030 0.003822 -0.004374 -0.003969 0.028349 0.007068
# 6 0.002337 0.013039 -0.005726 -0.010238 0.007068 0.036029
#
#
# Mechanical properties :
#
#
# Convention : Reuss Voigt Hill
#
# Bulk Modulus (GPa) = 49.92158 63.27825 56.59991
# Shear Modulus (GPa) = 28.81576 37.01255 32.91415
#
# Velocity S-wave (km/s) = 3.59548 4.07489 3.84267
# Velocity P-wave (km/s) = 6.29545 7.10829 6.71418
#
# Compressibility (1/GPa) = 0.02003142
#
# Stress axis : x y z
#
# Youngs Moduli (GPa) = 110.02251 53.75352 53.82215
#
# Poissons Ratio (x) = 0.15668 0.14135
# Poissons Ratio (y) = 0.32070 0.40793
# Poissons Ratio (z) = 0.28896 0.40741
#
# Static dielectric constant tensor:
#      x y z
#    x 1.783390 0.029390 0.021240 
#    y 0.029390 1.858000 -0.026190 
#    z 0.021240 -0.026190 1.774020 
# 
# From -- ./inp_files/432559.got.cif
#   From: 2010.05.17/outbox.cif.g08.bks.cpg/sg2_217_cif.got.tgz:432559.got - 2010.06.03 11:33:40.
