data_PCOD9042438
_publ_section_title
;
Structure prediction by ZEFSAII (Michael W. Deem and Ramdas Pophale) SiO2 
 PCOD9042438
Probable space group: P -1
;
_chemical_formula_sum "Si O2"
_cell_formula_units_Z 14
_cell_length_a 8.978883
_cell_length_b 14.857070
_cell_length_c 15.709083
_cell_angle_alpha 151.730754
_cell_angle_beta 138.241007
_cell_angle_gamma 60.305866
_cell_volume 567.650207
_symmetry_space_group_name_H-M "P -1"
_symmetry_group_IT_number 2
_symmetry_cell_setting 'triclinic'
loop_
_space_group_symop_operation_xyz
x,y,z
-x,-y,-z
loop_
_atom_site_type_symbol
_atom_site_label
_atom_site_fract_x
_atom_site_fract_y
_atom_site_fract_z
Si Si1 0.728331 0.511044 0.995246
Si Si2 0.575628 0.488493 0.618662
Si Si3 0.228738 0.861812 0.392508
Si Si4 0.181439 0.450828 0.731742
Si Si5 0.102576 0.031826 0.766726
Si Si6 0.984552 0.659991 0.694507
Si Si7 0.479655 0.959503 0.750826
O O1 0.700773 0.286733 0.759282
O O2 0.467582 0.519898 0.877195
O O3 0.788636 0.529961 0.137208
O O4 0.966574 0.703007 0.202891
O O5 0.500000 0.500000 0.500000
O O6 0.649211 0.301505 0.505115
O O7 0.305677 0.389631 0.472586
O O8 0.782319 0.733749 0.942469
O O9 0.445830 0.988320 0.660924
O O10 0.151993 0.009089 0.426990
O O11 0.055757 0.584799 0.750810
O O12 0.992447 0.193079 0.409813
O O13 0.325265 0.048254 0.813099
O O14 0.000000 0.500000 0.500000
O O15 0.218263 0.908256 0.985181
#
# Coordination Sequence:
#
# PCOD9042438 Si02
#       7
#     2   2   2   2   2   2   2
#     4  10  23  44  71 107 150 182 240 294 361 429
#     4  12  29  48  75 106 142 192 246 296 354 426
#     4  11  24  43  76 106 142 190 240 291 365 428
#     4  11  26  44  73 109 149 186 237 301 361 419
#     4  12  26  46  76 108 147 186 237 301 363 422
#     4  12  28  48  75 102 147 194 242 291 356 429
#     4  12  26  49  75 104 144 192 241 295 357 430
#
# _framework density 24.663074999999999
#
# number of rings (size 3 to 8) (size 9 to 14) (size 15 to 20)
#    0.000    0.571    2.857    4.286   10.000    2.857 
#    0.000    0.000    0.000    0.000    0.000    0.000 
#    0.000    0.000    0.000    0.000    0.000    0.000 
#
# Total GULP energy -78513.722989 kJ/mol
# GULP energy per Si atom -5608.123071 kJ/mol
# Density = 2.460694 g / cm^3
# Si number density = 24.663075 Si / 1000 Ang^3
#
#
#
# Elastic Constant Matrix: (Units=GPa)
#
#
# Indices 1 2 3 4 5 6 
#
# 1 89.4008 -1.9385 19.9973 -3.0105 -4.6155 -8.7050
# 2 -1.9385 73.6723 10.9452 5.4711 -12.8724 -2.2235
# 3 19.9973 10.9452 139.4509 6.2552 -10.5592 9.1079
# 4 -3.0105 5.4711 6.2552 38.7674 -6.1575 -0.9920
# 5 -4.6155 -12.8724 -10.5592 -6.1575 40.5257 -7.5831
# 6 -8.7050 -2.2235 9.1079 -0.9920 -7.5831 23.4330
#
#
#
# Elastic Compliance Matrix: (Units=1/GPa)
#
#
# Indices 1 2 3 4 5 6 
#
# 1 0.012545 0.001203 -0.002195 0.001762 0.002740 0.006589
# 2 0.001203 0.014865 -0.001166 -0.000897 0.005156 0.003941
# 3 -0.002195 -0.001166 0.007929 -0.001303 0.000519 -0.003895
# 4 0.001762 -0.000897 -0.001303 0.027055 0.004367 0.003635
# 5 0.002740 0.005156 0.000519 0.004367 0.029489 0.011033
# 6 0.006589 0.003941 -0.003895 0.003635 0.011033 0.050735
#
#
# Mechanical properties :
#
#
# Convention : Reuss Voigt Hill
#
# Bulk Modulus (GPa) = 32.23463 40.05912 36.14687
# Shear Modulus (GPa) = 31.79132 38.77990 35.28561
#
# Velocity S-wave (km/s) = 3.59419 3.96964 3.78657
# Velocity P-wave (km/s) = 5.50660 6.10643 5.81426
#
# Compressibility (1/GPa) = 0.03102254
#
# Stress axis : x y z
#
# Youngs Moduli (GPa) = 79.71271 67.27257 126.11227
#
# Poissons Ratio (x) = -0.08092 0.27686
# Poissons Ratio (y) = -0.09588 0.14704
# Poissons Ratio (z) = 0.17500 0.07844
#
# Static dielectric constant tensor:
#      x y z
#    x 1.935810 0.031860 0.031990 
#    y 0.031860 1.958590 0.024740 
#    z 0.031990 0.024740 1.964690 
# 
# From -- ./inp_files/352388.got.cif
#   From: 2010.05.17/outbox.cif.g08.bks.cpg/sg2_177_cif.got.tgz:352388.got - 2010.06.03 11:33:40.
