data_PCOD9042380
_publ_section_title
;
Structure prediction by ZEFSAII (Michael W. Deem and Ramdas Pophale) SiO2 
 PCOD9042380
Probable space group: P -1
;
_chemical_formula_sum "Si O2"
_cell_formula_units_Z 12
_cell_length_a 9.302800
_cell_length_b 13.142599
_cell_length_c 8.292350
_cell_angle_alpha 96.192489
_cell_angle_beta 106.226309
_cell_angle_gamma 144.539886
_cell_volume 450.834195
_symmetry_space_group_name_H-M "P -1"
_symmetry_group_IT_number 2
_symmetry_cell_setting 'triclinic'
loop_
_space_group_symop_operation_xyz
x,y,z
-x,-y,-z
loop_
_atom_site_type_symbol
_atom_site_label
_atom_site_fract_x
_atom_site_fract_y
_atom_site_fract_z
Si Si1 0.228789 0.291195 0.761468
Si Si2 0.483966 0.218582 0.838931
Si Si3 0.482945 0.867698 0.481649
Si Si4 0.628497 0.480986 0.440920
Si Si5 0.832381 0.142514 0.149030
Si Si6 0.459809 0.182437 0.194524
O O1 0.360973 0.256455 0.758116
O O2 0.229608 0.383678 0.649904
O O3 0.500000 0.500000 0.000000
O O4 0.852965 0.051864 0.643776
O O5 0.656797 0.269154 0.748705
O O6 0.202585 0.964879 0.741972
O O7 0.604047 0.292502 0.078219
O O8 0.335989 0.749785 0.589825
O O9 0.500000 0.000000 0.500000
O O10 0.500000 0.500000 0.500000
O O11 0.394496 0.251515 0.269230
O O12 0.096359 0.383561 0.322558
O O13 0.500000 0.000000 0.000000
O O14 0.839997 0.075138 0.982899
#
# Coordination Sequence:
#
# PCOD9042380 Si02
#       6
#     2   2   2   2   2   2
#     4  12  24  45  70 102 143 185 239 297 353 427
#     4  10  23  44  71 101 142 189 236 287 365 418
#     4  12  26  46  73 103 144 190 239 297 361 426
#     4  12  26  44  74 108 139 186 246 295 357 432
#     4  10  23  45  70  99 140 187 231 290 359 418
#     4  10  25  44  73 101 145 185 237 291 363 419
#
# _framework density 26.617325000000001
#
# number of rings (size 3 to 8) (size 9 to 14) (size 15 to 20)
#    1.000    0.000    3.333    2.500    4.667    2.000 
#    3.000    0.833    0.000    0.000    0.000    0.000 
#    0.000    0.000    0.000    0.000    0.000    0.000 
#
# Total GULP energy -66827.014297 kJ/mol
# GULP energy per Si atom -5568.917858 kJ/mol
# Density = 2.655674 g / cm^3
# Si number density = 26.617325 Si / 1000 Ang^3
#
#
#
# Elastic Constant Matrix: (Units=GPa)
#
#
# Indices 1 2 3 4 5 6 
#
# 1 145.1386 21.8019 52.4418 6.2157 -27.0325 -31.0619
# 2 21.8019 83.1238 21.6339 -17.9043 -9.2407 -14.1792
# 3 52.4418 21.6339 185.9996 -4.6433 -42.1190 0.1080
# 4 6.2157 -17.9043 -4.6433 40.3142 -3.7099 -2.6974
# 5 -27.0325 -9.2407 -42.1190 -3.7099 44.7986 4.6736
# 6 -31.0619 -14.1792 0.1080 -2.6974 4.6736 47.0547
#
#
#
# Elastic Compliance Matrix: (Units=1/GPa)
#
#
# Indices 1 2 3 4 5 6 
#
# 1 0.009578 -0.001035 -0.001933 -0.001503 0.003037 0.005628
# 2 -0.001035 0.014958 -0.000860 0.007143 0.001821 0.004054
# 3 -0.001933 -0.000860 0.007392 0.001174 0.005920 -0.002073
# 4 -0.001503 0.007143 0.001174 0.028857 0.003806 0.002434
# 5 0.003037 0.001821 0.005920 0.003806 0.030439 -0.000265
# 6 0.005628 0.004054 -0.002073 0.002434 -0.000265 0.026359
#
#
# Mechanical properties :
#
#
# Convention : Reuss Voigt Hill
#
# Bulk Modulus (GPa) = 41.19858 67.33526 54.26692
# Shear Modulus (GPa) = 37.50052 47.65913 42.57983
#
# Velocity S-wave (km/s) = 3.75757 4.23606 4.00397
# Velocity P-wave (km/s) = 5.85982 7.01983 6.46589
#
# Compressibility (1/GPa) = 0.02427268
#
# Stress axis : x y z
#
# Youngs Moduli (GPa) = 104.40110 66.85370 135.27339
#
# Poissons Ratio (x) = 0.06922 0.26152
# Poissons Ratio (y) = 0.10809 0.11628
# Poissons Ratio (z) = 0.20183 0.05746
#
# Static dielectric constant tensor:
#      x y z
#    x 2.214220 0.121700 -0.017960 
#    y 0.121700 2.134080 0.017970 
#    z -0.017960 0.017970 2.170620 
# 
# From -- ./inp_files/171634.got.cif
#   From: 2010.05.17/outbox.cif.g08.bks.cpg/sg2_86_cif.got.tgz:171634.got - 2010.06.03 11:33:40.
