data_PCOD9042634
_publ_section_title
;
Structure prediction by ZEFSAII (Michael W. Deem and Ramdas Pophale) SiO2 
 PCOD9042634
Probable space group: P -1
;
_chemical_formula_sum "Si O2"
_cell_formula_units_Z 16
_cell_length_a 23.168086
_cell_length_b 9.399202
_cell_length_c 5.668678
_cell_angle_alpha 49.918564
_cell_angle_beta 62.859633
_cell_angle_gamma 46.191877
_cell_volume 681.481809
_symmetry_space_group_name_H-M "P -1"
_symmetry_group_IT_number 2
_symmetry_cell_setting 'triclinic'
loop_
_space_group_symop_operation_xyz
x,y,z
-x,-y,-z
loop_
_atom_site_type_symbol
_atom_site_label
_atom_site_fract_x
_atom_site_fract_y
_atom_site_fract_z
Si Si1 0.838252 0.950985 0.997439
Si Si2 0.574257 0.514200 0.383981
Si Si3 0.991428 0.815237 0.098331
Si Si4 0.431904 0.135793 0.673317
Si Si5 0.069275 0.376341 0.201995
Si Si6 0.747065 0.795148 0.532808
Si Si7 0.333976 0.958632 0.083788
Si Si8 0.699132 0.470812 0.825851
O O1 0.917887 0.933245 0.926962
O O2 0.827290 0.783385 0.356872
O O3 0.851675 0.840708 0.832230
O O4 0.765882 0.212195 0.898907
O O5 0.500000 0.500000 0.500000
O O6 0.544171 0.756033 0.293209
O O7 0.633219 0.304138 0.675266
O O8 0.631900 0.478329 0.099606
O O9 0.962985 0.718325 0.452499
O O10 0.068408 0.588325 0.076881
O O11 0.000000 0.000000 0.000000
O O12 0.350308 0.354239 0.480389
O O13 0.500000 0.000000 0.500000
O O14 0.408869 0.969611 0.967172
O O15 0.000000 0.500000 0.000000
O O16 0.714947 0.911944 0.723404
O O17 0.740885 0.580663 0.759112
O O18 0.700022 0.942844 0.221815
#
# Coordination Sequence:
#
# PCOD9042634 Si02
#       8
#     2   2   2   2   2   2   2   2
#     4  11  24  42  73 103 143 188 242 298 366 429
#     4  12  26  41  72  99 139 186 248 307 380 438
#     4  10  23  44  73 106 147 182 237 287 362 440
#     4  11  26  45  69  98 139 192 248 311 376 445
#     4   9  22  43  68 101 139 184 227 286 351 434
#     4  11  25  46  71 102 144 192 238 310 363 439
#     4  11  25  46  71  96 146 183 245 306 375 438
#     4  11  25  44  67 103 141 188 253 302 370 438
#
# _framework density 23.478247
#
# number of rings (size 3 to 8) (size 9 to 14) (size 15 to 20)
#    0.000    1.250    2.500    1.500    5.250    9.000 
#    0.000    0.000    0.000    0.000    0.000    0.000 
#    0.000    0.000    0.000    0.000    0.000    0.000 
#
# Total GULP energy -89345.461691 kJ/mol
# GULP energy per Si atom -5584.091356 kJ/mol
# Density = 2.342481 g / cm^3
# Si number density = 23.478247 Si / 1000 Ang^3
#
#
#
# Elastic Constant Matrix: (Units=GPa)
#
#
# Indices 1 2 3 4 5 6 
#
# 1 118.4396 45.4701 13.4069 -15.1239 -9.8573 26.2842
# 2 45.4701 196.3736 29.3904 -3.4449 -9.7016 22.2408
# 3 13.4069 29.3904 74.8399 -7.5322 -5.3285 6.9349
# 4 -15.1239 -3.4449 -7.5322 45.7367 3.5245 -7.3030
# 5 -9.8573 -9.7016 -5.3285 3.5245 45.6717 -8.1427
# 6 26.2842 22.2408 6.9349 -7.3030 -8.1427 32.8826
#
#
#
# Elastic Compliance Matrix: (Units=1/GPa)
#
#
# Indices 1 2 3 4 5 6 
#
# 1 0.010998 -0.001629 -0.000415 0.002292 0.000563 -0.006953
# 2 -0.001629 0.006038 -0.001909 -0.000820 0.000329 -0.002480
# 3 -0.000415 -0.001909 0.014516 0.001914 0.000910 -0.000788
# 4 0.002292 -0.000820 0.001914 0.023464 -0.000667 0.003365
# 5 0.000563 0.000329 0.000910 -0.000667 0.023083 0.004703
# 6 -0.006953 -0.002480 -0.000788 0.003365 0.004703 0.039725
#
#
# Mechanical properties :
#
#
# Convention : Reuss Voigt Hill
#
# Bulk Modulus (GPa) = 42.28982 62.90979 52.59981
# Shear Modulus (GPa) = 37.42172 44.95059 41.18616
#
# Velocity S-wave (km/s) = 3.99669 4.38032 4.19289
# Velocity P-wave (km/s) = 6.27291 7.24127 6.77442
#
# Compressibility (1/GPa) = 0.02364635
#
# Stress axis : x y z
#
# Youngs Moduli (GPa) = 90.92467 165.62040 68.88841
#
# Poissons Ratio (x) = 0.26978 0.02862
# Poissons Ratio (y) = 0.14811 0.13148
# Poissons Ratio (z) = 0.03778 0.31610
#
# Static dielectric constant tensor:
#      x y z
#    x 2.001880 -0.010640 0.049000 
#    y -0.010640 1.886810 0.024000 
#    z 0.049000 0.024000 1.875090 
# 
# From -- ./inp_files/122759.got.cif
#   From: 2010.05.17/outbox.cif.g08.bks.cpg/sg2_62_cif.got.tgz:122759.got - 2010.06.03 11:33:40.
