data_PCOD9042374
_publ_section_title
;
Structure prediction by ZEFSAII (Michael W. Deem and Ramdas Pophale) SiO2 
 PCOD9042374
Probable space group: P -1
;
_chemical_formula_sum "Si O2"
_cell_formula_units_Z 14
_cell_length_a 16.067990
_cell_length_b 8.158739
_cell_length_c 5.415069
_cell_angle_alpha 59.971470
_cell_angle_beta 100.692375
_cell_angle_gamma 83.355343
_cell_volume 585.502674
_symmetry_space_group_name_H-M "P -1"
_symmetry_group_IT_number 2
_symmetry_cell_setting 'triclinic'
loop_
_space_group_symop_operation_xyz
x,y,z
-x,-y,-z
loop_
_atom_site_type_symbol
_atom_site_label
_atom_site_fract_x
_atom_site_fract_y
_atom_site_fract_z
Si Si1 0.920600 0.750228 0.232999
Si Si2 0.019317 0.773469 0.753108
Si Si3 0.610624 0.727006 0.340072
Si Si4 0.814853 0.191101 0.947726
Si Si5 0.648706 0.401581 0.968903
Si Si6 0.776996 0.516121 0.317419
Si Si7 0.461195 0.870629 0.768529
O O1 0.979679 0.684155 0.562430
O O2 0.854400 0.617497 0.245830
O O3 0.973588 0.760102 0.002367
O O4 0.860830 0.965445 0.104330
O O5 0.000000 0.000000 0.500000
O O6 0.122522 0.715796 0.910920
O O7 0.589325 0.573163 0.641730
O O8 0.710914 0.636796 0.395041
O O9 0.598524 0.950110 0.246124
O O10 0.541986 0.748267 0.064057
O O11 0.716743 0.243971 0.957578
O O12 0.812524 0.299184 0.604493
O O13 0.711079 0.509730 0.067166
O O14 0.597213 0.281664 0.203614
O O15 0.500000 0.000000 0.500000
#
# Coordination Sequence:
#
# PCOD9042374 Si02
#       7
#     2   2   2   2   2   2   2
#     4  11  25  44  72  98 145 184 239 289 345 413
#     4  10  23  44  71 101 136 190 237 290 344 411
#     4  10  24  45  65  99 137 173 233 275 356 415
#     4  10  24  43  67  97 137 182 231 282 351 405
#     4  11  25  43  68  98 143 175 229 289 347 422
#     4  11  26  41  67 103 133 182 225 286 346 413
#     4  11  24  44  73  98 130 180 228 282 352 420
#
# _framework density 23.911076000000001
#
# number of rings (size 3 to 8) (size 9 to 14) (size 15 to 20)
#    0.000    1.429    0.000    3.857   10.000   10.286 
#    0.000    0.000    0.000    0.000    0.000    0.000 
#    0.000    0.000    0.000    0.000    0.000    0.000 
#
# Total GULP energy -78282.446999 kJ/mol
# GULP energy per Si atom -5591.603357 kJ/mol
# Density = 2.385665 g / cm^3
# Si number density = 23.911076 Si / 1000 Ang^3
#
#
#
# Elastic Constant Matrix: (Units=GPa)
#
#
# Indices 1 2 3 4 5 6 
#
# 1 86.9338 45.7275 22.6964 -9.1744 -12.8947 14.0370
# 2 45.7275 85.4403 29.7209 -3.1772 1.3595 13.7813
# 3 22.6964 29.7209 124.9653 5.8612 8.7821 2.6864
# 4 -9.1744 -3.1772 5.8612 39.8166 -9.6568 9.7754
# 5 -12.8947 1.3595 8.7821 -9.6568 34.6896 -3.6807
# 6 14.0370 13.7813 2.6864 9.7754 -3.6807 37.3002
#
#
#
# Elastic Compliance Matrix: (Units=1/GPa)
#
#
# Indices 1 2 3 4 5 6 
#
# 1 0.019985 -0.008859 -0.002494 0.007978 0.010080 -0.005164
# 2 -0.008859 0.017823 -0.002266 -0.000402 -0.003887 -0.003366
# 3 -0.002494 -0.002266 0.009407 -0.003515 -0.004026 0.001622
# 4 0.007978 -0.000402 -0.003515 0.032793 0.011937 -0.010017
# 5 0.010080 -0.003887 -0.004026 0.011937 0.036904 -0.001554
# 6 -0.005164 -0.003366 0.001622 -0.010017 -0.001554 0.032352
#
#
# Mechanical properties :
#
#
# Convention : Reuss Voigt Hill
#
# Bulk Modulus (GPa) = 50.05626 54.84765 52.45195
# Shear Modulus (GPa) = 27.29831 35.64091 31.46961
#
# Velocity S-wave (km/s) = 3.38251 3.86497 3.63176
# Velocity P-wave (km/s) = 6.01955 6.55021 6.29048
#
# Compressibility (1/GPa) = 0.01997752
#
# Stress axis : x y z
#
# Youngs Moduli (GPa) = 50.03738 56.10587 106.30348
#
# Poissons Ratio (x) = 0.49705 0.26515
# Poissons Ratio (y) = 0.44328 0.24084
# Poissons Ratio (z) = 0.12481 0.12712
#
# Static dielectric constant tensor:
#      x y z
#    x 1.939030 -0.036970 -0.041110 
#    y -0.036970 1.966750 0.071210 
#    z -0.041110 0.071210 1.923010 
# 
# From -- ./inp_files/89705.got.cif
#   From: 2010.05.17/outbox.cif.g08.bks.cpg/sg2_45_cif.got.tgz:89705.got - 2010.06.03 11:33:40.
