data_PCOD9042828
_publ_section_title
;
Structure prediction by ZEFSAII (Michael W. Deem and Ramdas Pophale) SiO2 
 PCOD9042828
Probable space group: P -1
;
_chemical_formula_sum "Si O2"
_cell_formula_units_Z 12
_cell_length_a 20.586534
_cell_length_b 8.865218
_cell_length_c 9.369518
_cell_angle_alpha 133.649702
_cell_angle_beta 28.367855
_cell_angle_gamma 137.034670
_cell_volume 548.035179
_symmetry_space_group_name_H-M "P -1"
_symmetry_group_IT_number 2
_symmetry_cell_setting 'triclinic'
loop_
_space_group_symop_operation_xyz
x,y,z
-x,-y,-z
loop_
_atom_site_type_symbol
_atom_site_label
_atom_site_fract_x
_atom_site_fract_y
_atom_site_fract_z
Si Si1 0.828495 0.870161 0.999312
Si Si2 0.618232 0.602038 0.462555
Si Si3 0.446333 0.203289 0.725427
Si Si4 0.066504 0.673957 0.358776
Si Si5 0.300708 0.150454 0.269531
Si Si6 0.952580 0.644393 0.070678
O O1 0.944121 0.785072 0.639656
O O2 0.764130 0.714495 0.160155
O O3 0.697826 0.853661 0.132700
O O4 0.910861 0.122021 0.059678
O O5 0.500000 0.500000 0.500000
O O6 0.575114 0.399512 0.525918
O O7 0.617122 0.796100 0.701696
O O8 0.500000 0.000000 0.500000
O O9 0.402760 0.242474 0.995637
O O10 0.000000 0.500000 0.500000
O O11 0.212830 0.884608 0.249312
O O12 0.086762 0.523913 0.094939
O O13 0.180047 0.270277 0.582852
O O14 0.000000 0.500000 0.000000
#
# Coordination Sequence:
#
# PCOD9042828 Si02
#       6
#     2   2   2   2   2   2
#     4  10  23  45  64 103 137 167 227 277 329 403
#     4  10  23  45  65  91 137 177 218 278 320 391
#     4  11  25  43  69  95 134 186 225 268 330 395
#     4  11  23  40  72 100 132 174 214 282 344 392
#     4  11  24  43  68 100 134 170 230 275 331 401
#     4  11  23  40  71 100 133 172 213 285 341 390
#
# _framework density 21.896402999999999
#
# number of rings (size 3 to 8) (size 9 to 14) (size 15 to 20)
#    0.000    1.333    0.000    4.500    7.000    5.333 
#    6.000    1.667    0.000    0.000    0.000    0.000 
#    0.000    0.000    0.000    0.000    0.000    0.000 
#
# Total GULP energy -67002.956052 kJ/mol
# GULP energy per Si atom -5583.579671 kJ/mol
# Density = 2.184657 g / cm^3
# Si number density = 21.896403 Si / 1000 Ang^3
#
#
#
# Elastic Constant Matrix: (Units=GPa)
#
#
# Indices 1 2 3 4 5 6 
#
# 1 102.4133 32.0462 42.0274 1.9604 16.6599 14.7440
# 2 32.0462 146.4820 50.8935 -3.1415 -1.8588 12.5418
# 3 42.0274 50.8935 119.0593 8.0408 27.7970 6.6335
# 4 1.9604 -3.1415 8.0408 38.4207 -1.5762 9.5598
# 5 16.6599 -1.8588 27.7970 -1.5762 37.8587 0.6428
# 6 14.7440 12.5418 6.6335 9.5598 0.6428 36.0044
#
#
#
# Elastic Compliance Matrix: (Units=1/GPa)
#
#
# Indices 1 2 3 4 5 6 
#
# 1 0.012521 -0.001417 -0.002836 0.000758 -0.003393 -0.004252
# 2 -0.001417 0.008996 -0.004418 0.002536 0.004457 -0.002492
# 3 -0.002836 -0.004418 0.013601 -0.003776 -0.009136 0.001361
# 4 0.000758 0.002536 -0.003776 0.029219 0.003922 -0.008326
# 5 -0.003393 0.004457 -0.009136 0.003922 0.035000 -0.000146
# 6 -0.004252 -0.002492 0.001361 -0.008326 -0.000146 0.032347
#
#
# Mechanical properties :
#
#
# Convention : Reuss Voigt Hill
#
# Bulk Modulus (GPa) = 56.25645 68.65431 62.45538
# Shear Modulus (GPa) = 32.26802 38.65593 35.46198
#
# Velocity S-wave (km/s) = 3.84300 4.20623 4.02871
# Velocity P-wave (km/s) = 6.74088 7.41701 7.08701
#
# Compressibility (1/GPa) = 0.01777574
#
# Stress axis : x y z
#
# Youngs Moduli (GPa) = 79.86423 111.15838 73.52228
#
# Poissons Ratio (x) = 0.15746 0.20854
# Poissons Ratio (y) = 0.11313 0.32486
# Poissons Ratio (z) = 0.22653 0.49115
#
# Static dielectric constant tensor:
#      x y z
#    x 1.715760 0.030110 0.007480 
#    y 0.030110 1.828150 0.002770 
#    z 0.007480 0.002770 1.793770 
# 
# From -- ./inp_files/21899.got.cif
#   From: 2010.05.17/outbox.cif.g08.bks.cpg/sg2_11_cif.got.tgz:21899.got - 2010.06.03 11:33:40.
