data_PCOD9042078
_publ_section_title
;
Structure prediction by ZEFSAII (Michael W. Deem and Ramdas Pophale) SiO2 
 PCOD9042078
Probable space group: P -1
;
_chemical_formula_sum "Si O2"
_cell_formula_units_Z 12
_cell_length_a 17.825206
_cell_length_b 10.131994
_cell_length_c 5.706613
_cell_angle_alpha 70.466918
_cell_angle_beta 93.352406
_cell_angle_gamma 144.145478
_cell_volume 525.083988
_symmetry_space_group_name_H-M "P -1"
_symmetry_group_IT_number 2
_symmetry_cell_setting 'triclinic'
loop_
_space_group_symop_operation_xyz
x,y,z
-x,-y,-z
loop_
_atom_site_type_symbol
_atom_site_label
_atom_site_fract_x
_atom_site_fract_y
_atom_site_fract_z
Si Si1 0.652951 0.853095 0.412477
Si Si2 0.039005 0.626648 0.681149
Si Si3 0.446081 0.757474 0.660116
Si Si4 0.499299 0.373972 0.887556
Si Si5 0.846275 0.825968 0.089693
Si Si6 0.917059 0.014267 0.490220
O O1 0.544539 0.803545 0.507905
O O2 0.601924 0.613408 0.585892
O O3 0.649127 0.868258 0.123226
O O4 0.794323 0.098869 0.428215
O O5 0.000000 0.500000 0.500000
O O6 0.982704 0.696952 0.630073
O O7 0.000000 0.500000 0.000000
O O8 0.284751 0.483432 0.724207
O O9 0.500000 0.000000 0.500000
O O10 0.459426 0.710135 0.950702
O O11 0.500000 0.500000 0.000000
O O12 0.853613 0.928797 0.267047
O O13 0.829878 0.871480 0.802837
O O14 0.000000 0.000000 0.000000
O O15 0.000000 0.000000 0.500000
#
# Coordination Sequence:
#
# PCOD9042078 Si02
#       6
#     2   2   2   2   2   2
#     4  10  24  43  68 100 134 190 237 284 355 438
#     4  12  28  45  71 107 150 187 234 304 368 420
#     4  11  25  41  68 102 142 179 233 304 362 411
#     4   9  21  42  70  94 134 180 242 282 348 432
#     4  10  23  44  69 103 134 188 235 288 350 434
#     4  10  23  45  73  98 138 187 242 283 350 433
#
# _framework density 22.853484000000002
#
# number of rings (size 3 to 8) (size 9 to 14) (size 15 to 20)
#    0.000    1.667    0.000    2.000   14.000    6.000 
#    0.000    0.000    0.000    0.000    0.000    0.000 
#    0.000    0.000    0.000    0.000    0.000    0.000 
#
# Total GULP energy -66833.978995 kJ/mol
# GULP energy per Si atom -5569.498250 kJ/mol
# Density = 2.280147 g / cm^3
# Si number density = 22.853484 Si / 1000 Ang^3
#
#
#
# Elastic Constant Matrix: (Units=GPa)
#
#
# Indices 1 2 3 4 5 6 
#
# 1 110.5361 49.4654 38.5062 -8.2163 16.1236 -8.0308
# 2 49.4654 180.4299 70.5859 18.3790 20.4344 -4.2422
# 3 38.5062 70.5859 137.7926 14.6302 20.5087 -18.8655
# 4 -8.2163 18.3790 14.6302 51.5278 -8.1970 5.4974
# 5 16.1236 20.4344 20.5087 -8.1970 42.5140 -7.4098
# 6 -8.0308 -4.2422 -18.8655 5.4974 -7.4098 49.7850
#
#
#
# Elastic Compliance Matrix: (Units=1/GPa)
#
#
# Indices 1 2 3 4 5 6 
#
# 1 0.011287 -0.002455 -0.001935 0.002945 -0.001543 0.000323
# 2 -0.002455 0.007811 -0.002838 -0.002618 -0.002104 -0.000830
# 3 -0.001935 -0.002838 0.010478 -0.003098 -0.002976 0.003316
# 4 0.002945 -0.002618 -0.003098 0.022858 0.005588 -0.002615
# 5 -0.001543 -0.002104 -0.002976 0.005588 0.027978 0.001991
# 6 0.000323 -0.000830 0.003316 -0.002615 0.001991 0.021909
#
#
# Mechanical properties :
#
#
# Convention : Reuss Voigt Hill
#
# Bulk Modulus (GPa) = 66.13947 82.87485 74.50716
# Shear Modulus (GPa) = 41.04527 46.77877 43.91202
#
# Velocity S-wave (km/s) = 4.24254 4.52917 4.38820
# Velocity P-wave (km/s) = 7.28027 7.98082 7.63858
#
# Compressibility (1/GPa) = 0.01511956
#
# Stress axis : x y z
#
# Youngs Moduli (GPa) = 88.59703 128.02638 95.44105
#
# Poissons Ratio (x) = 0.31429 0.18472
# Poissons Ratio (y) = 0.21749 0.27084
# Poissons Ratio (z) = 0.17147 0.36331
#
# Static dielectric constant tensor:
#      x y z
#    x 1.897830 0.078500 0.035140 
#    y 0.078500 1.972880 0.134820 
#    z 0.035140 0.134820 2.125820 
# 
# From -- ./inp_files/70945.got.cif
#   From: 2010.05.17/outbox.cif.g08.bks.cpg/sg2_36_cif.got.tgz:70945.got - 2010.06.03 11:33:40.
