data_PCOD9042615
_publ_section_title
;
Structure prediction by ZEFSAII (Michael W. Deem and Ramdas Pophale) SiO2 
 PCOD9042615
Probable space group: P -1
;
_chemical_formula_sum "Si O2"
_cell_formula_units_Z 12
_cell_length_a 7.660210
_cell_length_b 9.853458
_cell_length_c 7.073267
_cell_angle_alpha 91.702685
_cell_angle_beta 105.779154
_cell_angle_gamma 119.749002
_cell_volume 437.310808
_symmetry_space_group_name_H-M "P -1"
_symmetry_group_IT_number 2
_symmetry_cell_setting 'triclinic'
loop_
_space_group_symop_operation_xyz
x,y,z
-x,-y,-z
loop_
_atom_site_type_symbol
_atom_site_label
_atom_site_fract_x
_atom_site_fract_y
_atom_site_fract_z
Si Si1 0.759989 0.019580 0.269739
Si Si2 0.721574 0.445851 0.123882
Si Si3 0.727778 0.076724 0.838939
Si Si4 0.427299 0.254741 0.337751
Si Si5 0.183669 0.597993 0.259321
Si Si6 0.175273 0.260337 0.581010
O O1 0.519324 0.974368 0.225942
O O2 0.778381 0.869183 0.322930
O O3 0.927468 0.167100 0.451995
O O4 0.811268 0.067082 0.067971
O O5 0.510496 0.300099 0.149659
O O6 0.277864 0.556894 0.102733
O O7 0.742787 0.595557 0.245309
O O8 0.946047 0.457189 0.235385
O O9 0.716711 0.937006 0.705073
O O10 0.646303 0.331432 0.522312
O O11 0.295382 0.315187 0.415638
O O12 0.154471 0.742780 0.187540
#
# Coordination Sequence:
#
# PCOD9042615 Si02
#       6
#     2   2   2   2   2   2
#     4  10  23  44  73 104 139 187 236 288 347 409
#     4  11  26  46  68 104 146 185 235 284 352 425
#     4  11  23  46  73 103 134 187 248 279 336 429
#     4  12  25  44  74 104 142 186 231 291 353 412
#     4  11  25  47  74 103 136 196 233 290 341 420
#     4  11  25  44  70 110 145 180 227 299 356 407
#
# _framework density 27.440439000000001
#
# number of rings (size 3 to 8) (size 9 to 14) (size 15 to 20)
#    0.000    1.000    1.667    4.500    4.667    4.000 
#    3.000    0.000    0.000    0.000    0.000    0.000 
#    0.000    0.000    0.000    0.000    0.000    0.000 
#
# Total GULP energy -67375.697042 kJ/mol
# GULP energy per Si atom -5614.641420 kJ/mol
# Density = 2.737798 g / cm^3
# Si number density = 27.440439 Si / 1000 Ang^3
#
#
#
# Elastic Constant Matrix: (Units=GPa)
#
#
# Indices 1 2 3 4 5 6 
#
# 1 107.8964 36.1603 40.6609 -5.5971 -30.5357 14.7686
# 2 36.1603 120.2682 34.9617 1.0992 -17.0870 -3.3466
# 3 40.6609 34.9617 139.5911 3.4228 -19.0156 -13.2743
# 4 -5.5971 1.0992 3.4228 44.3726 0.8304 -14.4725
# 5 -30.5357 -17.0870 -19.0156 0.8304 55.7675 4.3348
# 6 14.7686 -3.3466 -13.2743 -14.4725 4.3348 48.4447
#
#
#
# Elastic Compliance Matrix: (Units=1/GPa)
#
#
# Indices 1 2 3 4 5 6 
#
# 1 0.013833 -0.002540 -0.003101 0.000045 0.006187 -0.005782
# 2 -0.002540 0.009671 -0.001455 -0.000172 0.001009 0.000902
# 3 -0.003101 -0.001455 0.008820 -0.000001 0.000614 0.003206
# 4 0.000045 -0.000172 -0.000001 0.025024 -0.000987 0.007538
# 5 0.006187 0.001009 0.000614 -0.000987 0.022158 -0.003926
# 6 -0.005782 0.000902 0.003206 0.007538 -0.003926 0.025949
#
#
# Mechanical properties :
#
#
# Convention : Reuss Voigt Hill
#
# Bulk Modulus (GPa) = 55.15037 65.70240 60.42638
# Shear Modulus (GPa) = 39.77997 46.78182 43.28089
#
# Velocity S-wave (km/s) = 3.81160 4.13346 3.97579
# Velocity P-wave (km/s) = 6.28593 6.83932 6.56846
#
# Compressibility (1/GPa) = 0.01813225
#
# Stress axis : x y z
#
# Youngs Moduli (GPa) = 72.29085 103.39811 113.37595
#
# Poissons Ratio (x) = 0.26261 0.35162
# Poissons Ratio (y) = 0.18360 0.16497
# Poissons Ratio (z) = 0.22420 0.15045
#
# Static dielectric constant tensor:
#      x y z
#    x 2.123860 0.012560 -0.034960 
#    y 0.012560 2.186970 -0.061420 
#    z -0.034960 -0.061420 2.065910 
# 
# From -- ./inp_files/98992.got.cif
#   From: 2010.05.17/outbox.cif.g08.bks.cpg/sg2_50_cif.got.tgz:98992.got - 2010.06.03 11:33:40.
