data_PCOD9042878
_publ_section_title
;
Structure prediction by ZEFSAII (Michael W. Deem and Ramdas Pophale) SiO2 
 PCOD9042878
Probable space group: P -1
;
_chemical_formula_sum "Si O2"
_cell_formula_units_Z 14
_cell_length_a 13.665057
_cell_length_b 6.629019
_cell_length_c 8.178179
_cell_angle_alpha 77.338463
_cell_angle_beta 69.471187
_cell_angle_gamma 98.500230
_cell_volume 656.127439
_symmetry_space_group_name_H-M "P -1"
_symmetry_group_IT_number 2
_symmetry_cell_setting 'triclinic'
loop_
_space_group_symop_operation_xyz
x,y,z
-x,-y,-z
loop_
_atom_site_type_symbol
_atom_site_label
_atom_site_fract_x
_atom_site_fract_y
_atom_site_fract_z
Si Si1 0.761856 0.414271 0.198322
Si Si2 0.880071 0.857413 0.080525
Si Si3 0.239008 0.072413 0.192916
Si Si4 0.425576 0.303604 0.212636
Si Si5 0.763556 0.992810 0.442871
Si Si6 0.630334 0.118923 0.065677
Si Si7 0.563172 0.629824 0.289506
O O1 0.758139 0.232996 0.366921
O O2 0.726585 0.275223 0.081135
O O3 0.670270 0.543497 0.243136
O O4 0.869116 0.603467 0.114967
O O5 0.829562 0.916572 0.928808
O O6 0.818787 0.907110 0.271906
O O7 0.000000 0.000000 0.000000
O O8 0.180618 0.015210 0.410649
O O9 0.330139 0.291065 0.139451
O O10 0.317399 0.917263 0.131667
O O11 0.522998 0.202175 0.121104
O O12 0.482360 0.534216 0.205602
O O13 0.355721 0.156844 0.423138
O O14 0.596469 0.884675 0.212813
O O15 0.500000 0.500000 0.500000
#
# Coordination Sequence:
#
# PCOD9042878 Si02
#       7
#     2   2   2   2   2   2   2
#     4  11  21  41  67  94 130 172 215 269 322 385
#     4  12  26  49  72  91 124 172 223 284 336 378
#     4  10  23  46  63  97 140 163 222 272 312 397
#     4   9  22  37  62  96 138 178 205 255 314 391
#     4  10  23  45  65  97 133 169 219 267 323 390
#     4  11  20  40  64  97 142 175 211 254 321 392
#     4  11  20  33  63  98 136 181 214 249 316 389
#
# _framework density 21.337319000000001
#
# number of rings (size 3 to 8) (size 9 to 14) (size 15 to 20)
#    0.857    0.571    2.857    3.000    0.000    4.000 
#    5.143    0.714    0.000    0.000    0.000    0.000 
#    0.000    0.000    0.000    0.000    0.000    0.000 
#
# Total GULP energy -78055.119968 kJ/mol
# GULP energy per Si atom -5575.365712 kJ/mol
# Density = 2.128875 g / cm^3
# Si number density = 21.337319 Si / 1000 Ang^3
#
#
#
# Elastic Constant Matrix: (Units=GPa)
#
#
# Indices 1 2 3 4 5 6 
#
# 1 89.0196 47.5660 56.4734 -1.2878 11.2032 36.2755
# 2 47.5660 136.9237 62.0578 -21.1146 -0.6428 25.3488
# 3 56.4734 62.0578 128.8920 5.8217 23.0699 8.3959
# 4 -1.2878 -21.1146 5.8217 37.0724 5.4820 -0.4374
# 5 11.2032 -0.6428 23.0699 5.4820 28.5049 -4.1834
# 6 36.2755 25.3488 8.3959 -0.4374 -4.1834 38.5284
#
#
#
# Elastic Compliance Matrix: (Units=1/GPa)
#
#
# Indices 1 2 3 4 5 6 
#
# 1 0.029199 -0.000627 -0.009475 0.003053 -0.008205 -0.025870
# 2 -0.000627 0.012725 -0.006417 0.007663 0.003383 -0.005929
# 3 -0.009475 -0.006417 0.015912 -0.005348 -0.006970 0.008859
# 4 0.003053 0.007663 -0.005348 0.032797 -0.004007 -0.006814
# 5 -0.008205 0.003383 -0.006970 -0.004007 0.046560 0.012028
# 6 -0.025870 -0.005929 0.008859 -0.006814 0.012028 0.053511
#
#
# Mechanical properties :
#
#
# Convention : Reuss Voigt Hill
#
# Bulk Modulus (GPa) = 40.32991 76.33664 58.33327
# Shear Modulus (GPa) = 21.55093 33.40367 27.47730
#
# Velocity S-wave (km/s) = 3.18152 3.96094 3.59243
# Velocity P-wave (km/s) = 5.69545 7.53475 6.67872
#
# Compressibility (1/GPa) = 0.02479549
#
# Stress axis : x y z
#
# Youngs Moduli (GPa) = 34.24823 78.58541 62.84591
#
# Poissons Ratio (x) = 0.04928 0.59549
# Poissons Ratio (y) = 0.02148 0.40331
# Poissons Ratio (z) = 0.32452 0.50432
#
# Static dielectric constant tensor:
#      x y z
#    x 1.812480 0.049050 0.034590 
#    y 0.049050 1.827170 0.027400 
#    z 0.034590 0.027400 1.885220 
# 
# From -- ./inp_files/287833.got.cif
#   From: 2010.05.17/outbox.cif.g08.bks.cpg/sg2_144_cif.got.tgz:287833.got - 2010.06.03 11:33:40.
