data_PCOD9042496
_publ_section_title
;
Structure prediction by ZEFSAII (Michael W. Deem and Ramdas Pophale) SiO2 
 PCOD9042496
Probable space group: P -1
;
_chemical_formula_sum "Si O2"
_cell_formula_units_Z 14
_cell_length_a 15.558646
_cell_length_b 15.200496
_cell_length_c 9.680636
_cell_angle_alpha 27.223412
_cell_angle_beta 146.570605
_cell_angle_gamma 144.561709
_cell_volume 552.515730
_symmetry_space_group_name_H-M "P -1"
_symmetry_group_IT_number 2
_symmetry_cell_setting 'triclinic'
loop_
_space_group_symop_operation_xyz
x,y,z
-x,-y,-z
loop_
_atom_site_type_symbol
_atom_site_label
_atom_site_fract_x
_atom_site_fract_y
_atom_site_fract_z
Si Si1 0.639584 0.845966 0.079431
Si Si2 0.373452 0.705006 0.531948
Si Si3 0.116918 0.269564 0.231972
Si Si4 0.267781 0.739772 0.794583
Si Si5 0.146733 0.682057 0.007713
Si Si6 0.259579 0.151288 0.096249
Si Si7 0.875434 0.626425 0.191646
O O1 0.740656 0.782579 0.423360
O O2 0.450132 0.742272 0.997393
O O3 0.706613 0.800319 0.086197
O O4 0.654528 0.081212 0.771810
O O5 0.567404 0.747831 0.734084
O O6 0.290627 0.551902 0.755211
O O7 0.274532 0.634301 0.355008
O O8 0.952383 0.198338 0.200148
O O9 0.158687 0.513189 0.942736
O O10 0.109876 0.221293 0.128706
O O11 0.247448 0.786508 0.863998
O O12 0.228479 0.914795 0.409444
O O13 0.000000 0.500000 0.000000
O O14 0.125018 0.240931 0.857636
O O15 0.000000 0.500000 0.500000
#
# Coordination Sequence:
#
# PCOD9042496 Si02
#       7
#     2   2   2   2   2   2   2
#     4  11  25  44  75 108 142 188 238 296 357 423
#     4  11  24  46  73 100 154 183 241 295 353 425
#     4  11  24  44  70 101 147 187 238 293 354 416
#     4  10  23  44  72 101 146 181 241 286 358 422
#     4  10  24  42  70 101 144 186 240 291 357 411
#     4  11  26  45  74 107 141 191 240 290 364 423
#     4  12  26  45  70 105 144 189 239 294 357 429
#
# _framework density 25.338646000000001
#
# number of rings (size 3 to 8) (size 9 to 14) (size 15 to 20)
#    0.000    1.143    1.429    4.286    8.000    2.857 
#    0.000    2.143    0.000    0.000    0.000    0.000 
#    0.000    0.000    0.000    0.000    0.000    0.000 
#
# Total GULP energy -78367.179197 kJ/mol
# GULP energy per Si atom -5597.655657 kJ/mol
# Density = 2.528097 g / cm^3
# Si number density = 25.338646 Si / 1000 Ang^3
#
#
#
# Elastic Constant Matrix: (Units=GPa)
#
#
# Indices 1 2 3 4 5 6 
#
# 1 190.7365 28.4105 52.8373 9.6026 -10.4619 -2.3472
# 2 28.4105 85.1719 19.0277 13.4810 9.3041 5.1468
# 3 52.8373 19.0277 99.8485 9.5203 4.5136 1.2419
# 4 9.6026 13.4810 9.5203 43.7968 -4.8576 2.8016
# 5 -10.4619 9.3041 4.5136 -4.8576 53.5570 2.1577
# 6 -2.3472 5.1468 1.2419 2.8016 2.1577 32.7169
#
#
#
# Elastic Compliance Matrix: (Units=1/GPa)
#
#
# Indices 1 2 3 4 5 6 
#
# 1 0.006490 -0.001682 -0.003199 -0.000058 0.001794 0.000738
# 2 -0.001682 0.013578 -0.001189 -0.003761 -0.002860 -0.001701
# 3 -0.003199 -0.001189 0.012175 -0.001740 -0.001592 -0.000251
# 4 -0.000058 -0.003761 -0.001740 0.024833 0.003109 -0.001678
# 5 0.001794 -0.002860 -0.001592 0.003109 0.019973 -0.000944
# 6 0.000738 -0.001701 -0.000251 -0.001678 -0.000944 0.031101
#
#
# Mechanical properties :
#
#
# Convention : Reuss Voigt Hill
#
# Bulk Modulus (GPa) = 49.73793 64.03420 56.88606
# Shear Modulus (GPa) = 39.37320 44.37959 41.87639
#
# Velocity S-wave (km/s) = 3.94620 4.18958 4.06971
# Velocity P-wave (km/s) = 6.35887 6.98067 6.67701
#
# Compressibility (1/GPa) = 0.02010538
#
# Stress axis : x y z
#
# Youngs Moduli (GPa) = 154.08797 73.64945 82.13385
#
# Poissons Ratio (x) = 0.12385 0.26271
# Poissons Ratio (y) = 0.25912 0.09762
# Poissons Ratio (z) = 0.49285 0.08754
#
# Static dielectric constant tensor:
#      x y z
#    x 2.009690 -0.035290 -0.013650 
#    y -0.035290 2.097640 -0.014210 
#    z -0.013650 -0.014210 1.986210 
# 
# From -- ./inp_files/314422.got.cif
#   From: 2010.05.17/outbox.cif.g08.bks.cpg/sg2_158_cif.got.tgz:314422.got - 2010.06.03 11:33:40.
