data_PCOD9042096
_publ_section_title
;
Structure prediction by ZEFSAII (Michael W. Deem and Ramdas Pophale) SiO2 
 PCOD9042096
Probable space group: P -1
;
_chemical_formula_sum "Si O2"
_cell_formula_units_Z 14
_cell_length_a 20.566203
_cell_length_b 9.272143
_cell_length_c 5.741054
_cell_angle_alpha 124.396700
_cell_angle_beta 60.789907
_cell_angle_gamma 143.102083
_cell_volume 540.910774
_symmetry_space_group_name_H-M "P -1"
_symmetry_group_IT_number 2
_symmetry_cell_setting 'triclinic'
loop_
_space_group_symop_operation_xyz
x,y,z
-x,-y,-z
loop_
_atom_site_type_symbol
_atom_site_label
_atom_site_fract_x
_atom_site_fract_y
_atom_site_fract_z
Si Si1 0.622269 0.732552 0.079237
Si Si2 0.262562 0.331453 0.489383
Si Si3 0.433614 0.666457 0.862490
Si Si4 0.070806 0.518556 0.081566
Si Si5 0.358016 0.898668 0.338470
Si Si6 0.934689 0.135407 0.345327
Si Si7 0.843539 0.557253 0.518719
O O1 0.621430 0.600193 0.181780
O O2 0.636299 0.955040 0.328800
O O3 0.500000 0.500000 0.000000
O O4 0.704420 0.794598 0.804032
O O5 0.371117 0.591360 0.657933
O O6 0.209069 0.355861 0.403339
O O7 0.171544 0.156980 0.688231
O O8 0.562942 0.877885 0.787336
O O9 0.410688 0.796779 0.178492
O O10 0.098194 0.720571 0.398299
O O11 0.990162 0.244378 0.097682
O O12 0.159599 0.571756 0.822685
O O13 0.000000 0.500000 0.000000
O O14 0.229546 0.640107 0.319512
O O15 0.032189 0.230147 0.423376
#
# Coordination Sequence:
#
# PCOD9042096 Si02
#       7
#     2   2   2   2   2   2   2
#     4  12  26  49  74 109 142 193 245 300 369 432
#     4  12  26  45  73 107 148 186 247 301 360 435
#     4  11  27  48  69 110 144 190 247 299 368 430
#     4   9  21  43  66 100 138 185 243 288 367 419
#     4  11  25  48  73 101 150 185 239 306 356 434
#     4  10  23  44  69 104 142 186 242 300 351 440
#     4  11  24  43  70 105 141 197 235 295 369 426
#
# _framework density 25.882269999999998
#
# number of rings (size 3 to 8) (size 9 to 14) (size 15 to 20)
#    0.000    1.143    2.857    1.714    2.000    9.714 
#    0.000    0.000    0.000    0.000    0.000    0.000 
#    0.000    0.000    0.000    0.000    0.000    0.000 
#
# Total GULP energy -78307.468193 kJ/mol
# GULP energy per Si atom -5593.390585 kJ/mol
# Density = 2.582336 g / cm^3
# Si number density = 25.882270 Si / 1000 Ang^3
#
#
#
# Elastic Constant Matrix: (Units=GPa)
#
#
# Indices 1 2 3 4 5 6 
#
# 1 108.1010 12.4978 40.2222 1.2818 -7.4069 4.2599
# 2 12.4978 114.5957 44.5995 -31.1365 -5.1664 17.2465
# 3 40.2222 44.5995 124.4461 -0.7492 -39.3598 -1.4517
# 4 1.2818 -31.1365 -0.7492 50.2262 -5.0022 -3.5737
# 5 -7.4069 -5.1664 -39.3598 -5.0022 41.4502 -12.1490
# 6 4.2599 17.2465 -1.4517 -3.5737 -12.1490 24.4154
#
#
#
# Elastic Compliance Matrix: (Units=1/GPa)
#
#
# Indices 1 2 3 4 5 6 
#
# 1 0.011162 0.001738 -0.005993 -0.000272 -0.005337 -0.006227
# 2 0.001738 0.016837 -0.010453 0.007828 -0.011700 -0.017494
# 3 -0.005993 -0.010453 0.021602 -0.002072 0.024172 0.021439
# 4 -0.000272 0.007828 -0.002072 0.024816 0.001611 -0.001171
# 5 -0.005337 -0.011700 0.024172 0.001611 0.056250 0.038859
# 6 -0.006227 -0.017494 0.021439 -0.001171 0.038859 0.074841
#
#
# Mechanical properties :
#
#
# Convention : Reuss Voigt Hill
#
# Bulk Modulus (GPa) = 49.54335 60.19796 54.87065
# Shear Modulus (GPa) = 20.69079 39.87324 30.28202
#
# Velocity S-wave (km/s) = 2.83047 3.92926 3.42422
# Velocity P-wave (km/s) = 5.46493 6.62528 6.07288
#
# Compressibility (1/GPa) = 0.02018434
#
# Stress axis : x y z
#
# Youngs Moduli (GPa) = 89.58574 59.39159 46.29277
#
# Poissons Ratio (x) = -0.10321 0.27743
# Poissons Ratio (y) = -0.15568 0.48391
# Poissons Ratio (z) = 0.53689 0.62084
#
# Static dielectric constant tensor:
#      x y z
#    x 2.114330 -0.140780 0.034970 
#    y -0.140780 2.113360 -0.005440 
#    z 0.034970 -0.005440 2.061920 
# 
# From -- ./inp_files/117322.got.cif
#   From: 2010.05.17/outbox.cif.g08.bks.cpg/sg2_59_cif.got.tgz:117322.got - 2010.06.03 11:33:40.
