data_PCOD9042916
_publ_section_title
;
Structure prediction by ZEFSAII (Michael W. Deem and Ramdas Pophale) SiO2 
 PCOD9042916
Probable space group: P -1
;
_chemical_formula_sum "Si O2"
_cell_formula_units_Z 16
_cell_length_a 14.305144
_cell_length_b 7.283662
_cell_length_c 19.937181
_cell_angle_alpha 55.219890
_cell_angle_beta 151.240037
_cell_angle_gamma 107.335537
_cell_volume 705.461069
_symmetry_space_group_name_H-M "P -1"
_symmetry_group_IT_number 2
_symmetry_cell_setting 'triclinic'
loop_
_space_group_symop_operation_xyz
x,y,z
-x,-y,-z
loop_
_atom_site_type_symbol
_atom_site_label
_atom_site_fract_x
_atom_site_fract_y
_atom_site_fract_z
Si Si1 0.931515 0.708157 0.339136
Si Si2 0.726609 0.873622 0.308572
Si Si3 0.808548 0.843161 0.761099
Si Si4 0.249540 0.634041 0.154664
Si Si5 0.550052 0.246648 0.627280
Si Si6 0.267929 0.805965 0.483507
Si Si7 0.839271 0.815738 0.543672
Si Si8 0.667898 0.615749 0.084124
O O1 0.158863 0.438949 0.559751
O O2 0.038327 0.800964 0.330096
O O3 0.829734 0.903415 0.296939
O O4 0.749366 0.650369 0.202363
O O5 0.806408 0.898607 0.427443
O O6 0.466758 0.096799 0.093077
O O7 0.809332 0.576885 0.808643
O O8 0.655119 0.002733 0.694569
O O9 0.721168 0.017412 0.604481
O O10 0.057620 0.784765 0.948188
O O11 0.270081 0.797215 0.193203
O O12 0.500403 0.466092 0.317470
O O13 0.500000 0.500000 0.500000
O O14 0.328404 0.284497 0.517583
O O15 0.234141 0.940435 0.505717
O O16 0.098140 0.587931 0.762109
O O17 0.500000 0.500000 0.000000
#
# Coordination Sequence:
#
# PCOD9042916 Si02
#       8
#     2   2   2   2   2   2   2   2
#     4  10  24  42  69  98 131 179 220 273 346 400
#     4  10  23  45  66  94 134 169 220 279 329 403
#     4  11  25  43  68  99 137 180 230 281 335 404
#     4  11  23  43  68  99 134 182 230 279 341 397
#     4  12  23  45  71  96 141 184 221 284 340 399
#     4  12  23  44  66  97 137 176 225 278 336 405
#     4  11  26  43  67 103 131 179 229 271 341 407
#     4  11  24  44  69 100 133 173 224 279 341 399
#
# _framework density 22.680204
#
# number of rings (size 3 to 8) (size 9 to 14) (size 15 to 20)
#    0.000    1.000    2.500    4.125    0.000    8.500 
#    2.250    0.000    0.000    0.000    0.000    0.000 
#    0.000    0.000    0.000    0.000    0.000    0.000 
#
# Total GULP energy -89351.475418 kJ/mol
# GULP energy per Si atom -5584.467214 kJ/mol
# Density = 2.262858 g / cm^3
# Si number density = 22.680204 Si / 1000 Ang^3
#
#
#
# Elastic Constant Matrix: (Units=GPa)
#
#
# Indices 1 2 3 4 5 6 
#
# 1 93.6108 39.4697 39.4303 17.5137 17.6359 -22.9363
# 2 39.4697 79.1594 30.8487 19.5561 6.6857 -12.8417
# 3 39.4303 30.8487 146.9611 8.4580 8.3215 -8.5192
# 4 17.5137 19.5561 8.4580 40.3110 5.8761 8.8353
# 5 17.6359 6.6857 8.3215 5.8761 26.0765 3.3577
# 6 -22.9363 -12.8417 -8.5192 8.8353 3.3577 39.2680
#
#
#
# Elastic Compliance Matrix: (Units=1/GPa)
#
#
# Indices 1 2 3 4 5 6 
#
# 1 0.020217 -0.004233 -0.002739 -0.007178 -0.011699 0.012446
# 2 -0.004233 0.018160 -0.001960 -0.007592 -0.000069 0.004755
# 3 -0.002739 -0.001960 0.007887 0.000663 -0.000227 -0.000659
# 4 -0.007178 -0.007592 0.000663 0.034520 0.000659 -0.014355
# 5 -0.011699 -0.000069 -0.000227 0.000659 0.047635 -0.011127
# 6 0.012446 0.004755 -0.000659 -0.014355 -0.011127 0.038329
#
#
# Mechanical properties :
#
#
# Convention : Reuss Voigt Hill
#
# Bulk Modulus (GPa) = 35.20932 59.91428 47.56180
# Shear Modulus (GPa) = 25.76280 35.12994 30.44637
#
# Velocity S-wave (km/s) = 3.37399 3.93991 3.66788
# Velocity P-wave (km/s) = 5.54404 6.86815 6.24131
#
# Compressibility (1/GPa) = 0.02840157
#
# Stress axis : x y z
#
# Youngs Moduli (GPa) = 49.46252 55.06669 126.78818
#
# Poissons Ratio (x) = 0.23308 0.34725
# Poissons Ratio (y) = 0.20936 0.24847
# Poissons Ratio (z) = 0.13547 0.10792
#
# Static dielectric constant tensor:
#      x y z
#    x 1.872210 0.050130 0.009320 
#    y 0.050130 1.958170 0.065120 
#    z 0.009320 0.065120 1.847290 
# 
# From -- ./inp_files/597145.got.cif
#   From: 2010.05.17/outbox.cif.g08.bks.cpg/sg2_299_cif.got.tgz:597145.got - 2010.06.03 11:33:40.
