data_PCOD9042152
_publ_section_title
;
Structure prediction by ZEFSAII (Michael W. Deem and Ramdas Pophale) SiO2 
 PCOD9042152
Probable space group: P -1
;
_chemical_formula_sum "Si O2"
_cell_formula_units_Z 14
_cell_length_a 9.636449
_cell_length_b 18.215350
_cell_length_c 9.463814
_cell_angle_alpha 28.190570
_cell_angle_beta 57.820903
_cell_angle_gamma 57.778747
_cell_volume 655.700705
_symmetry_space_group_name_H-M "P -1"
_symmetry_group_IT_number 2
_symmetry_cell_setting 'triclinic'
loop_
_space_group_symop_operation_xyz
x,y,z
-x,-y,-z
loop_
_atom_site_type_symbol
_atom_site_label
_atom_site_fract_x
_atom_site_fract_y
_atom_site_fract_z
Si Si1 0.671316 0.556095 0.868354
Si Si2 0.966553 0.553538 0.268973
Si Si3 0.490671 0.861066 0.350678
Si Si4 0.366735 0.911712 0.645484
Si Si5 0.335979 0.626118 0.339931
Si Si6 0.252043 0.705452 0.549392
Si Si7 0.045566 0.116446 0.402292
O O1 0.648047 0.740955 0.529871
O O2 0.844637 0.479391 0.835235
O O3 0.500000 0.500000 0.000000
O O4 0.712943 0.485710 0.122611
O O5 0.825047 0.457935 0.453181
O O6 0.000000 0.500000 0.500000
O O7 0.902147 0.736101 0.960791
O O8 0.395604 0.912369 0.460028
O O9 0.391436 0.757748 0.482569
O O10 0.500000 0.000000 0.000000
O O11 0.500000 0.000000 0.500000
O O12 0.187858 0.014010 0.589180
O O13 0.369038 0.736811 0.002807
O O14 0.500000 0.500000 0.500000
O O15 0.286784 0.736472 0.316022
O O16 0.088915 0.801623 0.548495
O O17 0.000000 0.000000 0.500000
#
# Coordination Sequence:
#
# PCOD9042152 Si02
#       7
#     2   2   2   2   2   2   2
#     4   9  22  41  68  97 136 179 240 287 352 422
#     4  11  26  41  72 105 138 192 241 294 362 425
#     4  11  23  39  69  98 136 185 237 290 361 426
#     4  12  26  43  67 104 144 186 235 299 364 421
#     4  12  27  45  72 104 148 185 244 302 358 432
#     4  10  23  44  69  96 136 190 234 286 360 421
#     4  11  23  45  70  98 145 183 236 296 355 432
#
# _framework density 21.351206999999999
#
# number of rings (size 3 to 8) (size 9 to 14) (size 15 to 20)
#    0.000    1.143    1.429    3.429   10.000    5.143 
#    0.000    0.000    0.000    0.000    0.000    0.000 
#    0.000    0.000    0.000    0.000    0.000    0.000 
#
# Total GULP energy -77956.137015 kJ/mol
# GULP energy per Si atom -5568.295501 kJ/mol
# Density = 2.130261 g / cm^3
# Si number density = 21.351207 Si / 1000 Ang^3
#
#
#
# Elastic Constant Matrix: (Units=GPa)
#
#
# Indices 1 2 3 4 5 6 
#
# 1 103.0830 31.2540 28.8655 -9.0867 -5.0176 -12.7102
# 2 31.2540 93.7923 42.5865 4.5141 9.2337 -1.7706
# 3 28.8655 42.5865 149.3711 -3.9738 18.6286 -16.4036
# 4 -9.0867 4.5141 -3.9738 39.1611 -1.6749 14.9059
# 5 -5.0176 9.2337 18.6286 -1.6749 36.1878 -10.2514
# 6 -12.7102 -1.7706 -16.4036 14.9059 -10.2514 42.1793
#
#
#
# Elastic Compliance Matrix: (Units=1/GPa)
#
#
# Indices 1 2 3 4 5 6 
#
# 1 0.012052 -0.003867 -0.001358 0.002042 0.004382 0.003285
# 2 -0.003867 0.013702 -0.003025 -0.002263 -0.003065 -0.001712
# 3 -0.001358 -0.003025 0.008435 0.000005 -0.003202 0.001964
# 4 0.002042 -0.002263 0.000005 0.030162 -0.000663 -0.010298
# 5 0.004382 -0.003065 -0.003202 -0.000663 0.032961 0.008192
# 6 0.003285 -0.001712 0.001964 -0.010298 0.008192 0.031021
#
#
# Mechanical properties :
#
#
# Convention : Reuss Voigt Hill
#
# Bulk Modulus (GPa) = 56.53357 61.29537 58.91447
# Shear Modulus (GPa) = 33.17196 39.74168 36.45682
#
# Velocity S-wave (km/s) = 3.94589 4.31900 4.13665
# Velocity P-wave (km/s) = 6.87717 7.32408 7.10414
#
# Compressibility (1/GPa) = 0.01768861
#
# Stress axis : x y z
#
# Youngs Moduli (GPa) = 82.97456 72.97970 118.55636
#
# Poissons Ratio (x) = 0.28222 0.16099
# Poissons Ratio (y) = 0.32087 0.35867
# Poissons Ratio (z) = 0.11267 0.22079
#
# Static dielectric constant tensor:
#      x y z
#    x 1.602460 0.011170 0.164340 
#    y 0.011170 1.893520 0.050590 
#    z 0.164340 0.050590 1.946180 
# 
# From -- ./inp_files/183934.got.cif
#   From: 2010.05.17/outbox.cif.g08.bks.cpg/sg2_92_cif.got.tgz:183934.got - 2010.06.03 11:33:40.
