data_PCOD9042936
_publ_section_title
;
Structure prediction by ZEFSAII (Michael W. Deem and Ramdas Pophale) SiO2 
 PCOD9042936
Probable space group: P -1
;
_chemical_formula_sum "Si O2"
_cell_formula_units_Z 14
_cell_length_a 12.018988
_cell_length_b 8.111963
_cell_length_c 8.844341
_cell_angle_alpha 112.363010
_cell_angle_beta 122.332551
_cell_angle_gamma 55.503019
_cell_volume 596.751032
_symmetry_space_group_name_H-M "P -1"
_symmetry_group_IT_number 2
_symmetry_cell_setting 'triclinic'
loop_
_space_group_symop_operation_xyz
x,y,z
-x,-y,-z
loop_
_atom_site_type_symbol
_atom_site_label
_atom_site_fract_x
_atom_site_fract_y
_atom_site_fract_z
Si Si1 0.708115 0.299794 0.425123
Si Si2 0.035316 0.627340 0.265730
Si Si3 0.874179 0.813403 0.928206
Si Si4 0.613584 0.072301 0.040174
Si Si5 0.742300 0.080872 0.666920
Si Si6 0.150623 0.301188 0.583597
Si Si7 0.460544 0.289793 0.718157
O O1 0.865737 0.303554 0.536621
O O2 0.691117 0.136691 0.251502
O O3 0.695413 0.267202 0.583395
O O4 0.585845 0.506426 0.336618
O O5 0.109968 0.385734 0.215967
O O6 0.878320 0.696119 0.258404
O O7 0.008625 0.729539 0.116833
O O8 0.848580 0.997055 0.862566
O O9 0.728690 0.899736 0.955592
O O10 0.534185 0.256060 0.926192
O O11 0.500000 0.000000 0.000000
O O12 0.584886 0.119976 0.641182
O O13 0.833201 0.897483 0.554932
O O14 0.304006 0.294612 0.642918
O O15 0.000000 0.500000 0.500000
#
# Coordination Sequence:
#
# PCOD9042936 Si02
#       7
#     2   2   2   2   2   2   2
#     4  12  25  44  71 105 143 186 234 290 349 416
#     4  11  24  44  71 102 145 181 236 285 355 414
#     4  10  23  45  67 100 137 190 229 288 346 420
#     4  11  25  45  71 100 139 187 240 284 353 414
#     4  11  24  41  69 102 142 182 236 286 346 415
#     4  12  22  44  72 104 136 185 233 287 350 419
#     4  11  24  45  69 102 141 183 233 291 347 414
#
# _framework density 23.460369
#
# number of rings (size 3 to 8) (size 9 to 14) (size 15 to 20)
#    0.000    0.857    2.857    3.857    0.000    7.429 
#    0.000    7.143    0.000    0.000    0.000    0.000 
#    0.000    0.000    0.000    0.000    0.000    0.000 
#
# Total GULP energy -78033.723831 kJ/mol
# GULP energy per Si atom -5573.837416 kJ/mol
# Density = 2.340697 g / cm^3
# Si number density = 23.460369 Si / 1000 Ang^3
#
#
#
# Elastic Constant Matrix: (Units=GPa)
#
#
# Indices 1 2 3 4 5 6 
#
# 1 125.3145 42.6177 59.3804 4.2824 -19.4740 -13.6823
# 2 42.6177 102.1421 49.7352 -24.0344 -7.0964 -8.1577
# 3 59.3804 49.7352 114.1947 -24.3898 -16.2576 7.2379
# 4 4.2824 -24.0344 -24.3898 51.4966 16.3251 -21.4232
# 5 -19.4740 -7.0964 -16.2576 16.3251 39.5367 -10.9535
# 6 -13.6823 -8.1577 7.2379 -21.4232 -10.9535 41.9262
#
#
#
# Elastic Compliance Matrix: (Units=1/GPa)
#
#
# Indices 1 2 3 4 5 6 
#
# 1 0.013906 -0.003522 -0.006297 -0.006675 0.007339 0.003447
# 2 -0.003522 0.015666 -0.003764 0.009400 -0.002496 0.006700
# 3 -0.006297 -0.003764 0.014790 0.004631 -0.000465 -0.003096
# 4 -0.006675 0.009400 0.004631 0.035899 -0.010517 0.014447
# 5 0.007339 -0.002496 -0.000465 -0.010517 0.034145 0.005537
# 6 0.003447 0.006700 -0.003096 0.014447 0.005537 0.035643
#
#
# Mechanical properties :
#
#
# Convention : Reuss Voigt Hill
#
# Bulk Modulus (GPa) = 58.14895 71.67976 64.91436
# Shear Modulus (GPa) = 27.33056 39.25309 33.29183
#
# Velocity S-wave (km/s) = 3.41686 4.09487 3.77114
# Velocity P-wave (km/s) = 6.35661 7.27854 6.83314
#
# Compressibility (1/GPa) = 0.01719721
#
# Stress axis : x y z
#
# Youngs Moduli (GPa) = 71.91015 63.83203 67.61534
#
# Poissons Ratio (x) = 0.22481 0.42574
# Poissons Ratio (y) = 0.25325 0.25450
# Poissons Ratio (z) = 0.45278 0.24026
#
# Static dielectric constant tensor:
#      x y z
#    x 1.889220 0.077050 -0.027520 
#    y 0.077050 1.939670 -0.072120 
#    z -0.027520 -0.072120 1.951770 
# 
# From -- ./inp_files/235720.got.cif
#   From: 2010.05.17/outbox.cif.g08.bks.cpg/sg2_118_cif.got.tgz:235720.got - 2010.06.03 11:33:40.
