data_PCOD9042561
_publ_section_title
;
Structure prediction by ZEFSAII (Michael W. Deem and Ramdas Pophale) SiO2 
 PCOD9042561
Probable space group: P -1
;
_chemical_formula_sum "Si O2"
_cell_formula_units_Z 14
_cell_length_a 16.421698
_cell_length_b 5.288566
_cell_length_c 9.149661
_cell_angle_alpha 57.768943
_cell_angle_beta 70.956217
_cell_angle_gamma 61.833756
_cell_volume 589.609288
_symmetry_space_group_name_H-M "P -1"
_symmetry_group_IT_number 2
_symmetry_cell_setting 'triclinic'
loop_
_space_group_symop_operation_xyz
x,y,z
-x,-y,-z
loop_
_atom_site_type_symbol
_atom_site_label
_atom_site_fract_x
_atom_site_fract_y
_atom_site_fract_z
Si Si1 0.750296 0.550819 0.004487
Si Si2 0.558661 0.216003 0.442874
Si Si3 0.851480 0.673246 0.138611
Si Si4 0.896726 0.673679 0.670858
Si Si5 0.228205 0.059370 0.613439
Si Si6 0.024885 0.047220 0.197960
Si Si7 0.444713 0.365426 0.963106
O O1 0.758823 0.785901 0.057584
O O2 0.657452 0.620961 0.945741
O O3 0.764878 0.235327 0.191121
O O4 0.825113 0.575659 0.840909
O O5 0.500000 0.500000 0.500000
O O6 0.567048 0.411644 0.237492
O O7 0.500000 0.000000 0.500000
O O8 0.666720 0.002972 0.481845
O O9 0.819771 0.658919 0.327070
O O10 0.923492 0.320786 0.157339
O O11 0.911968 0.884330 0.988965
O O12 0.838782 0.873776 0.506927
O O13 0.937764 0.869567 0.695204
O O14 0.969498 0.317299 0.695897
O O15 0.500000 0.500000 0.000000
O O16 0.500000 0.000000 0.000000
#
# Coordination Sequence:
#
# PCOD9042561 Si02
#       7
#     2   2   2   2   2   2   2
#     4  10  25  45  67  99 139 179 228 279 347 405
#     4  11  27  47  68 101 142 179 227 287 352 407
#     4  10  23  44  72  95 143 179 228 278 348 397
#     4  11  25  43  68 101 138 179 230 277 340 397
#     4  11  26  43  72  99 137 183 227 282 341 410
#     4  10  24  44  69 102 137 182 224 285 335 408
#     4  11  26  44  72 101 134 180 231 287 345 414
#
# _framework density 23.744541000000002
#
# number of rings (size 3 to 8) (size 9 to 14) (size 15 to 20)
#    0.000    1.429    1.429    0.857   16.000    2.857 
#    0.000    0.000    0.000    0.000    0.000    0.000 
#    0.000    0.000    0.000    0.000    0.000    0.000 
#
# Total GULP energy -78205.576912 kJ/mol
# GULP energy per Si atom -5586.112637 kJ/mol
# Density = 2.369050 g / cm^3
# Si number density = 23.744541 Si / 1000 Ang^3
#
#
#
# Elastic Constant Matrix: (Units=GPa)
#
#
# Indices 1 2 3 4 5 6 
#
# 1 141.0972 38.1858 33.5294 26.0373 8.4723 -10.9665
# 2 38.1858 86.1189 29.7347 17.6196 1.8495 10.7261
# 3 33.5294 29.7347 99.5348 4.1629 8.5927 -5.0608
# 4 26.0373 17.6196 4.1629 39.5758 4.7758 -0.0493
# 5 8.4723 1.8495 8.5927 4.7758 45.0276 -2.5789
# 6 -10.9665 10.7261 -5.0608 -0.0493 -2.5789 24.6805
#
#
#
# Elastic Compliance Matrix: (Units=1/GPa)
#
#
# Indices 1 2 3 4 5 6 
#
# 1 0.009734 -0.003430 -0.001739 -0.004620 -0.000560 0.005392
# 2 -0.003430 0.016757 -0.004198 -0.004862 0.000724 -0.009602
# 3 -0.001739 -0.004198 0.012133 0.001962 -0.001832 0.003352
# 4 -0.004620 -0.004862 0.001962 0.030571 -0.002533 0.000259
# 5 -0.000560 0.000724 -0.001832 -0.002533 0.022986 0.001458
# 6 0.005392 -0.009602 0.003352 0.000259 0.001458 0.047927
#
#
# Mechanical properties :
#
#
# Convention : Reuss Voigt Hill
#
# Bulk Modulus (GPa) = 50.27407 58.85007 54.56207
# Shear Modulus (GPa) = 30.21666 36.87684 33.54675
#
# Velocity S-wave (km/s) = 3.57118 3.94517 3.76283
# Velocity P-wave (km/s) = 6.18250 6.75211 6.47357
#
# Compressibility (1/GPa) = 0.01989097
#
# Stress axis : x y z
#
# Youngs Moduli (GPa) = 102.73310 59.67583 82.41984
#
# Poissons Ratio (x) = 0.20470 0.14329
# Poissons Ratio (y) = 0.35239 0.34599
# Poissons Ratio (z) = 0.17861 0.25051
#
# Static dielectric constant tensor:
#      x y z
#    x 2.002310 0.066590 0.025430 
#    y 0.066590 1.786670 -0.034530 
#    z 0.025430 -0.034530 1.876940 
# 
# From -- ./inp_files/48851.got.cif
#   From: 2010.05.17/outbox.cif.g08.bks.cpg/sg2_25_cif.got.tgz:48851.got - 2010.06.03 11:33:40.
