data_PCOD9042618
_publ_section_title
;
Structure prediction by ZEFSAII (Michael W. Deem and Ramdas Pophale) SiO2 
 PCOD9042618
Probable space group: P -1
;
_chemical_formula_sum "Si O2"
_cell_formula_units_Z 14
_cell_length_a 14.128809
_cell_length_b 8.832948
_cell_length_c 8.046415
_cell_angle_alpha 100.334504
_cell_angle_beta 40.653185
_cell_angle_gamma 119.580493
_cell_volume 534.134860
_symmetry_space_group_name_H-M "P -1"
_symmetry_group_IT_number 2
_symmetry_cell_setting 'triclinic'
loop_
_space_group_symop_operation_xyz
x,y,z
-x,-y,-z
loop_
_atom_site_type_symbol
_atom_site_label
_atom_site_fract_x
_atom_site_fract_y
_atom_site_fract_z
Si Si1 0.118882 0.421674 0.847809
Si Si2 0.979692 0.640219 0.670741
Si Si3 0.765814 0.765396 0.809421
Si Si4 0.671478 0.272270 0.634185
Si Si5 0.484236 0.366901 0.172234
Si Si6 0.799503 0.091730 0.032502
Si Si7 0.519029 0.123794 0.323723
O O1 0.279550 0.581223 0.552737
O O2 0.141552 0.404074 0.010377
O O3 0.000000 0.500000 0.000000
O O4 0.986553 0.218775 0.899833
O O5 0.921554 0.740960 0.643725
O O6 0.000000 0.500000 0.500000
O O7 0.166954 0.740652 0.530917
O O8 0.699465 0.732404 0.700540
O O9 0.591664 0.587183 0.089871
O O10 0.804143 0.953340 0.872464
O O11 0.526183 0.058777 0.752415
O O12 0.610439 0.341589 0.879030
O O13 0.478113 0.260326 0.319969
O O14 0.728145 0.215295 0.084088
O O15 0.630896 0.967176 0.352802
#
# Coordination Sequence:
#
# PCOD9042618 Si02
#       7
#     2   2   2   2   2   2   2
#     4  10  23  44  73 104 143 183 239 295 352 429
#     4  11  23  45  74 101 138 191 238 285 365 423
#     4  11  26  46  68 108 148 185 241 299 355 418
#     4  11  22  47  74 104 138 190 242 289 351 436
#     4  11  25  48  70 106 149 187 238 298 354 425
#     4  11  24  45  74 112 140 186 246 294 357 430
#     4  11  24  45  78 103 141 191 241 290 360 430
#
# _framework density 26.210608000000001
#
# number of rings (size 3 to 8) (size 9 to 14) (size 15 to 20)
#    0.000    1.143    5.714    0.429    4.000    1.143 
#    5.143    1.429    0.000    0.000    0.000    0.000 
#    0.000    0.000    0.000    0.000    0.000    0.000 
#
# Total GULP energy -78134.853815 kJ/mol
# GULP energy per Si atom -5581.060987 kJ/mol
# Density = 2.615095 g / cm^3
# Si number density = 26.210608 Si / 1000 Ang^3
#
#
#
# Elastic Constant Matrix: (Units=GPa)
#
#
# Indices 1 2 3 4 5 6 
#
# 1 144.6036 45.3130 24.9744 -4.5131 -23.0451 -13.1096
# 2 45.3130 125.8509 20.6368 -14.0245 -15.6712 24.4590
# 3 24.9744 20.6368 86.2070 2.6802 -24.5266 -7.8796
# 4 -4.5131 -14.0245 2.6802 30.0319 -14.1050 -9.5182
# 5 -23.0451 -15.6712 -24.5266 -14.1050 26.0608 6.6286
# 6 -13.1096 24.4590 -7.8796 -9.5182 6.6286 39.0854
#
#
#
# Elastic Compliance Matrix: (Units=1/GPa)
#
#
# Indices 1 2 3 4 5 6 
#
# 1 0.009902 -0.002679 0.000976 0.006615 0.010360 0.005048
# 2 -0.002679 0.013282 0.000165 0.008959 0.012961 -0.009194
# 3 0.000976 0.000165 0.017484 0.009808 0.022118 0.002386
# 4 0.006615 0.008959 0.009808 0.064670 0.054158 0.005154
# 5 0.010360 0.012961 0.022118 0.054158 0.106749 -0.005092
# 6 0.005048 -0.009194 0.002386 0.005154 -0.005092 0.035631
#
#
# Mechanical properties :
#
#
# Convention : Reuss Voigt Hill
#
# Bulk Modulus (GPa) = 26.60170 59.83442 43.21806
# Shear Modulus (GPa) = 18.98799 36.75146 27.86972
#
# Velocity S-wave (km/s) = 2.69446 3.74860 3.26436
# Velocity P-wave (km/s) = 4.45549 6.45089 5.54371
#
# Compressibility (1/GPa) = 0.03759159
#
# Stress axis : x y z
#
# Youngs Moduli (GPa) = 100.99425 75.28748 57.19622
#
# Poissons Ratio (x) = 0.20170 -0.05582
# Poissons Ratio (y) = 0.27057 -0.00944
# Poissons Ratio (z) = -0.09857 -0.01242
#
# Static dielectric constant tensor:
#      x y z
#    x 2.197150 0.010090 0.043580 
#    y 0.010090 2.085170 -0.052940 
#    z 0.043580 -0.052940 2.181980 
# 
# From -- ./inp_files/298675.got.cif
#   From: 2010.05.17/outbox.cif.g08.bks.cpg/sg2_150_cif.got.tgz:298675.got - 2010.06.03 11:33:40.
