data_PCOD9042767
_publ_section_title
;
Structure prediction by ZEFSAII (Michael W. Deem and Ramdas Pophale) SiO2 
 PCOD9042767
Probable space group: P -1
;
_chemical_formula_sum "Si O2"
_cell_formula_units_Z 14
_cell_length_a 10.705714
_cell_length_b 5.196931
_cell_length_c 14.300372
_cell_angle_alpha 58.615122
_cell_angle_beta 95.870712
_cell_angle_gamma 115.798697
_cell_volume 603.460914
_symmetry_space_group_name_H-M "P -1"
_symmetry_group_IT_number 2
_symmetry_cell_setting 'triclinic'
loop_
_space_group_symop_operation_xyz
x,y,z
-x,-y,-z
loop_
_atom_site_type_symbol
_atom_site_label
_atom_site_fract_x
_atom_site_fract_y
_atom_site_fract_z
Si Si1 0.488211 0.851830 0.422083
Si Si2 0.102626 0.261721 0.151185
Si Si3 0.845374 0.606394 0.283790
Si Si4 0.632231 0.859374 0.255597
Si Si5 0.331616 0.249322 0.297979
Si Si6 0.869786 0.520604 0.091016
Si Si7 0.095730 0.843631 0.498839
O O1 0.500000 0.500000 0.500000
O O2 0.601068 0.019252 0.315625
O O3 0.500000 0.000000 0.500000
O O4 0.362025 0.919940 0.355242
O O5 0.251721 0.347683 0.192402
O O6 0.012313 0.472440 0.120261
O O7 0.116261 0.260412 0.040331
O O8 0.000076 0.907483 0.256844
O O9 0.730829 0.677967 0.316010
O O10 0.838809 0.638136 0.165557
O O11 0.845754 0.274708 0.385992
O O12 0.482125 0.571778 0.264692
O O13 0.732064 0.157565 0.137374
O O14 0.224311 0.130990 0.398631
O O15 0.000000 0.500000 0.500000
O O16 0.000000 0.000000 0.500000
#
# Coordination Sequence:
#
# PCOD9042767 Si02
#       7
#     2   2   2   2   2   2   2
#     4  12  26  47  71 104 150 199 240 293 368 448
#     4  10  23  46  72 107 144 194 251 308 366 436
#     4  11  23  46  72 102 146 193 250 300 370 442
#     4  11  26  44  70 108 142 197 243 302 368 438
#     4  12  26  45  71 107 152 189 246 304 372 437
#     4  10  23  44  76 104 144 196 250 304 372 436
#     4  12  28  45  70 110 144 189 240 306 370 442
#
# _framework density 23.199513
#
# number of rings (size 3 to 8) (size 9 to 14) (size 15 to 20)
#    0.000    0.857    2.857    3.000    6.000    1.714 
#    0.000    2.857    0.000    0.000    0.000    0.000 
#    0.000    0.000    0.000    0.000    0.000    0.000 
#
# Total GULP energy -78149.625033 kJ/mol
# GULP energy per Si atom -5582.116074 kJ/mol
# Density = 2.314671 g / cm^3
# Si number density = 23.199513 Si / 1000 Ang^3
#
#
#
# Elastic Constant Matrix: (Units=GPa)
#
#
# Indices 1 2 3 4 5 6 
#
# 1 163.7363 49.5546 64.7585 18.1773 -0.8088 2.3863
# 2 49.5546 95.3467 19.4476 5.0789 0.2098 3.3446
# 3 64.7585 19.4476 127.4528 0.5775 8.2030 -6.7164
# 4 18.1773 5.0789 0.5775 27.8081 -2.7707 -13.9617
# 5 -0.8088 0.2098 8.2030 -2.7707 39.3833 8.1301
# 6 2.3863 3.3446 -6.7164 -13.9617 8.1301 52.9669
#
#
#
# Elastic Compliance Matrix: (Units=1/GPa)
#
#
# Indices 1 2 3 4 5 6 
#
# 1 0.009905 -0.003727 -0.004665 -0.006997 0.001290 -0.002845
# 2 -0.003727 0.012467 -0.000043 -0.000177 -0.000008 -0.000670
# 3 -0.004665 -0.000043 0.010533 0.004099 -0.002627 0.003032
# 4 -0.006997 -0.000177 0.004099 0.047135 -0.000434 0.013337
# 5 0.001290 -0.000008 -0.002627 -0.000434 0.026891 -0.004633
# 6 -0.002845 -0.000670 0.003032 0.013337 -0.004633 0.023661
#
#
# Mechanical properties :
#
#
# Convention : Reuss Voigt Hill
#
# Bulk Modulus (GPa) = 62.36165 72.67301 67.51733
# Shear Modulus (GPa) = 32.72111 40.88335 36.80223
#
# Velocity S-wave (km/s) = 3.75963 4.20247 3.98720
# Velocity P-wave (km/s) = 6.76649 7.41221 7.09670
#
# Compressibility (1/GPa) = 0.01603550
#
# Stress axis : x y z
#
# Youngs Moduli (GPa) = 100.95892 80.21430 94.93706
#
# Poissons Ratio (x) = 0.29894 0.44291
# Poissons Ratio (y) = 0.37624 0.00405
# Poissons Ratio (z) = 0.47100 0.00342
#
# Static dielectric constant tensor:
#      x y z
#    x 1.842620 0.060790 -0.003560 
#    y 0.060790 2.079510 -0.031650 
#    z -0.003560 -0.031650 1.837280 
# 
# From -- ./inp_files/488091.got.cif
#   From: 2010.05.17/outbox.cif.g08.bks.cpg/sg2_245_cif.got.tgz:488091.got - 2010.06.03 11:33:40.
