data_PCOD9042589
_publ_section_title
;
Structure prediction by ZEFSAII (Michael W. Deem and Ramdas Pophale) SiO2 
 PCOD9042589
Probable space group: P -1
;
_chemical_formula_sum "Si O2"
_cell_formula_units_Z 14
_cell_length_a 10.385263
_cell_length_b 10.929944
_cell_length_c 24.581590
_cell_angle_alpha 32.286303
_cell_angle_beta 155.034494
_cell_angle_gamma 138.918008
_cell_volume 628.078047
_symmetry_space_group_name_H-M "P -1"
_symmetry_group_IT_number 2
_symmetry_cell_setting 'triclinic'
loop_
_space_group_symop_operation_xyz
x,y,z
-x,-y,-z
loop_
_atom_site_type_symbol
_atom_site_label
_atom_site_fract_x
_atom_site_fract_y
_atom_site_fract_z
Si Si1 0.905900 0.485075 0.878640
Si Si2 0.737378 0.286600 0.163814
Si Si3 0.674349 0.769417 0.779020
Si Si4 0.743058 0.801675 0.519056
Si Si5 0.813333 0.877867 0.186054
Si Si6 0.788168 0.534442 0.527778
Si Si7 0.597704 0.810983 0.247872
O O1 0.669272 0.608048 0.784781
O O2 0.724777 0.289856 0.853046
O O3 0.032784 0.656156 0.818771
O O4 0.189277 0.379502 0.062486
O O5 0.942762 0.243092 0.311994
O O6 0.564003 0.062367 0.166208
O O7 0.500000 0.500000 0.000000
O O8 0.384543 0.936958 0.618969
O O9 0.933537 0.944545 0.797217
O O10 0.764767 0.725829 0.493354
O O11 0.497686 0.629011 0.514259
O O12 0.786520 0.830943 0.257268
O O13 0.913909 0.637236 0.286647
O O14 0.500000 0.000000 0.000000
O O15 0.767584 0.647836 0.418335
#
# Coordination Sequence:
#
# PCOD9042589 Si02
#       7
#     2   2   2   2   2   2   2
#     4  11  24  47  73 103 140 180 233 290 347 410
#     4  12  29  46  71 105 140 181 236 288 347 423
#     4  10  23  44  73 100 142 186 225 291 352 405
#     4  10  24  47  68 100 141 185 233 286 351 418
#     4  11  22  41  70 109 139 178 238 287 338 419
#     4  10  24  43  72 101 141 187 230 288 353 406
#     4  12  25  45  71 104 137 187 230 287 345 410
#
# _framework density 22.290223000000001
#
# number of rings (size 3 to 8) (size 9 to 14) (size 15 to 20)
#    0.000    1.143    4.286    0.429    4.000    5.143 
#    0.000    0.000    0.000    0.000    0.000    0.000 
#    0.000    0.000    0.000    0.000    0.000    0.000 
#
# Total GULP energy -78404.290083 kJ/mol
# GULP energy per Si atom -5600.306435 kJ/mol
# Density = 2.223949 g / cm^3
# Si number density = 22.290223 Si / 1000 Ang^3
#
#
#
# Elastic Constant Matrix: (Units=GPa)
#
#
# Indices 1 2 3 4 5 6 
#
# 1 61.7506 14.1818 32.9378 -4.7460 -19.8702 -7.8893
# 2 14.1818 120.3555 43.0569 -2.9305 7.4287 -18.9185
# 3 32.9378 43.0569 121.8048 -12.4332 11.5289 -29.3425
# 4 -4.7460 -2.9305 -12.4332 29.9657 -3.5305 3.0423
# 5 -19.8702 7.4287 11.5289 -3.5305 41.2226 -8.5359
# 6 -7.8893 -18.9185 -29.3425 3.0423 -8.5359 42.7445
#
#
#
# Elastic Compliance Matrix: (Units=1/GPa)
#
#
# Indices 1 2 3 4 5 6 
#
# 1 0.025667 -0.000963 -0.007256 0.002534 0.015246 0.002194
# 2 -0.000963 0.009754 -0.002628 -0.000638 -0.001094 0.002162
# 3 -0.007256 -0.002628 0.013172 0.002892 -0.005371 0.005261
# 4 0.002534 -0.000638 0.002892 0.035299 0.003630 0.000383
# 5 0.015246 -0.001094 -0.005371 0.003630 0.034719 0.005318
# 6 0.002194 0.002162 0.005261 0.000383 0.005318 0.029403
#
#
# Mechanical properties :
#
#
# Convention : Reuss Voigt Hill
#
# Bulk Modulus (GPa) = 37.17697 53.80710 45.49204
# Shear Modulus (GPa) = 27.98372 37.03551 32.50961
#
# Velocity S-wave (km/s) = 3.54704 4.08059 3.82313
# Velocity P-wave (km/s) = 5.78707 6.81127 6.31995
#
# Compressibility (1/GPa) = 0.02689837
#
# Stress axis : x y z
#
# Youngs Moduli (GPa) = 38.96090 102.51853 75.91816
#
# Poissons Ratio (x) = 0.09872 0.55087
# Poissons Ratio (y) = 0.03752 0.19954
# Poissons Ratio (z) = 0.28270 0.26945
#
# Static dielectric constant tensor:
#      x y z
#    x 1.814210 0.022220 0.026340 
#    y 0.022220 1.826960 -0.005680 
#    z 0.026340 -0.005680 1.777200 
# 
# From -- ./inp_files/353426.got.cif
#   From: 2010.05.17/outbox.cif.g08.bks.cpg/sg2_177_cif.got.tgz:353426.got - 2010.06.03 11:33:40.
