data_PCOD9042382
_publ_section_title
;
Structure prediction by ZEFSAII (Michael W. Deem and Ramdas Pophale) SiO2 
 PCOD9042382
Probable space group: P -1
;
_chemical_formula_sum "Si O2"
_cell_formula_units_Z 12
_cell_length_a 9.469016
_cell_length_b 5.225927
_cell_length_c 9.457417
_cell_angle_alpha 106.619999
_cell_angle_beta 97.514865
_cell_angle_gamma 71.790357
_cell_volume 425.543815
_symmetry_space_group_name_H-M "P -1"
_symmetry_group_IT_number 2
_symmetry_cell_setting 'triclinic'
loop_
_space_group_symop_operation_xyz
x,y,z
-x,-y,-z
loop_
_atom_site_type_symbol
_atom_site_label
_atom_site_fract_x
_atom_site_fract_y
_atom_site_fract_z
Si Si1 0.127932 0.758984 0.048164
Si Si2 0.000000 0.000000 0.500000
Si Si3 0.477551 0.692405 0.305988
Si Si4 0.883253 0.774542 0.217207
Si Si5 0.000000 0.500000 0.500000
Si Si6 0.678879 0.669097 0.596643
Si Si7 0.379877 0.835307 0.933399
O O1 0.053541 0.752619 0.188443
O O2 0.139895 0.489262 0.911198
O O3 0.279056 0.832806 0.057299
O O4 0.000000 0.000000 0.000000
O O5 0.089068 0.230652 0.609362
O O6 0.923312 0.234763 0.417480
O O7 0.610211 0.647314 0.430282
O O8 0.354566 0.571444 0.348628
O O9 0.543684 0.477805 0.156295
O O10 0.420242 0.021276 0.322149
O O11 0.740551 0.009755 0.177200
O O12 0.149484 0.347377 0.386937
O O13 0.500000 0.000000 0.000000
#
# Coordination Sequence:
#
# PCOD9042382 Si02
#       7
#     2   1   2   2   1   2   2
#     4   9  22  47  75 104 152 202 261 321 385 469
#     4  12  28  42  82 118 148 194 252 336 390 450
#     4  10  23  44  71 101 145 195 244 304 384 458
#     4  10  24  48  74 111 148 203 264 323 392 459
#     4  12  26  46  70 118 148 194 248 316 396 450
#     4  10  23  45  69 103 147 189 241 314 381 452
#     4  11  25  45  75 106 150 209 258 315 387 474
#
# _framework density 28.199209
#
# number of rings (size 3 to 8) (size 9 to 14) (size 15 to 20)
#    0.000    1.667    0.000    2.000    9.333    3.333 
#   15.000    0.000    0.000    1.000    0.000    0.000 
#    0.000    0.000    0.000    0.000    0.000    0.000 
#
# Total GULP energy -66940.124413 kJ/mol
# GULP energy per Si atom -5578.343701 kJ/mol
# Density = 2.813503 g / cm^3
# Si number density = 28.199209 Si / 1000 Ang^3
#
#
#
# Elastic Constant Matrix: (Units=GPa)
#
#
# Indices 1 2 3 4 5 6 
#
# 1 193.9369 44.6542 39.0536 1.1506 7.2979 -9.1916
# 2 44.6542 168.9870 28.5086 25.1019 21.2013 -4.2868
# 3 39.0536 28.5086 122.0648 0.7021 10.7402 -7.8297
# 4 1.1506 25.1019 0.7021 53.7092 2.8152 3.5709
# 5 7.2979 21.2013 10.7402 2.8152 37.1670 -10.4201
# 6 -9.1916 -4.2868 -7.8297 3.5709 -10.4201 55.1112
#
#
#
# Elastic Compliance Matrix: (Units=1/GPa)
#
#
# Indices 1 2 3 4 5 6 
#
# 1 0.005794 -0.001357 -0.001517 0.000475 0.000223 0.000657
# 2 -0.001357 0.007343 -0.000973 -0.003192 -0.003467 -0.000242
# 3 -0.001517 -0.000973 0.009086 0.000412 -0.001628 0.000628
# 4 0.000475 -0.003192 0.000412 0.020212 -0.000338 -0.001484
# 5 0.000223 -0.003467 -0.001628 -0.000338 0.030847 0.005390
# 6 0.000657 -0.000242 0.000628 -0.001484 0.005390 0.019440
#
#
# Mechanical properties :
#
#
# Convention : Reuss Voigt Hill
#
# Bulk Modulus (GPa) = 68.82496 78.82462 73.82479
# Shear Modulus (GPa) = 47.50137 54.04898 50.77517
#
# Velocity S-wave (km/s) = 4.10871 4.38274 4.24794
# Velocity P-wave (km/s) = 6.85335 7.32289 7.09201
#
# Compressibility (1/GPa) = 0.01452961
#
# Stress axis : x y z
#
# Youngs Moduli (GPa) = 172.58701 136.17617 110.05786
#
# Poissons Ratio (x) = 0.18478 0.16697
# Poissons Ratio (y) = 0.23419 0.10709
# Poissons Ratio (z) = 0.26183 0.13250
#
# Static dielectric constant tensor:
#      x y z
#    x 2.558990 0.296550 -0.165970 
#    y 0.296550 2.661760 -0.004160 
#    z -0.165970 -0.004160 2.497310 
# 
# From -- ./inp_files/21154.got.cif
#   From: 2010.05.17/outbox.cif.g08.bks.cpg/sg2_11_cif.got.tgz:21154.got - 2010.06.03 11:33:40.
