data_PCOD9042889
_publ_section_title
;
Structure prediction by ZEFSAII (Michael W. Deem and Ramdas Pophale) SiO2 
 PCOD9042889
Probable space group: P -1
;
_chemical_formula_sum "Si O2"
_cell_formula_units_Z 16
_cell_length_a 9.863813
_cell_length_b 7.653695
_cell_length_c 16.897306
_cell_angle_alpha 37.430605
_cell_angle_beta 89.129330
_cell_angle_gamma 91.409783
_cell_volume 773.841567
_symmetry_space_group_name_H-M "P -1"
_symmetry_group_IT_number 2
_symmetry_cell_setting 'triclinic'
loop_
_space_group_symop_operation_xyz
x,y,z
-x,-y,-z
loop_
_atom_site_type_symbol
_atom_site_label
_atom_site_fract_x
_atom_site_fract_y
_atom_site_fract_z
Si Si1 0.908054 0.263497 0.416753
Si Si2 0.052398 0.139599 0.737826
Si Si3 0.600499 0.474386 0.933233
Si Si4 0.600744 0.236978 0.453627
Si Si5 0.166181 0.737272 0.753953
Si Si6 0.356359 0.122098 0.807300
Si Si7 0.538272 0.023566 0.314361
Si Si8 0.863293 0.663579 0.958827
O O1 0.957960 0.518573 0.383551
O O2 0.756635 0.160806 0.481162
O O3 0.896022 0.379075 0.285203
O O4 0.000000 0.000000 0.500000
O O5 0.194666 0.094776 0.799167
O O6 0.075782 0.968519 0.716970
O O7 0.920997 0.991257 0.835564
O O8 0.545411 0.687548 0.791968
O O9 0.748223 0.591497 0.921015
O O10 0.500000 0.500000 0.000000
O O11 0.608777 0.132112 0.041990
O O12 0.602006 0.544570 0.299099
O O13 0.500000 0.000000 0.500000
O O14 0.544869 0.225635 0.547751
O O15 0.312484 0.899151 0.679040
O O16 0.188091 0.475125 0.908373
O O17 0.430152 0.058464 0.746524
O O18 0.000000 0.500000 0.000000
#
# Coordination Sequence:
#
# PCOD9042889 Si02
#       8
#     2   2   2   2   2   2   2   2
#     4  11  25  43  58  87 128 156 205 262 290 356
#     4   9  20  38  63  90 118 161 201 240 311 369
#     4  10  17  33  59  93 121 142 203 260 290 352
#     4  11  22  39  60  80 120 166 203 237 303 368
#     4  10  19  38  66  84 123 162 195 249 314 352
#     4   9  18  36  60  88 119 152 198 251 296 359
#     4  10  19  36  61  93 115 158 203 249 306 353
#     4  10  17  34  62  90 115 156 198 240 306 370
#
# _framework density 20.676065999999999
#
# number of rings (size 3 to 8) (size 9 to 14) (size 15 to 20)
#    0.000    2.000    6.250    0.375    0.000    3.000 
#    4.500    0.625    0.000    0.000    0.000    0.000 
#    0.000    0.000    0.000    0.000    0.000    0.000 
#
# Total GULP energy -89168.777406 kJ/mol
# GULP energy per Si atom -5573.048588 kJ/mol
# Density = 2.062901 g / cm^3
# Si number density = 20.676066 Si / 1000 Ang^3
#
#
#
# Elastic Constant Matrix: (Units=GPa)
#
#
# Indices 1 2 3 4 5 6 
#
# 1 85.9757 17.8293 39.8487 -21.8305 -19.8688 -6.2365
# 2 17.8293 64.2703 20.8218 -10.7236 -7.5906 -3.6050
# 3 39.8487 20.8218 87.8051 -24.4974 -11.9316 -3.5451
# 4 -21.8305 -10.7236 -24.4974 33.1545 1.1402 0.2700
# 5 -19.8688 -7.5906 -11.9316 1.1402 34.8599 -6.3306
# 6 -6.2365 -3.6050 -3.5451 0.2700 -6.3306 21.9273
#
#
#
# Elastic Compliance Matrix: (Units=1/GPa)
#
#
# Indices 1 2 3 4 5 6 
#
# 1 0.018842 -0.000794 -0.004296 0.008566 0.010152 0.007359
# 2 -0.000794 0.017630 -0.002358 0.003307 0.003039 0.003128
# 3 -0.004296 -0.002358 0.016781 0.008696 0.002826 0.001812
# 4 0.008566 0.003307 0.008696 0.042960 0.008310 0.006256
# 5 0.010152 0.003039 0.002826 0.008310 0.038529 0.014865
# 6 0.007359 0.003128 0.001812 0.006256 0.014865 0.052720
#
#
# Mechanical properties :
#
#
# Convention : Reuss Voigt Hill
#
# Bulk Modulus (GPa) = 26.07183 43.89453 34.98318
# Shear Modulus (GPa) = 23.24005 28.62510 25.93257
#
# Velocity S-wave (km/s) = 3.35626 3.72486 3.54536
# Velocity P-wave (km/s) = 5.25893 6.30676 5.80653
#
# Compressibility (1/GPa) = 0.03835557
#
# Stress axis : x y z
#
# Youngs Moduli (GPa) = 53.07240 56.72239 59.59050
#
# Poissons Ratio (x) = 0.04504 0.25601
# Poissons Ratio (y) = 0.04214 0.14054
# Poissons Ratio (z) = 0.22801 0.13378
#
# Static dielectric constant tensor:
#      x y z
#    x 1.723170 -0.023220 0.007570 
#    y -0.023220 1.810040 0.007670 
#    z 0.007570 0.007670 1.822440 
# 
# From -- ./inp_files/396133.got.cif
#   From: 2010.05.17/outbox.cif.g08.bks.cpg/sg2_199_cif.got.tgz:396133.got - 2010.06.03 11:33:40.
