data_PCOD9042778
_publ_section_title
;
Structure prediction by ZEFSAII (Michael W. Deem and Ramdas Pophale) SiO2 
 PCOD9042778
Probable space group: P -1
;
_chemical_formula_sum "Si O2"
_cell_formula_units_Z 16
_cell_length_a 12.361368
_cell_length_b 14.295464
_cell_length_c 8.057696
_cell_angle_alpha 66.120970
_cell_angle_beta 95.217080
_cell_angle_gamma 41.187325
_cell_volume 646.441603
_symmetry_space_group_name_H-M "P -1"
_symmetry_group_IT_number 2
_symmetry_cell_setting 'triclinic'
loop_
_space_group_symop_operation_xyz
x,y,z
-x,-y,-z
loop_
_atom_site_type_symbol
_atom_site_label
_atom_site_fract_x
_atom_site_fract_y
_atom_site_fract_z
Si Si1 0.044690 0.262102 0.332476
Si Si2 0.275128 0.929302 0.422005
Si Si3 0.533075 0.682075 0.953003
Si Si4 0.393293 0.492202 0.397375
Si Si5 0.846957 0.165159 0.131377
Si Si6 0.792419 0.715279 0.411952
Si Si7 0.018646 0.158489 0.738550
Si Si8 0.591380 0.073330 0.933217
O O1 0.084013 0.152901 0.574259
O O2 0.126473 0.302867 0.390973
O O3 0.788433 0.458726 0.129036
O O4 0.168665 0.129374 0.277131
O O5 0.444644 0.804479 0.686900
O O6 0.424520 0.736799 0.463134
O O7 0.053704 0.042559 0.348010
O O8 0.373635 0.712579 0.923445
O O9 0.507165 0.775474 0.043464
O O10 0.500000 0.500000 0.500000
O O11 0.209818 0.604779 0.418260
O O12 0.254863 0.657429 0.112240
O O13 0.964646 0.976575 0.182718
O O14 0.589410 0.802554 0.318237
O O15 0.000000 0.500000 0.500000
O O16 0.690848 0.889509 0.160664
O O17 0.185990 0.048878 0.988425
#
# Coordination Sequence:
#
# PCOD9042778 Si02
#       8
#     2   2   2   2   2   2   2   2
#     4  11  22  38  59  90 117 147 191 240 295 342
#     4  12  24  39  54  84 119 160 191 237 285 335
#     4  11  21  36  59  87 121 153 188 239 289 336
#     4  12  25  40  58  82 114 162 201 235 277 335
#     4  11  23  39  58  81 117 157 198 235 276 337
#     4  10  17  33  59  89 117 142 181 241 297 341
#     4  10  21  41  57  83 120 152 195 237 283 343
#     4   9  19  34  57  90 116 144 187 238 289 347
#
# _framework density 24.750883999999999
#
# number of rings (size 3 to 8) (size 9 to 14) (size 15 to 20)
#    0.000    1.250    6.250    2.250    0.000    1.000 
#    0.000    0.000    0.000    0.750    0.000    5.250 
#    0.000    0.000    0.000    0.000    0.000    0.000 
#
# Total GULP energy -89222.018107 kJ/mol
# GULP energy per Si atom -5576.376132 kJ/mol
# Density = 2.469455 g / cm^3
# Si number density = 24.750884 Si / 1000 Ang^3
#
#
#
# Elastic Constant Matrix: (Units=GPa)
#
#
# Indices 1 2 3 4 5 6 
#
# 1 56.3925 32.9448 32.0657 -5.8200 33.8007 20.6886
# 2 32.9448 200.2647 52.6759 -23.1793 39.7166 17.8232
# 3 32.0657 52.6759 134.2351 -26.6282 41.0380 6.2317
# 4 -5.8200 -23.1793 -26.6282 38.3225 0.8333 10.3558
# 5 33.8007 39.7166 41.0380 0.8333 55.4146 5.1836
# 6 20.6886 17.8232 6.2317 10.3558 5.1836 30.4737
#
#
#
# Elastic Compliance Matrix: (Units=1/GPa)
#
#
# Indices 1 2 3 4 5 6 
#
# 1 0.049356 0.003388 0.002669 0.022441 -0.031261 -0.038344
# 2 0.003388 0.007294 0.000266 0.007415 -0.006857 -0.007974
# 3 0.002669 0.000266 0.012489 0.011241 -0.010625 -0.006534
# 4 0.022441 0.007415 0.011241 0.051870 -0.024807 -0.035278
# 5 -0.031261 -0.006857 -0.010625 -0.024807 0.047676 0.027726
# 6 -0.038344 -0.007974 -0.006534 -0.035278 0.027726 0.072119
#
#
# Mechanical properties :
#
#
# Convention : Reuss Voigt Hill
#
# Bulk Modulus (GPa) = 12.22713 69.58503 40.90608
# Shear Modulus (GPa) = 19.57552 43.05587 31.31570
#
# Velocity S-wave (km/s) = 2.81535 4.17534 3.56087
# Velocity P-wave (km/s) = 3.93942 7.17076 5.78528
#
# Compressibility (1/GPa) = 0.08178532
#
# Stress axis : x y z
#
# Youngs Moduli (GPa) = 20.26084 137.10265 80.06814
#
# Poissons Ratio (x) = -0.46453 -0.21371
# Poissons Ratio (y) = -0.06865 -0.02127
# Poissons Ratio (z) = -0.05408 -0.03642
#
# Static dielectric constant tensor:
#      x y z
#    x 2.113200 -0.037780 -0.058250 
#    y -0.037780 2.036990 0.038590 
#    z -0.058250 0.038590 2.041590 
# 
# From -- ./inp_files/313176.got.cif
#   From: 2010.05.17/outbox.cif.g08.bks.cpg/sg2_157_cif.got.tgz:313176.got - 2010.06.03 11:33:40.
