data_PCOD9042103
_publ_section_title
;
Structure prediction by ZEFSAII (Michael W. Deem and Ramdas Pophale) SiO2 
 PCOD9042103
Probable space group: P -1
;
_chemical_formula_sum "Si O2"
_cell_formula_units_Z 13
_cell_length_a 4.921830
_cell_length_b 14.735498
_cell_length_c 7.080906
_cell_angle_alpha 103.133377
_cell_angle_beta 107.003623
_cell_angle_gamma 94.739545
_cell_volume 472.085698
_symmetry_space_group_name_H-M "P -1"
_symmetry_group_IT_number 2
_symmetry_cell_setting 'triclinic'
loop_
_space_group_symop_operation_xyz
x,y,z
-x,-y,-z
loop_
_atom_site_type_symbol
_atom_site_label
_atom_site_fract_x
_atom_site_fract_y
_atom_site_fract_z
Si Si1 0.528153 0.867740 0.396895
Si Si2 0.970328 0.273748 0.942187
Si Si3 0.914091 0.786047 0.675126
Si Si4 0.290380 0.553555 0.855415
Si Si5 0.500000 0.500000 0.500000
Si Si6 0.081515 0.369869 0.626668
Si Si7 0.679604 0.024411 0.238374
O O1 0.244184 0.819373 0.210119
O O2 0.473729 0.928917 0.598354
O O3 0.655043 0.782494 0.475719
O O4 0.729184 0.928646 0.309993
O O5 0.124435 0.321873 0.812108
O O6 0.144806 0.239083 0.133525
O O7 0.802838 0.355689 0.027038
O O8 0.091881 0.711623 0.577232
O O9 0.067772 0.893749 0.734208
O O10 0.446207 0.571551 0.696991
O O11 0.500000 0.500000 0.000000
O O12 0.005554 0.525961 0.285569
O O13 0.341979 0.412721 0.563603
O O14 0.500000 0.000000 0.000000
#
# Coordination Sequence:
#
# PCOD9042103 Si02
#       7
#     2   2   2   2   1   2   2
#     4  11  26  48  74 108 154 191 251 309 372 457
#     4  12  25  45  76 113 147 198 260 309 367 450
#     4  12  26  45  76 110 148 202 244 310 382 439
#     4  10  23  44  69 104 151 198 248 309 370 437
#     4   8  24  42  68 104 144 198 248 298 374 440
#     4  10  24  45  68 108 152 195 250 309 366 445
#     4  11  24  50  74 110 151 194 246 311 379 453
#
# _framework density 27.537372000000001
#
# number of rings (size 3 to 8) (size 9 to 14) (size 15 to 20)
#    0.923    0.308    3.077    1.846    2.154    4.923 
#    0.000    0.000    0.000    0.000    0.000    0.000 
#    0.000    0.000    0.000    0.000    0.000    0.000 
#
# Total GULP energy -72506.292326 kJ/mol
# GULP energy per Si atom -5577.407102 kJ/mol
# Density = 2.747470 g / cm^3
# Si number density = 27.537372 Si / 1000 Ang^3
#
#
#
# Elastic Constant Matrix: (Units=GPa)
#
#
# Indices 1 2 3 4 5 6 
#
# 1 58.0771 40.4772 30.0840 -9.2602 -26.3084 11.3690
# 2 40.4772 156.6226 70.1627 -28.8165 -13.4519 31.1293
# 3 30.0840 70.1627 203.3088 -26.6123 -29.2754 2.2320
# 4 -9.2602 -28.8165 -26.6123 75.4528 15.4093 -6.6455
# 5 -26.3084 -13.4519 -29.2754 15.4093 48.5722 -4.7421
# 6 11.3690 31.1293 2.2320 -6.6455 -4.7421 56.9062
#
#
#
# Elastic Compliance Matrix: (Units=1/GPa)
#
#
# Indices 1 2 3 4 5 6 
#
# 1 0.027625 -0.005900 -0.000324 -0.001874 0.013594 -0.001365
# 2 -0.005900 0.010153 -0.002725 0.002477 -0.003227 -0.004248
# 3 -0.000324 -0.002725 0.006396 0.000737 0.002850 0.001628
# 4 -0.001874 0.002477 0.000737 0.015217 -0.004676 0.000378
# 5 0.013594 -0.003227 0.002850 -0.004676 0.030348 0.000920
# 6 -0.001365 -0.004248 0.001628 0.000378 0.000920 0.020226
#
#
# Mechanical properties :
#
#
# Convention : Reuss Voigt Hill
#
# Bulk Modulus (GPa) = 38.05724 77.71737 57.88730
# Shear Modulus (GPa) = 36.59720 54.67188 45.63454
#
# Velocity S-wave (km/s) = 3.64950 4.46058 4.07527
# Velocity P-wave (km/s) = 5.62216 7.40357 6.57349
#
# Compressibility (1/GPa) = 0.02627621
#
# Stress axis : x y z
#
# Youngs Moduli (GPa) = 36.19893 98.49265 156.35246
#
# Poissons Ratio (x) = 0.58110 0.05072
# Poissons Ratio (y) = 0.21357 0.42599
# Poissons Ratio (z) = 0.01174 0.26835
#
# Static dielectric constant tensor:
#      x y z
#    x 2.415710 -0.167710 0.311630 
#    y -0.167710 2.359960 0.013300 
#    z 0.311630 0.013300 2.268110 
# 
# From -- ./inp_files/6962.got.cif
#   From: 2010.05.17/outbox.cif.g08.bks.cpg/sg2_4_cif.got.tgz:6962.got - 2010.06.03 11:33:40.
