data_PCOD9042394
_publ_section_title
;
Structure prediction by ZEFSAII (Michael W. Deem and Ramdas Pophale) SiO2 
 PCOD9042394
Probable space group: P -1
;
_chemical_formula_sum "Si O2"
_cell_formula_units_Z 14
_cell_length_a 5.146930
_cell_length_b 15.933390
_cell_length_c 8.084708
_cell_angle_alpha 72.990105
_cell_angle_beta 89.544785
_cell_angle_gamma 71.746698
_cell_volume 599.542840
_symmetry_space_group_name_H-M "P -1"
_symmetry_group_IT_number 2
_symmetry_cell_setting 'triclinic'
loop_
_space_group_symop_operation_xyz
x,y,z
-x,-y,-z
loop_
_atom_site_type_symbol
_atom_site_label
_atom_site_fract_x
_atom_site_fract_y
_atom_site_fract_z
Si Si1 0.109604 0.221719 0.577570
Si Si2 0.524046 0.979351 0.261933
Si Si3 0.924423 0.852367 0.820462
Si Si4 0.729346 0.717664 0.114694
Si Si5 0.251156 0.895738 0.057845
Si Si6 0.588954 0.258321 0.344327
Si Si7 0.687478 0.564478 0.985242
O O1 0.206841 0.109310 0.655265
O O2 0.117561 0.270749 0.725163
O O3 0.341867 0.235120 0.447346
O O4 0.811019 0.264207 0.475442
O O5 0.312795 0.064552 0.318045
O O6 0.629154 0.043172 0.099826
O O7 0.322256 0.926660 0.217633
O O8 0.972326 0.897150 0.970260
O O9 0.207293 0.818032 0.736564
O O10 0.846452 0.762758 0.932812
O O11 0.428309 0.788927 0.104938
O O12 0.700372 0.620003 0.122396
O O13 0.444821 0.352375 0.191329
O O14 0.500000 0.500000 0.000000
O O15 0.000000 0.500000 0.000000
#
# Coordination Sequence:
#
# PCOD9042394 Si02
#       7
#     2   2   2   2   2   2   2
#     4  11  27  44  67 101 156 181 221 275 355 403
#     4   9  21  35  59 101 134 195 236 275 315 389
#     4  11  21  38  72  91 144 186 252 269 317 390
#     4  10  23  44  71 103 131 190 230 281 339 407
#     4   9  18  36  63  95 136 179 251 280 305 387
#     4  12  27  46  66 106 143 178 215 299 357 397
#     4  12  26  49  80 103 125 170 236 286 344 433
#
# _framework density 23.351126000000001
#
# number of rings (size 3 to 8) (size 9 to 14) (size 15 to 20)
#    0.000    1.429    1.429    3.857    8.000    1.143 
#    0.000    4.286    0.000    0.000    0.000    0.000 
#    0.000    0.000    0.000    0.000    0.000    0.000 
#
# Total GULP energy -78122.235805 kJ/mol
# GULP energy per Si atom -5580.159700 kJ/mol
# Density = 2.329798 g / cm^3
# Si number density = 23.351126 Si / 1000 Ang^3
#
#
#
# Elastic Constant Matrix: (Units=GPa)
#
#
# Indices 1 2 3 4 5 6 
#
# 1 125.9519 50.0831 25.7799 -11.4726 7.1031 8.1447
# 2 50.0831 153.7827 41.8518 7.6952 5.2905 -4.4134
# 3 25.7799 41.8518 86.1672 4.2534 20.2085 1.4394
# 4 -11.4726 7.6952 4.2534 41.5222 -0.3617 15.2909
# 5 7.1031 5.2905 20.2085 -0.3617 51.8727 -6.0751
# 6 8.1447 -4.4134 1.4394 15.2909 -6.0751 41.1055
#
#
#
# Elastic Compliance Matrix: (Units=1/GPa)
#
#
# Indices 1 2 3 4 5 6 
#
# 1 0.010394 -0.003354 -0.001429 0.005283 -0.001013 -0.004484
# 2 -0.003354 0.008741 -0.003422 -0.003346 0.001247 0.003152
# 3 -0.001429 -0.003422 0.015037 -0.000958 -0.005444 -0.001059
# 4 0.005283 -0.003346 -0.000958 0.031086 -0.001330 -0.013133
# 5 -0.001013 0.001247 -0.005444 -0.001330 0.021900 0.004257
# 6 -0.004484 0.003152 -0.001059 -0.013133 0.004257 0.031106
#
#
# Mechanical properties :
#
#
# Convention : Reuss Voigt Hill
#
# Bulk Modulus (GPa) = 56.30088 66.81459 61.55774
# Shear Modulus (GPa) = 35.56311 43.44588 39.50450
#
# Velocity S-wave (km/s) = 3.90676 4.31809 4.11756
# Velocity P-wave (km/s) = 6.67183 7.31685 7.00177
#
# Compressibility (1/GPa) = 0.01776171
#
# Stress axis : x y z
#
# Youngs Moduli (GPa) = 96.20825 114.39744 66.50407
#
# Poissons Ratio (x) = 0.38374 0.09502
# Poissons Ratio (y) = 0.32273 0.22758
# Poissons Ratio (z) = 0.13746 0.39147
#
# Static dielectric constant tensor:
#      x y z
#    x 1.914070 0.005670 0.009860 
#    y 0.005670 1.897110 0.060510 
#    z 0.009860 0.060510 2.003560 
# 
# From -- ./inp_files/135163.got.cif
#   From: 2010.05.17/outbox.cif.g08.bks.cpg/sg2_68_cif.got.tgz:135163.got - 2010.06.03 11:33:40.
