data_PCOD9042236
_publ_section_title
;
Structure prediction by ZEFSAII (Michael W. Deem and Ramdas Pophale) SiO2 
 PCOD9042236
Probable space group: P -1
;
_chemical_formula_sum "Si O2"
_cell_formula_units_Z 16
_cell_length_a 6.046618
_cell_length_b 5.082666
_cell_length_c 27.974294
_cell_angle_alpha 87.618570
_cell_angle_beta 45.210962
_cell_angle_gamma 90.682459
_cell_volume 608.600710
_symmetry_space_group_name_H-M "P -1"
_symmetry_group_IT_number 2
_symmetry_cell_setting 'triclinic'
loop_
_space_group_symop_operation_xyz
x,y,z
-x,-y,-z
loop_
_atom_site_type_symbol
_atom_site_label
_atom_site_fract_x
_atom_site_fract_y
_atom_site_fract_z
Si Si1 0.841544 0.883034 0.772662
Si Si2 0.261005 0.606605 0.270298
Si Si3 0.511211 0.914696 0.644526
Si Si4 0.097563 0.566827 0.396700
Si Si5 0.686473 0.877310 0.517753
Si Si6 0.715525 0.697775 0.893091
Si Si7 0.068632 0.745941 0.021349
Si Si8 0.917468 0.788364 0.148625
O O1 0.737961 0.687449 0.747319
O O2 0.647509 0.801831 0.849589
O O3 0.208527 0.839441 0.722398
O O4 0.829380 0.186039 0.757647
O O5 0.043913 0.632697 0.349120
O O6 0.617989 0.702198 0.225752
O O7 0.783377 0.724370 0.618473
O O8 0.449810 0.852514 0.598303
O O9 0.628662 0.217941 0.630782
O O10 0.820930 0.618038 0.475092
O O11 0.500000 0.000000 0.500000
O O12 0.000000 0.000000 0.500000
O O13 0.441117 0.743567 0.971621
O O14 0.806037 0.397739 0.877865
O O15 0.998344 0.901744 0.863649
O O16 0.877637 0.724674 0.099230
O O17 0.000000 0.500000 0.000000
O O18 0.000000 0.000000 0.000000
#
# Coordination Sequence:
#
# PCOD9042236 Si02
#       8
#     2   2   2   2   2   2   2   2
#     4  12  24  41  64  95 129 171 218 273 331 396
#     4  12  24  41  64  95 129 171 218 273 331 396
#     4  11  23  43  66  97 133 177 224 279 339 407
#     4  11  23  43  66  97 133 177 224 279 339 407
#     4  10  23  44  70 102 140 184 234 290 352 420
#     4  12  24  42  64  91 125 167 212 264 326 398
#     4  12  24  42  64  92 124 160 208 266 326 396
#     4  12  24  42  64  91 125 167 212 264 326 398
#
# _framework density 26.289815000000001
#
# number of rings (size 3 to 8) (size 9 to 14) (size 15 to 20)
#    0.000    0.500    0.000    9.375    0.000    2.000 
#    0.000    5.625    0.000    0.000    0.000    0.000 
#    0.000    0.000    0.000    0.000    0.000    0.000 
#
# Total GULP energy -89578.178975 kJ/mol
# GULP energy per Si atom -5598.636186 kJ/mol
# Density = 2.622998 g / cm^3
# Si number density = 26.289815 Si / 1000 Ang^3
#
#
#
# Elastic Constant Matrix: (Units=GPa)
#
#
# Indices 1 2 3 4 5 6 
#
# 1 73.9283 22.8350 23.9279 0.3345 6.6152 0.0154
# 2 22.8350 83.2346 20.3781 -1.9797 0.4593 -12.7543
# 3 23.9279 20.3781 98.8366 9.1968 24.6788 6.8569
# 4 0.3345 -1.9797 9.1968 33.7895 -4.7012 -0.4756
# 5 6.6152 0.4593 24.6788 -4.7012 53.5923 -3.5711
# 6 0.0154 -12.7543 6.8569 -0.4756 -3.5711 60.7693
#
#
#
# Elastic Compliance Matrix: (Units=1/GPa)
#
#
# Indices 1 2 3 4 5 6 
#
# 1 0.015637 -0.003644 -0.002890 0.000332 -0.000571 -0.000474
# 2 -0.003644 0.014330 -0.003040 0.002050 0.002139 0.003493
# 3 -0.002890 -0.003040 0.013703 -0.004823 -0.006524 -0.002604
# 4 0.000332 0.002050 -0.004823 0.031748 0.005049 0.001520
# 5 -0.000571 0.002139 -0.006524 0.005049 0.022328 0.002537
# 6 -0.000474 0.003493 -0.002604 0.001520 0.002537 0.017644
#
#
# Mechanical properties :
#
#
# Convention : Reuss Voigt Hill
#
# Bulk Modulus (GPa) = 40.77837 43.36461 42.07149
# Shear Modulus (GPa) = 35.03571 42.22080 38.62825
#
# Velocity S-wave (km/s) = 3.65454 4.01181 3.83733
# Velocity P-wave (km/s) = 5.77515 6.16361 5.97254
#
# Compressibility (1/GPa) = 0.02452281
#
# Stress axis : x y z
#
# Youngs Moduli (GPa) = 63.95002 69.78178 72.97927
#
# Poissons Ratio (x) = 0.25428 0.21091
# Poissons Ratio (y) = 0.23303 0.22184
# Poissons Ratio (z) = 0.18481 0.21212
#
# Static dielectric constant tensor:
#      x y z
#    x 2.166840 0.018030 -0.067370 
#    y 0.018030 2.009050 -0.053070 
#    z -0.067370 -0.053070 2.068540 
# 
# From -- ./inp_files/14306.got.cif
#   From: 2010.05.17/outbox.cif.g08.bks.cpg/sg2_8_cif.got.tgz:14306.got - 2010.06.03 11:33:40.
