data_PCOD9042723
_publ_section_title
;
Structure prediction by ZEFSAII (Michael W. Deem and Ramdas Pophale) SiO2 
 PCOD9042723
Probable space group: P -1
;
_chemical_formula_sum "Si O2"
_cell_formula_units_Z 16
_cell_length_a 6.784396
_cell_length_b 22.558385
_cell_length_c 24.642489
_cell_angle_alpha 17.920285
_cell_angle_beta 118.601780
_cell_angle_gamma 129.663118
_cell_volume 750.221885
_symmetry_space_group_name_H-M "P -1"
_symmetry_group_IT_number 2
_symmetry_cell_setting 'triclinic'
loop_
_space_group_symop_operation_xyz
x,y,z
-x,-y,-z
loop_
_atom_site_type_symbol
_atom_site_label
_atom_site_fract_x
_atom_site_fract_y
_atom_site_fract_z
Si Si1 0.382203 0.278378 0.336632
Si Si2 0.226268 0.837190 0.649014
Si Si3 0.268517 0.430309 0.765156
Si Si4 0.380039 0.784730 0.126787
Si Si5 0.266995 0.974765 0.144911
Si Si6 0.360677 0.103603 0.676785
Si Si7 0.732243 0.561601 0.023374
Si Si8 0.585264 0.505666 0.444483
O O1 0.595612 0.477136 0.238087
O O2 0.061222 0.198299 0.373498
O O3 0.344108 0.023289 0.554905
O O4 0.526833 0.410159 0.182267
O O5 0.500000 0.000000 0.500000
O O6 0.140084 0.564550 0.875196
O O7 0.495058 0.657896 0.553342
O O8 0.977620 0.399004 0.754913
O O9 0.201855 0.165800 0.976472
O O10 0.506700 0.650221 0.274687
O O11 0.497220 0.904539 0.978549
O O12 0.500000 0.000000 0.000000
O O13 0.425299 0.961542 0.228684
O O14 0.950334 0.691564 0.331941
O O15 0.394102 0.227378 0.632198
O O16 0.026033 0.853563 0.828206
O O17 0.500000 0.500000 0.000000
O O18 0.500000 0.500000 0.500000
#
# Coordination Sequence:
#
# PCOD9042723 Si02
#       8
#     2   2   2   2   2   2   2   2
#     4  10  23  44  74  99 135 188 233 281 360 420
#     4   9  21  44  71  96 131 178 236 282 355 407
#     4  12  26  45  73 105 144 187 238 287 351 425
#     4  12  23  44  72 100 138 192 234 284 356 413
#     4  12  25  48  72  99 153 185 233 299 347 419
#     4  12  27  46  69 110 142 185 244 291 353 423
#     4  11  26  46  70 103 147 180 233 302 351 416
#     4  12  25  45  74 105 146 191 236 292 352 422
#
# _framework density 21.327023000000001
#
# number of rings (size 3 to 8) (size 9 to 14) (size 15 to 20)
#    0.000    0.750    2.500    4.500    7.000    2.500 
#    4.500    0.000    0.000    0.000    0.000    0.000 
#    0.000    0.000    0.000    0.000    0.000    0.000 
#
# Total GULP energy -89333.827607 kJ/mol
# GULP energy per Si atom -5583.364225 kJ/mol
# Density = 2.127848 g / cm^3
# Si number density = 21.327023 Si / 1000 Ang^3
#
#
#
# Elastic Constant Matrix: (Units=GPa)
#
#
# Indices 1 2 3 4 5 6 
#
# 1 81.9197 45.2261 47.5459 -15.6185 1.2490 0.0376
# 2 45.2261 125.3982 57.1304 -14.1017 6.9956 2.7736
# 3 47.5459 57.1304 106.0766 -15.1092 12.3329 4.1425
# 4 -15.6185 -14.1017 -15.1092 46.8972 1.6781 -3.6306
# 5 1.2490 6.9956 12.3329 1.6781 29.6904 -2.5406
# 6 0.0376 2.7736 4.1425 -3.6306 -2.5406 38.4248
#
#
#
# Elastic Compliance Matrix: (Units=1/GPa)
#
#
# Indices 1 2 3 4 5 6 
#
# 1 0.018342 -0.003629 -0.006190 0.003036 0.002600 0.001370
# 2 -0.003629 0.011378 -0.004272 0.000840 -0.000830 -0.000333
# 3 -0.006190 -0.004272 0.015429 0.001697 -0.005370 -0.001544
# 4 0.003036 0.000840 0.001697 0.023353 -0.002195 0.001815
# 5 0.002600 -0.000830 -0.005370 -0.002195 0.036364 0.002833
# 6 0.001370 -0.000333 -0.001544 0.001815 0.002833 0.026573
#
#
# Mechanical properties :
#
#
# Convention : Reuss Voigt Hill
#
# Bulk Modulus (GPa) = 58.94084 68.13327 63.53706
# Shear Modulus (GPa) = 30.25234 33.90195 32.07714
#
# Velocity S-wave (km/s) = 3.77038 3.99133 3.88243
# Velocity P-wave (km/s) = 6.83016 7.29776 7.06783
#
# Compressibility (1/GPa) = 0.01696616
#
# Stress axis : x y z
#
# Youngs Moduli (GPa) = 54.52015 87.88962 64.81295
#
# Poissons Ratio (x) = 0.31895 0.40120
# Poissons Ratio (y) = 0.19785 0.27689
# Poissons Ratio (z) = 0.33749 0.37548
#
# Static dielectric constant tensor:
#      x y z
#    x 1.682630 -0.057230 0.052690 
#    y -0.057230 1.742510 0.026270 
#    z 0.052690 0.026270 1.823360 
# 
# From -- ./inp_files/605131.got.cif
#   From: 2010.05.17/outbox.cif.g08.bks.cpg/sg2_303_cif.got.tgz:605131.got - 2010.06.03 11:33:40.
