data_PCOD9042930
_publ_section_title
;
Structure prediction by ZEFSAII (Michael W. Deem and Ramdas Pophale) SiO2 
 PCOD9042930
Probable space group: P -1
;
_chemical_formula_sum "Si O2"
_cell_formula_units_Z 16
_cell_length_a 21.887539
_cell_length_b 11.241594
_cell_length_c 9.958406
_cell_angle_alpha 67.544836
_cell_angle_beta 144.318842
_cell_angle_gamma 140.134061
_cell_volume 699.341167
_symmetry_space_group_name_H-M "P -1"
_symmetry_group_IT_number 2
_symmetry_cell_setting 'triclinic'
loop_
_space_group_symop_operation_xyz
x,y,z
-x,-y,-z
loop_
_atom_site_type_symbol
_atom_site_label
_atom_site_fract_x
_atom_site_fract_y
_atom_site_fract_z
Si Si1 0.559130 0.076345 0.724476
Si Si2 0.563735 0.348806 0.755844
Si Si3 0.845853 0.389219 0.661758
Si Si4 0.273477 0.248677 0.751542
Si Si5 0.792058 0.090108 0.228484
Si Si6 0.207192 0.921717 0.459846
Si Si7 0.825911 0.593046 0.348857
Si Si8 0.053404 0.136443 0.902903
O O1 0.571417 0.237189 0.717614
O O2 0.500000 0.000000 0.500000
O O3 0.373471 0.824692 0.580662
O O4 0.742450 0.175778 0.042474
O O5 0.335251 0.134375 0.484326
O O6 0.629141 0.362970 0.012952
O O7 0.724653 0.621482 0.871547
O O8 0.826760 0.257030 0.575111
O O9 0.889861 0.572234 0.596159
O O10 0.000000 0.500000 0.000000
O O11 0.199660 0.286903 0.698954
O O12 0.283114 0.116643 0.893435
O O13 0.500000 0.500000 0.000000
O O14 0.112856 0.074579 0.416891
O O15 0.714674 0.002014 0.280101
O O16 0.021529 0.295805 0.540165
O O17 0.000254 0.777724 0.174448
O O18 0.000000 0.000000 0.000000
#
# Coordination Sequence:
#
# PCOD9042930 Si02
#       8
#     2   2   2   2   2   2   2   2
#     4  11  25  43  66 102 138 177 231 283 354 410
#     4  11  24  44  71  96 136 179 230 287 342 419
#     4  11  25  40  66 100 136 179 222 289 344 410
#     4  11  24  45  69 100 140 182 235 286 340 413
#     4  11  23  42  68 100 133 181 225 290 334 413
#     4  10  23  45  66  99 134 175 234 275 350 408
#     4  12  23  40  71 100 134 182 230 278 346 410
#     4  11  26  45  71 100 137 184 229 294 348 412
#
# _framework density 22.878675000000001
#
# number of rings (size 3 to 8) (size 9 to 14) (size 15 to 20)
#    0.000    1.000    2.500    4.875    5.250    4.500 
#    0.000    0.000    0.000    0.000    0.000    0.000 
#    0.000    0.000    0.000    0.000    0.000    0.000 
#
# Total GULP energy -89109.273558 kJ/mol
# GULP energy per Si atom -5569.329597 kJ/mol
# Density = 2.282660 g / cm^3
# Si number density = 22.878675 Si / 1000 Ang^3
#
#
#
# Elastic Constant Matrix: (Units=GPa)
#
#
# Indices 1 2 3 4 5 6 
#
# 1 158.7186 28.4092 31.8405 0.7706 0.3547 1.5946
# 2 28.4092 80.6497 13.8892 2.9007 0.6979 25.7579
# 3 31.8405 13.8892 34.9887 6.1494 -5.7922 6.8816
# 4 0.7706 2.9007 6.1494 34.9059 9.2932 7.4887
# 5 0.3547 0.6979 -5.7922 9.2932 37.0913 10.9265
# 6 1.5946 25.7579 6.8816 7.4887 10.9265 30.6524
#
#
#
# Elastic Compliance Matrix: (Units=1/GPa)
#
#
# Indices 1 2 3 4 5 6 
#
# 1 0.008436 -0.003116 -0.008098 0.001280 -0.003009 0.004758
# 2 -0.003116 0.019195 -0.000786 0.001220 0.004447 -0.017675
# 3 -0.008098 -0.000786 0.041657 -0.007954 0.011681 -0.010491
# 4 0.001280 0.001220 -0.007954 0.033071 -0.008254 -0.004443
# 5 -0.003009 0.004447 0.011681 -0.008254 0.035789 -0.016944
# 6 0.004758 -0.017675 -0.010491 -0.004443 -0.016944 0.056709
#
#
# Mechanical properties :
#
#
# Convention : Reuss Voigt Hill
#
# Bulk Modulus (GPa) = 22.08143 46.95942 34.52043
# Shear Modulus (GPa) = 21.37177 33.87779 27.62478
#
# Velocity S-wave (km/s) = 3.05968 3.85224 3.47860
# Velocity P-wave (km/s) = 4.70687 6.35266 5.59066
#
# Compressibility (1/GPa) = 0.04528692
#
# Stress axis : x y z
#
# Youngs Moduli (GPa) = 118.54565 52.09708 24.00545
#
# Poissons Ratio (x) = 0.16235 0.19440
# Poissons Ratio (y) = 0.36943 0.01886
# Poissons Ratio (z) = 0.96002 0.04093
#
# Static dielectric constant tensor:
#      x y z
#    x 1.873280 0.067560 0.189970 
#    y 0.067560 2.055960 0.207740 
#    z 0.189970 0.207740 2.201760 
# 
# From -- ./inp_files/346103.got.cif
#   From: 2010.05.17/outbox.cif.g08.bks.cpg/sg2_174_cif.got.tgz:346103.got - 2010.06.03 11:33:40.
