data_PCOD9042135
_publ_section_title
;
Structure prediction by ZEFSAII (Michael W. Deem and Ramdas Pophale) SiO2 
 PCOD9042135
Probable space group: P -1
;
_chemical_formula_sum "Si O2"
_cell_formula_units_Z 16
_cell_length_a 9.872792
_cell_length_b 14.716168
_cell_length_c 13.309358
_cell_angle_alpha 31.974425
_cell_angle_beta 132.906732
_cell_angle_gamma 127.688789
_cell_volume 747.164408
_symmetry_space_group_name_H-M "P -1"
_symmetry_group_IT_number 2
_symmetry_cell_setting 'triclinic'
loop_
_space_group_symop_operation_xyz
x,y,z
-x,-y,-z
loop_
_atom_site_type_symbol
_atom_site_label
_atom_site_fract_x
_atom_site_fract_y
_atom_site_fract_z
Si Si1 0.726742 0.704815 0.523339
Si Si2 0.215092 0.993926 0.143067
Si Si3 0.617889 0.174132 0.433016
Si Si4 0.620663 0.139990 0.855650
Si Si5 0.922433 0.362908 0.919019
Si Si6 0.320850 0.392441 0.181023
Si Si7 0.170466 0.940812 0.701144
Si Si8 0.439707 0.772311 0.862470
O O1 0.516865 0.709236 0.374417
O O2 0.840359 0.547735 0.694261
O O3 0.728664 0.692163 0.657158
O O4 0.803333 0.902391 0.353417
O O5 0.236648 0.869276 0.367523
O O6 0.319504 0.938825 0.146057
O O7 0.340834 0.166374 0.082219
O O8 0.000000 0.000000 0.000000
O O9 0.478351 0.294328 0.300686
O O10 0.667191 0.249900 0.277615
O O11 0.500000 0.000000 0.500000
O O12 0.813258 0.233468 0.907168
O O13 0.500000 0.000000 0.000000
O O14 0.866359 0.251251 0.095093
O O15 0.143667 0.384863 0.024213
O O16 0.403592 0.585186 0.066578
O O17 0.341935 0.919909 0.733712
O O18 0.000000 0.000000 0.500000
#
# Coordination Sequence:
#
# PCOD9042135 Si02
#       8
#     2   2   2   2   2   2   2   2
#     4  12  22  44  65 100 142 184 223 289 355 404
#     4  11  25  47  70  98 138 188 236 281 350 422
#     4  10  23  44  69  94 130 182 226 285 344 402
#     4  12  25  46  71 100 144 188 228 287 353 418
#     4  12  26  40  69 106 140 179 233 284 352 423
#     4  12  23  43  70 100 138 173 232 295 348 407
#     4  12  22  39  70 105 140 177 229 289 348 414
#     4  11  23  44  71 101 133 177 236 290 345 411
#
# _framework density 21.414296
#
# number of rings (size 3 to 8) (size 9 to 14) (size 15 to 20)
#    0.000    0.500    6.250    2.625    3.500    0.000 
#    2.250    0.625    0.000    0.000    0.000    0.000 
#    0.000    0.000    0.000    0.000    0.000    0.000 
#
# Total GULP energy -89105.925363 kJ/mol
# GULP energy per Si atom -5569.120335 kJ/mol
# Density = 2.136556 g / cm^3
# Si number density = 21.414296 Si / 1000 Ang^3
#
#
#
# Elastic Constant Matrix: (Units=GPa)
#
#
# Indices 1 2 3 4 5 6 
#
# 1 41.2121 25.7272 34.8651 2.6336 6.2165 5.4182
# 2 25.7272 109.2842 58.4836 15.3732 17.2522 19.3221
# 3 34.8651 58.4836 137.6604 13.7980 16.4266 10.0830
# 4 2.6336 15.3732 13.7980 56.1337 8.4125 7.0421
# 5 6.2165 17.2522 16.4266 8.4125 26.7774 0.3385
# 6 5.4182 19.3221 10.0830 7.0421 0.3385 32.9169
#
#
#
# Elastic Compliance Matrix: (Units=1/GPa)
#
#
# Indices 1 2 3 4 5 6 
#
# 1 0.032469 -0.003939 -0.006421 0.001535 -0.001526 -0.001378
# 2 -0.003939 0.014262 -0.003833 -0.001175 -0.005475 -0.006242
# 3 -0.006421 -0.003833 0.010891 -0.000991 -0.002412 0.000208
# 4 0.001535 -0.001175 -0.000991 0.019492 -0.005072 -0.003377
# 5 -0.001526 -0.005475 -0.002412 -0.005072 0.044239 0.004834
# 6 -0.001378 -0.006242 0.000208 -0.003377 0.004834 0.034879
#
#
# Mechanical properties :
#
#
# Convention : Reuss Voigt Hill
#
# Bulk Modulus (GPa) = 34.20441 58.47873 46.34157
# Shear Modulus (GPa) = 25.72499 34.43764 30.08131
#
# Velocity S-wave (km/s) = 3.46974 4.01454 3.75204
# Velocity P-wave (km/s) = 5.66211 6.98972 6.36065
#
# Compressibility (1/GPa) = 0.02923600
#
# Stress axis : x y z
#
# Youngs Moduli (GPa) = 30.79868 70.11475 91.81995
#
# Poissons Ratio (x) = 0.27618 0.58955
# Poissons Ratio (y) = 0.12132 0.35197
# Poissons Ratio (z) = 0.19775 0.26877
#
# Static dielectric constant tensor:
#      x y z
#    x 1.794700 0.049900 -0.001680 
#    y 0.049900 1.892920 -0.008930 
#    z -0.001680 -0.008930 1.763790 
# 
# From -- ./inp_files/522221.got.cif
#   From: 2010.05.17/outbox.cif.g08.bks.cpg/sg2_262_cif.got.tgz:522221.got - 2010.06.03 11:33:40.
