data_PCOD9042328
_publ_section_title
;
Structure prediction by ZEFSAII (Michael W. Deem and Ramdas Pophale) SiO2 
 PCOD9042328
Probable space group: P -1
;
_chemical_formula_sum "Si O2"
_cell_formula_units_Z 16
_cell_length_a 8.231663
_cell_length_b 11.171088
_cell_length_c 7.984222
_cell_angle_alpha 74.480814
_cell_angle_beta 95.399540
_cell_angle_gamma 104.521997
_cell_volume 684.545172
_symmetry_space_group_name_H-M "P -1"
_symmetry_group_IT_number 2
_symmetry_cell_setting 'triclinic'
loop_
_space_group_symop_operation_xyz
x,y,z
-x,-y,-z
loop_
_atom_site_type_symbol
_atom_site_label
_atom_site_fract_x
_atom_site_fract_y
_atom_site_fract_z
Si Si1 0.666454 0.579229 0.577700
Si Si2 0.001119 0.700035 0.372851
Si Si3 0.791149 0.820802 0.674112
Si Si4 0.115657 0.968506 0.169235
Si Si5 0.347829 0.003142 0.609416
Si Si6 0.793140 0.378001 0.883605
Si Si7 0.133707 0.727712 0.728432
Si Si8 0.436028 0.871561 0.142239
O O1 0.500000 0.500000 0.500000
O O2 0.816436 0.623383 0.440424
O O3 0.648894 0.706377 0.629249
O O4 0.738326 0.498785 0.756381
O O5 0.067646 0.650657 0.224852
O O6 0.124789 0.686049 0.547497
O O7 0.997449 0.850474 0.304803
O O8 0.782685 0.888426 0.823759
O O9 0.795598 0.947525 0.518057
O O10 0.959064 0.770657 0.714963
O O11 0.262440 0.895845 0.184299
O O12 0.000000 0.000000 0.000000
O O13 0.423394 0.111131 0.710527
O O14 0.500000 0.000000 0.500000
O O15 0.274235 0.859740 0.719140
O O16 0.623012 0.264658 0.895757
O O17 0.851298 0.370267 0.084830
O O18 0.500000 0.000000 0.000000
#
# Coordination Sequence:
#
# PCOD9042328 Si02
#       8
#     2   2   2   2   2   2   2   2
#     4  11  26  45  69  99 140 192 229 287 352 416
#     4  10  23  44  70  97 135 183 235 290 348 413
#     4  11  23  41  68  98 137 175 232 279 351 420
#     4  11  23  40  68 104 137 174 231 291 353 415
#     4  12  21  39  63  96 139 170 221 284 353 412
#     4  11  23  46  67 101 138 183 245 275 342 431
#     4  11  23  40  70 100 132 182 227 289 352 409
#     4  11  22  37  63  97 134 173 217 289 349 398
#
# _framework density 23.373182
#
# number of rings (size 3 to 8) (size 9 to 14) (size 15 to 20)
#    0.000    1.000    3.750    3.750    1.750    3.000 
#    0.000    1.250    0.000   10.500    0.000    0.000 
#    0.000    0.000    0.000    0.000    0.000    0.000 
#
# Total GULP energy -89188.691328 kJ/mol
# GULP energy per Si atom -5574.293208 kJ/mol
# Density = 2.331998 g / cm^3
# Si number density = 23.373182 Si / 1000 Ang^3
#
#
#
# Elastic Constant Matrix: (Units=GPa)
#
#
# Indices 1 2 3 4 5 6 
#
# 1 49.9868 22.2981 17.4698 -8.7392 12.8017 26.7235
# 2 22.2981 122.5247 42.8599 -12.4706 3.4245 20.9430
# 3 17.4698 42.8599 115.2331 -6.7860 18.3863 21.1682
# 4 -8.7392 -12.4706 -6.7860 38.5299 8.2991 -2.1713
# 5 12.8017 3.4245 18.3863 8.2991 29.4573 -1.3020
# 6 26.7235 20.9430 21.1682 -2.1713 -1.3020 36.1949
#
#
#
# Elastic Compliance Matrix: (Units=1/GPa)
#
#
# Indices 1 2 3 4 5 6 
#
# 1 0.052454 -0.002125 0.006867 0.017297 -0.033551 -0.041684
# 2 -0.002125 0.010201 -0.003084 0.001924 0.001015 -0.002378
# 3 0.006867 -0.003084 0.013156 0.004992 -0.012737 -0.011139
# 4 0.017297 0.001924 0.004992 0.035125 -0.021436 -0.015467
# 5 -0.033551 0.001015 -0.012737 -0.021436 0.063842 0.032643
# 6 -0.041684 -0.002378 -0.011139 -0.015467 0.032643 0.066541
#
#
# Mechanical properties :
#
#
# Convention : Reuss Voigt Hill
#
# Bulk Modulus (GPa) = 12.63771 50.33335 31.48553
# Shear Modulus (GPa) = 18.91227 34.51088 26.71157
#
# Velocity S-wave (km/s) = 2.84763 3.84671 3.38424
# Velocity P-wave (km/s) = 4.02873 6.42737 5.36385
#
# Compressibility (1/GPa) = 0.07912824
#
# Stress axis : x y z
#
# Youngs Moduli (GPa) = 19.06424 98.02956 76.00857
#
# Poissons Ratio (x) = 0.20833 -0.52198
# Poissons Ratio (y) = 0.04051 0.23440
# Poissons Ratio (z) = -0.13092 0.30231
#
# Static dielectric constant tensor:
#      x y z
#    x 1.870530 0.041390 -0.072250 
#    y 0.041390 2.134040 0.150140 
#    z -0.072250 0.150140 2.151510 
# 
# From -- ./inp_files/185979.got.cif
#   From: 2010.05.17/outbox.cif.g08.bks.cpg/sg2_93_cif.got.tgz:185979.got - 2010.06.03 11:33:40.
