data_PCOD9042048
_publ_section_title
;
Structure prediction by ZEFSAII (Michael W. Deem and Ramdas Pophale) SiO2 
 PCOD9042048
Probable space group: P -1
;
_chemical_formula_sum "Si O2"
_cell_formula_units_Z 16
_cell_length_a 15.484738
_cell_length_b 14.974426
_cell_length_c 5.146486
_cell_angle_alpha 61.102647
_cell_angle_beta 65.141946
_cell_angle_gamma 36.706890
_cell_volume 623.233082
_symmetry_space_group_name_H-M "P -1"
_symmetry_group_IT_number 2
_symmetry_cell_setting 'triclinic'
loop_
_space_group_symop_operation_xyz
x,y,z
-x,-y,-z
loop_
_atom_site_type_symbol
_atom_site_label
_atom_site_fract_x
_atom_site_fract_y
_atom_site_fract_z
Si Si1 0.989576 0.192090 0.068866
Si Si2 0.134519 0.451551 0.781283
Si Si3 0.698728 0.733184 0.666931
Si Si4 0.757478 0.429474 0.379266
Si Si5 0.742394 0.924738 0.239391
Si Si6 0.145601 0.996511 0.660337
Si Si7 0.481513 0.752767 0.071364
Si Si8 0.648220 0.328674 0.961200
O O1 0.824372 0.352393 0.117899
O O2 0.034922 0.084563 0.922427
O O3 0.054531 0.087581 0.390805
O O4 0.090824 0.211310 0.876357
O O5 0.174358 0.395547 0.514953
O O6 0.132047 0.576272 0.636702
O O7 0.258889 0.314108 0.018673
O O8 0.000000 0.500000 0.000000
O O9 0.672817 0.872591 0.452321
O O10 0.575027 0.748353 0.761371
O O11 0.737947 0.342080 0.680558
O O12 0.600638 0.609367 0.312789
O O13 0.758785 0.983097 0.391314
O O14 0.646487 0.065625 0.957044
O O15 0.250852 0.814405 0.764569
O O16 0.403186 0.718945 0.098702
O O17 0.500000 0.500000 0.000000
#
# Coordination Sequence:
#
# PCOD9042048 Si02
#       8
#     2   2   2   2   2   2   2   2
#     4  10  23  44  69 100 142 174 234 275 350 398
#     4  11  25  42  66 102 141 175 227 281 343 413
#     4  11  23  41  67 100 133 184 226 281 339 405
#     4  11  25  42  72 101 138 184 230 284 348 407
#     4   9  22  42  71  97 139 182 225 281 345 403
#     4   9  24  42  69 100 137 177 225 282 335 411
#     4  10  23  46  63 105 136 181 234 283 335 413
#     4  11  24  43  70 102 140 184 228 287 346 404
#
# _framework density 25.672578999999999
#
# number of rings (size 3 to 8) (size 9 to 14) (size 15 to 20)
#    0.750    1.000    0.000    2.625    5.250    6.000 
#    2.250    3.125    0.000    0.000    0.000    0.000 
#    0.000    0.000    0.000    0.000    0.000    0.000 
#
# Total GULP energy -89465.087306 kJ/mol
# GULP energy per Si atom -5591.567957 kJ/mol
# Density = 2.561415 g / cm^3
# Si number density = 25.672579 Si / 1000 Ang^3
#
#
#
# Elastic Constant Matrix: (Units=GPa)
#
#
# Indices 1 2 3 4 5 6 
#
# 1 97.4556 30.6205 54.4468 -16.8992 -34.8945 1.1296
# 2 30.6205 97.5382 38.2518 -8.4478 -8.9306 2.5443
# 3 54.4468 38.2518 114.8135 -2.5388 -17.2109 12.8775
# 4 -16.8992 -8.4478 -2.5388 43.3830 3.3403 -8.8610
# 5 -34.8945 -8.9306 -17.2109 3.3403 58.1192 -9.4219
# 6 1.1296 2.5443 12.8775 -8.8610 -9.4219 40.5979
#
#
#
# Elastic Compliance Matrix: (Units=1/GPa)
#
#
# Indices 1 2 3 4 5 6 
#
# 1 0.020035 -0.001782 -0.007924 0.007454 0.009953 0.006004
# 2 -0.001782 0.012210 -0.003282 0.001635 -0.000155 0.000647
# 3 -0.007924 -0.003282 0.013790 -0.003843 -0.001801 -0.005205
# 4 0.007454 0.001635 -0.003843 0.027356 0.003254 0.007635
# 5 0.009953 -0.000155 -0.001801 0.003254 0.023486 0.006465
# 6 0.006004 0.000647 -0.005205 0.007635 0.006465 0.029242
#
#
# Mechanical properties :
#
#
# Convention : Reuss Voigt Hill
#
# Bulk Modulus (GPa) = 49.85536 61.82727 55.84131
# Shear Modulus (GPa) = 31.49010 40.85256 36.17133
#
# Velocity S-wave (km/s) = 3.50609 3.99343 3.75767
# Velocity P-wave (km/s) = 5.98766 6.73785 6.37380
#
# Compressibility (1/GPa) = 0.02005803
#
# Stress axis : x y z
#
# Youngs Moduli (GPa) = 49.91385 81.90258 72.51764
#
# Poissons Ratio (x) = 0.14593 0.57461
# Poissons Ratio (y) = 0.08893 0.23803
# Poissons Ratio (z) = 0.39550 0.26884
#
# Static dielectric constant tensor:
#      x y z
#    x 2.078600 -0.072540 0.011470 
#    y -0.072540 2.096430 -0.021380 
#    z 0.011470 -0.021380 2.019870 
# 
# From -- ./inp_files/97557.got.cif
#   From: 2010.05.17/outbox.cif.g08.bks.cpg/sg2_49_cif.got.tgz:97557.got - 2010.06.03 11:33:40.
