data_PCOD9042162
_publ_section_title
;
Structure prediction by ZEFSAII (Michael W. Deem and Ramdas Pophale) SiO2 
 PCOD9042162
Probable space group: P -1
;
_chemical_formula_sum "Si O2"
_cell_formula_units_Z 14
_cell_length_a 6.128130
_cell_length_b 19.839176
_cell_length_c 6.165599
_cell_angle_alpha 106.421155
_cell_angle_beta 100.640579
_cell_angle_gamma 116.475869
_cell_volume 599.999173
_symmetry_space_group_name_H-M "P -1"
_symmetry_group_IT_number 2
_symmetry_cell_setting 'triclinic'
loop_
_space_group_symop_operation_xyz
x,y,z
-x,-y,-z
loop_
_atom_site_type_symbol
_atom_site_label
_atom_site_fract_x
_atom_site_fract_y
_atom_site_fract_z
Si Si1 0.238285 0.394420 0.674117
Si Si2 0.763952 0.801057 0.888923
Si Si3 0.264306 0.554454 0.966201
Si Si4 0.210903 0.887738 0.685351
Si Si5 0.235895 0.043915 0.910345
Si Si6 0.930581 0.250690 0.811282
Si Si7 0.226511 0.685698 0.794574
O O1 0.505045 0.397576 0.771373
O O2 0.053756 0.336249 0.781950
O O3 0.060091 0.352516 0.394471
O O4 0.307458 0.488029 0.788898
O O5 0.785532 0.878829 0.090891
O O6 0.845282 0.753087 0.021595
O O7 0.461142 0.737844 0.716638
O O8 0.965248 0.835589 0.756275
O O9 0.245977 0.613541 0.844786
O O10 0.000000 0.500000 0.000000
O O11 0.192311 0.827837 0.438829
O O12 0.209453 0.969871 0.690282
O O13 0.481493 0.918578 0.889796
O O14 0.000000 0.000000 0.000000
O O15 0.739750 0.251127 0.953936
#
# Coordination Sequence:
#
# PCOD9042162 Si02
#       7
#     2   2   2   2   2   2   2
#     4  11  25  45  69 101 140 178 236 288 337 423
#     4  11  23  42  68 100 137 182 235 282 349 409
#     4  11  24  48  71 100 137 185 233 282 353 409
#     4  10  23  44  69  97 138 184 232 290 338 417
#     4   9  20  43  68  97 135 184 234 284 346 401
#     4  12  24  42  66 105 139 176 236 284 343 421
#     4  12  26  45  71 105 139 186 229 288 351 408
#
# _framework density 23.333365000000001
#
# number of rings (size 3 to 8) (size 9 to 14) (size 15 to 20)
#    0.000    1.143    2.857    3.000    0.000    6.857 
#    2.571   10.000    0.000    0.000    0.000    0.000 
#    0.000    0.000    0.000    0.000    0.000    0.000 
#
# Total GULP energy -78264.818930 kJ/mol
# GULP energy per Si atom -5590.344209 kJ/mol
# Density = 2.328026 g / cm^3
# Si number density = 23.333365 Si / 1000 Ang^3
#
#
#
# Elastic Constant Matrix: (Units=GPa)
#
#
# Indices 1 2 3 4 5 6 
#
# 1 90.2806 48.2986 41.2087 5.0759 5.7192 14.0551
# 2 48.2986 102.2613 35.0791 5.0881 3.0872 -9.2064
# 3 41.2087 35.0791 97.9278 22.9523 3.4916 1.1161
# 4 5.0759 5.0881 22.9523 27.0333 -6.0282 6.4185
# 5 5.7192 3.0872 3.4916 -6.0282 33.1130 11.7395
# 6 14.0551 -9.2064 1.1161 6.4185 11.7395 62.6799
#
#
#
# Elastic Compliance Matrix: (Units=1/GPa)
#
#
# Indices 1 2 3 4 5 6 
#
# 1 0.018413 -0.007360 -0.006216 0.004827 0.001096 -0.005799
# 2 -0.007360 0.014342 -0.001756 -0.001180 -0.001587 0.004206
# 3 -0.006216 -0.001756 0.017012 -0.014661 -0.004341 0.003148
# 4 0.004827 -0.001180 -0.014661 0.054020 0.013893 -0.009128
# 5 0.001096 -0.001587 -0.004341 0.013893 0.036195 -0.008603
# 6 -0.005799 0.004206 0.003148 -0.009128 -0.008603 0.020362
#
#
# Mechanical properties :
#
#
# Convention : Reuss Voigt Hill
#
# Bulk Modulus (GPa) = 52.34492 59.96028 56.15260
# Shear Modulus (GPa) = 25.33232 35.62413 30.47823
#
# Velocity S-wave (km/s) = 3.29852 3.91160 3.61807
# Velocity P-wave (km/s) = 6.08188 6.79366 6.44760
#
# Compressibility (1/GPa) = 0.01910405
#
# Stress axis : x y z
#
# Youngs Moduli (GPa) = 54.30864 69.72375 58.78329
#
# Poissons Ratio (x) = 0.51314 0.36543
# Poissons Ratio (y) = 0.39969 0.10320
# Poissons Ratio (z) = 0.33761 0.12240
#
# Static dielectric constant tensor:
#      x y z
#    x 1.899440 -0.016820 0.001880 
#    y -0.016820 1.870020 0.017130 
#    z 0.001880 0.017130 1.865200 
# 
# From -- ./inp_files/8124.got.cif
#   From: 2010.05.17/outbox.cif.g08.bks.cpg/sg2_5_cif.got.tgz:8124.got - 2010.06.03 11:33:40.
