data_PCOD9042823
_publ_section_title
;
Structure prediction by ZEFSAII (Michael W. Deem and Ramdas Pophale) SiO2 
 PCOD9042823
Probable space group: P -1
;
_chemical_formula_sum "Si O2"
_cell_formula_units_Z 16
_cell_length_a 8.758103
_cell_length_b 12.469832
_cell_length_c 17.187796
_cell_angle_alpha 29.880503
_cell_angle_beta 57.922707
_cell_angle_gamma 52.696401
_cell_volume 743.789369
_symmetry_space_group_name_H-M "P -1"
_symmetry_group_IT_number 2
_symmetry_cell_setting 'triclinic'
loop_
_space_group_symop_operation_xyz
x,y,z
-x,-y,-z
loop_
_atom_site_type_symbol
_atom_site_label
_atom_site_fract_x
_atom_site_fract_y
_atom_site_fract_z
Si Si1 0.900091 0.819627 0.117813
Si Si2 0.720518 0.884700 0.532117
Si Si3 0.548301 0.524808 0.590355
Si Si4 0.791071 0.315457 0.306336
Si Si5 0.133561 0.473683 0.154946
Si Si6 0.516060 0.122670 0.753065
Si Si7 0.112699 0.455600 0.417645
Si Si8 0.231312 0.402675 0.009611
O O1 0.670748 0.902891 0.137584
O O2 0.985729 0.710639 0.079954
O O3 0.982837 0.621925 0.283924
O O4 0.000000 0.000000 0.000000
O O5 0.743045 0.669201 0.717703
O O6 0.833058 0.792821 0.479625
O O7 0.500000 0.000000 0.500000
O O8 0.795889 0.065142 0.440377
O O9 0.336130 0.595499 0.638865
O O10 0.595133 0.285528 0.682643
O O11 0.548959 0.725712 0.403763
O O12 0.690034 0.508030 0.634647
O O13 0.997997 0.330934 0.256104
O O14 0.698829 0.478194 0.155196
O O15 0.255407 0.482517 0.040409
O O16 0.668820 0.871660 0.852379
O O17 0.000000 0.500000 0.500000
O O18 0.000000 0.500000 0.000000
#
# Coordination Sequence:
#
# PCOD9042823 Si02
#       8
#     2   2   2   2   2   2   2   2
#     4  11  25  43  67  98 137 179 217 274 347 400
#     4  11  23  38  66  94 128 173 221 270 334 397
#     4  11  23  42  73  99 131 173 230 281 324 396
#     4  11  22  42  67  95 127 179 224 271 337 389
#     4  10  23  45  63  94 135 170 226 279 328 399
#     4  11  24  44  71 101 131 179 229 275 336 399
#     4  11  24  41  62  99 139 168 226 274 334 397
#     4  10  25  43  64 100 134 169 225 274 338 398
#
# _framework density 21.511465999999999
#
# number of rings (size 3 to 8) (size 9 to 14) (size 15 to 20)
#    0.000    1.250    3.750    1.125    1.750    6.500 
#    0.000    1.250    0.000    0.000    0.000    0.000 
#    0.000    0.000    0.000    0.000    0.000    0.000 
#
# Total GULP energy -89350.728193 kJ/mol
# GULP energy per Si atom -5584.420512 kJ/mol
# Density = 2.146250 g / cm^3
# Si number density = 21.511466 Si / 1000 Ang^3
#
#
#
# Elastic Constant Matrix: (Units=GPa)
#
#
# Indices 1 2 3 4 5 6 
#
# 1 52.7590 6.5780 -1.5628 -15.0021 4.7726 -1.2390
# 2 6.5780 150.0201 55.7569 -17.3993 9.6210 14.0310
# 3 -1.5628 55.7569 59.7568 -8.2092 0.0978 -6.2913
# 4 -15.0021 -17.3993 -8.2092 35.0653 3.7815 4.3251
# 5 4.7726 9.6210 0.0978 3.7815 26.7961 -1.5689
# 6 -1.2390 14.0310 -6.2913 4.3251 -1.5689 31.0633
#
#
#
# Elastic Compliance Matrix: (Units=1/GPa)
#
#
# Indices 1 2 3 4 5 6 
#
# 1 0.022580 -0.000182 0.002207 0.010722 -0.005497 -0.000341
# 2 -0.000182 0.013298 -0.012676 0.005390 -0.006021 -0.009636
# 3 0.002207 -0.012676 0.029840 -0.000378 0.004814 0.012153
# 4 0.010722 0.005390 -0.000378 0.037693 -0.009621 -0.007818
# 5 -0.005497 -0.006021 0.004814 -0.009621 0.042206 0.006946
# 6 -0.000341 -0.009636 0.012153 -0.007818 0.006946 0.040432
#
#
# Mechanical properties :
#
#
# Convention : Reuss Voigt Hill
#
# Bulk Modulus (GPa) = 22.51567 42.67555 32.59561
# Shear Modulus (GPa) = 22.50659 32.03586 27.27122
#
# Velocity S-wave (km/s) = 3.23810 3.86326 3.56441
# Velocity P-wave (km/s) = 4.94671 6.30724 5.66795
#
# Compressibility (1/GPa) = 0.04441352
#
# Stress axis : x y z
#
# Youngs Moduli (GPa) = 44.28659 75.20182 33.51240
#
# Poissons Ratio (x) = 0.01371 -0.07395
# Poissons Ratio (y) = 0.00808 0.42481
# Poissons Ratio (z) = -0.09773 0.95328
#
# Static dielectric constant tensor:
#      x y z
#    x 1.845880 -0.052050 0.000530 
#    y -0.052050 1.874080 0.065670 
#    z 0.000530 0.065670 1.815280 
# 
# From -- ./inp_files/243961.got.cif
#   From: 2010.05.17/outbox.cif.g08.bks.cpg/sg2_122_cif.got.tgz:243961.got - 2010.06.03 11:33:40.
