data_PCOD9042247
_publ_section_title
;
Structure prediction by ZEFSAII (Michael W. Deem and Ramdas Pophale) SiO2 
 PCOD9042247
Probable space group: P -1
;
_chemical_formula_sum "Si O2"
_cell_formula_units_Z 16
_cell_length_a 5.812073
_cell_length_b 9.044046
_cell_length_c 17.639902
_cell_angle_alpha 97.760690
_cell_angle_beta 131.117754
_cell_angle_gamma 89.955862
_cell_volume 687.313700
_symmetry_space_group_name_H-M "P -1"
_symmetry_group_IT_number 2
_symmetry_cell_setting 'triclinic'
loop_
_space_group_symop_operation_xyz
x,y,z
-x,-y,-z
loop_
_atom_site_type_symbol
_atom_site_label
_atom_site_fract_x
_atom_site_fract_y
_atom_site_fract_z
Si Si1 0.329799 0.246389 0.828726
Si Si2 0.808768 0.037378 0.886812
Si Si3 0.502625 0.766495 0.707894
Si Si4 0.762153 0.202846 0.616038
Si Si5 0.099814 0.092386 0.452240
Si Si6 0.726413 0.413753 0.490117
Si Si7 0.794201 0.651926 0.042590
Si Si8 0.652799 0.524184 0.841455
O O1 0.481850 0.093663 0.842632
O O2 0.429138 0.322787 0.935259
O O3 0.457862 0.364381 0.800926
O O4 0.966096 0.238368 0.736636
O O5 0.002963 0.186267 0.907077
O O6 0.741826 0.902146 0.802573
O O7 0.000000 0.000000 0.000000
O O8 0.509635 0.696355 0.620808
O O9 0.528937 0.626564 0.758684
O O10 0.172025 0.827665 0.636798
O O11 0.399660 0.205065 0.545958
O O12 0.870403 0.307746 0.575292
O O13 0.809469 0.032030 0.594949
O O14 0.000000 0.000000 0.500000
O O15 0.500000 0.500000 0.500000
O O16 0.000000 0.500000 0.500000
O O17 0.008026 0.523445 0.100979
O O18 0.658332 0.615040 0.928038
#
# Coordination Sequence:
#
# PCOD9042247 Si02
#       8
#     2   2   2   2   2   2   2   2
#     4  11  24  42  73 103 143 198 246 306 384 445
#     4  11  24  46  70 108 148 186 250 311 369 456
#     4  12  24  48  76 102 148 198 245 319 389 451
#     4  11  25  43  70 104 147 190 257 314 380 462
#     4  11  24  45  71 104 146 194 249 316 384 457
#     4  12  28  49  74 113 155 203 260 323 384 470
#     4  10  23  44  70 102 146 193 247 303 371 447
#     4  10  23  45  68 102 147 194 245 306 377 454
#
# _framework density 23.279032999999998
#
# number of rings (size 3 to 8) (size 9 to 14) (size 15 to 20)
#    0.000    1.000    3.750    1.875    3.500    0.500 
#    2.250    0.000    0.000    0.000    0.000    0.000 
#    0.000    0.000    0.000    0.000    0.000    0.000 
#
# Total GULP energy -89356.651527 kJ/mol
# GULP energy per Si atom -5584.790720 kJ/mol
# Density = 2.322605 g / cm^3
# Si number density = 23.279033 Si / 1000 Ang^3
#
#
#
# Elastic Constant Matrix: (Units=GPa)
#
#
# Indices 1 2 3 4 5 6 
#
# 1 62.3891 34.6384 35.1187 4.6522 -3.5948 5.7390
# 2 34.6384 109.0065 62.5855 -12.3970 -2.4325 -6.7447
# 3 35.1187 62.5855 170.0585 -4.1062 -2.5897 -6.5700
# 4 4.6522 -12.3970 -4.1062 53.1879 -2.8906 -7.5666
# 5 -3.5948 -2.4325 -2.5897 -2.8906 34.0600 12.7089
# 6 5.7390 -6.7447 -6.5700 -7.5666 12.7089 35.7761
#
#
#
# Elastic Compliance Matrix: (Units=1/GPa)
#
#
# Indices 1 2 3 4 5 6 
#
# 1 0.022405 -0.006554 -0.002561 -0.004560 0.004211 -0.007760
# 2 -0.006554 0.014005 -0.003552 0.004115 -0.001235 0.004348
# 3 -0.002561 -0.003552 0.007766 0.000165 -0.000424 0.001353
# 4 -0.004560 0.004115 0.000165 0.021020 -0.000719 0.006239
# 5 0.004211 -0.001235 -0.000424 -0.000719 0.034639 -0.013443
# 6 -0.007760 0.004348 0.001353 0.006239 -0.013443 0.036360
#
#
# Mechanical properties :
#
#
# Convention : Reuss Voigt Hill
#
# Bulk Modulus (GPa) = 53.07101 67.34882 60.20991
# Shear Modulus (GPa) = 29.79541 38.54557 34.17049
#
# Velocity S-wave (km/s) = 3.58148 4.07357 3.83543
# Velocity P-wave (km/s) = 6.32060 7.14977 6.74793
#
# Compressibility (1/GPa) = 0.01884268
#
# Stress axis : x y z
#
# Youngs Moduli (GPa) = 44.63252 71.40063 128.76279
#
# Poissons Ratio (x) = 0.46798 0.32971
# Poissons Ratio (y) = 0.29253 0.45740
# Poissons Ratio (z) = 0.11428 0.25363
#
# Static dielectric constant tensor:
#      x y z
#    x 2.013260 0.048940 -0.054340 
#    y 0.048940 1.913230 0.038970 
#    z -0.054340 0.038970 2.001980 
# 
# From -- ./inp_files/548132.got.cif
#   From: 2010.05.17/outbox.cif.g08.bks.cpg/sg2_275_cif.got.tgz:548132.got - 2010.06.03 11:33:40.
