data_PCOD9042332
_publ_section_title
;
Structure prediction by ZEFSAII (Michael W. Deem and Ramdas Pophale) SiO2 
 PCOD9042332
Probable space group: P -1
;
_chemical_formula_sum "Si O2"
_cell_formula_units_Z 14
_cell_length_a 21.179175
_cell_length_b 13.758259
_cell_length_c 5.210299
_cell_angle_alpha 101.970989
_cell_angle_beta 103.279854
_cell_angle_gamma 21.154464
_cell_volume 533.149788
_symmetry_space_group_name_H-M "P -1"
_symmetry_group_IT_number 2
_symmetry_cell_setting 'triclinic'
loop_
_space_group_symop_operation_xyz
x,y,z
-x,-y,-z
loop_
_atom_site_type_symbol
_atom_site_label
_atom_site_fract_x
_atom_site_fract_y
_atom_site_fract_z
Si Si1 0.240926 0.959113 0.916513
Si Si2 0.420573 0.032069 0.142700
Si Si3 0.488157 0.253125 0.311823
Si Si4 0.913377 0.169172 0.259304
Si Si5 0.155816 0.199747 0.447517
Si Si6 0.252934 0.435006 0.431110
Si Si7 0.620391 0.448389 0.248947
O O1 0.245536 0.834069 0.804716
O O2 0.192043 0.083600 0.675113
O O3 0.442614 0.685031 0.055219
O O4 0.131692 0.161205 0.160744
O O5 0.570439 0.815992 0.375814
O O6 0.245044 0.336919 0.249868
O O7 0.414846 0.935625 0.942414
O O8 0.500000 0.000000 0.000000
O O9 0.312844 0.434041 0.280759
O O10 0.422060 0.458039 0.444635
O O11 0.658023 0.006461 0.528776
O O12 0.897374 0.308717 0.384217
O O13 0.715976 0.407570 0.197983
O O14 0.000000 0.000000 0.500000
O O15 0.000000 0.000000 0.000000
O O16 0.000000 0.500000 0.500000
#
# Coordination Sequence:
#
# PCOD9042332 Si02
#       7
#     2   2   2   2   2   2   2
#     4  10  23  44  70  98 126 175 223 278 320 386
#     4   9  18  35  61  87 116 159 218 263 301 367
#     4   9  20  35  65  88 120 168 210 266 321 376
#     4  11  26  41  64  96 138 175 210 269 337 391
#     4  11  24  42  64  97 134 164 211 270 343 398
#     4   9  20  38  59  88 124 165 223 259 308 387
#     4   9  22  43  69  98 129 170 233 272 322 393
#
# _framework density 26.259039000000001
#
# number of rings (size 3 to 8) (size 9 to 14) (size 15 to 20)
#    0.000    2.286    0.000    0.429   12.000    7.429 
#    2.571    2.857    0.000    0.000    0.000    0.000 
#    0.000    0.000    0.000    0.000    0.000    0.000 
#
# Total GULP energy -78122.027444 kJ/mol
# GULP energy per Si atom -5580.144817 kJ/mol
# Density = 2.619927 g / cm^3
# Si number density = 26.259039 Si / 1000 Ang^3
#
#
#
# Elastic Constant Matrix: (Units=GPa)
#
#
# Indices 1 2 3 4 5 6 
#
# 1 63.5509 35.6704 42.2534 7.0938 7.2574 24.1643
# 2 35.6704 143.9742 74.6228 50.7535 18.7410 42.8622
# 3 42.2534 74.6228 204.2330 60.3944 14.7524 41.5143
# 4 7.0938 50.7535 60.3944 70.4130 13.7961 21.1924
# 5 7.2574 18.7410 14.7524 13.7961 39.5606 2.0041
# 6 24.1643 42.8622 41.5143 21.1924 2.0041 51.0921
#
#
#
# Elastic Compliance Matrix: (Units=1/GPa)
#
#
# Indices 1 2 3 4 5 6 
#
# 1 0.022322 -0.003223 -0.003458 0.005827 -0.002939 -0.007345
# 2 -0.003223 0.012114 -0.000799 -0.005520 -0.002641 -0.005596
# 3 -0.003458 -0.000799 0.007833 -0.005227 0.000011 -0.001891
# 4 0.005827 -0.005520 -0.005227 0.024116 -0.004727 -0.003695
# 5 -0.002939 -0.002641 0.000011 -0.004727 0.028488 0.004440
# 6 -0.007345 -0.005596 -0.001891 -0.003695 0.004440 0.030636
#
#
# Mechanical properties :
#
#
# Convention : Reuss Voigt Hill
#
# Bulk Modulus (GPa) = 36.61785 79.65016 58.13401
# Shear Modulus (GPa) = 33.42896 49.49391 41.46144
#
# Velocity S-wave (km/s) = 3.57185 4.34618 3.97790
# Velocity P-wave (km/s) = 5.56650 7.45547 6.57913
#
# Compressibility (1/GPa) = 0.02730909
#
# Stress axis : x y z
#
# Youngs Moduli (GPa) = 44.79941 82.55010 127.66224
#
# Poissons Ratio (x) = 0.26603 0.44150
# Poissons Ratio (y) = 0.14437 0.10198
# Poissons Ratio (z) = 0.15493 0.06594
#
# Static dielectric constant tensor:
#      x y z
#    x 2.405430 0.020450 -0.228070 
#    y 0.020450 2.106050 0.042490 
#    z -0.228070 0.042490 2.322380 
# 
# From -- ./inp_files/124074.got.cif
#   From: 2010.05.17/outbox.cif.g08.bks.cpg/sg2_63_cif.got.tgz:124074.got - 2010.06.03 11:33:40.
