data_PCOD9042260
_publ_section_title
;
Structure prediction by ZEFSAII (Michael W. Deem and Ramdas Pophale) SiO2 
 PCOD9042260
Probable space group: P -1
;
_chemical_formula_sum "Si O2"
_cell_formula_units_Z 13
_cell_length_a 11.766019
_cell_length_b 10.858141
_cell_length_c 8.913821
_cell_angle_alpha 63.022972
_cell_angle_beta 142.528649
_cell_angle_gamma 133.140922
_cell_volume 495.244180
_symmetry_space_group_name_H-M "P -1"
_symmetry_group_IT_number 2
_symmetry_cell_setting 'triclinic'
loop_
_space_group_symop_operation_xyz
x,y,z
-x,-y,-z
loop_
_atom_site_type_symbol
_atom_site_label
_atom_site_fract_x
_atom_site_fract_y
_atom_site_fract_z
Si Si1 0.518170 0.668593 0.378666
Si Si2 0.996413 0.232419 0.873004
Si Si3 0.658581 0.920177 0.914484
Si Si4 0.086276 0.941143 0.428116
Si Si5 0.500000 0.000000 0.000000
Si Si6 0.500596 0.514102 0.170658
Si Si7 0.275249 0.636723 0.429638
O O1 0.500000 0.500000 0.500000
O O2 0.762656 0.852266 0.546401
O O3 0.472510 0.642216 0.166305
O O4 0.352014 0.678122 0.312793
O O5 0.951818 0.374527 0.774711
O O6 0.902313 0.141324 0.665968
O O7 0.843761 0.086632 0.916111
O O8 0.271780 0.330432 0.094526
O O9 0.816985 0.871348 0.188304
O O10 0.539528 0.961954 0.891006
O O11 0.464275 0.780337 0.668424
O O12 0.223704 0.922128 0.711909
O O13 0.728169 0.527916 0.449340
O O14 0.500000 0.500000 0.000000
#
# Coordination Sequence:
#
# PCOD9042260 Si02
#       7
#     2   2   2   2   1   2   2
#     4  10  23  44  70 103 144 190 239 293 354 435
#     4  12  24  45  79 105 137 194 243 293 361 427
#     4  12  23  43  73 109 141 184 235 304 356 423
#     4  12  24  44  75 105 144 188 242 300 364 428
#     4  12  28  40  66 118 148 178 236 314 360 414
#     4  11  27  46  69 102 149 193 237 296 362 427
#     4  11  22  44  73 103 142 185 244 296 353 429
#
# _framework density 26.249676999999998
#
# number of rings (size 3 to 8) (size 9 to 14) (size 15 to 20)
#    0.000    0.615    4.615    4.154    2.154    2.462 
#    0.000    3.077    0.000    0.000    0.000    0.000 
#    0.000    0.000    0.000    0.000    0.000    0.000 
#
# Total GULP energy -72406.709989 kJ/mol
# GULP energy per Si atom -5569.746922 kJ/mol
# Density = 2.618993 g / cm^3
# Si number density = 26.249677 Si / 1000 Ang^3
#
#
#
# Elastic Constant Matrix: (Units=GPa)
#
#
# Indices 1 2 3 4 5 6 
#
# 1 224.5629 21.4023 57.2631 12.4979 -28.2157 -33.6292
# 2 21.4023 44.1390 12.8566 14.6886 -3.9743 1.4254
# 3 57.2631 12.8566 100.8218 4.7332 -5.9700 -11.4912
# 4 12.4979 14.6886 4.7332 41.3307 -15.0639 -3.3690
# 5 -28.2157 -3.9743 -5.9700 -15.0639 54.6709 8.6315
# 6 -33.6292 1.4254 -11.4912 -3.3690 8.6315 37.9117
#
#
#
# Elastic Compliance Matrix: (Units=1/GPa)
#
#
# Indices 1 2 3 4 5 6 
#
# 1 0.006259 -0.002340 -0.002647 0.000397 0.002190 0.004375
# 2 -0.002340 0.027729 -0.002331 -0.009763 -0.001448 -0.004363
# 3 -0.002647 -0.002331 0.011849 0.000243 -0.000403 0.001444
# 4 0.000397 -0.009763 0.000243 0.030442 0.007632 0.001761
# 5 0.002190 -0.001448 -0.000403 0.007632 0.021754 -0.002400
# 6 0.004375 -0.004363 0.001444 0.001761 -0.002400 0.031562
#
#
# Mechanical properties :
#
#
# Convention : Reuss Voigt Hill
#
# Bulk Modulus (GPa) = 32.05167 61.39640 46.72403
# Shear Modulus (GPa) = 32.33475 45.31611 38.82543
#
# Velocity S-wave (km/s) = 3.51353 4.15944 3.85006
# Velocity P-wave (km/s) = 5.35693 6.81969 6.13208
#
# Compressibility (1/GPa) = 0.03119962
#
# Stress axis : x y z
#
# Youngs Moduli (GPa) = 159.76232 36.06317 84.39856
#
# Poissons Ratio (x) = 0.08439 0.22340
# Poissons Ratio (y) = 0.37387 0.19677
# Poissons Ratio (z) = 0.42289 0.08408
#
# Static dielectric constant tensor:
#      x y z
#    x 1.978000 0.032930 -0.042780 
#    y 0.032930 2.258380 -0.106870 
#    z -0.042780 -0.106870 2.075400 
# 
# From -- ./inp_files/253340.got.cif
#   From: 2010.05.17/outbox.cif.g08.bks.cpg/sg2_127_cif.got.tgz:253340.got - 2010.06.03 11:33:40.
