data_PCOD9042818
_publ_section_title
;
Structure prediction by ZEFSAII (Michael W. Deem and Ramdas Pophale) SiO2 
 PCOD9042818
Probable space group: P -1
;
_chemical_formula_sum "Si O2"
_cell_formula_units_Z 16
_cell_length_a 14.648132
_cell_length_b 11.453405
_cell_length_c 5.569535
_cell_angle_alpha 99.319176
_cell_angle_beta 84.849379
_cell_angle_gamma 47.689448
_cell_volume 656.094972
_symmetry_space_group_name_H-M "P -1"
_symmetry_group_IT_number 2
_symmetry_cell_setting 'triclinic'
loop_
_space_group_symop_operation_xyz
x,y,z
-x,-y,-z
loop_
_atom_site_type_symbol
_atom_site_label
_atom_site_fract_x
_atom_site_fract_y
_atom_site_fract_z
Si Si1 0.987935 0.877081 0.795123
Si Si2 0.598697 0.229263 0.385951
Si Si3 0.440770 0.159935 0.215346
Si Si4 0.137052 0.931254 0.607074
Si Si5 0.199207 0.331167 0.602530
Si Si6 0.761342 0.508449 0.948509
Si Si7 0.992241 0.359015 0.570529
Si Si8 0.602596 0.441960 0.153289
O O1 0.130530 0.800478 0.665796
O O2 0.969044 0.756020 0.701724
O O3 0.914743 0.008406 0.633865
O O4 0.939303 0.946046 0.099385
O O5 0.550559 0.144043 0.295465
O O6 0.726602 0.125349 0.475239
O O7 0.643376 0.277244 0.181099
O O8 0.474978 0.406977 0.586690
O O9 0.344334 0.186399 0.436681
O O10 0.349485 0.329901 0.135097
O O11 0.500000 0.000000 0.000000
O O12 0.206931 0.426879 0.827284
O O13 0.111943 0.450493 0.434438
O O14 0.111984 0.297578 0.675928
O O15 0.708384 0.431877 0.020128
O O16 0.897351 0.364443 0.747029
O O17 0.500000 0.500000 0.000000
#
# Coordination Sequence:
#
# PCOD9042818 Si02
#       8
#     2   2   2   2   2   2   2   2
#     4  10  24  44  64 100 131 182 223 285 338 415
#     4  11  25  42  66 101 132 181 222 285 353 414
#     4  11  25  43  64  99 138 177 223 276 348 424
#     4  10  25  42  66  97 142 171 230 274 352 416
#     4  10  23  45  62  96 129 170 232 283 340 408
#     4  11  23  42  69  97 130 174 231 287 341 413
#     4  10  24  40  70  92 128 175 232 283 341 400
#     4  11  24  41  69  98 133 168 232 287 342 413
#
# _framework density 24.386710999999998
#
# number of rings (size 3 to 8) (size 9 to 14) (size 15 to 20)
#    0.000    1.500    2.500    0.375    8.750    2.500 
#    0.000    0.000    0.000    0.000    0.000    0.000 
#    0.000    0.000    0.000    0.000    0.000    0.000 
#
# Total GULP energy -89250.009568 kJ/mol
# GULP energy per Si atom -5578.125598 kJ/mol
# Density = 2.433121 g / cm^3
# Si number density = 24.386711 Si / 1000 Ang^3
#
#
#
# Elastic Constant Matrix: (Units=GPa)
#
#
# Indices 1 2 3 4 5 6 
#
# 1 198.9200 5.0707 35.0823 2.1035 2.8661 -7.2079
# 2 5.0707 46.8683 -1.2950 -15.8214 -1.7459 -0.0956
# 3 35.0823 -1.2950 91.0697 11.4299 1.8394 -0.3051
# 4 2.1035 -15.8214 11.4299 30.5448 4.6034 13.3771
# 5 2.8661 -1.7459 1.8394 4.6034 43.1798 -1.3028
# 6 -7.2079 -0.0956 -0.3051 13.3771 -1.3028 22.9741
#
#
#
# Elastic Compliance Matrix: (Units=1/GPa)
#
#
# Indices 1 2 3 4 5 6 
#
# 1 0.005504 -0.001064 -0.001971 -0.001227 -0.000121 0.002404
# 2 -0.001064 0.028525 -0.001878 0.021334 -0.001355 -0.012739
# 3 -0.001971 -0.001878 0.012633 -0.007296 0.000410 0.003813
# 4 -0.001227 0.021334 -0.007296 0.064380 -0.006763 -0.038263
# 5 -0.000121 -0.001355 0.000410 -0.006763 0.023974 0.005259
# 6 0.002404 -0.012739 0.003813 -0.038263 0.005259 0.066857
#
#
# Mechanical properties :
#
#
# Convention : Reuss Voigt Hill
#
# Bulk Modulus (GPa) = 27.14601 46.06378 36.60490
# Shear Modulus (GPa) = 22.32375 39.20642 30.76509
#
# Velocity S-wave (km/s) = 3.02885 4.01396 3.55569
# Velocity P-wave (km/s) = 4.83607 6.35707 5.64801
#
# Compressibility (1/GPa) = 0.03683782
#
# Stress axis : x y z
#
# Youngs Moduli (GPa) = 181.69758 35.05712 79.15608
#
# Poissons Ratio (x) = 0.03729 0.15600
# Poissons Ratio (y) = 0.19327 0.14862
# Poissons Ratio (z) = 0.35808 0.06582
#
# Static dielectric constant tensor:
#      x y z
#    x 2.150790 -0.097120 -0.017240 
#    y -0.097120 2.222050 -0.094320 
#    z -0.017240 -0.094320 1.984880 
# 
# From -- ./inp_files/95319.got.cif
#   From: 2010.05.17/outbox.cif.g08.bks.cpg/sg2_48_cif.got.tgz:95319.got - 2010.06.03 11:33:40.
