data_PCOD9042120
_publ_section_title
;
Structure prediction by ZEFSAII (Michael W. Deem and Ramdas Pophale) SiO2 
 PCOD9042120
Probable space group: P -1
;
_chemical_formula_sum "Si O2"
_cell_formula_units_Z 10
_cell_length_a 5.229405
_cell_length_b 16.396967
_cell_length_c 9.580600
_cell_angle_alpha 153.046126
_cell_angle_beta 75.814889
_cell_angle_gamma 105.311659
_cell_volume 359.059157
_symmetry_space_group_name_H-M "P -1"
_symmetry_group_IT_number 2
_symmetry_cell_setting 'triclinic'
loop_
_space_group_symop_operation_xyz
x,y,z
-x,-y,-z
loop_
_atom_site_type_symbol
_atom_site_label
_atom_site_fract_x
_atom_site_fract_y
_atom_site_fract_z
Si Si1 0.243128 0.722469 0.528001
Si Si2 0.387065 0.050880 0.361702
Si Si3 0.003391 0.718320 0.828928
Si Si4 0.502600 0.571988 0.768302
Si Si5 0.125723 0.738273 0.258774
O O1 0.457446 0.887144 0.707027
O O2 0.022708 0.770840 0.742427
O O3 0.395664 0.572691 0.357772
O O4 0.130625 0.658143 0.293491
O O5 0.622239 0.108804 0.526253
O O6 0.145899 0.176554 0.599942
O O7 0.245630 0.848756 0.059703
O O8 0.000000 0.500000 0.500000
O O9 0.733727 0.737370 0.975220
O O10 0.500000 0.500000 0.500000
O O11 0.224573 0.616194 0.936466
#
# Coordination Sequence:
#
# PCOD9042120 Si02
#       5
#     2   2   2   2   2
#     4   9  23  45  72 104 142 197 245 293 356 443
#     4  10  24  44  76 105 144 191 249 295 360 435
#     4  10  23  44  69 109 148 188 239 305 369 428
#     4  11  25  44  71 109 149 193 240 305 369 430
#     4  10  25  45  76 104 145 192 249 295 360 436
#
# _framework density 27.850563999999999
#
# number of rings (size 3 to 8) (size 9 to 14) (size 15 to 20)
#    1.200    0.800    0.000    1.200    2.800   11.200 
#    0.000    0.000    0.000    0.000    0.000    0.000 
#    0.000    0.000    0.000    0.000    0.000    0.000 
#
# Total GULP energy -55919.074552 kJ/mol
# GULP energy per Si atom -5591.907455 kJ/mol
# Density = 2.778718 g / cm^3
# Si number density = 27.850564 Si / 1000 Ang^3
#
#
#
# Elastic Constant Matrix: (Units=GPa)
#
#
# Indices 1 2 3 4 5 6 
#
# 1 68.1016 4.1865 3.1434 19.5741 13.1462 7.4556
# 2 4.1865 179.3868 34.3207 7.1564 5.6941 26.8441
# 3 3.1434 34.3207 87.0070 -3.7835 22.5429 1.1922
# 4 19.5741 7.1564 -3.7835 47.3890 4.3505 16.7677
# 5 13.1462 5.6941 22.5429 4.3505 56.9361 4.7846
# 6 7.4556 26.8441 1.1922 16.7677 4.7846 60.3243
#
#
#
# Elastic Compliance Matrix: (Units=1/GPa)
#
#
# Indices 1 2 3 4 5 6 
#
# 1 0.017320 -0.000025 -0.000015 -0.006850 -0.003471 0.000051
# 2 -0.000025 0.006505 -0.002715 -0.000253 0.000687 -0.002822
# 3 -0.000015 -0.002715 0.014052 0.001728 -0.005495 0.000888
# 4 -0.006850 -0.000253 0.001728 0.026414 -0.000560 -0.006372
# 5 -0.003471 0.000687 -0.005495 -0.000560 0.020620 -0.001248
# 6 0.000051 -0.002822 0.000888 -0.006372 -0.001248 0.019679
#
#
# Mechanical properties :
#
#
# Convention : Reuss Voigt Hill
#
# Bulk Modulus (GPa) = 30.89732 46.42185 38.65958
# Shear Modulus (GPa) = 41.35996 52.45285 46.90640
#
# Velocity S-wave (km/s) = 3.85784 4.34449 4.10837
# Velocity P-wave (km/s) = 5.56434 6.47074 6.03458
#
# Compressibility (1/GPa) = 0.03236527
#
# Stress axis : x y z
#
# Youngs Moduli (GPa) = 57.73751 153.72128 71.16540
#
# Poissons Ratio (x) = 0.00391 0.00106
# Poissons Ratio (y) = 0.00147 0.19325
# Poissons Ratio (z) = 0.00086 0.41742
#
# Static dielectric constant tensor:
#      x y z
#    x 2.386420 -0.047440 -0.008400 
#    y -0.047440 2.131280 0.003270 
#    z -0.008400 0.003270 2.231180 
# 
# From -- ./inp_files/133816.got.cif
#   From: 2010.05.17/outbox.cif.g08.bks.cpg/sg2_67_cif.got.tgz:133816.got - 2010.06.03 11:33:40.
