data_PCOD9042751
_publ_section_title
;
Structure prediction by ZEFSAII (Michael W. Deem and Ramdas Pophale) SiO2 
 PCOD9042751
Probable space group: P -1
;
_chemical_formula_sum "Si O2"
_cell_formula_units_Z 16
_cell_length_a 9.792822
_cell_length_b 10.108996
_cell_length_c 9.932358
_cell_angle_alpha 131.440857
_cell_angle_beta 97.896656
_cell_angle_gamma 61.989674
_cell_volume 628.007483
_symmetry_space_group_name_H-M "P -1"
_symmetry_group_IT_number 2
_symmetry_cell_setting 'triclinic'
loop_
_space_group_symop_operation_xyz
x,y,z
-x,-y,-z
loop_
_atom_site_type_symbol
_atom_site_label
_atom_site_fract_x
_atom_site_fract_y
_atom_site_fract_z
Si Si1 0.125765 0.361319 0.307426
Si Si2 0.560249 0.423885 0.608441
Si Si3 0.080958 0.279875 0.649497
Si Si4 0.517278 0.915540 0.796550
Si Si5 0.896283 0.978142 0.789054
Si Si6 0.413074 0.247779 0.661604
Si Si7 0.178295 0.975360 0.700531
Si Si8 0.448403 0.715841 0.037487
O O1 0.308551 0.292749 0.317283
O O2 0.111852 0.159171 0.184484
O O3 0.000000 0.500000 0.500000
O O4 0.069586 0.498145 0.257898
O O5 0.500000 0.500000 0.500000
O O6 0.463355 0.318015 0.581612
O O7 0.745962 0.244736 0.513322
O O8 0.111026 0.126006 0.424403
O O9 0.229314 0.318428 0.698071
O O10 0.090697 0.160419 0.707115
O O11 0.341593 0.953329 0.764927
O O12 0.544735 0.074100 0.822082
O O13 0.525158 0.596165 0.829681
O O14 0.500000 0.000000 0.000000
O O15 0.057945 0.982331 0.800159
O O16 0.740100 0.200938 0.927962
O O17 0.465321 0.356214 0.855306
O O18 0.500000 0.000000 0.500000
#
# Coordination Sequence:
#
# PCOD9042751 Si02
#       8
#     2   2   2   2   2   2   2   2
#     4   9  23  43  72 104 146 196 247 304 381 456
#     4  12  28  44  74 117 154 200 262 323 383 460
#     4  11  22  43  77 110 154 199 257 311 392 462
#     4  11  24  49  74 106 151 202 251 316 382 462
#     4  10  23  44  75 111 155 197 252 328 382 452
#     4  12  22  45  81 111 153 212 257 311 394 471
#     4  12  25  46  78 112 149 202 260 314 393 455
#     4  11  23  48  75 113 157 203 259 321 387 465
#
# _framework density 25.477405000000001
#
# number of rings (size 3 to 8) (size 9 to 14) (size 15 to 20)
#    0.000    1.000    3.750    1.500    5.250    3.000 
#    2.250    3.750    0.000    0.000    0.000    0.000 
#    0.000    0.000    0.000    0.000    0.000    0.000 
#
# Total GULP energy -89514.028934 kJ/mol
# GULP energy per Si atom -5594.626808 kJ/mol
# Density = 2.541942 g / cm^3
# Si number density = 25.477405 Si / 1000 Ang^3
#
#
#
# Elastic Constant Matrix: (Units=GPa)
#
#
# Indices 1 2 3 4 5 6 
#
# 1 174.1649 57.4570 58.4904 4.8738 -3.5018 -11.6610
# 2 57.4570 179.9110 44.3428 -16.5709 2.3473 -10.8370
# 3 58.4904 44.3428 136.2367 -12.6307 14.7732 -19.5440
# 4 4.8738 -16.5709 -12.6307 31.6671 -4.8543 -5.5646
# 5 -3.5018 2.3473 14.7732 -4.8543 29.4541 -0.2589
# 6 -11.6610 -10.8370 -19.5440 -5.5646 -0.2589 41.0382
#
#
#
# Elastic Compliance Matrix: (Units=1/GPa)
#
#
# Indices 1 2 3 4 5 6 
#
# 1 0.007572 -0.001975 -0.003178 -0.003195 0.002122 -0.000303
# 2 -0.001975 0.006830 -0.000859 0.003818 0.000293 0.001353
# 3 -0.003178 -0.000859 0.010545 0.004282 -0.004853 0.004442
# 4 -0.003195 0.003818 0.004282 0.037576 0.003425 0.007257
# 5 0.002122 0.000293 -0.004853 0.003425 0.037171 -0.000932
# 6 -0.000303 0.001353 0.004442 0.007257 -0.000932 0.027732
#
#
# Mechanical properties :
#
#
# Convention : Reuss Voigt Hill
#
# Bulk Modulus (GPa) = 77.37990 90.09922 83.73956
# Shear Modulus (GPa) = 34.78068 42.43335 38.60702
#
# Velocity S-wave (km/s) = 3.69881 4.08552 3.89696
# Velocity P-wave (km/s) = 6.97707 7.59581 7.29301
#
# Compressibility (1/GPa) = 0.01292325
#
# Stress axis : x y z
#
# Youngs Moduli (GPa) = 132.05943 146.40995 94.83555
#
# Poissons Ratio (x) = 0.28920 0.30138
# Poissons Ratio (y) = 0.26085 0.08144
# Poissons Ratio (z) = 0.41968 0.12572
#
# Static dielectric constant tensor:
#      x y z
#    x 1.960230 0.129600 0.152830 
#    y 0.129600 4.090200 0.756380 
#    z 0.152830 0.756380 2.580770 
# 
# From -- ./inp_files/235222.got.cif
#   From: 2010.05.17/outbox.cif.g08.bks.cpg/sg2_118_cif.got.tgz:235222.got - 2010.06.03 11:33:40.
