data_PCOD9042102
_publ_section_title
;
Structure prediction by ZEFSAII (Michael W. Deem and Ramdas Pophale) SiO2 
 PCOD9042102
Probable space group: P -1
;
_chemical_formula_sum "Si O2"
_cell_formula_units_Z 16
_cell_length_a 8.734118
_cell_length_b 11.645874
_cell_length_c 15.037648
_cell_angle_alpha 74.228580
_cell_angle_beta 63.721624
_cell_angle_gamma 126.972948
_cell_volume 723.340403
_symmetry_space_group_name_H-M "P -1"
_symmetry_group_IT_number 2
_symmetry_cell_setting 'triclinic'
loop_
_space_group_symop_operation_xyz
x,y,z
-x,-y,-z
loop_
_atom_site_type_symbol
_atom_site_label
_atom_site_fract_x
_atom_site_fract_y
_atom_site_fract_z
Si Si1 0.188861 0.733411 0.399847
Si Si2 0.421893 0.456864 0.233223
Si Si3 0.443238 0.856616 0.852289
Si Si4 0.915860 0.935292 0.716419
Si Si5 0.834175 0.696698 0.920558
Si Si6 0.883737 0.398261 0.175585
Si Si7 0.208514 0.756131 0.589041
Si Si8 0.648838 0.612500 0.534788
O O1 0.316154 0.801589 0.451828
O O2 0.000000 0.500000 0.500000
O O3 0.932190 0.685173 0.458981
O O4 0.459612 0.947612 0.221799
O O5 0.266125 0.248326 0.272246
O O6 0.513008 0.496379 0.304670
O O7 0.135436 0.383172 0.305206
O O8 0.734304 0.665120 0.053121
O O9 0.697309 0.914181 0.815199
O O10 0.413560 0.787450 0.773066
O O11 0.117667 0.636349 0.030138
O O12 0.008744 0.902289 0.779761
O O13 0.210695 0.172987 0.549633
O O14 0.965293 0.642770 0.878735
O O15 0.500000 0.500000 0.000000
O O16 0.835914 0.372455 0.298641
O O17 0.500000 0.000000 0.500000
O O18 0.500000 0.500000 0.500000
#
# Coordination Sequence:
#
# PCOD9042102 Si02
#       8
#     2   2   2   2   2   2   2   2
#     4  10  23  41  56  77 118 159 195 232 284 346
#     4  10  19  36  59  86 115 146 190 235 287 347
#     4  10  20  34  56  86 118 146 184 238 290 329
#     4  10  18  36  59  85 116 142 186 238 291 337
#     4  10  17  33  58  86 112 148 178 231 293 341
#     4  11  19  34  57  90 121 140 187 240 289 345
#     4  11  20  35  59  90 114 148 193 240 289 343
#     4  10  23  38  54  81 117 154 191 237 281 333
#
# _framework density 22.119599000000001
#
# number of rings (size 3 to 8) (size 9 to 14) (size 15 to 20)
#    0.000    1.750    6.250    0.375    0.000    2.000 
#    2.250    1.250    0.000    1.500    0.000    0.000 
#    0.000    0.000    0.000    0.000    0.000    0.000 
#
# Total GULP energy -89085.988641 kJ/mol
# GULP energy per Si atom -5567.874290 kJ/mol
# Density = 2.206925 g / cm^3
# Si number density = 22.119599 Si / 1000 Ang^3
#
#
#
# Elastic Constant Matrix: (Units=GPa)
#
#
# Indices 1 2 3 4 5 6 
#
# 1 96.4121 22.4498 51.8703 0.2508 21.2936 5.5326
# 2 22.4498 71.0027 24.7035 -1.4293 25.6050 22.2748
# 3 51.8703 24.7035 95.4482 -0.7396 44.1246 0.9482
# 4 0.2508 -1.4293 -0.7396 30.9430 -0.4216 17.2607
# 5 21.2936 25.6050 44.1246 -0.4216 47.6878 1.1578
# 6 5.5326 22.2748 0.9482 17.2607 1.1578 35.0523
#
#
#
# Elastic Compliance Matrix: (Units=1/GPa)
#
#
# Indices 1 2 3 4 5 6 
#
# 1 0.015149 -0.002536 -0.008876 -0.000084 0.002824 -0.000591
# 2 -0.002536 0.027051 0.001030 0.014116 -0.013654 -0.023317
# 3 -0.008876 0.001030 0.023518 0.000043 -0.018367 0.000695
# 4 -0.000084 0.014116 0.000043 0.052069 -0.006287 -0.034391
# 5 0.002824 -0.013654 -0.018367 -0.006287 0.043727 0.010379
# 6 -0.000591 -0.023317 0.000695 -0.034391 0.010379 0.060013
#
#
# Mechanical properties :
#
#
# Convention : Reuss Voigt Hill
#
# Bulk Modulus (GPa) = 22.24532 51.21225 36.72878
# Shear Modulus (GPa) = 19.43437 33.65925 26.54681
#
# Velocity S-wave (km/s) = 2.96734 3.90512 3.46807
# Velocity P-wave (km/s) = 4.67106 6.59818 5.71642
#
# Compressibility (1/GPa) = 0.04495328
#
# Stress axis : x y z
#
# Youngs Moduli (GPa) = 66.01269 36.96781 42.51975
#
# Poissons Ratio (x) = 0.09375 0.37742
# Poissons Ratio (y) = 0.16741 -0.04381
# Poissons Ratio (z) = 0.58595 -0.03809
#
# Static dielectric constant tensor:
#      x y z
#    x 1.960390 -0.148470 0.065750 
#    y -0.148470 2.110610 -0.128250 
#    z 0.065750 -0.128250 2.013000 
# 
# From -- ./inp_files/500270.got.cif
#   From: 2010.05.17/outbox.cif.g08.bks.cpg/sg2_251_cif.got.tgz:500270.got - 2010.06.03 11:33:40.
