data_PCOD9042018
_publ_section_title
;
Structure prediction by ZEFSAII (Michael W. Deem and Ramdas Pophale) SiO2 
 PCOD9042018
Probable space group: P -1
;
_chemical_formula_sum "Si O2"
_cell_formula_units_Z 16
_cell_length_a 25.764781
_cell_length_b 21.258420
_cell_length_c 8.759830
_cell_angle_alpha 148.750401
_cell_angle_beta 39.799539
_cell_angle_gamma 161.653065
_cell_volume 755.589443
_symmetry_space_group_name_H-M "P -1"
_symmetry_group_IT_number 2
_symmetry_cell_setting 'triclinic'
loop_
_space_group_symop_operation_xyz
x,y,z
-x,-y,-z
loop_
_atom_site_type_symbol
_atom_site_label
_atom_site_fract_x
_atom_site_fract_y
_atom_site_fract_z
Si Si1 0.011887 0.797321 0.684660
Si Si2 0.066563 0.602841 0.236773
Si Si3 0.058898 0.808674 0.254775
Si Si4 0.574116 0.586191 0.347135
Si Si5 0.578362 0.049272 0.769058
Si Si6 0.262478 0.502527 0.800163
Si Si7 0.319654 0.541376 0.113083
Si Si8 0.648335 0.619810 0.824262
O O1 0.044831 0.718059 0.543135
O O2 0.977759 0.721497 0.426806
O O3 0.862790 0.668531 0.839926
O O4 0.174642 0.097909 0.931303
O O5 0.263863 0.828070 0.282219
O O6 0.000000 0.500000 0.000000
O O7 0.964064 0.367386 0.080196
O O8 0.940463 0.735256 0.259844
O O9 0.257895 0.109118 0.427618
O O10 0.500000 0.500000 0.500000
O O11 0.401989 0.393249 0.249622
O O12 0.629742 0.522023 0.065688
O O13 0.448524 0.806843 0.450159
O O14 0.649720 0.255362 0.938364
O O15 0.500000 0.000000 0.000000
O O16 0.331095 0.495272 0.503431
O O17 0.307741 0.527873 0.926324
O O18 0.500000 0.500000 0.000000
#
# Coordination Sequence:
#
# PCOD9042018 Si02
#       8
#     2   2   2   2   2   2   2   2
#     4  11  24  42  70  99 135 180 228 281 336 407
#     4   9  20  42  67 102 131 168 222 281 336 390
#     4  10  23  44  68  99 134 178 229 279 337 408
#     4  12  26  44  67 100 139 179 224 285 348 401
#     4  11  24  43  73 100 134 178 228 284 334 407
#     4  11  26  45  66  99 141 180 223 279 347 405
#     4  12  26  45  66  99 140 182 223 278 346 410
#     4  12  26  43  71 102 133 180 232 284 334 403
#
# _framework density 21.175521
#
# number of rings (size 3 to 8) (size 9 to 14) (size 15 to 20)
#    0.000    1.000    2.500    4.125    7.000    3.000 
#    2.250    1.250    0.000    0.000    0.000    0.000 
#    0.000    0.000    0.000    0.000    0.000    0.000 
#
# Total GULP energy -89186.277898 kJ/mol
# GULP energy per Si atom -5574.142369 kJ/mol
# Density = 2.112733 g / cm^3
# Si number density = 21.175521 Si / 1000 Ang^3
#
#
#
# Elastic Constant Matrix: (Units=GPa)
#
#
# Indices 1 2 3 4 5 6 
#
# 1 54.8447 -14.0192 -1.6224 2.6521 -0.6657 16.5822
# 2 -14.0192 70.0457 25.1078 -5.9183 -6.2740 7.2515
# 3 -1.6224 25.1078 89.8965 1.9263 -9.1836 9.8921
# 4 2.6521 -5.9183 1.9263 24.9739 11.2601 0.2437
# 5 -0.6657 -6.2740 -9.1836 11.2601 40.8807 -6.9100
# 6 16.5822 7.2515 9.8921 0.2437 -6.9100 34.0512
#
#
#
# Elastic Compliance Matrix: (Units=1/GPa)
#
#
# Indices 1 2 3 4 5 6 
#
# 1 0.023698 0.005913 0.000150 -0.000696 -0.000674 -0.012975
# 2 0.005913 0.017937 -0.004407 0.004106 -0.000200 -0.005489
# 3 0.000150 -0.004407 0.012964 -0.003277 0.002749 -0.002319
# 4 -0.000696 0.004106 -0.003277 0.047529 -0.013664 -0.002697
# 5 -0.000674 -0.000200 0.002749 -0.013664 0.029766 0.005711
# 6 -0.012975 -0.005489 -0.002319 -0.002697 0.005711 0.038707
#
#
# Mechanical properties :
#
#
# Convention : Reuss Voigt Hill
#
# Bulk Modulus (GPa) = 17.26819 25.96881 21.61850
# Shear Modulus (GPa) = 26.79634 33.66918 30.23276
#
# Velocity S-wave (km/s) = 3.56116 3.99181 3.78262
# Velocity P-wave (km/s) = 5.00816 5.79105 5.41378
#
# Compressibility (1/GPa) = 0.05790996
#
# Stress axis : x y z
#
# Youngs Moduli (GPa) = 42.19820 55.75052 77.13765
#
# Poissons Ratio (x) = -0.32967 -0.01156
# Poissons Ratio (y) = -0.24953 0.33998
# Poissons Ratio (z) = -0.00633 0.24572
#
# Static dielectric constant tensor:
#      x y z
#    x 1.761770 0.018520 -0.045200 
#    y 0.018520 1.798410 -0.079550 
#    z -0.045200 -0.079550 1.868660 
# 
# From -- ./inp_files/343539.got.cif
#   From: 2010.05.17/outbox.cif.g08.bks.cpg/sg2_172_cif.got.tgz:343539.got - 2010.06.03 11:33:40.
