data_PCOD9042249
_publ_section_title
;
Structure prediction by ZEFSAII (Michael W. Deem and Ramdas Pophale) SiO2 
 PCOD9042249
Probable space group: P -1
;
_chemical_formula_sum "Si O2"
_cell_formula_units_Z 15
_cell_length_a 5.198566
_cell_length_b 5.060544
_cell_length_c 21.564457
_cell_angle_alpha 99.662762
_cell_angle_beta 89.190262
_cell_angle_gamma 90.662383
_cell_volume 559.179821
_symmetry_space_group_name_H-M "P -1"
_symmetry_group_IT_number 2
_symmetry_cell_setting 'triclinic'
loop_
_space_group_symop_operation_xyz
x,y,z
-x,-y,-z
loop_
_atom_site_type_symbol
_atom_site_label
_atom_site_fract_x
_atom_site_fract_y
_atom_site_fract_z
Si Si1 0.008205 0.085660 0.095647
Si Si2 0.410384 0.653197 0.324620
Si Si3 0.102238 0.094603 0.711509
Si Si4 0.766939 0.772242 0.773777
Si Si5 0.716526 0.548674 0.553190
Si Si6 0.312578 0.532414 0.059526
Si Si7 0.380714 0.209268 0.836211
Si Si8 0.000000 0.000000 0.500000
O O1 0.178827 0.821091 0.074898
O O2 0.734612 0.964223 0.112315
O O3 0.089471 0.250825 0.163293
O O4 0.093933 0.299463 0.052034
O O5 0.132646 0.776326 0.318498
O O6 0.429371 0.448689 0.258709
O O7 0.415436 0.487168 0.381129
O O8 0.641846 0.867305 0.327830
O O9 0.162876 0.225083 0.784557
O O10 0.986204 0.809137 0.721703
O O11 0.600472 0.039600 0.794500
O O12 0.500000 0.500000 0.500000
O O13 0.907765 0.296655 0.536849
O O14 0.839713 0.838475 0.550118
O O15 0.499350 0.534344 0.119964
O O16 0.500000 0.500000 0.000000
#
# Coordination Sequence:
#
# PCOD9042249 Si02
#       8
#     2   2   2   2   2   2   2   1
#     4  10  24  40  70  96 143 186 241 300 369 430
#     4  12  28  42  79 108 149 189 253 302 372 448
#     4  11  25  46  67 110 146 188 241 304 371 440
#     4  10  24  44  68 106 140 192 235 304 369 445
#     4  11  27  51  78 110 154 203 254 318 379 452
#     4  11  24  44  67 101 140 191 248 301 363 441
#     4  10  23  44  70 102 148 189 240 303 375 439
#     4  10  26  52  78 106 150 204 260 304 390 440
#
# _framework density 26.825002999999999
#
# number of rings (size 3 to 8) (size 9 to 14) (size 15 to 20)
#    0.000    1.333    1.333    1.600   13.067    3.200 
#    2.400    0.000    0.000    0.000    0.000    0.000 
#    0.000    0.000    0.000    0.000    0.000    0.000 
#
# Total GULP energy -83718.158888 kJ/mol
# GULP energy per Si atom -5581.210593 kJ/mol
# Density = 2.676395 g / cm^3
# Si number density = 26.825003 Si / 1000 Ang^3
#
#
#
# Elastic Constant Matrix: (Units=GPa)
#
#
# Indices 1 2 3 4 5 6 
#
# 1 109.4379 37.2902 24.1631 -1.0609 -2.7876 28.3301
# 2 37.2902 181.0577 14.0677 -15.2050 -18.2644 31.5662
# 3 24.1631 14.0677 89.7886 -14.0463 4.4847 4.7329
# 4 -1.0609 -15.2050 -14.0463 36.8047 3.8123 -19.1093
# 5 -2.7876 -18.2644 4.4847 3.8123 37.0326 -7.2945
# 6 28.3301 31.5662 4.7329 -19.1093 -7.2945 49.6236
#
#
#
# Elastic Compliance Matrix: (Units=1/GPa)
#
#
# Indices 1 2 3 4 5 6 
#
# 1 0.012450 -0.001380 -0.003593 -0.005788 -0.000320 -0.008163
# 2 -0.001380 0.006652 -0.000529 0.000841 0.002626 -0.002683
# 3 -0.003593 -0.000529 0.013161 0.006684 -0.002145 0.003391
# 4 -0.005788 0.000841 0.006684 0.038809 -0.001505 0.016855
# 5 -0.000320 0.002626 -0.002145 -0.001505 0.029167 0.002425
# 6 -0.008163 -0.002683 0.003391 0.016855 0.002425 0.033042
#
#
# Mechanical properties :
#
#
# Convention : Reuss Voigt Hill
#
# Bulk Modulus (GPa) = 47.04072 59.03626 53.03849
# Shear Modulus (GPa) = 33.03121 45.00973 39.02047
#
# Velocity S-wave (km/s) = 3.51288 4.10066 3.81810
# Velocity P-wave (km/s) = 5.83335 6.66906 6.26515
#
# Compressibility (1/GPa) = 0.02125818
#
# Stress axis : x y z
#
# Youngs Moduli (GPa) = 80.32013 150.33691 75.98132
#
# Poissons Ratio (x) = 0.20750 0.27303
# Poissons Ratio (y) = 0.11086 0.04018
# Poissons Ratio (z) = 0.28862 0.07950
#
# Static dielectric constant tensor:
#      x y z
#    x 2.091620 0.011410 0.001400 
#    y 0.011410 2.070780 -0.069630 
#    z 0.001400 -0.069630 2.129000 
# 
# From -- ./inp_files/603369.got.cif
#   From: 2010.05.17/outbox.cif.g08.bks.cpg/sg2_302_cif.got.tgz:603369.got - 2010.06.03 11:33:40.
