data_PCOD9042991
_publ_section_title
;
Structure prediction by ZEFSAII (Michael W. Deem and Ramdas Pophale) SiO2 
 PCOD9042991
Probable space group: P -1
;
_chemical_formula_sum "Si O2"
_cell_formula_units_Z 12
_cell_length_a 11.856884
_cell_length_b 9.772537
_cell_length_c 11.525060
_cell_angle_alpha 77.140019
_cell_angle_beta 26.009686
_cell_angle_gamma 91.246699
_cell_volume 488.095417
_symmetry_space_group_name_H-M "P -1"
_symmetry_group_IT_number 2
_symmetry_cell_setting 'triclinic'
loop_
_space_group_symop_operation_xyz
x,y,z
-x,-y,-z
loop_
_atom_site_type_symbol
_atom_site_label
_atom_site_fract_x
_atom_site_fract_y
_atom_site_fract_z
Si Si1 0.853811 0.852140 0.256055
Si Si2 0.590479 0.665613 0.816947
Si Si3 0.403133 0.515766 0.762698
Si Si4 0.740841 0.191494 0.759828
Si Si5 0.271059 0.687906 0.508348
Si Si6 0.520010 0.030217 0.337229
O O1 0.585782 0.680715 0.485308
O O2 0.724315 0.917365 0.463331
O O3 0.000000 0.000000 0.000000
O O4 0.135029 0.834336 0.033642
O O5 0.509379 0.601837 0.773361
O O6 0.944459 0.782823 0.492954
O O7 0.500000 0.500000 0.000000
O O8 0.397675 0.738266 0.033771
O O9 0.531247 0.396315 0.653325
O O10 0.044692 0.419662 0.111727
O O11 0.789783 0.287581 0.574402
O O12 0.500000 0.000000 0.000000
O O13 0.438355 0.868517 0.374479
O O14 0.500000 0.000000 0.500000
#
# Coordination Sequence:
#
# PCOD9042991 Si02
#       6
#     2   2   2   2   2   2
#     4  10  23  45  67  95 126 169 222 269 338 386
#     4  12  23  44  64  96 143 171 220 266 325 392
#     4  12  25  41  70  98 132 180 215 271 330 388
#     4  12  26  41  64 101 137 177 218 269 317 387
#     4  12  24  43  65 101 134 170 227 265 324 399
#     4  10  23  45  68  93 129 169 217 278 330 386
#
# _framework density 24.585357999999999
#
# number of rings (size 3 to 8) (size 9 to 14) (size 15 to 20)
#    0.000    0.667    3.333    4.000    4.667    0.000 
#    0.000   20.000    0.000    0.000    0.000    0.000 
#    0.000    0.000    0.000    0.000    0.000    0.000 
#
# Total GULP energy -67221.047182 kJ/mol
# GULP energy per Si atom -5601.753932 kJ/mol
# Density = 2.452940 g / cm^3
# Si number density = 24.585358 Si / 1000 Ang^3
#
#
#
# Elastic Constant Matrix: (Units=GPa)
#
#
# Indices 1 2 3 4 5 6 
#
# 1 82.7958 4.3581 -2.9747 12.1613 8.3855 11.2720
# 2 4.3581 135.7807 33.9862 31.3857 3.4301 6.6269
# 3 -2.9747 33.9862 168.1887 21.7244 -13.7408 1.3284
# 4 12.1613 31.3857 21.7244 57.6457 -6.0888 -0.1904
# 5 8.3855 3.4301 -13.7408 -6.0888 28.8715 -11.6403
# 6 11.2720 6.6269 1.3284 -0.1904 -11.6403 33.0203
#
#
#
# Elastic Compliance Matrix: (Units=1/GPa)
#
#
# Indices 1 2 3 4 5 6 
#
# 1 0.014754 0.001271 -0.000039 -0.004754 -0.008861 -0.008441
# 2 0.001271 0.009242 -0.001537 -0.005253 -0.004915 -0.003990
# 3 -0.000039 -0.001537 0.006710 -0.001294 0.003652 0.001332
# 4 -0.004754 -0.005253 -0.001294 0.022618 0.008523 0.005864
# 5 -0.008861 -0.004915 0.003652 0.008523 0.050015 0.021545
# 6 -0.008441 -0.003990 0.001332 0.005864 0.021545 0.041542
#
#
# Mechanical properties :
#
#
# Convention : Reuss Voigt Hill
#
# Bulk Modulus (GPa) = 33.22572 50.83381 42.02977
# Shear Modulus (GPa) = 32.14963 47.33387 39.74175
#
# Velocity S-wave (km/s) = 3.62010 4.39257 4.02491
# Velocity P-wave (km/s) = 5.56932 6.81525 6.22354
#
# Compressibility (1/GPa) = 0.03009716
#
# Stress axis : x y z
#
# Youngs Moduli (GPa) = 67.77630 108.20470 149.02133
#
# Poissons Ratio (x) = -0.13751 0.00582
# Poissons Ratio (y) = -0.08613 0.22897
# Poissons Ratio (z) = 0.00265 0.16626
#
# Static dielectric constant tensor:
#      x y z
#    x 2.219780 -0.191370 0.070000 
#    y -0.191370 1.968770 -0.013490 
#    z 0.070000 -0.013490 2.097010 
# 
# From -- ./inp_files/37125.got.cif
#   From: 2010.05.17/outbox.cif.g08.bks.cpg/sg2_19_cif.got.tgz:37125.got - 2010.06.03 11:33:40.
