data_PCOD9042698
_publ_section_title
;
Structure prediction by ZEFSAII (Michael W. Deem and Ramdas Pophale) SiO2 
 PCOD9042698
Probable space group: P -1
;
_chemical_formula_sum "Si O2"
_cell_formula_units_Z 16
_cell_length_a 14.585818
_cell_length_b 15.026209
_cell_length_c 15.598212
_cell_angle_alpha 35.528941
_cell_angle_beta 160.550286
_cell_angle_gamma 143.226931
_cell_volume 651.437320
_symmetry_space_group_name_H-M "P -1"
_symmetry_group_IT_number 2
_symmetry_cell_setting 'triclinic'
loop_
_space_group_symop_operation_xyz
x,y,z
-x,-y,-z
loop_
_atom_site_type_symbol
_atom_site_label
_atom_site_fract_x
_atom_site_fract_y
_atom_site_fract_z
Si Si1 0.188442 0.314284 0.313649
Si Si2 0.244744 0.086542 0.991138
Si Si3 0.805859 0.599641 0.199646
Si Si4 0.753787 0.381611 0.563167
Si Si5 0.532431 0.693748 0.132380
Si Si6 0.994781 0.518038 0.125534
Si Si7 0.457355 0.830212 0.135457
Si Si8 0.611432 0.930850 0.564595
O O1 0.384774 0.202811 0.612969
O O2 0.176565 0.451514 0.265120
O O3 0.217633 0.393082 0.184273
O O4 0.872059 0.222440 0.103662
O O5 0.203619 0.239060 0.888596
O O6 0.356289 0.154733 0.944138
O O7 0.945561 0.973544 0.817644
O O8 0.475746 0.011205 0.303224
O O9 0.000000 0.500000 0.500000
O O10 0.956618 0.633817 0.215221
O O11 0.500000 0.500000 0.000000
O O12 0.684535 0.552564 0.350372
O O13 0.521645 0.249526 0.421257
O O14 0.816746 0.375917 0.724046
O O15 0.568655 0.730477 0.235988
O O16 0.200990 0.624495 0.886687
O O17 0.500000 0.000000 0.000000
O O18 0.500000 0.000000 0.500000
#
# Coordination Sequence:
#
# PCOD9042698 Si02
#       8
#     2   2   2   2   2   2   2   2
#     4  10  23  44  74 105 145 195 245 302 381 442
#     4  12  27  49  73 105 149 197 244 304 383 440
#     4  12  25  42  75 107 140 193 250 302 364 440
#     4  12  26  45  74 108 148 195 254 313 365 440
#     4  11  26  46  76 109 150 191 259 313 361 450
#     4  10  24  43  74 108 145 189 255 317 364 440
#     4  11  24  46  73 107 153 199 241 305 380 454
#     4  12  29  49  71 104 150 200 243 310 378 444
#
# _framework density 24.561074999999999
#
# number of rings (size 3 to 8) (size 9 to 14) (size 15 to 20)
#    0.000    0.750    3.750    2.250    5.250    2.500 
#    0.000    0.000    0.000    0.000    0.000    0.000 
#    0.000    0.000    0.000    0.000    0.000    0.000 
#
# Total GULP energy -89713.808208 kJ/mol
# GULP energy per Si atom -5607.113013 kJ/mol
# Density = 2.450517 g / cm^3
# Si number density = 24.561075 Si / 1000 Ang^3
#
#
#
# Elastic Constant Matrix: (Units=GPa)
#
#
# Indices 1 2 3 4 5 6 
#
# 1 86.4787 22.4527 24.3894 24.1644 -5.2378 23.8077
# 2 22.4527 120.2411 43.0334 18.6192 -3.0500 16.2255
# 3 24.3894 43.0334 147.0457 17.1012 -18.5441 12.2164
# 4 24.1644 18.6192 17.1012 44.1600 8.2482 2.2942
# 5 -5.2378 -3.0500 -18.5441 8.2482 39.6063 -0.8348
# 6 23.8077 16.2255 12.2164 2.2942 -0.8348 42.1263
#
#
#
# Elastic Compliance Matrix: (Units=1/GPa)
#
#
# Indices 1 2 3 4 5 6 
#
# 1 0.016997 -0.000300 -0.000454 -0.009243 0.003752 -0.008781
# 2 -0.000300 0.010056 -0.002261 -0.003100 0.000261 -0.002874
# 3 -0.000454 -0.002261 0.008503 -0.002840 0.004316 -0.001098
# 4 -0.009243 -0.003100 -0.002840 0.031560 -0.009251 0.005339
# 5 0.003752 0.000261 0.004316 -0.009251 0.029662 -0.002381
# 6 -0.008781 -0.002874 -0.001098 0.005339 -0.002381 0.029788
#
#
# Mechanical properties :
#
#
# Convention : Reuss Voigt Hill
#
# Bulk Modulus (GPa) = 33.86743 59.27961 46.57352
# Shear Modulus (GPa) = 35.10279 42.77118 38.93699
#
# Velocity S-wave (km/s) = 3.78458 4.17756 3.98592
# Velocity P-wave (km/s) = 5.73728 6.88893 6.33931
#
# Compressibility (1/GPa) = 0.02952689
#
# Stress axis : x y z
#
# Youngs Moduli (GPa) = 58.83456 99.44011 117.59986
#
# Poissons Ratio (x) = 0.02984 0.05335
# Poissons Ratio (y) = 0.01766 0.26590
# Poissons Ratio (z) = 0.02669 0.22484
#
# Static dielectric constant tensor:
#      x y z
#    x 2.007120 0.016190 -0.001800 
#    y 0.016190 1.954050 -0.032160 
#    z -0.001800 -0.032160 1.932450 
# 
# From -- ./inp_files/534308.got.cif
#   From: 2010.05.17/outbox.cif.g08.bks.cpg/sg2_268_cif.got.tgz:534308.got - 2010.06.03 11:33:40.
