data_PCOD9042754
_publ_section_title
;
Structure prediction by ZEFSAII (Michael W. Deem and Ramdas Pophale) SiO2 
 PCOD9042754
Probable space group: P -1
;
_chemical_formula_sum "Si O2"
_cell_formula_units_Z 14
_cell_length_a 12.620459
_cell_length_b 8.125523
_cell_length_c 14.108113
_cell_angle_alpha 58.507105
_cell_angle_beta 29.554676
_cell_angle_gamma 51.348655
_cell_volume 556.485606
_symmetry_space_group_name_H-M "P -1"
_symmetry_group_IT_number 2
_symmetry_cell_setting 'triclinic'
loop_
_space_group_symop_operation_xyz
x,y,z
-x,-y,-z
loop_
_atom_site_type_symbol
_atom_site_label
_atom_site_fract_x
_atom_site_fract_y
_atom_site_fract_z
Si Si1 0.993845 0.723647 0.642287
Si Si2 0.611211 0.148342 0.779130
Si Si3 0.184821 0.257032 0.935247
Si Si4 0.990451 0.071935 0.878124
Si Si5 0.647461 0.606259 0.411076
Si Si6 0.498366 0.548191 0.877461
Si Si7 0.500000 0.000000 0.500000
Si Si8 0.000000 0.500000 0.500000
O O1 0.187205 0.824213 0.451108
O O2 0.106091 0.560596 0.689839
O O3 0.979540 0.611631 0.588811
O O4 0.742023 0.917130 0.792493
O O5 0.387244 0.198100 0.872599
O O6 0.552577 0.333884 0.844060
O O7 0.313143 0.226267 0.741264
O O8 0.000000 0.500000 0.000000
O O9 0.053696 0.103428 0.095974
O O10 0.220459 0.102381 0.660328
O O11 0.757944 0.282527 0.993559
O O12 0.000000 0.000000 0.000000
O O13 0.500000 0.500000 0.500000
O O14 0.500253 0.757948 0.563960
O O15 0.712498 0.616585 0.674223
O O16 0.500000 0.500000 0.000000
#
# Coordination Sequence:
#
# PCOD9042754 Si02
#       8
#     2   2   2   2   2   2   1   1
#     4  10  23  44  75 114 149 207 257 315 398 468
#     4  10  23  45  73 107 157 197 253 323 391 467
#     4  12  25  46  74 109 154 201 257 328 392 472
#     4  12  27  48  74 111 152 201 258 324 395 463
#     4  12  26  47  78 116 155 202 268 322 399 472
#     4  11  27  47  74 110 148 202 261 315 392 469
#     4  12  30  48  78 112 158 202 264 330 392 470
#     4  10  24  44  76 104 156 194 250 316 376 468
#
# _framework density 25.157883999999999
#
# number of rings (size 3 to 8) (size 9 to 14) (size 15 to 20)
#    0.000    0.857    2.857    2.571    6.000    3.429 
#    0.000    2.143    0.000    0.000    0.000    0.000 
#    0.000    0.000    0.000    0.000    0.000    0.000 
#
# Total GULP energy -77945.368719 kJ/mol
# GULP energy per Si atom -5567.526337 kJ/mol
# Density = 2.510062 g / cm^3
# Si number density = 25.157884 Si / 1000 Ang^3
#
#
#
# Elastic Constant Matrix: (Units=GPa)
#
#
# Indices 1 2 3 4 5 6 
#
# 1 170.9958 68.6083 41.6945 12.9644 -48.2233 -14.5689
# 2 68.6083 137.8994 45.1990 44.9838 -22.0853 -15.6718
# 3 41.6945 45.1990 130.3542 23.2874 -55.4632 -8.2378
# 4 12.9644 44.9838 23.2874 56.3732 -9.5888 -15.0640
# 5 -48.2233 -22.0853 -55.4632 -9.5888 46.7283 -6.5420
# 6 -14.5689 -15.6718 -8.2378 -15.0640 -6.5420 48.3208
#
#
#
# Elastic Compliance Matrix: (Units=1/GPa)
#
#
# Indices 1 2 3 4 5 6 
#
# 1 0.012057 -0.005509 0.005363 0.004205 0.017978 0.006508
# 2 -0.005509 0.013020 -0.003931 -0.009047 -0.006303 -0.001782
# 3 0.005363 -0.003931 0.019750 0.000633 0.028333 0.007743
# 4 0.004205 -0.009047 0.000633 0.027117 0.007486 0.007908
# 5 0.017978 -0.006303 0.028333 0.007486 0.075039 0.020699
# 6 0.006508 -0.001782 0.007743 0.007908 0.020699 0.028667
#
#
# Mechanical properties :
#
#
# Convention : Reuss Voigt Hill
#
# Bulk Modulus (GPa) = 27.26702 83.36145 55.31423
# Shear Modulus (GPa) = 25.50673 49.20098 37.35385
#
# Velocity S-wave (km/s) = 3.18758 4.42711 3.85746
# Velocity P-wave (km/s) = 4.94059 7.70323 6.47106
#
# Compressibility (1/GPa) = 0.03667434
#
# Stress axis : x y z
#
# Youngs Moduli (GPa) = 82.94249 76.80354 50.63194
#
# Poissons Ratio (x) = 0.42312 -0.27156
# Poissons Ratio (y) = 0.45694 0.19902
# Poissons Ratio (z) = -0.44486 0.30189
#
# Static dielectric constant tensor:
#      x y z
#    x 2.050510 0.083140 -0.013490 
#    y 0.083140 2.029190 -0.036830 
#    z -0.013490 -0.036830 2.270880 
# 
# From -- ./inp_files/515163.got.cif
#   From: 2010.05.17/outbox.cif.g08.bks.cpg/sg2_258_cif.got.tgz:515163.got - 2010.06.03 11:33:40.
