data_PCOD9042439
_publ_section_title
;
Structure prediction by ZEFSAII (Michael W. Deem and Ramdas Pophale) SiO2 
 PCOD9042439
Probable space group: P -1
;
_chemical_formula_sum "Si O2"
_cell_formula_units_Z 16
_cell_length_a 9.322413
_cell_length_b 11.851037
_cell_length_c 9.424100
_cell_angle_alpha 123.355856
_cell_angle_beta 130.383011
_cell_angle_gamma 55.065801
_cell_volume 622.958065
_symmetry_space_group_name_H-M "P -1"
_symmetry_group_IT_number 2
_symmetry_cell_setting 'triclinic'
loop_
_space_group_symop_operation_xyz
x,y,z
-x,-y,-z
loop_
_atom_site_type_symbol
_atom_site_label
_atom_site_fract_x
_atom_site_fract_y
_atom_site_fract_z
Si Si1 0.400323 0.800495 0.478446
Si Si2 0.322023 0.430765 0.325956
Si Si3 0.391081 0.528825 0.177233
Si Si4 0.640162 0.952340 0.196024
Si Si5 0.223836 0.491307 0.745774
Si Si6 0.673781 0.080228 0.799633
Si Si7 0.955100 0.706291 0.361909
Si Si8 0.032601 0.793191 0.758594
O O1 0.606148 0.710882 0.631148
O O2 0.294371 0.683329 0.296332
O O3 0.408969 0.860299 0.367870
O O4 0.293291 0.920225 0.606909
O O5 0.342361 0.408296 0.153963
O O6 0.377363 0.487131 0.713689
O O7 0.114482 0.553049 0.312877
O O8 0.500000 0.500000 0.500000
O O9 0.309313 0.531338 0.972125
O O10 0.493812 0.932923 0.212077
O O11 0.835993 0.810191 0.232641
O O12 0.500000 0.000000 0.000000
O O13 0.197071 0.343799 0.671227
O O14 0.036731 0.633944 0.693988
O O15 0.785750 0.175407 0.020849
O O16 0.838449 0.924112 0.769253
O O17 0.050452 0.786122 0.593702
#
# Coordination Sequence:
#
# PCOD9042439 Si02
#       8
#     2   2   2   2   2   2   2   2
#     4  11  22  49  75 102 142 203 239 302 371 439
#     4  10  25  46  75 106 153 191 246 302 386 429
#     4  10  23  44  71 108 142 202 236 312 368 442
#     4  12  30  48  73 110 155 193 245 312 376 439
#     4  11  24  40  77 107 147 184 264 298 365 438
#     4  11  25  46  75 104 148 196 255 299 373 449
#     4  12  27  47  75 114 147 195 254 311 364 452
#     4  11  24  44  73 110 138 196 253 307 361 442
#
# _framework density 25.683910999999998
#
# number of rings (size 3 to 8) (size 9 to 14) (size 15 to 20)
#    0.000    1.000    2.500    3.000    7.000    3.500 
#    2.250    3.125    0.000    0.000    0.000    0.000 
#    0.000    0.000    0.000    0.000    0.000    0.000 
#
# Total GULP energy -89393.519721 kJ/mol
# GULP energy per Si atom -5587.094983 kJ/mol
# Density = 2.562545 g / cm^3
# Si number density = 25.683911 Si / 1000 Ang^3
#
#
#
# Elastic Constant Matrix: (Units=GPa)
#
#
# Indices 1 2 3 4 5 6 
#
# 1 80.7530 36.5149 15.4417 -18.8975 -13.9447 -0.8209
# 2 36.5149 152.1822 63.2432 -33.9208 -12.5097 -7.4409
# 3 15.4417 63.2432 111.3205 -20.5866 -14.8379 19.1837
# 4 -18.8975 -33.9208 -20.5866 52.3725 10.5107 -0.4196
# 5 -13.9447 -12.5097 -14.8379 10.5107 25.1081 -9.5466
# 6 -0.8209 -7.4409 19.1837 -0.4196 -9.5466 27.6419
#
#
#
# Elastic Compliance Matrix: (Units=1/GPa)
#
#
# Indices 1 2 3 4 5 6 
#
# 1 0.015337 -0.002604 0.000450 0.002608 0.007135 0.001946
# 2 -0.002604 0.011249 -0.006548 0.003441 0.001978 0.008230
# 3 0.000450 -0.006548 0.015093 0.001622 0.000678 -0.011965
# 4 0.002608 0.003441 0.001622 0.024257 -0.006837 -0.002115
# 5 0.007135 0.001978 0.000678 -0.006837 0.055375 0.019294
# 6 0.001946 0.008230 -0.011965 -0.002115 0.019294 0.053386
#
#
# Mechanical properties :
#
#
# Convention : Reuss Voigt Hill
#
# Bulk Modulus (GPa) = 41.19467 63.85059 52.52263
# Shear Modulus (GPa) = 24.97604 36.29489 30.63546
#
# Velocity S-wave (km/s) = 3.12178 3.76325 3.45742
# Velocity P-wave (km/s) = 5.39147 6.61792 6.03592
#
# Compressibility (1/GPa) = 0.02427498
#
# Stress axis : x y z
#
# Youngs Moduli (GPa) = 65.20165 88.89612 66.25610
#
# Poissons Ratio (x) = 0.23148 -0.02980
# Poissons Ratio (y) = 0.16978 0.43384
# Poissons Ratio (z) = -0.02933 0.58208
#
# Static dielectric constant tensor:
#      x y z
#    x 2.146730 0.060220 -0.005370 
#    y 0.060220 2.118120 -0.034210 
#    z -0.005370 -0.034210 2.174850 
# 
# From -- ./inp_files/263170.got.cif
#   From: 2010.05.17/outbox.cif.g08.bks.cpg/sg2_132_cif.got.tgz:263170.got - 2010.06.03 11:33:40.
