data_PCOD9042922
_publ_section_title
;
Structure prediction by ZEFSAII (Michael W. Deem and Ramdas Pophale) SiO2 
 PCOD9042922
Probable space group: P -1
;
_chemical_formula_sum "Si O2"
_cell_formula_units_Z 14
_cell_length_a 18.095878
_cell_length_b 8.902769
_cell_length_c 20.755030
_cell_angle_alpha 141.752305
_cell_angle_beta 160.678062
_cell_angle_gamma 49.440652
_cell_volume 613.811920
_symmetry_space_group_name_H-M "P -1"
_symmetry_group_IT_number 2
_symmetry_cell_setting 'triclinic'
loop_
_space_group_symop_operation_xyz
x,y,z
-x,-y,-z
loop_
_atom_site_type_symbol
_atom_site_label
_atom_site_fract_x
_atom_site_fract_y
_atom_site_fract_z
Si Si1 0.152612 0.992595 0.763331
Si Si2 0.192953 0.421400 0.168997
Si Si3 0.299451 0.947916 0.646926
Si Si4 0.153601 0.907115 0.884427
Si Si5 0.068301 0.362020 0.196706
Si Si6 0.297619 0.668389 0.680918
Si Si7 0.625702 0.937703 0.643887
O O1 0.904011 0.954565 0.508940
O O2 0.109463 0.982930 0.800865
O O3 0.217767 0.755255 0.711219
O O4 0.410660 0.266555 0.054773
O O5 0.131008 0.394075 0.183475
O O6 0.444718 0.687728 0.452915
O O7 0.000000 0.500000 0.000000
O O8 0.193467 0.156906 0.047811
O O9 0.194036 0.651255 0.428688
O O10 0.296102 0.881213 0.697343
O O11 0.584346 0.114496 0.913024
O O12 0.911330 0.630434 0.608905
O O13 0.176220 0.169780 0.252070
O O14 0.769889 0.199035 0.895131
O O15 0.500000 0.000000 0.500000
#
# Coordination Sequence:
#
# PCOD9042922 Si02
#       7
#     2   2   2   2   2   2   2
#     4  10  23  45  66  96 127 165 211 270 325 380
#     4  12  24  41  62  92 131 172 210 259 314 374
#     4  11  24  41  67  95 130 165 214 265 319 384
#     4  11  25  41  65  94 131 167 215 265 316 384
#     4  11  25  40  63  91 130 172 207 262 314 372
#     4  10  24  43  69  94 127 165 214 268 323 384
#     4  11  24  41  63  87 126 170 217 258 309 368
#
# _framework density 22.808288000000001
#
# number of rings (size 3 to 8) (size 9 to 14) (size 15 to 20)
#    0.000    1.143    2.857    2.143    4.000    2.857 
#    0.000    0.000    0.000    0.000    0.000    0.000 
#    0.000    0.000    0.000    0.000    0.000    0.000 
#
# Total GULP energy -78250.591092 kJ/mol
# GULP energy per Si atom -5589.327935 kJ/mol
# Density = 2.275638 g / cm^3
# Si number density = 22.808288 Si / 1000 Ang^3
#
#
#
# Elastic Constant Matrix: (Units=GPa)
#
#
# Indices 1 2 3 4 5 6 
#
# 1 96.3304 11.1190 7.2185 8.0972 -5.8297 6.1024
# 2 11.1190 56.9148 24.0657 -16.9720 3.3007 8.4211
# 3 7.2185 24.0657 150.7935 3.7812 15.3142 5.6751
# 4 8.0972 -16.9720 3.7812 45.9033 6.7197 -1.4508
# 5 -5.8297 3.3007 15.3142 6.7197 39.0845 2.3247
# 6 6.1024 8.4211 5.6751 -1.4508 2.3247 20.4142
#
#
#
# Elastic Compliance Matrix: (Units=1/GPa)
#
#
# Indices 1 2 3 4 5 6 
#
# 1 0.011380 -0.002990 -0.000159 -0.003594 0.002791 -0.002697
# 2 -0.002990 0.023629 -0.003368 0.009668 -0.002370 -0.006960
# 3 -0.000159 -0.003368 0.007474 -0.001499 -0.002382 -0.000476
# 4 -0.003594 0.009668 -0.001499 0.026907 -0.005393 0.000029
# 5 0.002791 -0.002370 -0.002382 -0.005393 0.028229 -0.002792
# 6 -0.002697 -0.006960 -0.000476 0.000029 -0.002792 0.053115
#
#
# Mechanical properties :
#
#
# Convention : Reuss Voigt Hill
#
# Bulk Modulus (GPa) = 33.95792 43.20500 38.58146
# Shear Modulus (GPa) = 28.80451 38.52276 33.66364
#
# Velocity S-wave (km/s) = 3.55758 4.11418 3.84596
# Velocity P-wave (km/s) = 5.63879 6.44612 6.05592
#
# Compressibility (1/GPa) = 0.02944821
#
# Stress axis : x y z
#
# Youngs Moduli (GPa) = 87.87485 42.32167 133.79592
#
# Poissons Ratio (x) = 0.12655 0.02132
# Poissons Ratio (y) = 0.26276 0.45057
# Poissons Ratio (z) = 0.01400 0.14252
#
# Static dielectric constant tensor:
#      x y z
#    x 1.846810 -0.004460 0.049140 
#    y -0.004460 1.834810 0.025430 
#    z 0.049140 0.025430 1.845770 
# 
# From -- ./inp_files/529428.got.cif
#   From: 2010.05.17/outbox.cif.g08.bks.cpg/sg2_265_cif.got.tgz:529428.got - 2010.06.03 11:33:40.
