data_PCOD9042084
_publ_section_title
;
Structure prediction by ZEFSAII (Michael W. Deem and Ramdas Pophale) SiO2 
 PCOD9042084
Probable space group: P -1
;
_chemical_formula_sum "Si O2"
_cell_formula_units_Z 15
_cell_length_a 9.317033
_cell_length_b 8.646845
_cell_length_c 11.626524
_cell_angle_alpha 119.697560
_cell_angle_beta 70.463972
_cell_angle_gamma 77.565026
_cell_volume 678.692149
_symmetry_space_group_name_H-M "P -1"
_symmetry_group_IT_number 2
_symmetry_cell_setting 'triclinic'
loop_
_space_group_symop_operation_xyz
x,y,z
-x,-y,-z
loop_
_atom_site_type_symbol
_atom_site_label
_atom_site_fract_x
_atom_site_fract_y
_atom_site_fract_z
Si Si1 0.360853 0.909976 0.781167
Si Si2 0.223310 0.601706 0.727259
Si Si3 0.802180 0.096040 0.844616
Si Si4 0.500000 0.000000 0.000000
Si Si5 0.087571 0.640991 0.534914
Si Si6 0.981850 0.700392 0.017910
Si Si7 0.522390 0.192881 0.540715
Si Si8 0.188713 0.808895 0.375892
O O1 0.267724 0.782387 0.801805
O O2 0.448696 0.804698 0.601247
O O3 0.213906 0.130071 0.866534
O O4 0.484646 0.929514 0.848234
O O5 0.218711 0.571715 0.580911
O O6 0.358632 0.405304 0.685896
O O7 0.040492 0.657008 0.853360
O O8 0.899839 0.207574 0.923572
O O9 0.745225 0.211751 0.779277
O O10 0.649988 0.072465 0.941840
O O11 0.949294 0.869049 0.690159
O O12 0.166495 0.635361 0.385450
O O13 0.000000 0.500000 0.500000
O O14 0.000000 0.500000 0.000000
O O15 0.683811 0.161280 0.561320
O O16 0.500000 0.000000 0.500000
O O17 0.000000 0.000000 0.500000
#
# Coordination Sequence:
#
# PCOD9042084 Si02
#       8
#     2   2   2   1   2   2   2   2
#     4  12  24  49  72 102 142 193 242 300 364 435
#     4  12  25  45  72 105 144 188 247 301 367 440
#     4  11  24  48  70 106 146 192 241 304 366 441
#     4  12  26  42  76 100 146 190 242 302 362 442
#     4  11  25  41  76 108 139 186 251 304 368 432
#     4  12  26  49  75 101 144 201 245 296 369 450
#     4  12  26  44  72 104 144 186 236 301 370 425
#     4  10  23  44  69 103 142 182 237 302 357 428
#
# _framework density 22.101331999999999
#
# number of rings (size 3 to 8) (size 9 to 14) (size 15 to 20)
#    0.000    0.533    4.000    4.000    7.467    0.000 
#    2.400    1.333    0.000    0.000    0.000    0.000 
#    0.000    0.000    0.000    0.000    0.000    0.000 
#
# Total GULP energy -83568.934288 kJ/mol
# GULP energy per Si atom -5571.262286 kJ/mol
# Density = 2.205103 g / cm^3
# Si number density = 22.101332 Si / 1000 Ang^3
#
#
#
# Elastic Constant Matrix: (Units=GPa)
#
#
# Indices 1 2 3 4 5 6 
#
# 1 102.7474 31.0613 8.1358 2.2742 23.3597 0.2270
# 2 31.0613 123.2682 14.7302 4.7710 2.4965 18.5326
# 3 8.1358 14.7302 53.6641 -13.8558 2.3030 -7.4013
# 4 2.2742 4.7710 -13.8558 47.1234 0.4768 3.1674
# 5 23.3597 2.4965 2.3030 0.4768 31.3032 -12.4503
# 6 0.2270 18.5326 -7.4013 3.1674 -12.4503 39.9402
#
#
#
# Elastic Compliance Matrix: (Units=1/GPa)
#
#
# Indices 1 2 3 4 5 6 
#
# 1 0.012953 -0.002541 -0.001266 -0.000482 -0.010275 -0.002294
# 2 -0.002541 0.010061 -0.003491 -0.001550 -0.000782 -0.005422
# 3 -0.001266 -0.003491 0.022192 0.006533 0.001790 0.005779
# 4 -0.000482 -0.001550 0.006533 0.023328 -0.000365 -0.000031
# 5 -0.010275 -0.000782 0.001790 -0.000365 0.045502 0.014966
# 6 -0.002294 -0.005422 0.005779 -0.000031 0.014966 0.033305
#
#
# Mechanical properties :
#
#
# Convention : Reuss Voigt Hill
#
# Bulk Modulus (GPa) = 32.66958 43.05936 37.86447
# Shear Modulus (GPa) = 29.04639 38.72352 33.88495
#
# Velocity S-wave (km/s) = 3.62917 4.19034 3.91981
# Velocity P-wave (km/s) = 5.68990 6.55263 6.13645
#
# Compressibility (1/GPa) = 0.03060952
#
# Stress axis : x y z
#
# Youngs Moduli (GPa) = 77.20339 99.39653 45.06212
#
# Poissons Ratio (x) = 0.25256 0.05706
# Poissons Ratio (y) = 0.19617 0.15730
# Poissons Ratio (z) = 0.09775 0.34697
#
# Static dielectric constant tensor:
#      x y z
#    x 1.753170 -0.008250 -0.007920 
#    y -0.008250 1.825300 -0.047200 
#    z -0.007920 -0.047200 1.834310 
# 
# From -- ./inp_files/240317.got.cif
#   From: 2010.05.17/outbox.cif.g08.bks.cpg/sg2_121_cif.got.tgz:240317.got - 2010.06.03 11:33:40.
