data_PCOD9042127
_publ_section_title
;
Structure prediction by ZEFSAII (Michael W. Deem and Ramdas Pophale) SiO2 
 PCOD9042127
Probable space group: P -1
;
_chemical_formula_sum "Si O2"
_cell_formula_units_Z 14
_cell_length_a 7.988989
_cell_length_b 7.362173
_cell_length_c 12.847500
_cell_angle_alpha 101.616812
_cell_angle_beta 62.758948
_cell_angle_gamma 116.210322
_cell_volume 602.754304
_symmetry_space_group_name_H-M "P -1"
_symmetry_group_IT_number 2
_symmetry_cell_setting 'triclinic'
loop_
_space_group_symop_operation_xyz
x,y,z
-x,-y,-z
loop_
_atom_site_type_symbol
_atom_site_label
_atom_site_fract_x
_atom_site_fract_y
_atom_site_fract_z
Si Si1 0.918255 0.081197 0.191920
Si Si2 0.227330 0.501476 0.069187
Si Si3 0.034072 0.230411 0.505405
Si Si4 0.684882 0.206521 0.443298
Si Si5 0.464155 0.531919 0.365384
Si Si6 0.599313 0.717329 0.136555
Si Si7 0.932038 0.689000 0.254691
O O1 0.781287 0.172987 0.305767
O O2 0.120470 0.277139 0.126900
O O3 0.775430 0.943017 0.123484
O O4 0.955261 0.911259 0.232599
O O5 0.431160 0.657454 0.086773
O O6 0.067136 0.604106 0.137795
O O7 0.292494 0.439529 0.933524
O O8 0.258279 0.333088 0.400342
O O9 0.016809 0.303708 0.636043
O O10 0.867773 0.259635 0.481433
O O11 0.000000 0.000000 0.500000
O O12 0.573973 0.357108 0.509781
O O13 0.500000 0.000000 0.500000
O O14 0.475358 0.664498 0.273952
O O15 0.692075 0.543548 0.300160
#
# Coordination Sequence:
#
# PCOD9042127 Si02
#       7
#     2   2   2   2   2   2   2
#     4  11  23  43  67  95 134 170 215 274 323 389
#     4  11  24  45  68  94 129 174 221 276 322 376
#     4  12  23  38  63  96 130 166 211 266 322 394
#     4  12  21  40  64  92 132 170 207 263 328 384
#     4  11  23  42  63  93 131 170 212 267 328 384
#     4  10  23  44  69  93 127 173 224 267 328 390
#     4  11  24  42  65  98 130 169 223 261 324 399
#
# _framework density 23.226711999999999
#
# number of rings (size 3 to 8) (size 9 to 14) (size 15 to 20)
#    0.000    0.857    4.286    3.857    0.000    3.429 
#    0.000    2.857    0.000    0.000    0.000    0.000 
#    0.000    0.000    0.000    0.000    0.000    0.000 
#
# Total GULP energy -78223.704119 kJ/mol
# GULP energy per Si atom -5587.407437 kJ/mol
# Density = 2.317385 g / cm^3
# Si number density = 23.226712 Si / 1000 Ang^3
#
#
#
# Elastic Constant Matrix: (Units=GPa)
#
#
# Indices 1 2 3 4 5 6 
#
# 1 109.9137 40.1272 35.4202 17.6979 -24.5421 18.4574
# 2 40.1272 105.7099 20.1240 -6.0383 -8.9118 14.8652
# 3 35.4202 20.1240 118.3017 26.0388 -25.1389 1.6695
# 4 17.6979 -6.0383 26.0388 42.2470 -4.8891 -1.6732
# 5 -24.5421 -8.9118 -25.1389 -4.8891 43.7473 5.8405
# 6 18.4574 14.8652 1.6695 -1.6732 5.8405 46.1483
#
#
#
# Elastic Compliance Matrix: (Units=1/GPa)
#
#
# Indices 1 2 3 4 5 6 
#
# 1 0.014182 -0.004223 -0.000819 -0.005473 0.006725 -0.005332
# 2 -0.004223 0.011901 -0.001757 0.004455 -0.000204 -0.001893
# 3 -0.000819 -0.001757 0.011507 -0.006422 0.005131 -0.000405
# 4 -0.005473 0.004455 -0.006422 0.030332 -0.002789 0.002439
# 5 0.006725 -0.000204 0.005131 -0.002789 0.030125 -0.006723
# 6 -0.005332 -0.001893 -0.000405 0.002439 -0.006723 0.025366
#
#
# Mechanical properties :
#
#
# Convention : Reuss Voigt Hill
#
# Bulk Modulus (GPa) = 41.68173 58.36313 50.02243
# Shear Modulus (GPa) = 34.48091 42.31209 38.39650
#
# Velocity S-wave (km/s) = 3.85715 4.27277 4.07027
# Velocity P-wave (km/s) = 6.14991 7.03734 6.60854
#
# Compressibility (1/GPa) = 0.02399133
#
# Stress axis : x y z
#
# Youngs Moduli (GPa) = 70.51159 84.02598 86.90579
#
# Poissons Ratio (x) = 0.35488 0.07115
# Poissons Ratio (y) = 0.29780 0.15270
# Poissons Ratio (z) = 0.05773 0.14764
#
# Static dielectric constant tensor:
#      x y z
#    x 1.910970 -0.035270 0.027610 
#    y -0.035270 1.887330 0.020920 
#    z 0.027610 0.020920 1.849900 
# 
# From -- ./inp_files/175518.got.cif
#   From: 2010.05.17/outbox.cif.g08.bks.cpg/sg2_88_cif.got.tgz:175518.got - 2010.06.03 11:33:40.
