data_PCOD9042143
_publ_section_title
;
Structure prediction by ZEFSAII (Michael W. Deem and Ramdas Pophale) SiO2 
 PCOD9042143
Probable space group: P -1
;
_chemical_formula_sum "Si O2"
_cell_formula_units_Z 16
_cell_length_a 8.842321
_cell_length_b 11.065646
_cell_length_c 11.289366
_cell_angle_alpha 67.631058
_cell_angle_beta 125.764575
_cell_angle_gamma 131.918052
_cell_volume 666.860324
_symmetry_space_group_name_H-M "P -1"
_symmetry_group_IT_number 2
_symmetry_cell_setting 'triclinic'
loop_
_space_group_symop_operation_xyz
x,y,z
-x,-y,-z
loop_
_atom_site_type_symbol
_atom_site_label
_atom_site_fract_x
_atom_site_fract_y
_atom_site_fract_z
Si Si1 0.233919 0.727419 0.585572
Si Si2 0.785665 0.777061 0.046304
Si Si3 0.517280 0.162092 0.948402
Si Si4 0.508335 0.346146 0.673302
Si Si5 0.865330 0.874526 0.593134
Si Si6 0.773318 0.579527 0.311549
Si Si7 0.027624 0.660245 0.776982
Si Si8 0.739434 0.935141 0.758742
O O1 0.272665 0.591450 0.623705
O O2 0.114560 0.677782 0.676980
O O3 0.486873 0.894210 0.653294
O O4 0.047736 0.709201 0.417384
O O5 0.662237 0.838334 0.046951
O O6 0.724297 0.615738 0.144106
O O7 0.721264 0.789526 0.878476
O O8 0.062302 0.906385 0.138650
O O9 0.480488 0.200546 0.786386
O O10 0.773462 0.307826 0.057125
O O11 0.500000 0.000000 0.000000
O O12 0.377060 0.277488 0.515225
O O13 0.372094 0.395287 0.672126
O O14 0.776707 0.492277 0.735480
O O15 0.822901 0.945928 0.659943
O O16 0.000530 0.804084 0.726570
O O17 0.000000 0.000000 0.500000
#
# Coordination Sequence:
#
# PCOD9042143 Si02
#       8
#     2   2   2   2   2   2   2   2
#     4  11  24  42  67 103 135 173 225 285 331 398
#     4  10  23  47  66  97 134 181 223 275 345 405
#     4  11  23  46  71 102 139 177 228 286 335 407
#     4  11  24  44  71 100 138 184 223 278 348 407
#     4  12  25  45  71 100 134 183 230 280 351 407
#     4  10  23  44  69  95 137 175 222 274 340 404
#     4  12  24  44  66 104 139 173 232 284 337 409
#     4  11  24  44  69  96 132 179 225 278 343 405
#
# _framework density 23.993030000000001
#
# number of rings (size 3 to 8) (size 9 to 14) (size 15 to 20)
#    0.000    1.000    2.500    4.500    3.500    1.000 
#    9.000    0.000    0.000    0.000    0.000    0.000 
#    0.000    0.000    0.000    0.000    0.000    0.000 
#
# Total GULP energy -89626.832915 kJ/mol
# GULP energy per Si atom -5601.677057 kJ/mol
# Density = 2.393842 g / cm^3
# Si number density = 23.993030 Si / 1000 Ang^3
#
#
#
# Elastic Constant Matrix: (Units=GPa)
#
#
# Indices 1 2 3 4 5 6 
#
# 1 78.4280 33.4727 26.2914 -5.1208 12.3165 17.6294
# 2 33.4727 60.6844 5.8727 2.2887 12.8986 17.0317
# 3 26.2914 5.8727 119.1767 10.4648 8.2142 24.9187
# 4 -5.1208 2.2887 10.4648 50.5610 16.3964 12.3705
# 5 12.3165 12.8986 8.2142 16.3964 38.7753 2.9113
# 6 17.6294 17.0317 24.9187 12.3705 2.9113 34.9827
#
#
#
# Elastic Compliance Matrix: (Units=1/GPa)
#
#
# Indices 1 2 3 4 5 6 
#
# 1 0.019632 -0.008163 -0.002957 0.005933 -0.004990 -0.005496
# 2 -0.008163 0.024868 0.002994 0.002024 -0.006396 -0.010310
# 3 -0.002957 0.002994 0.010547 -0.000327 -0.001610 -0.007231
# 4 0.005933 0.002024 -0.000327 0.027700 -0.013268 -0.012434
# 5 -0.004990 -0.006396 -0.001610 -0.013268 0.034810 0.008570
# 6 -0.005496 -0.010310 -0.007231 -0.012434 0.008570 0.045209
#
#
# Mechanical properties :
#
#
# Convention : Reuss Voigt Hill
#
# Bulk Modulus (GPa) = 25.77571 43.28477 34.53024
# Shear Modulus (GPa) = 26.04838 37.70729 31.87783
#
# Velocity S-wave (km/s) = 3.29852 3.96863 3.64899
# Velocity P-wave (km/s) = 5.02725 6.25138 5.67244
#
# Compressibility (1/GPa) = 0.03879621
#
# Stress axis : x y z
#
# Youngs Moduli (GPa) = 50.93686 40.21156 94.81130
#
# Poissons Ratio (x) = 0.32826 0.28033
# Poissons Ratio (y) = 0.41582 -0.28389
# Poissons Ratio (z) = 0.15060 -0.12040
#
# Static dielectric constant tensor:
#      x y z
#    x 1.890370 -0.002970 0.045520 
#    y -0.002970 1.977570 -0.005870 
#    z 0.045520 -0.005870 1.939900 
# 
# From -- ./inp_files/184202.got.cif
#   From: 2010.05.17/outbox.cif.g08.bks.cpg/sg2_93_cif.got.tgz:184202.got - 2010.06.03 11:33:40.
