data_PCOD9042530
_publ_section_title
;
Structure prediction by ZEFSAII (Michael W. Deem and Ramdas Pophale) SiO2 
 PCOD9042530
Probable space group: P -1
;
_chemical_formula_sum "Si O2"
_cell_formula_units_Z 16
_cell_length_a 16.001829
_cell_length_b 9.016194
_cell_length_c 13.265371
_cell_angle_alpha 74.781710
_cell_angle_beta 153.142593
_cell_angle_gamma 114.140133
_cell_volume 764.311680
_symmetry_space_group_name_H-M "P -1"
_symmetry_group_IT_number 2
_symmetry_cell_setting 'triclinic'
loop_
_space_group_symop_operation_xyz
x,y,z
-x,-y,-z
loop_
_atom_site_type_symbol
_atom_site_label
_atom_site_fract_x
_atom_site_fract_y
_atom_site_fract_z
Si Si1 0.060678 0.948743 0.969177
Si Si2 0.398205 0.310700 0.220220
Si Si3 0.216325 0.132737 0.501361
Si Si4 0.638233 0.357545 0.832814
Si Si5 0.410292 0.589597 0.807046
Si Si6 0.688109 0.135970 0.235930
Si Si7 0.367722 0.805884 0.358514
Si Si8 0.015972 0.689436 0.658774
O O1 0.878470 0.882759 0.707784
O O2 0.149457 0.809238 0.109654
O O3 0.228905 0.121582 0.074945
O O4 0.000000 0.000000 0.000000
O O5 0.332063 0.448844 0.175878
O O6 0.458102 0.363453 0.160754
O O7 0.587355 0.304083 0.487604
O O8 0.446483 0.267954 0.716583
O O9 0.076647 0.186355 0.415333
O O10 0.221518 0.960277 0.574639
O O11 0.586448 0.257860 0.688560
O O12 0.834062 0.342710 0.095101
O O13 0.400078 0.751274 0.818332
O O14 0.181287 0.473403 0.551409
O O15 0.500000 0.500000 0.000000
O O16 0.855063 0.238756 0.315657
O O17 0.500000 0.000000 0.000000
O O18 0.500000 0.000000 0.500000
#
# Coordination Sequence:
#
# PCOD9042530 Si02
#       8
#     2   2   2   2   2   2   2   2
#     4  11  26  45  72 111 148 187 245 303 359 433
#     4  11  26  45  75 104 148 195 240 300 366 431
#     4  12  25  45  73 106 146 190 245 298 360 430
#     4  12  24  48  72 109 149 187 240 301 358 437
#     4  12  28  49  74 109 148 191 246 298 365 437
#     4  12  27  44  76 105 143 192 245 300 361 428
#     4  10  23  44  72 105 143 188 240 295 359 424
#     4  12  26  49  70 107 148 192 241 301 366 427
#
# _framework density 20.933869000000001
#
# number of rings (size 3 to 8) (size 9 to 14) (size 15 to 20)
#    0.000    0.500    3.750    4.125   10.500    0.000 
#    0.000    1.875    0.000    0.000    0.000    0.000 
#    0.000    0.000    0.000    0.000    0.000    0.000 
#
# Total GULP energy -89501.753296 kJ/mol
# GULP energy per Si atom -5593.859581 kJ/mol
# Density = 2.088622 g / cm^3
# Si number density = 20.933869 Si / 1000 Ang^3
#
#
#
# Elastic Constant Matrix: (Units=GPa)
#
#
# Indices 1 2 3 4 5 6 
#
# 1 99.3186 19.8836 20.5692 -9.7820 -4.2772 -15.3765
# 2 19.8836 94.4511 35.4836 -30.1002 -2.1269 -28.8832
# 3 20.5692 35.4836 122.7638 -21.9848 -5.7894 -2.6884
# 4 -9.7820 -30.1002 -21.9848 50.4072 4.9483 4.3518
# 5 -4.2772 -2.1269 -5.7894 4.9483 31.7689 1.1717
# 6 -15.3765 -28.8832 -2.6884 4.3518 1.1717 48.0581
#
#
#
# Elastic Compliance Matrix: (Units=1/GPa)
#
#
# Indices 1 2 3 4 5 6 
#
# 1 0.011070 -0.000592 -0.001426 0.000820 0.000952 0.003009
# 2 -0.000592 0.017386 -0.003320 0.008122 -0.001131 0.009366
# 3 -0.001426 -0.003320 0.009718 0.002053 0.001115 -0.002121
# 4 0.000820 0.008122 0.002053 0.025788 -0.003099 0.002999
# 5 0.000952 -0.001131 0.001115 -0.003099 0.032246 -0.000818
# 6 0.003009 0.009366 -0.002121 0.002999 -0.000818 0.027030
#
#
# Mechanical properties :
#
#
# Convention : Reuss Voigt Hill
#
# Bulk Modulus (GPa) = 36.36566 52.04514 44.20540
# Shear Modulus (GPa) = 34.94541 42.08666 38.51603
#
# Velocity S-wave (km/s) = 4.09017 4.48868 4.29405
# Velocity P-wave (km/s) = 6.30201 7.19583 6.76370
#
# Compressibility (1/GPa) = 0.02749847
#
# Stress axis : x y z
#
# Youngs Moduli (GPa) = 90.33392 57.51636 102.90130
#
# Poissons Ratio (x) = 0.03404 0.14675
# Poissons Ratio (y) = 0.05347 0.34163
# Poissons Ratio (z) = 0.12883 0.19095
#
# Static dielectric constant tensor:
#      x y z
#    x 1.748000 -0.030390 0.010250 
#    y -0.030390 1.732910 -0.005710 
#    z 0.010250 -0.005710 1.757440 
# 
# From -- ./inp_files/90045.got.cif
#   From: 2010.05.17/outbox.cif.g08.bks.cpg/sg2_46_cif.got.tgz:90045.got - 2010.06.03 11:33:40.
