data_PCOD9042262
_publ_section_title
;
Structure prediction by ZEFSAII (Michael W. Deem and Ramdas Pophale) SiO2 
 PCOD9042262
Probable space group: P -1
;
_chemical_formula_sum "Si O2"
_cell_formula_units_Z 14
_cell_length_a 15.202707
_cell_length_b 10.191482
_cell_length_c 18.014182
_cell_angle_alpha 31.332136
_cell_angle_beta 155.825776
_cell_angle_gamma 146.950224
_cell_volume 571.132583
_symmetry_space_group_name_H-M "P -1"
_symmetry_group_IT_number 2
_symmetry_cell_setting 'triclinic'
loop_
_space_group_symop_operation_xyz
x,y,z
-x,-y,-z
loop_
_atom_site_type_symbol
_atom_site_label
_atom_site_fract_x
_atom_site_fract_y
_atom_site_fract_z
Si Si1 0.122740 0.248579 0.024426
Si Si2 0.783032 0.964455 0.300463
Si Si3 0.268296 0.012782 0.397665
Si Si4 0.662863 0.318939 0.630171
Si Si5 0.545852 0.195096 0.757533
Si Si6 0.895202 0.082400 0.168998
Si Si7 0.362427 0.467923 0.722807
O O1 0.159862 0.130231 0.190047
O O2 0.372719 0.416793 0.113955
O O3 0.928839 0.395050 0.798624
O O4 0.000000 0.000000 0.000000
O O5 0.601992 0.005867 0.199384
O O6 0.839545 0.128667 0.188782
O O7 0.683235 0.677746 0.322738
O O8 0.000000 0.000000 0.500000
O O9 0.531960 0.155312 0.539537
O O10 0.250669 0.706654 0.526147
O O11 0.146864 0.092292 0.338128
O O12 0.582878 0.134266 0.730495
O O13 0.573772 0.573466 0.446647
O O14 0.789113 0.261158 0.949709
O O15 0.764844 0.772389 0.205807
#
# Coordination Sequence:
#
# PCOD9042262 Si02
#       7
#     2   2   2   2   2   2   2
#     4  12  25  46  73 108 145 191 243 297 366 429
#     4  10  23  44  70 103 147 189 236 290 367 428
#     4  12  23  49  71 108 145 185 249 298 363 431
#     4  11  26  44  76 103 146 196 243 299 360 423
#     4  11  23  48  64 110 142 196 243 294 355 439
#     4  10  24  44  74 105 148 191 234 307 360 429
#     4  10  25  44  73 107 144 185 241 300 364 425
#
# _framework density 24.512695999999998
#
# number of rings (size 3 to 8) (size 9 to 14) (size 15 to 20)
#    0.857    0.286    2.857    3.000    2.000    1.714 
#    7.714    1.429    0.000    0.000    0.000    0.000 
#    0.000    0.000    0.000    0.000    0.000    0.000 
#
# Total GULP energy -78194.287474 kJ/mol
# GULP energy per Si atom -5585.306248 kJ/mol
# Density = 2.445690 g / cm^3
# Si number density = 24.512696 Si / 1000 Ang^3
#
#
#
# Elastic Constant Matrix: (Units=GPa)
#
#
# Indices 1 2 3 4 5 6 
#
# 1 66.5483 -0.9566 18.7474 11.1877 -6.5302 8.0016
# 2 -0.9566 111.1150 42.9448 19.8375 4.3116 -6.7239
# 3 18.7474 42.9448 175.7776 21.7553 2.9889 1.3813
# 4 11.1877 19.8375 21.7553 50.3873 -3.0611 -0.7143
# 5 -6.5302 4.3116 2.9889 -3.0611 45.1562 12.8089
# 6 8.0016 -6.7239 1.3813 -0.7143 12.8089 22.6476
#
#
#
# Elastic Compliance Matrix: (Units=1/GPa)
#
#
# Indices 1 2 3 4 5 6 
#
# 1 0.017580 0.000653 -0.001642 -0.003281 0.004853 -0.008765
# 2 0.000653 0.010862 -0.002284 -0.003511 -0.002247 0.004294
# 3 -0.001642 -0.002284 0.006635 -0.001635 -0.000491 -0.000277
# 4 -0.003281 -0.003511 -0.001635 0.022754 0.001485 0.000095
# 5 0.004853 -0.002247 -0.000491 0.001485 0.028406 -0.018371
# 6 -0.008765 0.004294 -0.000277 0.000095 -0.018371 0.058936
#
#
# Mechanical properties :
#
#
# Convention : Reuss Voigt Hill
#
# Bulk Modulus (GPa) = 35.05019 52.76800 43.90910
# Shear Modulus (GPa) = 31.01145 43.15189 37.08167
#
# Velocity S-wave (km/s) = 3.56071 4.20025 3.89363
# Velocity P-wave (km/s) = 5.58880 6.71538 6.17783
#
# Compressibility (1/GPa) = 0.02853051
#
# Stress axis : x y z
#
# Youngs Moduli (GPa) = 56.88171 92.06390 150.71414
#
# Poissons Ratio (x) = -0.06012 0.24749
# Poissons Ratio (y) = -0.03715 0.34429
# Poissons Ratio (z) = 0.09341 0.21031
#
# Static dielectric constant tensor:
#      x y z
#    x 2.005320 0.042670 0.032720 
#    y 0.042670 2.028420 -0.028300 
#    z 0.032720 -0.028300 1.989590 
# 
# From -- ./inp_files/600038.got.cif
#   From: 2010.05.17/outbox.cif.g08.bks.cpg/sg2_301_cif.got.tgz:600038.got - 2010.06.03 11:33:40.
