data_PCOD9042797
_publ_section_title
;
Structure prediction by ZEFSAII (Michael W. Deem and Ramdas Pophale) SiO2 
 PCOD9042797
Probable space group: P -1
;
_chemical_formula_sum "Si O2"
_cell_formula_units_Z 12
_cell_length_a 10.751091
_cell_length_b 4.830765
_cell_length_c 10.788619
_cell_angle_alpha 96.170727
_cell_angle_beta 64.837449
_cell_angle_gamma 120.149739
_cell_volume 434.491925
_symmetry_space_group_name_H-M "P -1"
_symmetry_group_IT_number 2
_symmetry_cell_setting 'triclinic'
loop_
_space_group_symop_operation_xyz
x,y,z
-x,-y,-z
loop_
_atom_site_type_symbol
_atom_site_label
_atom_site_fract_x
_atom_site_fract_y
_atom_site_fract_z
Si Si1 0.863564 0.579058 0.605120
Si Si2 0.684095 0.757994 0.065135
Si Si3 0.466287 0.884787 0.772179
Si Si4 0.335226 0.289291 0.486776
Si Si5 0.126157 0.845409 0.228905
Si Si6 0.182583 0.804813 0.746098
O O1 0.744396 0.531113 0.540499
O O2 0.801574 0.346246 0.739802
O O3 0.000000 0.500000 0.500000
O O4 0.087466 0.065753 0.346608
O O5 0.533044 0.801159 0.163320
O O6 0.813349 0.983964 0.126763
O O7 0.624735 0.389215 0.098717
O O8 0.756931 0.910211 0.911310
O O9 0.610422 0.861525 0.653483
O O10 0.338937 0.782454 0.707734
O O11 0.500000 0.500000 0.500000
O O12 0.216354 0.020788 0.620486
O O13 0.969363 0.547583 0.218668
#
# Coordination Sequence:
#
# PCOD9042797 Si02
#       6
#     2   2   2   2   2   2
#     4  12  33  52  79 116 160 215 263 334 412 467
#     4  10  23  46  76 123 156 213 261 323 396 478
#     4  10  23  44  77 118 153 203 275 311 390 463
#     4  12  26  54  82 115 160 211 276 331 392 474
#     4  12  28  51  78 117 170 203 264 333 405 481
#     4  10  26  42  85 119 161 209 265 329 394 474
#
# _framework density 27.618466999999999
#
# number of rings (size 3 to 8) (size 9 to 14) (size 15 to 20)
#    1.000    0.000    1.667    2.500    9.333    3.333 
#    0.000    5.000    0.000    0.000    0.000    0.000 
#    0.000    0.000    0.000    0.000    0.000    0.000 
#
# Total GULP energy -67268.771237 kJ/mol
# GULP energy per Si atom -5605.730936 kJ/mol
# Density = 2.755561 g / cm^3
# Si number density = 27.618467 Si / 1000 Ang^3
#
#
#
# Elastic Constant Matrix: (Units=GPa)
#
#
# Indices 1 2 3 4 5 6 
#
# 1 188.4782 33.0626 40.3795 -4.7163 17.7759 -27.1443
# 2 33.0626 121.0680 17.2940 -12.7195 17.9985 -18.0131
# 3 40.3795 17.2940 164.6677 -24.8002 22.1728 -32.3575
# 4 -4.7163 -12.7195 -24.8002 45.3362 -21.0305 12.5151
# 5 17.7759 17.9985 22.1728 -21.0305 30.1882 -9.8551
# 6 -27.1443 -18.0131 -32.3575 12.5151 -9.8551 52.5422
#
#
#
# Elastic Compliance Matrix: (Units=1/GPa)
#
#
# Indices 1 2 3 4 5 6 
#
# 1 0.006247 -0.000994 -0.000881 -0.002253 -0.003268 0.002268
# 2 -0.000994 0.009480 0.000268 0.000011 -0.004591 0.002038
# 3 -0.000881 0.000268 0.007578 0.001920 -0.002785 0.003324
# 4 -0.002253 0.000011 0.001920 0.034463 0.022632 -0.003942
# 5 -0.003268 -0.004591 -0.002785 0.022632 0.055620 0.000065
# 6 0.002268 0.002038 0.003324 -0.003942 0.000065 0.023901
#
#
# Mechanical properties :
#
#
# Convention : Reuss Voigt Hill
#
# Bulk Modulus (GPa) = 49.77098 72.85403 61.31251
# Shear Modulus (GPa) = 33.96785 51.17852 42.57319
#
# Velocity S-wave (km/s) = 3.51079 4.30938 3.93042
# Velocity P-wave (km/s) = 5.87318 7.15521 6.54566
#
# Compressibility (1/GPa) = 0.02009203
#
# Stress axis : x y z
#
# Youngs Moduli (GPa) = 160.07211 105.48803 131.96121
#
# Poissons Ratio (x) = 0.10481 0.11629
# Poissons Ratio (y) = 0.15905 -0.03542
# Poissons Ratio (z) = 0.14106 -0.02831
#
# Static dielectric constant tensor:
#      x y z
#    x 2.203060 0.111160 -0.045100 
#    y 0.111160 2.170800 0.020940 
#    z -0.045100 0.020940 2.159470 
# 
# From -- ./inp_files/371933.got.cif
#   From: 2010.05.17/outbox.cif.g08.bks.cpg/sg2_186_cif.got.tgz:371933.got - 2010.06.03 11:33:40.
