data_PCOD9042075
_publ_section_title
;
Structure prediction by ZEFSAII (Michael W. Deem and Ramdas Pophale) SiO2 
 PCOD9042075
Probable space group: P -1
;
_chemical_formula_sum "Si O2"
_cell_formula_units_Z 15
_cell_length_a 12.169902
_cell_length_b 8.007931
_cell_length_c 8.024605
_cell_angle_alpha 64.566363
_cell_angle_beta 84.852063
_cell_angle_gamma 58.229697
_cell_volume 590.879798
_symmetry_space_group_name_H-M "P -1"
_symmetry_group_IT_number 2
_symmetry_cell_setting 'triclinic'
loop_
_space_group_symop_operation_xyz
x,y,z
-x,-y,-z
loop_
_atom_site_type_symbol
_atom_site_label
_atom_site_fract_x
_atom_site_fract_y
_atom_site_fract_z
Si Si1 0.790715 0.908622 0.859891
Si Si2 0.501260 0.164829 0.794464
Si Si3 0.874727 0.170463 0.551255
Si Si4 0.180622 0.497207 0.100608
Si Si5 0.000000 0.000000 0.000000
Si Si6 0.253344 0.360720 0.500573
Si Si7 0.221193 0.018735 0.791649
Si Si8 0.657354 0.398124 0.212263
O O1 0.862204 0.670637 0.871066
O O2 0.644586 0.041949 0.747983
O O3 0.858806 0.047822 0.766435
O O4 0.766981 0.904174 0.060412
O O5 0.385732 0.247055 0.640189
O O6 0.471741 0.387815 0.792424
O O7 0.500000 0.000000 0.000000
O O8 0.852781 0.400918 0.509624
O O9 0.749183 0.250562 0.415623
O O10 0.000000 0.000000 0.500000
O O11 0.273644 0.401610 0.290923
O O12 0.262750 0.512114 0.932647
O O13 0.062022 0.733789 0.071417
O O14 0.900208 0.007112 0.156865
O O15 0.202056 0.198838 0.587229
O O16 0.345107 0.777607 0.830658
#
# Coordination Sequence:
#
# PCOD9042075 Si02
#       8
#     2   2   2   2   1   2   2   2
#     4  12  25  45  74 104 142 188 233 284 357 410
#     4  11  22  49  72 102 144 183 233 294 341 419
#     4  11  26  44  70 104 138 183 237 291 345 420
#     4  11  24  44  69 107 138 188 229 284 353 414
#     4  10  26  42  68  94 148 178 238 282 346 414
#     4  11  25  45  71 105 142 181 237 283 353 417
#     4  11  24  44  69 106 138 190 231 287 354 413
#     4  10  23  44  69 102 143 180 232 286 347 410
#
# _framework density 25.385871000000002
#
# number of rings (size 3 to 8) (size 9 to 14) (size 15 to 20)
#    0.000    1.067    2.667    3.200    9.333    4.267 
#    0.000    0.000    0.000    0.000    0.000    0.000 
#    0.000    0.000    0.000    0.000    0.000    0.000 
#
# Total GULP energy -83833.028585 kJ/mol
# GULP energy per Si atom -5588.868572 kJ/mol
# Density = 2.532809 g / cm^3
# Si number density = 25.385871 Si / 1000 Ang^3
#
#
#
# Elastic Constant Matrix: (Units=GPa)
#
#
# Indices 1 2 3 4 5 6 
#
# 1 60.4556 23.6870 14.2986 -21.7524 -2.2312 -2.6976
# 2 23.6870 196.9192 15.9846 -40.6425 -4.7757 14.6630
# 3 14.2986 15.9846 125.9462 -11.7022 3.3568 -6.0803
# 4 -21.7524 -40.6425 -11.7022 40.8807 5.2255 -1.4996
# 5 -2.2312 -4.7757 3.3568 5.2255 45.4965 -4.6858
# 6 -2.6976 14.6630 -6.0803 -1.4996 -4.6858 39.5111
#
#
#
# Elastic Compliance Matrix: (Units=1/GPa)
#
#
# Indices 1 2 3 4 5 6 
#
# 1 0.020809 -0.000388 -0.001265 0.010381 0.000063 0.001772
# 2 -0.000388 0.006599 -0.000322 0.006210 -0.000255 -0.002320
# 3 -0.001265 -0.000322 0.008350 0.001541 -0.000756 0.001287
# 4 0.010381 0.006210 0.001541 0.037001 -0.003237 -0.000338
# 5 0.000063 -0.000255 -0.000756 -0.003237 0.022646 0.002545
# 6 0.001772 -0.002320 0.001287 -0.000338 0.002545 0.026778
#
#
# Mechanical properties :
#
#
# Convention : Reuss Voigt Hill
#
# Bulk Modulus (GPa) = 31.43802 54.58459 43.01130
# Shear Modulus (GPa) = 36.56703 47.13439 41.85071
#
# Velocity S-wave (km/s) = 3.79944 4.31364 4.06468
# Velocity P-wave (km/s) = 5.62660 6.80872 6.24569
#
# Compressibility (1/GPa) = 0.03180862
#
# Stress axis : x y z
#
# Youngs Moduli (GPa) = 48.05636 151.53410 119.76337
#
# Poissons Ratio (x) = 0.05882 0.15147
# Poissons Ratio (y) = 0.01865 0.03853
# Poissons Ratio (z) = 0.06078 0.04875
#
# Static dielectric constant tensor:
#      x y z
#    x 1.909000 -0.022200 0.001760 
#    y -0.022200 1.907660 -0.041550 
#    z 0.001760 -0.041550 1.924820 
# 
# From -- ./inp_files/293982.got.cif
#   From: 2010.05.17/outbox.cif.g08.bks.cpg/sg2_147_cif.got.tgz:293982.got - 2010.06.03 11:33:40.
