data_PCOD9042515
_publ_section_title
;
Structure prediction by ZEFSAII (Michael W. Deem and Ramdas Pophale) SiO2 
 PCOD9042515
Probable space group: P -1
;
_chemical_formula_sum "Si O2"
_cell_formula_units_Z 14
_cell_length_a 11.181393
_cell_length_b 12.211981
_cell_length_c 5.459176
_cell_angle_alpha 103.029510
_cell_angle_beta 85.471173
_cell_angle_gamma 126.775901
_cell_volume 580.207120
_symmetry_space_group_name_H-M "P -1"
_symmetry_group_IT_number 2
_symmetry_cell_setting 'triclinic'
loop_
_space_group_symop_operation_xyz
x,y,z
-x,-y,-z
loop_
_atom_site_type_symbol
_atom_site_label
_atom_site_fract_x
_atom_site_fract_y
_atom_site_fract_z
Si Si1 0.869707 0.433797 0.680459
Si Si2 0.557192 0.656492 0.500916
Si Si3 0.988092 0.302418 0.940881
Si Si4 0.087421 0.161486 0.494663
Si Si5 0.527147 0.772078 0.055913
Si Si6 0.348775 0.850924 0.379051
Si Si7 0.819475 0.080336 0.229054
O O1 0.916781 0.366784 0.837855
O O2 0.719722 0.293772 0.531258
O O3 0.000000 0.500000 0.500000
O O4 0.880380 0.563944 0.853797
O O5 0.500000 0.500000 0.500000
O O6 0.738346 0.758714 0.527484
O O7 0.514410 0.681806 0.250342
O O8 0.506509 0.702212 0.764170
O O9 0.060015 0.246008 0.735888
O O10 0.843741 0.178055 0.051430
O O11 0.991661 0.140155 0.261079
O O12 0.000000 0.000000 0.500000
O O13 0.411797 0.811854 0.121753
O O14 0.695978 0.917960 0.113724
O O15 0.233203 0.885451 0.497974
O O16 0.500000 0.000000 0.500000
#
# Coordination Sequence:
#
# PCOD9042515 Si02
#       7
#     2   2   2   2   2   2   2
#     4  11  22  44  66 106 146 175 241 298 373 440
#     4  12  29  50  72 107 148 196 249 298 373 437
#     4  11  24  38  75 102 141 186 236 309 365 427
#     4  12  25  45  75 101 144 193 249 306 354 441
#     4  11  27  49  74 103 149 196 244 304 365 441
#     4  10  23  44  72 103 143 185 233 304 366 444
#     4  11  23  46  71 113 136 186 253 297 374 433
#
# _framework density 24.129314999999998
#
# number of rings (size 3 to 8) (size 9 to 14) (size 15 to 20)
#    0.000    0.857    4.286    1.286    4.000    4.571 
#    0.000    3.571    0.000    0.000    0.000    0.000 
#    0.000    0.000    0.000    0.000    0.000    0.000 
#
# Total GULP energy -78057.313007 kJ/mol
# GULP energy per Si atom -5575.522358 kJ/mol
# Density = 2.407440 g / cm^3
# Si number density = 24.129315 Si / 1000 Ang^3
#
#
#
# Elastic Constant Matrix: (Units=GPa)
#
#
# Indices 1 2 3 4 5 6 
#
# 1 83.3501 4.6639 23.2295 -15.2456 -6.4795 1.4464
# 2 4.6639 183.7016 43.4144 2.5633 5.1298 -5.7241
# 3 23.2295 43.4144 130.9765 9.1514 -13.6117 -19.2541
# 4 -15.2456 2.5633 9.1514 47.0461 -11.2907 -8.5541
# 5 -6.4795 5.1298 -13.6117 -11.2907 34.0569 -2.0902
# 6 1.4464 -5.7241 -19.2541 -8.5541 -2.0902 34.1982
#
#
#
# Elastic Compliance Matrix: (Units=1/GPa)
#
#
# Indices 1 2 3 4 5 6 
#
# 1 0.014073 0.000069 -0.002615 0.005846 0.003537 -0.000378
# 2 0.000069 0.006020 -0.002254 -0.000429 -0.001967 -0.000492
# 3 -0.002615 -0.002254 0.010118 -0.000740 0.003977 0.005488
# 4 0.005846 -0.000429 -0.000740 0.026980 0.010233 0.006638
# 5 0.003537 -0.001967 0.003977 0.010233 0.035713 0.006503
# 6 -0.000378 -0.000492 0.005488 0.006638 0.006503 0.034322
#
#
# Mechanical properties :
#
#
# Convention : Reuss Voigt Hill
#
# Bulk Modulus (GPa) = 48.52161 60.07152 54.29657
# Shear Modulus (GPa) = 34.79501 44.84159 39.81830
#
# Velocity S-wave (km/s) = 3.80152 4.31558 4.06668
# Velocity P-wave (km/s) = 6.27864 7.05563 6.67845
#
# Compressibility (1/GPa) = 0.02060937
#
# Stress axis : x y z
#
# Youngs Moduli (GPa) = 71.05651 166.10579 98.83541
#
# Poissons Ratio (x) = -0.01140 0.25847
# Poissons Ratio (y) = -0.00488 0.22282
# Poissons Ratio (z) = 0.18582 0.37449
#
# Static dielectric constant tensor:
#      x y z
#    x 2.045550 0.001770 0.077020 
#    y 0.001770 2.269000 0.035200 
#    z 0.077020 0.035200 1.931320 
# 
# From -- ./inp_files/70186.got.cif
#   From: 2010.05.17/outbox.cif.g08.bks.cpg/sg2_36_cif.got.tgz:70186.got - 2010.06.03 11:33:40.
