data_PCOD9042741
_publ_section_title
;
Structure prediction by ZEFSAII (Michael W. Deem and Ramdas Pophale) SiO2 
 PCOD9042741
Probable space group: P -1
;
_chemical_formula_sum "Si O2"
_cell_formula_units_Z 12
_cell_length_a 15.958055
_cell_length_b 9.774487
_cell_length_c 5.348642
_cell_angle_alpha 98.081387
_cell_angle_beta 86.656370
_cell_angle_gamma 141.933550
_cell_volume 507.418080
_symmetry_space_group_name_H-M "P -1"
_symmetry_group_IT_number 2
_symmetry_cell_setting 'triclinic'
loop_
_space_group_symop_operation_xyz
x,y,z
-x,-y,-z
loop_
_atom_site_type_symbol
_atom_site_label
_atom_site_fract_x
_atom_site_fract_y
_atom_site_fract_z
Si Si1 0.040453 0.968829 0.242391
Si Si2 0.729775 0.828580 0.046528
Si Si3 0.477891 0.592690 0.728408
Si Si4 0.857455 0.472322 0.104885
Si Si5 0.437880 0.852658 0.721487
Si Si6 0.042829 0.669474 0.734442
O O1 0.972063 0.729572 0.240593
O O2 0.000000 0.000000 0.500000
O O3 0.197107 0.138136 0.201740
O O4 0.000000 0.000000 0.000000
O O5 0.665439 0.623898 0.167943
O O6 0.844065 0.064288 0.237135
O O7 0.599271 0.744625 0.951714
O O8 0.500000 0.500000 0.500000
O O9 0.473950 0.739107 0.658263
O O10 0.721829 0.336137 0.237172
O O11 0.878890 0.335520 0.092443
O O12 0.897315 0.541327 0.821881
O O13 0.500000 0.000000 0.500000
O O14 0.500000 0.000000 0.000000
O O15 0.000000 0.500000 0.500000
#
# Coordination Sequence:
#
# PCOD9042741 Si02
#       6
#     2   2   2   2   2   2
#     4  11  26  44  72 105 145 189 241 312 374 441
#     4  10  25  46  73 111 146 197 252 306 380 458
#     4  11  27  47  79 107 154 204 254 313 384 457
#     4  10  25  44  68 106 140 188 251 300 374 445
#     4  12  30  49  76 110 153 202 255 318 376 455
#     4  10  23  44  75 107 145 195 241 313 377 451
#
# _framework density 23.649137
#
# number of rings (size 3 to 8) (size 9 to 14) (size 15 to 20)
#    0.000    1.333    0.000    2.000   18.667    2.667 
#    0.000    0.000    0.000    0.000    0.000    0.000 
#    0.000    0.000    0.000    0.000    0.000    0.000 
#
# Total GULP energy -66919.383936 kJ/mol
# GULP energy per Si atom -5576.615328 kJ/mol
# Density = 2.359531 g / cm^3
# Si number density = 23.649137 Si / 1000 Ang^3
#
#
#
# Elastic Constant Matrix: (Units=GPa)
#
#
# Indices 1 2 3 4 5 6 
#
# 1 84.3064 59.4539 25.7432 -12.6920 -13.3200 -20.9954
# 2 59.4539 170.4266 77.4120 -30.5540 -4.1797 -8.6160
# 3 25.7432 77.4120 144.2647 -5.8301 -30.8683 1.7011
# 4 -12.6920 -30.5540 -5.8301 35.3354 -3.4421 -3.2222
# 5 -13.3200 -4.1797 -30.8683 -3.4421 46.8732 -1.9889
# 6 -20.9954 -8.6160 1.7011 -3.2222 -1.9889 50.3108
#
#
#
# Elastic Compliance Matrix: (Units=1/GPa)
#
#
# Indices 1 2 3 4 5 6 
#
# 1 0.019085 -0.006181 0.001283 0.002996 0.006247 0.007301
# 2 -0.006181 0.011723 -0.005787 0.006557 -0.004045 -0.000116
# 3 0.001283 -0.005787 0.011246 -0.002061 0.007074 -0.000688
# 4 0.002996 0.006557 -0.002061 0.035427 0.002885 0.004826
# 5 0.006247 -0.004045 0.007074 0.002885 0.027745 0.002957
# 6 0.007301 -0.000116 -0.000688 0.004826 0.002957 0.023353
#
#
# Mechanical properties :
#
#
# Convention : Reuss Voigt Hill
#
# Bulk Modulus (GPa) = 48.34557 80.46843 64.40700
# Shear Modulus (GPa) = 31.87883 42.26313 37.07098
#
# Velocity S-wave (km/s) = 3.67548 4.23198 3.96351
# Velocity P-wave (km/s) = 6.20479 7.61442 6.94546
#
# Compressibility (1/GPa) = 0.02068442
#
# Stress axis : x y z
#
# Youngs Moduli (GPa) = 52.39672 85.30392 88.91718
#
# Poissons Ratio (x) = 0.52727 -0.11406
# Poissons Ratio (y) = 0.32387 0.51453
# Poissons Ratio (z) = -0.06721 0.49363
#
# Static dielectric constant tensor:
#      x y z
#    x 1.998040 0.017910 0.096060 
#    y 0.017910 1.994350 -0.006790 
#    z 0.096060 -0.006790 2.104380 
# 
# From -- ./inp_files/90716.got.cif
#   From: 2010.05.17/outbox.cif.g08.bks.cpg/sg2_46_cif.got.tgz:90716.got - 2010.06.03 11:33:40.
