data_PCOD9042920
_publ_section_title
;
Structure prediction by ZEFSAII (Michael W. Deem and Ramdas Pophale) SiO2 
 PCOD9042920
Probable space group: P -1
;
_chemical_formula_sum "Si O2"
_cell_formula_units_Z 16
_cell_length_a 11.827259
_cell_length_b 14.810329
_cell_length_c 28.902411
_cell_angle_alpha 19.964942
_cell_angle_beta 28.682199
_cell_angle_gamma 29.640632
_cell_volume 798.382533
_symmetry_space_group_name_H-M "P -1"
_symmetry_group_IT_number 2
_symmetry_cell_setting 'triclinic'
loop_
_space_group_symop_operation_xyz
x,y,z
-x,-y,-z
loop_
_atom_site_type_symbol
_atom_site_label
_atom_site_fract_x
_atom_site_fract_y
_atom_site_fract_z
Si Si1 0.789665 0.163847 0.531656
Si Si2 0.697623 0.985615 0.806293
Si Si3 0.193827 0.816388 0.054918
Si Si4 0.303311 0.524100 0.495571
Si Si5 0.411501 0.788394 0.165568
Si Si6 0.981067 0.141884 0.797005
Si Si7 0.715367 0.607483 0.848498
Si Si8 0.047006 0.458718 0.887736
O O1 0.588913 0.405572 0.462311
O O2 0.849903 0.310926 0.485303
O O3 0.663789 0.933585 0.707157
O O4 0.000000 0.000000 0.500000
O O5 0.719229 0.256726 0.641976
O O6 0.720312 0.043167 0.824338
O O7 0.899148 0.722949 0.841513
O O8 0.435422 0.925609 0.919216
O O9 0.094276 0.811498 0.144619
O O10 0.251435 0.519159 0.153433
O O11 0.000000 0.000000 0.000000
O O12 0.208525 0.258551 0.648535
O O13 0.228151 0.695821 0.241728
O O14 0.662480 0.582131 0.193064
O O15 0.500000 0.000000 0.000000
O O16 0.015011 0.814451 0.938190
O O17 0.948536 0.498640 0.851065
O O18 0.500000 0.500000 0.000000
#
# Coordination Sequence:
#
# PCOD9042920 Si02
#       8
#     2   2   2   2   2   2   2   2
#     4  11  25  41  62  93 141 173 202 256 339 397
#     4  12  24  43  69  96 129 173 219 268 324 387
#     4  12  23  36  68  97 128 170 213 264 324 386
#     4  11  26  42  63  97 136 170 210 268 333 388
#     4  10  23  45  66  95 128 172 222 274 320 371
#     4  11  24  45  64  95 134 167 222 272 316 388
#     4  12  21  37  63  99 127 163 219 261 316 391
#     4  11  22  41  70  93 128 171 223 265 319 381
#
# _framework density 20.040519
#
# number of rings (size 3 to 8) (size 9 to 14) (size 15 to 20)
#    0.000    0.750    6.250    1.500    7.000    2.500 
#    0.000    0.625    0.000    0.000    0.000    0.000 
#    0.000    0.000    0.000    0.000    0.000    0.000 
#
# Total GULP energy -89347.160920 kJ/mol
# GULP energy per Si atom -5584.197558 kJ/mol
# Density = 1.999491 g / cm^3
# Si number density = 20.040519 Si / 1000 Ang^3
#
#
#
# Elastic Constant Matrix: (Units=GPa)
#
#
# Indices 1 2 3 4 5 6 
#
# 1 124.5139 26.9518 8.6893 3.3053 10.4822 7.3763
# 2 26.9518 64.2459 3.3308 -8.0758 12.8775 15.6366
# 3 8.6893 3.3308 79.2795 -15.7720 8.5476 7.5850
# 4 3.3053 -8.0758 -15.7720 26.7925 -2.5179 1.5807
# 5 10.4822 12.8775 8.5476 -2.5179 16.3563 4.9190
# 6 7.3763 15.6366 7.5850 1.5807 4.9190 27.4200
#
#
#
# Elastic Compliance Matrix: (Units=1/GPa)
#
#
# Indices 1 2 3 4 5 6 
#
# 1 0.009244 -0.003824 -0.001274 -0.003371 -0.003001 0.000779
# 2 -0.003824 0.023624 0.003813 0.009285 -0.013205 -0.011665
# 3 -0.001274 0.003813 0.015966 0.010349 -0.007270 -0.005541
# 4 -0.003371 0.009285 0.010349 0.047186 -0.000312 -0.009915
# 5 -0.003001 -0.013205 -0.007270 -0.000312 0.078317 -0.003683
# 6 0.000779 -0.011665 -0.005541 -0.009915 -0.003683 0.045677
#
#
# Mechanical properties :
#
#
# Convention : Reuss Voigt Hill
#
# Bulk Modulus (GPa) = 21.61440 38.44259 30.02849
# Shear Modulus (GPa) = 21.00803 29.38492 25.19648
#
# Velocity S-wave (km/s) = 3.24122 3.83335 3.54966
# Velocity P-wave (km/s) = 4.98158 6.23032 5.64061
#
# Compressibility (1/GPa) = 0.04626546
#
# Stress axis : x y z
#
# Youngs Moduli (GPa) = 108.18111 42.32896 62.63396
#
# Poissons Ratio (x) = 0.16185 0.07980
# Poissons Ratio (y) = 0.41364 -0.23885
# Poissons Ratio (z) = 0.13783 -0.16142
#
# Static dielectric constant tensor:
#      x y z
#    x 1.725760 -0.018940 -0.032650 
#    y -0.018940 1.742180 0.014210 
#    z -0.032650 0.014210 1.701570 
# 
# From -- ./inp_files/623107.got.cif
#   From: 2010.05.17/outbox.cif.g08.bks.cpg/sg2_312_cif.got.tgz:623107.got - 2010.06.03 11:33:40.
