data_PCOD9042718
_publ_section_title
;
Structure prediction by ZEFSAII (Michael W. Deem and Ramdas Pophale) SiO2 
 PCOD9042718
Probable space group: P -1
;
_chemical_formula_sum "Si O2"
_cell_formula_units_Z 16
_cell_length_a 9.019858
_cell_length_b 7.488025
_cell_length_c 17.773065
_cell_angle_alpha 58.404053
_cell_angle_beta 129.068671
_cell_angle_gamma 129.682428
_cell_volume 702.270010
_symmetry_space_group_name_H-M "P -1"
_symmetry_group_IT_number 2
_symmetry_cell_setting 'triclinic'
loop_
_space_group_symop_operation_xyz
x,y,z
-x,-y,-z
loop_
_atom_site_type_symbol
_atom_site_label
_atom_site_fract_x
_atom_site_fract_y
_atom_site_fract_z
Si Si1 0.163309 0.682914 0.072227
Si Si2 0.274843 0.660667 0.395809
Si Si3 0.495073 0.516190 0.377597
Si Si4 0.623991 0.733737 0.206133
Si Si5 0.466010 0.615410 0.887928
Si Si6 0.134317 0.064122 0.290980
Si Si7 0.972156 0.513446 0.205738
Si Si8 0.907304 0.945260 0.887046
O O1 0.416978 0.782098 0.115930
O O2 0.104759 0.550098 0.163596
O O3 0.000000 0.500000 0.000000
O O4 0.074602 0.874468 0.994600
O O5 0.446667 0.694266 0.375982
O O6 0.340394 0.547125 0.510232
O O7 0.235632 0.879981 0.359865
O O8 0.060800 0.487827 0.319839
O O9 0.579242 0.613328 0.300597
O O10 0.276408 0.266731 0.350808
O O11 0.603291 0.562256 0.166887
O O12 0.874743 0.933854 0.246831
O O13 0.682202 0.836553 0.882118
O O14 0.274885 0.674817 0.835497
O O15 0.500000 0.500000 0.000000
O O16 0.160697 0.167423 0.192593
O O17 0.987960 0.775824 0.154246
#
# Coordination Sequence:
#
# PCOD9042718 Si02
#       8
#     2   2   2   2   2   2   2   2
#     4  12  22  39  65  91 131 175 212 274 325 387
#     4  10  23  44  74  96 132 179 218 284 337 397
#     4  11  23  47  71  98 133 175 223 281 346 383
#     4  12  24  42  64 101 135 174 230 274 325 406
#     4  12  22  40  66  93 129 174 220 267 328 400
#     4  11  24  46  68 101 136 173 226 276 331 407
#     4  11  23  44  61  95 133 163 225 273 320 406
#     4  11  23  40  65  91 127 177 212 263 334 384
#
# _framework density 22.783259999999999
#
# number of rings (size 3 to 8) (size 9 to 14) (size 15 to 20)
#    0.000    0.750    7.500    0.750    0.000    1.000 
#    2.250    3.750    0.000    0.000    0.000    0.000 
#    0.000    0.000    0.000    0.000    0.000    0.000 
#
# Total GULP energy -89327.695671 kJ/mol
# GULP energy per Si atom -5582.980979 kJ/mol
# Density = 2.273140 g / cm^3
# Si number density = 22.783260 Si / 1000 Ang^3
#
#
#
# Elastic Constant Matrix: (Units=GPa)
#
#
# Indices 1 2 3 4 5 6 
#
# 1 124.2189 52.8713 31.7584 -4.4396 14.6433 12.0116
# 2 52.8713 72.9098 28.1447 17.3730 12.2677 13.4890
# 3 31.7584 28.1447 153.9579 14.2731 11.2033 14.0056
# 4 -4.4396 17.3730 14.2731 22.3861 0.2291 1.2016
# 5 14.6433 12.2677 11.2033 0.2291 47.5623 1.6041
# 6 12.0116 13.4890 14.0056 1.2016 1.6041 46.4662
#
#
#
# Elastic Compliance Matrix: (Units=1/GPa)
#
#
# Indices 1 2 3 4 5 6 
#
# 1 0.014833 -0.013414 -0.001932 0.014575 -0.000732 0.000290
# 2 -0.013414 0.031246 0.000247 -0.026769 -0.003695 -0.004858
# 3 -0.001932 0.000247 0.007578 -0.005305 -0.001172 -0.001679
# 4 0.014575 -0.026769 -0.005305 0.071489 0.003199 0.003643
# 5 -0.000732 -0.003695 -0.001172 0.003199 0.022438 0.000758
# 6 0.000290 -0.004858 -0.001679 0.003643 0.000758 0.023242
#
#
# Mechanical properties :
#
#
# Convention : Reuss Voigt Hill
#
# Bulk Modulus (GPa) = 42.62497 64.07058 53.34778
# Shear Modulus (GPa) = 23.94130 39.17041 31.55585
#
# Velocity S-wave (km/s) = 3.24517 4.15090 3.72566
# Velocity P-wave (km/s) = 5.72634 7.15235 6.47870
#
# Compressibility (1/GPa) = 0.02346043
#
# Stress axis : x y z
#
# Youngs Moduli (GPa) = 67.41848 32.00380 131.95390
#
# Poissons Ratio (x) = 0.42930 0.25493
# Poissons Ratio (y) = 0.90435 -0.03265
# Poissons Ratio (z) = 0.13025 -0.00792
#
# Static dielectric constant tensor:
#      x y z
#    x 1.944860 -0.078240 0.036090 
#    y -0.078240 1.868740 -0.001840 
#    z 0.036090 -0.001840 1.816490 
# 
# From -- ./inp_files/557041.got.cif
#   From: 2010.05.17/outbox.cif.g08.bks.cpg/sg2_279_cif.got.tgz:557041.got - 2010.06.03 11:33:40.
