data_PCOD9042740
_publ_section_title
;
Structure prediction by ZEFSAII (Michael W. Deem and Ramdas Pophale) SiO2 
 PCOD9042740
Probable space group: P -1
;
_chemical_formula_sum "Si O2"
_cell_formula_units_Z 16
_cell_length_a 9.402679
_cell_length_b 11.508005
_cell_length_c 14.379407
_cell_angle_alpha 41.372557
_cell_angle_beta 73.072218
_cell_angle_gamma 46.706444
_cell_volume 662.895150
_symmetry_space_group_name_H-M "P -1"
_symmetry_group_IT_number 2
_symmetry_cell_setting 'triclinic'
loop_
_space_group_symop_operation_xyz
x,y,z
-x,-y,-z
loop_
_atom_site_type_symbol
_atom_site_label
_atom_site_fract_x
_atom_site_fract_y
_atom_site_fract_z
Si Si1 0.501818 0.600688 0.842973
Si Si2 0.922507 0.841044 0.449403
Si Si3 0.970613 0.772438 0.271953
Si Si4 0.563567 0.207779 0.972915
Si Si5 0.825624 0.599456 0.718837
Si Si6 0.681546 0.256734 0.744448
Si Si7 0.053992 0.563189 0.859917
Si Si8 0.734747 0.177233 0.565695
O O1 0.602822 0.379603 0.882774
O O2 0.636947 0.662387 0.772824
O O3 0.247387 0.856067 0.719150
O O4 0.500000 0.500000 0.000000
O O5 0.982057 0.705426 0.418648
O O6 0.788391 0.824801 0.548692
O O7 0.130955 0.754761 0.507441
O O8 0.104921 0.564189 0.288782
O O9 0.079085 0.871971 0.199592
O O10 0.721757 0.978582 0.155738
O O11 0.626440 0.145691 0.890319
O O12 0.307696 0.395481 0.920560
O O13 0.017088 0.470067 0.834233
O O14 0.683638 0.196679 0.672989
O O15 0.495450 0.576349 0.589806
O O16 0.888696 0.876542 0.691224
O O17 0.000000 0.500000 0.000000
#
# Coordination Sequence:
#
# PCOD9042740 Si02
#       8
#     2   2   2   2   2   2   2   2
#     4  12  24  44  73 105 143 186 242 295 360 429
#     4  11  24  46  74 106 143 189 243 303 356 430
#     4  11  25  45  73 106 149 186 243 295 360 432
#     4  12  24  45  73 102 140 198 235 294 361 431
#     4  12  28  44  71 109 146 191 242 299 363 422
#     4  10  23  44  75 106 135 191 245 293 358 433
#     4  12  29  48  70 105 146 190 244 302 358 429
#     4  10  24  47  73 100 146 190 240 297 361 433
#
# _framework density 24.136548999999999
#
# number of rings (size 3 to 8) (size 9 to 14) (size 15 to 20)
#    0.000    0.750    3.750    2.625    3.500    2.500 
#    6.750    0.000    0.000    0.000    0.000    0.000 
#    0.000    0.000    0.000    0.000    0.000    0.000 
#
# Total GULP energy -89405.017969 kJ/mol
# GULP energy per Si atom -5587.813623 kJ/mol
# Density = 2.408161 g / cm^3
# Si number density = 24.136549 Si / 1000 Ang^3
#
#
#
# Elastic Constant Matrix: (Units=GPa)
#
#
# Indices 1 2 3 4 5 6 
#
# 1 97.2268 25.3891 39.1384 12.1895 8.9303 -21.6449
# 2 25.3891 67.4860 40.0289 11.0256 -3.6908 -7.8701
# 3 39.1384 40.0289 72.7235 27.6705 5.6056 -7.9079
# 4 12.1895 11.0256 27.6705 43.7344 -12.5156 -0.9426
# 5 8.9303 -3.6908 5.6056 -12.5156 36.3221 5.9712
# 6 -21.6449 -7.8701 -7.9079 -0.9426 5.9712 42.2048
#
#
#
# Elastic Compliance Matrix: (Units=1/GPa)
#
#
# Indices 1 2 3 4 5 6 
#
# 1 0.015130 -0.001569 -0.005592 -0.001472 -0.004682 0.007049
# 2 -0.001569 0.023770 -0.015123 0.006085 0.007248 -0.000095
# 3 -0.005592 -0.015123 0.033626 -0.019397 -0.012352 0.001927
# 4 -0.001472 0.006085 -0.019397 0.039137 0.018276 -0.004966
# 5 -0.004682 0.007248 -0.012352 0.018276 0.039016 -0.008476
# 6 0.007049 -0.000095 0.001927 -0.004966 -0.008476 0.028740
#
#
# Mechanical properties :
#
#
# Convention : Reuss Voigt Hill
#
# Bulk Modulus (GPa) = 35.76839 49.61656 42.69247
# Shear Modulus (GPa) = 21.43105 33.31090 27.37098
#
# Velocity S-wave (km/s) = 2.98301 3.71900 3.37115
# Velocity P-wave (km/s) = 5.16874 6.24840 5.73404
#
# Compressibility (1/GPa) = 0.02795765
#
# Stress axis : x y z
#
# Youngs Moduli (GPa) = 66.09592 42.07059 29.73849
#
# Poissons Ratio (x) = 0.06601 0.16628
# Poissons Ratio (y) = 0.10371 0.44975
# Poissons Ratio (z) = 0.36958 0.63625
#
# Static dielectric constant tensor:
#      x y z
#    x 1.961370 0.017380 -0.021810 
#    y 0.017380 1.992550 0.009410 
#    z -0.021810 0.009410 1.957060 
# 
# From -- ./inp_files/499865.got.cif
#   From: 2010.05.17/outbox.cif.g08.bks.cpg/sg2_250_cif.got.tgz:499865.got - 2010.06.03 11:33:40.
