data_PCOD9042279
_publ_section_title
;
Structure prediction by ZEFSAII (Michael W. Deem and Ramdas Pophale) SiO2 
 PCOD9042279
Probable space group: P -1
;
_chemical_formula_sum "Si O2"
_cell_formula_units_Z 14
_cell_length_a 21.030220
_cell_length_b 9.248114
_cell_length_c 21.432482
_cell_angle_alpha 149.524945
_cell_angle_beta 19.420284
_cell_angle_gamma 150.625400
_cell_volume 659.081427
_symmetry_space_group_name_H-M "P -1"
_symmetry_group_IT_number 2
_symmetry_cell_setting 'triclinic'
loop_
_space_group_symop_operation_xyz
x,y,z
-x,-y,-z
loop_
_atom_site_type_symbol
_atom_site_label
_atom_site_fract_x
_atom_site_fract_y
_atom_site_fract_z
Si Si1 0.789414 0.189652 0.972807
Si Si2 0.082978 0.739873 0.955463
Si Si3 0.964323 0.768040 0.887889
Si Si4 0.491860 0.806523 0.651596
Si Si5 0.439979 0.752583 0.910096
Si Si6 0.933109 0.142587 0.422304
Si Si7 0.123845 0.206963 0.520962
O O1 0.986344 0.497603 0.899989
O O2 0.627559 0.236497 0.188088
O O3 0.672560 0.117819 0.989851
O O4 0.885746 0.939484 0.809693
O O5 0.327017 0.881599 0.787809
O O6 0.000000 0.500000 0.000000
O O7 0.993080 0.005909 0.127163
O O8 0.073837 0.518197 0.688859
O O9 0.726435 0.561987 0.031872
O O10 0.000000 0.000000 0.000000
O O11 0.500000 0.500000 0.500000
O O12 0.721632 0.017530 0.533093
O O13 0.639185 0.709089 0.682504
O O14 0.500000 0.000000 0.000000
O O15 0.000000 0.500000 0.500000
O O16 0.913589 0.981619 0.449020
O O17 0.000000 0.000000 0.500000
#
# Coordination Sequence:
#
# PCOD9042279 Si02
#       7
#     2   2   2   2   2   2   2
#     4  11  22  46  70 102 148 182 236 306 355 428
#     4  10  23  44  70 105 144 185 236 304 359 425
#     4  12  25  46  75 105 145 190 246 307 364 431
#     4  11  24  44  73 102 145 191 237 294 368 431
#     4  12  24  46  75 103 146 195 243 298 369 435
#     4  12  26  45  74 107 144 192 245 298 360 434
#     4  12  26  49  74 105 151 193 244 303 371 439
#
# _framework density 21.241686999999999
#
# number of rings (size 3 to 8) (size 9 to 14) (size 15 to 20)
#    0.000    0.571    7.143    0.000    0.000    5.714 
#    5.143    0.000    0.000    0.000    0.000    0.000 
#    0.000    0.000    0.000    0.000    0.000    0.000 
#
# Total GULP energy -78064.770589 kJ/mol
# GULP energy per Si atom -5576.055042 kJ/mol
# Density = 2.119334 g / cm^3
# Si number density = 21.241687 Si / 1000 Ang^3
#
#
#
# Elastic Constant Matrix: (Units=GPa)
#
#
# Indices 1 2 3 4 5 6 
#
# 1 112.4909 65.3762 68.6490 11.6096 -10.2489 34.5870
# 2 65.3762 148.0686 77.0446 29.1617 -13.1112 15.6429
# 3 68.6490 77.0446 150.7203 16.6962 -19.3716 -1.0122
# 4 11.6096 29.1617 16.6962 42.9957 3.4511 -8.4949
# 5 -10.2489 -13.1112 -19.3716 3.4511 41.2584 -3.3010
# 6 34.5870 15.6429 -1.0122 -8.4949 -3.3010 51.1011
#
#
#
# Elastic Compliance Matrix: (Units=1/GPa)
#
#
# Indices 1 2 3 4 5 6 
#
# 1 0.018953 -0.002855 -0.006961 -0.002949 -0.000229 -0.012597
# 2 -0.002855 0.011632 -0.003768 -0.006302 0.001533 -0.002651
# 3 -0.006961 -0.003768 0.012104 0.000749 0.003209 0.006436
# 4 -0.002949 -0.006302 0.000749 0.030088 -0.004207 0.008670
# 5 -0.000229 0.001533 0.003209 -0.004207 0.026588 0.000767
# 6 -0.012597 -0.002651 0.006436 0.008670 0.000767 0.030525
#
#
# Mechanical properties :
#
#
# Convention : Reuss Voigt Hill
#
# Bulk Modulus (GPa) = 64.42679 92.60216 78.51447
# Shear Modulus (GPa) = 30.81991 40.41837 35.61914
#
# Velocity S-wave (km/s) = 3.81322 4.36683 4.09938
# Velocity P-wave (km/s) = 7.05576 8.31353 7.71033
#
# Compressibility (1/GPa) = 0.01552149
#
# Stress axis : x y z
#
# Youngs Moduli (GPa) = 52.76079 85.96939 82.61722
#
# Poissons Ratio (x) = 0.24547 0.57506
# Poissons Ratio (y) = 0.15065 0.31132
# Poissons Ratio (z) = 0.36724 0.32395
#
# Static dielectric constant tensor:
#      x y z
#    x 1.929550 -0.026850 0.023850 
#    y -0.026850 1.759480 -0.006800 
#    z 0.023850 -0.006800 1.805790 
# 
# From -- ./inp_files/601298.got.cif
#   From: 2010.05.17/outbox.cif.g08.bks.cpg/sg2_301_cif.got.tgz:601298.got - 2010.06.03 11:33:40.
