data_PCOD9042125
_publ_section_title
;
Structure prediction by ZEFSAII (Michael W. Deem and Ramdas Pophale) SiO2 
 PCOD9042125
Probable space group: P -1
;
_chemical_formula_sum "Si O2"
_cell_formula_units_Z 14
_cell_length_a 10.549685
_cell_length_b 10.461550
_cell_length_c 9.305502
_cell_angle_alpha 44.565346
_cell_angle_beta 120.582725
_cell_angle_gamma 124.916710
_cell_volume 581.771919
_symmetry_space_group_name_H-M "P -1"
_symmetry_group_IT_number 2
_symmetry_cell_setting 'triclinic'
loop_
_space_group_symop_operation_xyz
x,y,z
-x,-y,-z
loop_
_atom_site_type_symbol
_atom_site_label
_atom_site_fract_x
_atom_site_fract_y
_atom_site_fract_z
Si Si1 0.415080 0.394594 0.183157
Si Si2 0.116017 0.274292 0.955408
Si Si3 0.224332 0.062040 0.950922
Si Si4 0.618643 0.181731 0.637097
Si Si5 0.105100 0.651419 0.555590
Si Si6 0.360084 0.548146 0.303914
Si Si7 0.901277 0.834793 0.468862
O O1 0.490581 0.257377 0.426135
O O2 0.410734 0.564431 0.154149
O O3 0.500000 0.500000 0.000000
O O4 0.239634 0.252058 0.158261
O O5 0.131827 0.497760 0.803627
O O6 0.188702 0.232250 0.880928
O O7 0.937477 0.127427 0.974936
O O8 0.224311 0.106814 0.746743
O O9 0.371982 0.022303 0.137665
O O10 0.744391 0.230013 0.542352
O O11 0.665024 0.298433 0.721974
O O12 0.000000 0.500000 0.500000
O O13 0.021035 0.784816 0.471140
O O14 0.500000 0.500000 0.500000
O O15 0.198903 0.366434 0.355840
O O16 0.000000 0.000000 0.500000
#
# Coordination Sequence:
#
# PCOD9042125 Si02
#       7
#     2   2   2   2   2   2   2
#     4  11  24  41  68  98 134 176 235 288 334 410
#     4  11  21  38  67 101 130 181 232 278 340 413
#     4  11  22  38  67  99 139 175 226 287 352 402
#     4  11  22  42  68 103 133 188 232 279 345 423
#     4  12  19  40  73  96 132 187 235 271 338 428
#     4  10  23  44  69  92 138 189 233 274 346 428
#     4  12  25  42  67 110 146 172 230 304 348 398
#
# _framework density 24.064413999999999
#
# number of rings (size 3 to 8) (size 9 to 14) (size 15 to 20)
#    0.000    0.857    5.714    1.714    2.000    1.714 
#    0.000    7.143    0.000    0.000    0.000    0.000 
#    0.000    0.000    0.000    0.000    0.000    0.000 
#
# Total GULP energy -78109.602508 kJ/mol
# GULP energy per Si atom -5579.257322 kJ/mol
# Density = 2.400964 g / cm^3
# Si number density = 24.064414 Si / 1000 Ang^3
#
#
#
# Elastic Constant Matrix: (Units=GPa)
#
#
# Indices 1 2 3 4 5 6 
#
# 1 83.4314 34.1649 25.1884 4.0129 3.0781 -16.9539
# 2 34.1649 88.9764 31.3397 12.2931 10.6576 -14.4777
# 3 25.1884 31.3397 130.1371 10.0959 20.4792 -2.7128
# 4 4.0129 12.2931 10.0959 41.2503 -1.9569 -1.4523
# 5 3.0781 10.6576 20.4792 -1.9569 39.2656 4.8857
# 6 -16.9539 -14.4777 -2.7128 -1.4523 4.8857 35.8529
#
#
#
# Elastic Compliance Matrix: (Units=1/GPa)
#
#
# Indices 1 2 3 4 5 6 
#
# 1 0.015446 -0.004516 -0.001888 0.000510 0.000365 0.005308
# 2 -0.004516 0.015244 -0.001872 -0.003664 -0.003514 0.004209
# 3 -0.001888 -0.001872 0.009291 -0.001748 -0.004222 -0.000441
# 4 0.000510 -0.003664 -0.001748 0.025840 0.003250 -0.000767
# 5 0.000365 -0.003514 -0.004222 0.003250 0.029434 -0.005445
# 6 0.005308 0.004209 -0.000441 -0.000767 -0.005445 0.032779
#
#
# Mechanical properties :
#
#
# Convention : Reuss Voigt Hill
#
# Bulk Modulus (GPa) = 42.68287 53.77011 48.22649
# Shear Modulus (GPa) = 32.80892 37.39722 35.10307
#
# Velocity S-wave (km/s) = 3.69640 3.94642 3.82345
# Velocity P-wave (km/s) = 5.99944 6.56950 6.29093
#
# Compressibility (1/GPa) = 0.02342860
#
# Stress axis : x y z
#
# Youngs Moduli (GPa) = 64.74126 65.59797 107.62664
#
# Poissons Ratio (x) = 0.29625 0.20323
# Poissons Ratio (y) = 0.29238 0.20149
# Poissons Ratio (z) = 0.12225 0.12281
#
# Static dielectric constant tensor:
#      x y z
#    x 1.997970 0.003680 -0.012900 
#    y 0.003680 1.930380 -0.001830 
#    z -0.012900 -0.001830 2.121680 
# 
# From -- ./inp_files/242306.got.cif
#   From: 2010.05.17/outbox.cif.g08.bks.cpg/sg2_122_cif.got.tgz:242306.got - 2010.06.03 11:33:40.
