data_PCOD9042233
_publ_section_title
;
Structure prediction by ZEFSAII (Michael W. Deem and Ramdas Pophale) SiO2 
 PCOD9042233
Probable space group: P -1
;
_chemical_formula_sum "Si O2"
_cell_formula_units_Z 12
_cell_length_a 8.759340
_cell_length_b 12.072100
_cell_length_c 7.392823
_cell_angle_alpha 40.424395
_cell_angle_beta 105.151706
_cell_angle_gamma 118.398612
_cell_volume 438.913516
_symmetry_space_group_name_H-M "P -1"
_symmetry_group_IT_number 2
_symmetry_cell_setting 'triclinic'
loop_
_space_group_symop_operation_xyz
x,y,z
-x,-y,-z
loop_
_atom_site_type_symbol
_atom_site_label
_atom_site_fract_x
_atom_site_fract_y
_atom_site_fract_z
Si Si1 0.937477 0.912987 0.892376
Si Si2 0.776552 0.972739 0.431411
Si Si3 0.053523 0.590167 0.606182
Si Si4 0.778221 0.571042 0.836168
Si Si5 0.575325 0.538878 0.275257
Si Si6 0.424752 0.861503 0.319506
O O1 0.763848 0.716268 0.105307
O O2 0.097898 0.899159 0.849413
O O3 0.115946 0.415408 0.333213
O O4 0.000000 0.000000 0.000000
O O5 0.584120 0.961602 0.385916
O O6 0.766979 0.766447 0.635257
O O7 0.874615 0.025053 0.587033
O O8 0.417569 0.655580 0.533394
O O9 0.000000 0.500000 0.500000
O O10 0.778771 0.202197 0.621918
O O11 0.127850 0.486753 0.902625
O O12 0.571545 0.427854 0.926224
O O13 0.500000 0.500000 0.500000
O O14 0.500000 0.000000 0.000000
#
# Coordination Sequence:
#
# PCOD9042233 Si02
#       6
#     2   2   2   2   2   2
#     4  11  23  41  72 106 136 176 236 295 344 414
#     4  10  24  45  71 101 137 185 238 287 348 423
#     4  11  24  42  68 105 146 181 226 291 357 418
#     4  10  23  44  70 102 139 185 234 286 352 423
#     4  11  23  44  73 103 139 188 237 286 350 423
#     4  11  25  44  70 104 143 186 234 291 353 416
#
# _framework density 27.340236999999998
#
# number of rings (size 3 to 8) (size 9 to 14) (size 15 to 20)
#    0.000    1.333    0.000    5.000    0.000   12.000 
#    0.000    0.833    0.000   14.000    0.000    0.000 
#    0.000    0.000    0.000    0.000    0.000    0.000 
#
# Total GULP energy -67281.459948 kJ/mol
# GULP energy per Si atom -5606.788329 kJ/mol
# Density = 2.727801 g / cm^3
# Si number density = 27.340237 Si / 1000 Ang^3
#
#
#
# Elastic Constant Matrix: (Units=GPa)
#
#
# Indices 1 2 3 4 5 6 
#
# 1 141.9123 84.9821 63.3798 10.9684 -36.4020 6.9916
# 2 84.9821 214.2143 84.8710 11.6208 -29.8515 27.2549
# 3 63.3798 84.8710 182.9365 2.3022 -42.3499 15.6166
# 4 10.9684 11.6208 2.3022 63.2599 8.6647 -15.8103
# 5 -36.4020 -29.8515 -42.3499 8.6647 55.4913 12.9951
# 6 6.9916 27.2549 15.6166 -15.8103 12.9951 50.4220
#
#
#
# Elastic Compliance Matrix: (Units=1/GPa)
#
#
# Indices 1 2 3 4 5 6 
#
# 1 0.010924 -0.002723 -0.000941 -0.002697 0.005900 -0.002118
# 2 -0.002723 0.007381 -0.001501 -0.002288 0.002448 -0.004495
# 3 -0.000941 -0.001501 0.008186 -0.001571 0.005913 -0.003610
# 4 -0.002697 -0.002288 -0.001571 0.020955 -0.010111 0.011274
# 5 0.005900 0.002448 0.005913 -0.010111 0.032962 -0.015639
# 6 -0.002118 -0.004495 -0.003610 0.011274 -0.015639 0.031240
#
#
# Mechanical properties :
#
#
# Convention : Reuss Voigt Hill
#
# Bulk Modulus (GPa) = 61.88228 111.72542 86.80385
# Shear Modulus (GPa) = 39.25775 54.22332 46.74053
#
# Velocity S-wave (km/s) = 3.79343 4.45823 4.13920
# Velocity P-wave (km/s) = 6.47071 8.21308 7.39340
#
# Compressibility (1/GPa) = 0.01615971
#
# Stress axis : x y z
#
# Youngs Moduli (GPa) = 91.54568 135.49209 122.16511
#
# Poissons Ratio (x) = 0.36893 0.11492
# Poissons Ratio (y) = 0.24927 0.18342
# Poissons Ratio (z) = 0.08612 0.20343
#
# Static dielectric constant tensor:
#      x y z
#    x 2.213730 0.050830 -0.008380 
#    y 0.050830 2.154920 -0.021860 
#    z -0.008380 -0.021860 2.179650 
# 
# From -- ./inp_files/318240.got.cif
#   From: 2010.05.17/outbox.cif.g08.bks.cpg/sg2_160_cif.got.tgz:318240.got - 2010.06.03 11:33:40.
