data_PCOD9042967
_publ_section_title
;
Structure prediction by ZEFSAII (Michael W. Deem and Ramdas Pophale) SiO2 
 PCOD9042967
Probable space group: P -1
;
_chemical_formula_sum "Si O2"
_cell_formula_units_Z 14
_cell_length_a 23.112523
_cell_length_b 5.163176
_cell_length_c 6.907765
_cell_angle_alpha 73.015161
_cell_angle_beta 127.901754
_cell_angle_gamma 125.510009
_cell_volume 526.783462
_symmetry_space_group_name_H-M "P -1"
_symmetry_group_IT_number 2
_symmetry_cell_setting 'triclinic'
loop_
_space_group_symop_operation_xyz
x,y,z
-x,-y,-z
loop_
_atom_site_type_symbol
_atom_site_label
_atom_site_fract_x
_atom_site_fract_y
_atom_site_fract_z
Si Si1 0.527896 0.703580 0.709433
Si Si2 0.763858 0.553479 0.557119
Si Si3 0.946315 0.768043 0.761441
Si Si4 0.062168 0.804410 0.684800
Si Si5 0.419620 0.671292 0.832899
Si Si6 0.237811 0.005191 0.853690
Si Si7 0.311529 0.593112 0.140117
O O1 0.500000 0.500000 0.500000
O O2 0.443200 0.616182 0.678934
O O3 0.592637 0.082938 0.726941
O O4 0.578789 0.597146 0.979026
O O5 0.665205 0.307991 0.333260
O O6 0.781502 0.868351 0.409763
O O7 0.741263 0.545599 0.737819
O O8 0.696590 0.692444 0.940722
O O9 0.847754 0.536334 0.686876
O O10 0.019589 0.721303 0.826310
O O11 0.930042 0.910720 0.495925
O O12 0.000000 0.000000 0.000000
O O13 0.000000 0.500000 0.500000
O O14 0.154591 0.848442 0.853905
O O15 0.500000 0.000000 0.000000
O O16 0.260033 0.743234 0.906211
#
# Coordination Sequence:
#
# PCOD9042967 Si02
#       7
#     2   2   2   2   2   2   2
#     4  11  26  45  74 107 149 195 250 309 380 450
#     4  11  25  45  76 106 146 197 252 306 375 446
#     4  10  23  45  67 105 142 191 249 304 373 447
#     4  10  24  44  72 100 145 193 243 313 378 435
#     4  11  24  47  72 107 149 193 248 314 375 448
#     4  11  27  48  74 109 153 196 254 314 375 451
#     4  12  27  48  75 110 151 199 251 308 382 453
#
# _framework density 26.576384999999998
#
# number of rings (size 3 to 8) (size 9 to 14) (size 15 to 20)
#    0.000    1.143    1.429    2.571   10.000    4.000 
#    2.571    0.000    0.000    0.000    0.000    0.000 
#    0.000    0.000    0.000    0.000    0.000    0.000 
#
# Total GULP energy -78236.198950 kJ/mol
# GULP energy per Si atom -5588.299925 kJ/mol
# Density = 2.651590 g / cm^3
# Si number density = 26.576385 Si / 1000 Ang^3
#
#
#
# Elastic Constant Matrix: (Units=GPa)
#
#
# Indices 1 2 3 4 5 6 
#
# 1 237.9025 41.4351 55.2643 21.3168 -24.0684 51.2401
# 2 41.4351 77.1438 42.3463 9.0014 -12.6883 23.8223
# 3 55.2643 42.3463 106.8852 -4.3682 -28.4477 11.8846
# 4 21.3168 9.0014 -4.3682 60.5093 8.3016 -3.8499
# 5 -24.0684 -12.6883 -28.4477 8.3016 64.8703 2.9588
# 6 51.2401 23.8223 11.8846 -3.8499 2.9588 36.9557
#
#
#
# Elastic Compliance Matrix: (Units=1/GPa)
#
#
# Indices 1 2 3 4 5 6 
#
# 1 0.007807 0.002141 -0.002891 -0.004475 0.003167 -0.011995
# 2 0.002141 0.021966 -0.007436 -0.006007 0.003311 -0.015628
# 3 -0.002891 -0.007436 0.014286 0.002994 0.003160 0.004267
# 4 -0.004475 -0.006007 0.002994 0.020596 -0.004689 0.011636
# 5 0.003167 0.003311 0.003160 -0.004689 0.019662 -0.009605
# 6 -0.011995 -0.015628 0.004267 0.011636 -0.009605 0.054373
#
#
# Mechanical properties :
#
#
# Convention : Reuss Voigt Hill
#
# Bulk Modulus (GPa) = 36.11885 77.78031 56.94958
# Shear Modulus (GPa) = 30.43362 51.32613 40.87988
#
# Velocity S-wave (km/s) = 3.38766 4.39939 3.92625
# Velocity P-wave (km/s) = 5.37789 7.42539 6.48298
#
# Compressibility (1/GPa) = 0.02768637
#
# Stress axis : x y z
#
# Youngs Moduli (GPa) = 128.09061 45.52423 70.00048
#
# Poissons Ratio (x) = -0.09746 0.20236
# Poissons Ratio (y) = -0.27421 0.52053
# Poissons Ratio (z) = 0.37030 0.33852
#
# Static dielectric constant tensor:
#      x y z
#    x 2.153280 0.015850 0.115870 
#    y 0.015850 2.063500 -0.038700 
#    z 0.115870 -0.038700 2.138250 
# 
# From -- ./inp_files/121603.got.cif
#   From: 2010.05.17/outbox.cif.g08.bks.cpg/sg2_61_cif.got.tgz:121603.got - 2010.06.03 11:33:40.
