data_PCOD9042521
_publ_section_title
;
Structure prediction by ZEFSAII (Michael W. Deem and Ramdas Pophale) SiO2 
 PCOD9042521
Probable space group: P -1
;
_chemical_formula_sum "Si O2"
_cell_formula_units_Z 14
_cell_length_a 9.932608
_cell_length_b 16.063538
_cell_length_c 10.732968
_cell_angle_alpha 46.520849
_cell_angle_beta 27.818573
_cell_angle_gamma 58.082203
_cell_volume 563.536018
_symmetry_space_group_name_H-M "P -1"
_symmetry_group_IT_number 2
_symmetry_cell_setting 'triclinic'
loop_
_space_group_symop_operation_xyz
x,y,z
-x,-y,-z
loop_
_atom_site_type_symbol
_atom_site_label
_atom_site_fract_x
_atom_site_fract_y
_atom_site_fract_z
Si Si1 0.297166 0.432798 0.567409
Si Si2 0.620646 0.925206 0.873204
Si Si3 0.342502 0.659136 0.816054
Si Si4 0.017222 0.240779 0.171718
Si Si5 0.900639 0.759869 0.427555
Si Si6 0.169459 0.666220 0.520665
Si Si7 0.479912 0.083521 0.314398
O O1 0.564743 0.436423 0.252090
O O2 0.294765 0.550482 0.522787
O O3 0.971687 0.396167 0.804848
O O4 0.271755 0.319757 0.794670
O O5 0.919978 0.883471 0.711591
O O6 0.405746 0.791610 0.181977
O O7 0.580072 0.968465 0.721834
O O8 0.500000 0.000000 0.000000
O O9 0.266132 0.758665 0.684290
O O10 0.623109 0.709839 0.618043
O O11 0.987128 0.317742 0.238344
O O12 0.795431 0.858806 0.492807
O O13 0.958390 0.665113 0.575434
O O14 0.205716 0.819712 0.046804
O O15 0.500000 0.000000 0.500000
#
# Coordination Sequence:
#
# PCOD9042521 Si02
#       7
#     2   2   2   2   2   2   2
#     4  10  24  41  74 109 145 192 241 289 367 432
#     4  11  26  48  75 109 146 193 254 313 370 430
#     4  10  24  43  68 111 143 191 233 297 358 441
#     4  10  23  44  72 103 148 188 242 295 367 436
#     4  11  24  47  72 104 148 190 243 301 370 434
#     4  11  24  44  72 104 148 192 242 301 361 441
#     4  11  25  48  76 102 142 199 252 307 367 435
#
# _framework density 24.843133000000002
#
# number of rings (size 3 to 8) (size 9 to 14) (size 15 to 20)
#    0.857    0.571    1.429    2.571    2.000    5.143 
#    5.143    0.000    0.000    0.000    0.000    0.000 
#    0.000    0.000    0.000    0.000    0.000    0.000 
#
# Total GULP energy -78284.952162 kJ/mol
# GULP energy per Si atom -5591.782297 kJ/mol
# Density = 2.478659 g / cm^3
# Si number density = 24.843133 Si / 1000 Ang^3
#
#
#
# Elastic Constant Matrix: (Units=GPa)
#
#
# Indices 1 2 3 4 5 6 
#
# 1 168.1457 29.7754 3.5377 -8.1860 0.1184 -14.4516
# 2 29.7754 140.0929 -5.5849 11.8321 16.3043 -17.9845
# 3 3.5377 -5.5849 62.9336 8.5868 8.8512 -15.3474
# 4 -8.1860 11.8321 8.5868 37.1220 -1.1895 -1.6262
# 5 0.1184 16.3043 8.8512 -1.1895 39.5569 0.9903
# 6 -14.4516 -17.9845 -15.3474 -1.6262 0.9903 39.3338
#
#
#
# Elastic Compliance Matrix: (Units=1/GPa)
#
#
# Indices 1 2 3 4 5 6 
#
# 1 0.006451 -0.001446 -0.000489 0.002089 0.000709 0.001587
# 2 -0.001446 0.009075 0.003264 -0.003905 -0.004705 0.004849
# 3 -0.000489 0.003264 0.020056 -0.005590 -0.006226 0.009064
# 4 0.002089 -0.003905 -0.005590 0.029968 0.003807 -0.002056
# 5 0.000709 -0.004705 -0.006226 0.003807 0.028847 -0.004889
# 6 0.001587 0.004849 0.009064 -0.002056 -0.004889 0.031798
#
#
# Mechanical properties :
#
#
# Convention : Reuss Voigt Hill
#
# Bulk Modulus (GPa) = 26.15027 47.40318 36.77672
# Shear Modulus (GPa) = 36.68805 46.09881 41.39343
#
# Velocity S-wave (km/s) = 3.84707 4.31234 4.08633
# Velocity P-wave (km/s) = 5.50293 6.62702 6.09096
#
# Compressibility (1/GPa) = 0.03824053
#
# Stress axis : x y z
#
# Youngs Moduli (GPa) = 155.01214 110.18800 49.86151
#
# Poissons Ratio (x) = 0.15931 0.02436
# Poissons Ratio (y) = 0.22412 -0.16273
# Poissons Ratio (z) = 0.07574 -0.35962
#
# Static dielectric constant tensor:
#      x y z
#    x 2.152390 0.014330 -0.111700 
#    y 0.014330 1.942930 -0.055410 
#    z -0.111700 -0.055410 2.034650 
# 
# From -- ./inp_files/216924.got.cif
#   From: 2010.05.17/outbox.cif.g08.bks.cpg/sg2_109_cif.got.tgz:216924.got - 2010.06.03 11:33:40.
