data_PCOD9042232
_publ_section_title
;
Structure prediction by ZEFSAII (Michael W. Deem and Ramdas Pophale) SiO2 
 PCOD9042232
Probable space group: P -1
;
_chemical_formula_sum "Si O2"
_cell_formula_units_Z 14
_cell_length_a 10.986664
_cell_length_b 9.507838
_cell_length_c 13.911485
_cell_angle_alpha 28.300974
_cell_angle_beta 58.209202
_cell_angle_gamma 74.642090
_cell_volume 509.215130
_symmetry_space_group_name_H-M "P -1"
_symmetry_group_IT_number 2
_symmetry_cell_setting 'triclinic'
loop_
_space_group_symop_operation_xyz
x,y,z
-x,-y,-z
loop_
_atom_site_type_symbol
_atom_site_label
_atom_site_fract_x
_atom_site_fract_y
_atom_site_fract_z
Si Si1 0.485519 0.362194 0.319549
Si Si2 0.997293 0.210283 0.604000
Si Si3 0.760891 0.722049 0.841630
Si Si4 0.835675 0.148523 0.164263
Si Si5 0.617529 0.108486 0.589998
Si Si6 0.341044 0.762390 0.069578
Si Si7 0.197939 0.187974 0.814026
O O1 0.579833 0.284621 0.410598
O O2 0.441596 0.668341 0.161302
O O3 0.306099 0.027160 0.591753
O O4 0.589062 0.447348 0.127511
O O5 0.161463 0.428414 0.341594
O O6 0.000000 0.500000 0.500000
O O7 0.015191 0.911846 0.830918
O O8 0.848064 0.006225 0.717396
O O9 0.718002 0.903410 0.664913
O O10 0.863170 0.521890 0.905459
O O11 0.758226 0.897268 0.256983
O O12 0.725762 0.422512 0.427755
O O13 0.451320 0.867566 0.864500
O O14 0.284628 0.044397 0.937251
O O15 0.000000 0.000000 0.000000
#
# Coordination Sequence:
#
# PCOD9042232 Si02
#       7
#     2   2   2   2   2   2   2
#     4  10  24  44  73 104 136 185 231 288 348 417
#     4  11  24  45  71 105 139 185 236 287 344 414
#     4  11  25  46  70 105 141 183 230 287 354 413
#     4  11  24  45  70 100 145 183 230 288 349 418
#     4  11  24  46  72 102 138 180 237 288 346 416
#     4  10  23  44  70 102 139 178 234 292 344 407
#     4  12  25  44  71 105 139 183 236 290 345 413
#
# _framework density 27.493292
#
# number of rings (size 3 to 8) (size 9 to 14) (size 15 to 20)
#    0.000    1.143    1.429    3.857    4.000    1.143 
#    5.143    1.429    0.000    0.000    0.000    0.000 
#    0.000    0.000    0.000    0.000    0.000    0.000 
#
# Total GULP energy -78309.505078 kJ/mol
# GULP energy per Si atom -5593.536077 kJ/mol
# Density = 2.743072 g / cm^3
# Si number density = 27.493292 Si / 1000 Ang^3
#
#
#
# Elastic Constant Matrix: (Units=GPa)
#
#
# Indices 1 2 3 4 5 6 
#
# 1 203.0823 71.2830 64.4265 -32.0611 64.4936 -23.8856
# 2 71.2830 134.5980 68.2017 -26.5895 17.4800 -20.7697
# 3 64.4265 68.2017 97.0181 -14.3128 36.9504 -10.7244
# 4 -32.0611 -26.5895 -14.3128 55.6401 -21.7759 15.8787
# 5 64.4936 17.4800 36.9504 -21.7759 64.2739 -18.2245
# 6 -23.8856 -20.7697 -10.7244 15.8787 -18.2245 48.2462
#
#
#
# Elastic Compliance Matrix: (Units=1/GPa)
#
#
# Indices 1 2 3 4 5 6 
#
# 1 0.008637 -0.003250 -0.000613 0.000448 -0.007328 -0.000175
# 2 -0.003250 0.014710 -0.009998 0.004452 0.007628 0.003917
# 3 -0.000613 -0.009998 0.021009 -0.003038 -0.010608 -0.002945
# 4 0.000448 0.004452 -0.003038 0.023328 0.006975 -0.003580
# 5 -0.007328 0.007628 -0.010608 0.006975 0.031226 0.006797
# 6 -0.000175 0.003917 -0.002945 -0.003580 0.006797 0.025418
#
#
# Mechanical properties :
#
#
# Convention : Reuss Voigt Hill
#
# Bulk Modulus (GPa) = 60.11723 93.61343 76.86533
# Shear Modulus (GPa) = 31.72702 49.01784 40.37243
#
# Velocity S-wave (km/s) = 3.40073 4.22702 3.83619
# Velocity P-wave (km/s) = 6.11012 7.61230 6.90220
#
# Compressibility (1/GPa) = 0.01663417
#
# Stress axis : x y z
#
# Youngs Moduli (GPa) = 115.78587 67.97991 47.59866
#
# Poissons Ratio (x) = 0.22096 0.02917
# Poissons Ratio (y) = 0.37635 0.47588
# Poissons Ratio (z) = 0.07095 0.67964
#
# Static dielectric constant tensor:
#      x y z
#    x 2.409830 0.126040 0.006850 
#    y 0.126040 2.292170 0.008570 
#    z 0.006850 0.008570 2.137450 
# 
# From -- ./inp_files/569072.got.cif
#   From: 2010.05.17/outbox.cif.g08.bks.cpg/sg2_285_cif.got.tgz:569072.got - 2010.06.03 11:33:40.
