data_PCOD9042673
_publ_section_title
;
Structure prediction by ZEFSAII (Michael W. Deem and Ramdas Pophale) SiO2 
 PCOD9042673
Probable space group: P -1
;
_chemical_formula_sum "Si O2"
_cell_formula_units_Z 16
_cell_length_a 14.036422
_cell_length_b 11.714739
_cell_length_c 8.323993
_cell_angle_alpha 81.113843
_cell_angle_beta 149.383461
_cell_angle_gamma 90.567414
_cell_volume 667.812339
_symmetry_space_group_name_H-M "P -1"
_symmetry_group_IT_number 2
_symmetry_cell_setting 'triclinic'
loop_
_space_group_symop_operation_xyz
x,y,z
-x,-y,-z
loop_
_atom_site_type_symbol
_atom_site_label
_atom_site_fract_x
_atom_site_fract_y
_atom_site_fract_z
Si Si1 0.968075 0.897976 0.309849
Si Si2 0.321781 0.598291 0.146797
Si Si3 0.347108 0.862656 0.675521
Si Si4 0.659004 0.933004 0.618194
Si Si5 0.909877 0.165575 0.166907
Si Si6 0.714242 0.798083 0.419791
Si Si7 0.062360 0.463611 0.278951
Si Si8 0.327629 0.608775 0.772713
O O1 0.181701 0.897354 0.562094
O O2 0.985717 0.823038 0.512948
O O3 0.867005 0.037636 0.152818
O O4 0.842634 0.858647 0.999368
O O5 0.500000 0.500000 0.500000
O O6 0.273670 0.725430 0.141085
O O7 0.343036 0.623976 0.983622
O O8 0.124122 0.557211 0.896011
O O9 0.343822 0.725783 0.673595
O O10 0.294389 0.955929 0.435762
O O11 0.557100 0.863982 0.048048
O O12 0.618432 0.842393 0.442954
O O13 0.500000 0.000000 0.500000
O O14 0.078944 0.167806 0.286592
O O15 0.773974 0.660007 0.483445
O O16 0.140703 0.564415 0.460144
O O17 0.000000 0.500000 0.000000
O O18 0.500000 0.500000 0.000000
#
# Coordination Sequence:
#
# PCOD9042673 Si02
#       8
#     2   2   2   2   2   2   2   2
#     4  11  24  43  71 106 139 180 232 296 363 434
#     4  11  25  46  76 107 142 194 246 306 362 430
#     4  12  25  46  76  99 148 187 237 295 367 434
#     4  12  28  45  70 109 143 183 245 296 364 434
#     4  10  23  44  73  99 146 181 234 293 370 431
#     4  11  25  46  69 100 143 190 230 296 365 426
#     4  11  26  47  72 104 146 193 244 301 360 431
#     4  12  25  48  70 105 146 193 247 297 362 434
#
# _framework density 23.958824
#
# number of rings (size 3 to 8) (size 9 to 14) (size 15 to 20)
#    0.000    0.750    3.750    2.625    5.250    2.000 
#    2.250    0.000    0.000    0.000    0.000    0.000 
#    0.000    0.000    0.000    0.000    0.000    0.000 
#
# Total GULP energy -89473.063225 kJ/mol
# GULP energy per Si atom -5592.066452 kJ/mol
# Density = 2.390429 g / cm^3
# Si number density = 23.958824 Si / 1000 Ang^3
#
#
#
# Elastic Constant Matrix: (Units=GPa)
#
#
# Indices 1 2 3 4 5 6 
#
# 1 107.5032 2.8158 19.8822 -2.8363 12.9025 -9.1128
# 2 2.8158 108.5201 23.0422 -20.0702 12.4213 -8.9927
# 3 19.8822 23.0422 94.5456 -18.6999 3.3940 -8.6284
# 4 -2.8363 -20.0702 -18.6999 34.4847 -4.7325 7.6958
# 5 12.9025 12.4213 3.3940 -4.7325 42.5768 -5.2059
# 6 -9.1128 -8.9927 -8.6284 7.6958 -5.2059 30.1054
#
#
#
# Elastic Compliance Matrix: (Units=1/GPa)
#
#
# Indices 1 2 3 4 5 6 
#
# 1 0.010208 0.000546 -0.002143 -0.000933 -0.002895 0.002377
# 2 0.000546 0.010828 -0.001587 0.004860 -0.002503 0.001270
# 3 -0.002143 -0.001587 0.012597 0.005581 0.000877 0.001213
# 4 -0.000933 0.004860 0.005581 0.036403 0.001703 -0.006242
# 5 -0.002895 -0.002503 0.000877 0.001703 0.025533 0.002607
# 6 0.002377 0.001270 0.001213 -0.006242 0.002607 0.036709
#
#
# Mechanical properties :
#
#
# Convention : Reuss Voigt Hill
#
# Bulk Modulus (GPa) = 36.67651 44.67216 40.67433
# Shear Modulus (GPa) = 33.84406 39.08863 36.46634
#
# Velocity S-wave (km/s) = 3.76252 4.04355 3.90557
# Velocity P-wave (km/s) = 5.84952 6.36289 6.11159
#
# Compressibility (1/GPa) = 0.02726541
#
# Stress axis : x y z
#
# Youngs Moduli (GPa) = 97.95762 92.35237 79.38099
#
# Poissons Ratio (x) = -0.05043 0.17015
# Poissons Ratio (y) = -0.05349 0.12597
# Poissons Ratio (z) = 0.20997 0.14656
#
# Static dielectric constant tensor:
#      x y z
#    x 1.899220 -0.038110 0.015180 
#    y -0.038110 1.992180 0.018020 
#    z 0.015180 0.018020 1.916290 
# 
# From -- ./inp_files/307442.got.cif
#   From: 2010.05.17/outbox.cif.g08.bks.cpg/sg2_154_cif.got.tgz:307442.got - 2010.06.03 11:33:40.
