data_PCOD9042072
_publ_section_title
;
Structure prediction by ZEFSAII (Michael W. Deem and Ramdas Pophale) SiO2 
 PCOD9042072
Probable space group: P -1
;
_chemical_formula_sum "Si O2"
_cell_formula_units_Z 16
_cell_length_a 7.810631
_cell_length_b 12.303907
_cell_length_c 8.629725
_cell_angle_alpha 76.856219
_cell_angle_beta 49.899169
_cell_angle_gamma 84.031767
_cell_volume 616.737793
_symmetry_space_group_name_H-M "P -1"
_symmetry_group_IT_number 2
_symmetry_cell_setting 'triclinic'
loop_
_space_group_symop_operation_xyz
x,y,z
-x,-y,-z
loop_
_atom_site_type_symbol
_atom_site_label
_atom_site_fract_x
_atom_site_fract_y
_atom_site_fract_z
Si Si1 0.223243 0.757747 0.778549
Si Si2 0.139013 0.747464 0.197007
Si Si3 0.207975 0.432949 0.468861
Si Si4 0.786692 0.035221 0.711706
Si Si5 0.789547 0.846982 0.997591
Si Si6 0.565145 0.612789 0.100524
Si Si7 0.026467 0.551498 0.800066
Si Si8 0.538040 0.900397 0.395727
O O1 0.473316 0.796192 0.577609
O O2 0.160217 0.666932 0.714567
O O3 0.166017 0.735485 0.998436
O O4 0.053493 0.852791 0.808460
O O5 0.163866 0.870731 0.215874
O O6 0.350032 0.676107 0.148734
O O7 0.908179 0.691476 0.422490
O O8 0.448510 0.492546 0.263013
O O9 0.000000 0.500000 0.500000
O O10 0.180859 0.469830 0.649580
O O11 0.623180 0.086852 0.663903
O O12 0.000000 0.000000 0.500000
O O13 0.693372 0.923425 0.893590
O O14 0.692138 0.716818 0.088825
O O15 0.764061 0.890187 0.173312
O O16 0.774320 0.576936 0.882486
O O17 0.000000 0.500000 0.000000
O O18 0.500000 0.000000 0.500000
#
# Coordination Sequence:
#
# PCOD9042072 Si02
#       8
#     2   2   2   2   2   2   2   2
#     4  11  25  45  67 105 143 180 230 296 350 411
#     4  11  24  45  70 103 148 184 237 293 350 424
#     4  10  23  44  69 102 140 183 232 287 344 422
#     4  12  26  46  72 103 139 192 231 290 355 416
#     4  11  24  46  71  97 143 184 232 288 350 415
#     4  10  24  44  76  98 138 190 230 283 355 413
#     4  11  23  46  70 103 140 180 233 289 352 411
#     4  12  26  43  69 102 133 182 238 286 347 418
#
# _framework density 25.942952999999999
#
# number of rings (size 3 to 8) (size 9 to 14) (size 15 to 20)
#    0.000    1.000    3.750    1.875    5.250    3.500 
#    2.250    1.250    0.000    0.000    0.000    0.000 
#    0.000    0.000    0.000    0.000    0.000    0.000 
#
# Total GULP energy -89248.670531 kJ/mol
# GULP energy per Si atom -5578.041908 kJ/mol
# Density = 2.588391 g / cm^3
# Si number density = 25.942953 Si / 1000 Ang^3
#
#
#
# Elastic Constant Matrix: (Units=GPa)
#
#
# Indices 1 2 3 4 5 6 
#
# 1 75.8299 12.4327 10.3108 -6.0241 -10.7617 0.2831
# 2 12.4327 87.2343 27.9217 -7.8138 -17.5184 23.0205
# 3 10.3108 27.9217 96.2102 -27.2056 -11.8665 16.0030
# 4 -6.0241 -7.8138 -27.2056 38.2188 0.4512 -3.0478
# 5 -10.7617 -17.5184 -11.8665 0.4512 34.3325 4.5584
# 6 0.2831 23.0205 16.0030 -3.0478 4.5584 42.4495
#
#
#
# Elastic Compliance Matrix: (Units=1/GPa)
#
#
# Indices 1 2 3 4 5 6 
#
# 1 0.014069 -0.001108 -0.000291 0.001768 0.003675 0.000349
# 2 -0.001108 0.016405 -0.001761 0.001101 0.008605 -0.009070
# 3 -0.000291 -0.001761 0.015065 0.009903 0.004687 -0.004515
# 4 0.001768 0.001101 0.009903 0.033474 0.004419 -0.002413
# 5 0.003675 0.008605 0.004687 0.004419 0.037582 -0.010176
# 6 0.000349 -0.009070 -0.004515 -0.002413 -0.010176 0.031095
#
#
# Mechanical properties :
#
#
# Convention : Reuss Voigt Hill
#
# Bulk Modulus (GPa) = 25.49706 40.06719 32.78213
# Shear Modulus (GPa) = 29.92503 36.90744 33.41623
#
# Velocity S-wave (km/s) = 3.40000 3.77588 3.59286
# Velocity P-wave (km/s) = 5.02621 5.87261 5.46582
#
# Compressibility (1/GPa) = 0.03922021
#
# Stress axis : x y z
#
# Youngs Moduli (GPa) = 71.07671 60.95671 66.37695
#
# Poissons Ratio (x) = 0.06753 0.01932
# Poissons Ratio (y) = 0.07874 0.11689
# Poissons Ratio (z) = 0.02069 0.10734
#
# Static dielectric constant tensor:
#      x y z
#    x 2.073580 -0.082360 -0.025920 
#    y -0.082360 1.955970 -0.114500 
#    z -0.025920 -0.114500 2.139520 
# 
# From -- ./inp_files/186441.got.cif
#   From: 2010.05.17/outbox.cif.g08.bks.cpg/sg2_94_cif.got.tgz:186441.got - 2010.06.03 11:33:40.
