data_PCOD9042190
_publ_section_title
;
Structure prediction by ZEFSAII (Michael W. Deem and Ramdas Pophale) SiO2 
 PCOD9042190
Probable space group: P -1
;
_chemical_formula_sum "Si O2"
_cell_formula_units_Z 14
_cell_length_a 9.643249
_cell_length_b 8.928302
_cell_length_c 14.809137
_cell_angle_alpha 134.722766
_cell_angle_beta 110.744159
_cell_angle_gamma 42.518093
_cell_volume 575.225015
_symmetry_space_group_name_H-M "P -1"
_symmetry_group_IT_number 2
_symmetry_cell_setting 'triclinic'
loop_
_space_group_symop_operation_xyz
x,y,z
-x,-y,-z
loop_
_atom_site_type_symbol
_atom_site_label
_atom_site_fract_x
_atom_site_fract_y
_atom_site_fract_z
Si Si1 0.314285 0.582540 0.428835
Si Si2 0.375252 0.378948 0.953152
Si Si3 0.437485 0.465369 0.827725
Si Si4 0.600597 0.039326 0.119612
Si Si5 0.931779 0.069457 0.169122
Si Si6 0.703207 0.034472 0.540230
Si Si7 0.226794 0.429253 0.519189
O O1 0.500000 0.500000 0.500000
O O2 0.420208 0.341451 0.268269
O O3 0.200855 0.901158 0.484722
O O4 0.215814 0.512676 0.446652
O O5 0.487810 0.250815 0.827880
O O6 0.292921 0.243917 0.910335
O O7 0.538773 0.329131 0.036376
O O8 0.171021 0.749959 0.064262
O O9 0.192501 0.674290 0.828899
O O10 0.595388 0.280401 0.701520
O O11 0.779479 0.023695 0.127350
O O12 0.500000 0.000000 0.000000
O O13 0.902787 0.243832 0.323666
O O14 0.488190 0.167927 0.495111
O O15 0.828376 0.722195 0.495559
#
# Coordination Sequence:
#
# PCOD9042190 Si02
#       7
#     2   2   2   2   2   2   2
#     4  10  17  33  58  88 114 156 208 243 295 376
#     4  11  23  35  63  86 121 164 196 249 309 363
#     4  10  20  40  57  87 121 155 203 247 307 361
#     4  12  21  38  61  87 124 162 200 251 309 356
#     4  11  21  40  57  92 122 152 205 256 295 364
#     4   9  16  32  57  82 114 154 197 251 297 351
#     4   9  18  32  58  87 113 156 204 242 303 361
#
# _framework density 24.338301999999999
#
# number of rings (size 3 to 8) (size 9 to 14) (size 15 to 20)
#    0.000    1.714    5.714    1.714    0.000    1.143 
#    0.000    0.714    0.000    3.429    3.714    0.000 
#    0.000    0.000    0.000    0.000    0.000    0.000 
#
# Total GULP energy -78030.974369 kJ/mol
# GULP energy per Si atom -5573.641026 kJ/mol
# Density = 2.428291 g / cm^3
# Si number density = 24.338302 Si / 1000 Ang^3
#
#
#
# Elastic Constant Matrix: (Units=GPa)
#
#
# Indices 1 2 3 4 5 6 
#
# 1 149.1011 44.2267 32.8501 -5.8041 -6.0706 36.3616
# 2 44.2267 133.9555 28.8628 -0.0986 -5.4184 46.0329
# 3 32.8501 28.8628 95.5150 -22.6994 7.9046 17.0544
# 4 -5.8041 -0.0986 -22.6994 35.1327 7.7274 -0.3236
# 5 -6.0706 -5.4184 7.9046 7.7274 21.6343 -4.9388
# 6 36.3616 46.0329 17.0544 -0.3236 -4.9388 40.2632
#
#
#
# Elastic Compliance Matrix: (Units=1/GPa)
#
#
# Indices 1 2 3 4 5 6 
#
# 1 0.008918 -0.000062 -0.002027 -0.000286 0.001752 -0.006912
# 2 -0.000062 0.012516 -0.001877 -0.001605 0.001338 -0.013308
# 3 -0.002027 -0.001877 0.016805 0.013334 -0.012998 -0.004629
# 4 -0.000286 -0.001605 0.013334 0.041723 -0.021596 -0.005869
# 5 0.001752 0.001338 -0.012998 -0.021596 0.061749 0.009794
# 6 -0.006912 -0.013308 -0.004629 -0.005869 0.009794 0.049408
#
#
# Mechanical properties :
#
#
# Convention : Reuss Voigt Hill
#
# Bulk Modulus (GPa) = 32.99549 65.60566 49.30058
# Shear Modulus (GPa) = 23.90609 37.58149 30.74379
#
# Velocity S-wave (km/s) = 3.13747 3.93380 3.55799
# Velocity P-wave (km/s) = 5.16831 6.90270 6.09749
#
# Compressibility (1/GPa) = 0.03030717
#
# Stress axis : x y z
#
# Youngs Moduli (GPa) = 112.13869 79.89823 59.50624
#
# Poissons Ratio (x) = 0.00492 0.12062
# Poissons Ratio (y) = 0.00691 0.11169
# Poissons Ratio (z) = 0.22731 0.14996
#
# Static dielectric constant tensor:
#      x y z
#    x 2.019040 0.003930 0.036230 
#    y 0.003930 2.071310 -0.022420 
#    z 0.036230 -0.022420 1.929490 
# 
# From -- ./inp_files/516262.got.cif
#   From: 2010.05.17/outbox.cif.g08.bks.cpg/sg2_259_cif.got.tgz:516262.got - 2010.06.03 11:33:40.
