data_PCOD9042636
_publ_section_title
;
Structure prediction by ZEFSAII (Michael W. Deem and Ramdas Pophale) SiO2 
 PCOD9042636
Probable space group: P -1
;
_chemical_formula_sum "Si O2"
_cell_formula_units_Z 15
_cell_length_a 16.703520
_cell_length_b 20.395731
_cell_length_c 9.701798
_cell_angle_alpha 143.344483
_cell_angle_beta 133.522957
_cell_angle_gamma 19.496253
_cell_volume 619.495859
_symmetry_space_group_name_H-M "P -1"
_symmetry_group_IT_number 2
_symmetry_cell_setting 'triclinic'
loop_
_space_group_symop_operation_xyz
x,y,z
-x,-y,-z
loop_
_atom_site_type_symbol
_atom_site_label
_atom_site_fract_x
_atom_site_fract_y
_atom_site_fract_z
Si Si1 0.290450 0.599621 0.460830
Si Si2 0.708871 0.648020 0.915439
Si Si3 0.057477 0.108116 0.718128
Si Si4 0.218977 0.697953 0.012376
Si Si5 0.604666 0.849974 0.652051
Si Si6 0.000000 0.000000 0.000000
Si Si7 0.933765 0.471377 0.172902
Si Si8 0.597831 0.673507 0.542135
O O1 0.500000 0.500000 0.500000
O O2 0.390439 0.383274 0.205712
O O3 0.069313 0.799923 0.422988
O O4 0.173483 0.740347 0.705242
O O5 0.771585 0.563395 0.687439
O O6 0.901265 0.508576 0.031833
O O7 0.524050 0.917775 0.134999
O O8 0.359841 0.823772 0.583680
O O9 0.905831 0.182628 0.784097
O O10 0.007167 0.281939 0.978080
O O11 0.255172 0.538625 0.743461
O O12 0.500000 0.500000 0.000000
O O13 0.036316 0.919603 0.061156
O O14 0.677071 0.733553 0.393979
O O15 0.467345 0.884691 0.646911
O O16 0.852839 0.646991 0.699647
#
# Coordination Sequence:
#
# PCOD9042636 Si02
#       8
#     2   2   2   2   2   1   2   2
#     4  11  26  48  72 106 148 190 243 301 361 433
#     4  11  24  44  71 107 145 188 243 298 363 428
#     4  11  25  47  75 104 147 192 238 299 371 430
#     4  12  27  49  72 105 144 189 245 302 359 431
#     4  11  23  47  74 104 149 187 245 297 363 433
#     4  12  26  44  72 104 130 186 242 288 356 424
#     4  10  23  44  73 107 140 194 235 295 362 431
#     4  12  25  47  73 108 145 195 238 304 367 430
#
# _framework density 24.213238
#
# number of rings (size 3 to 8) (size 9 to 14) (size 15 to 20)
#    0.000    0.800    4.000    2.400    1.867    1.600 
#    2.400    0.000    0.000    0.000    0.000    0.000 
#    0.000    0.000    0.000    0.000    0.000    0.000 
#
# Total GULP energy -83613.313878 kJ/mol
# GULP energy per Si atom -5574.220925 kJ/mol
# Density = 2.415813 g / cm^3
# Si number density = 24.213238 Si / 1000 Ang^3
#
#
#
# Elastic Constant Matrix: (Units=GPa)
#
#
# Indices 1 2 3 4 5 6 
#
# 1 107.5201 30.8274 36.8476 2.9583 -5.7025 15.5966
# 2 30.8274 79.7124 14.2589 -11.5714 -7.8628 13.5197
# 3 36.8476 14.2589 159.1002 -0.7131 -5.9104 2.8042
# 4 2.9583 -11.5714 -0.7131 36.6975 12.4480 5.7033
# 5 -5.7025 -7.8628 -5.9104 12.4480 45.1770 1.9390
# 6 15.5966 13.5197 2.8042 5.7033 1.9390 41.6993
#
#
#
# Elastic Compliance Matrix: (Units=1/GPa)
#
#
# Indices 1 2 3 4 5 6 
#
# 1 0.011710 -0.003854 -0.002283 -0.002196 0.001231 -0.002734
# 2 -0.003854 0.015769 -0.000386 0.005687 0.000832 -0.004462
# 3 -0.002283 -0.000386 0.006859 -0.000065 0.000539 0.000501
# 4 -0.002196 0.005687 -0.000065 0.032764 -0.008104 -0.005122
# 5 0.001231 0.000832 0.000539 -0.008104 0.024774 -0.000810
# 6 -0.002734 -0.004462 0.000501 -0.005122 -0.000810 0.027155
#
#
# Mechanical properties :
#
#
# Convention : Reuss Voigt Hill
#
# Bulk Modulus (GPa) = 46.96194 56.68894 51.82544
# Shear Modulus (GPa) = 35.92654 42.34135 39.13394
#
# Velocity S-wave (km/s) = 3.85613 4.18627 4.02459
# Velocity P-wave (km/s) = 6.26607 6.84322 6.56099
#
# Compressibility (1/GPa) = 0.02129384
#
# Stress axis : x y z
#
# Youngs Moduli (GPa) = 85.39613 63.41610 145.78471
#
# Poissons Ratio (x) = 0.24441 0.33276
# Poissons Ratio (y) = 0.32913 0.05621
# Poissons Ratio (z) = 0.19492 0.02445
#
# Static dielectric constant tensor:
#      x y z
#    x 2.004780 -0.040340 0.050220 
#    y -0.040340 1.909840 0.036770 
#    z 0.050220 0.036770 1.872350 
# 
# From -- ./inp_files/337954.got.cif
#   From: 2010.05.17/outbox.cif.g08.bks.cpg/sg2_169_cif.got.tgz:337954.got - 2010.06.03 11:33:40.
