data_PCOD9042756
_publ_section_title
;
Structure prediction by ZEFSAII (Michael W. Deem and Ramdas Pophale) SiO2 
 PCOD9042756
Probable space group: P -1
;
_chemical_formula_sum "Si O2"
_cell_formula_units_Z 16
_cell_length_a 22.261373
_cell_length_b 15.695552
_cell_length_c 9.252364
_cell_angle_alpha 37.493588
_cell_angle_beta 25.741783
_cell_angle_gamma 26.950600
_cell_volume 635.609445
_symmetry_space_group_name_H-M "P -1"
_symmetry_group_IT_number 2
_symmetry_cell_setting 'triclinic'
loop_
_space_group_symop_operation_xyz
x,y,z
-x,-y,-z
loop_
_atom_site_type_symbol
_atom_site_label
_atom_site_fract_x
_atom_site_fract_y
_atom_site_fract_z
Si Si1 0.298057 0.703253 0.151940
Si Si2 0.050789 0.980492 0.088141
Si Si3 0.126028 0.464230 0.617343
Si Si4 0.175863 0.122017 0.196639
Si Si5 0.061661 0.689223 0.908506
Si Si6 0.814285 0.541298 0.799935
Si Si7 0.486742 0.973760 0.900765
Si Si8 0.470359 0.855643 0.686345
O O1 0.148853 0.713094 0.552765
O O2 0.500000 0.500000 0.000000
O O3 0.330883 0.822982 0.005304
O O4 0.239600 0.781063 0.009623
O O5 0.907273 0.975327 0.489451
O O6 0.037360 0.140294 0.987348
O O7 0.000000 0.000000 0.000000
O O8 0.139585 0.558124 0.320097
O O9 0.326378 0.325777 0.449022
O O10 0.056655 0.361391 0.835591
O O11 0.032929 0.348190 0.199306
O O12 0.280240 0.061438 0.204018
O O13 0.347328 0.022477 0.846640
O O14 0.223509 0.517986 0.892374
O O15 0.641367 0.752047 0.843873
O O16 0.000000 0.500000 0.500000
O O17 0.515737 0.081862 0.583809
O O18 0.500000 0.000000 0.000000
#
# Coordination Sequence:
#
# PCOD9042756 Si02
#       8
#     2   2   2   2   2   2   2   2
#     4  12  30  52  83 120 167 221 281 339 427 500
#     4  12  29  53  83 118 172 221 276 342 424 505
#     4  11  26  52  85 127 165 213 282 345 421 488
#     4  12  27  51  84 121 164 221 274 343 422 494
#     4  11  26  52  85 117 164 221 270 341 419 497
#     4  10  23  44  75 115 158 204 270 338 399 481
#     4  12  28  47  76 118 160 212 279 338 414 487
#     4  12  29  53  83 125 167 214 284 351 408 514
#
# _framework density 25.172692000000001
#
# number of rings (size 3 to 8) (size 9 to 14) (size 15 to 20)
#    0.000    0.500    2.500    3.750   10.500    0.500 
#    2.250    1.875    0.000    0.000    0.000    0.000 
#    0.000    0.000    0.000    0.000    0.000    0.000 
#
# Total GULP energy -89330.697420 kJ/mol
# GULP energy per Si atom -5583.168589 kJ/mol
# Density = 2.511540 g / cm^3
# Si number density = 25.172692 Si / 1000 Ang^3
#
#
#
# Elastic Constant Matrix: (Units=GPa)
#
#
# Indices 1 2 3 4 5 6 
#
# 1 186.9025 74.1316 52.3661 -4.7461 18.9810 -26.8289
# 2 74.1316 139.9832 30.2578 14.0858 16.7132 -38.1495
# 3 52.3661 30.2578 94.4774 -3.7294 2.6896 -6.4580
# 4 -4.7461 14.0858 -3.7294 37.6852 1.6897 5.5100
# 5 18.9810 16.7132 2.6896 1.6897 46.6726 -6.4619
# 6 -26.8289 -38.1495 -6.4580 5.5100 -6.4619 58.2472
#
#
#
# Elastic Compliance Matrix: (Units=1/GPa)
#
#
# Indices 1 2 3 4 5 6 
#
# 1 0.007859 -0.003244 -0.003139 0.001860 -0.001814 0.000770
# 2 -0.003244 0.011761 -0.001714 -0.005831 -0.001699 0.006382
# 3 -0.003139 -0.001714 0.012830 0.001649 0.000925 -0.001199
# 4 0.001860 -0.005831 0.001649 0.029972 -0.000636 -0.005685
# 5 -0.001814 -0.001699 0.000925 -0.000636 0.022845 0.000749
# 6 0.000770 0.006382 -0.001199 -0.005685 0.000749 0.022190
#
#
# Mechanical properties :
#
#
# Convention : Reuss Voigt Hill
#
# Bulk Modulus (GPa) = 61.51884 81.65267 71.58576
# Shear Modulus (GPa) = 38.73840 46.16151 42.44996
#
# Velocity S-wave (km/s) = 3.92714 4.28693 4.11097
# Velocity P-wave (km/s) = 6.71231 7.55057 7.14374
#
# Compressibility (1/GPa) = 0.01625518
#
# Stress axis : x y z
#
# Youngs Moduli (GPa) = 127.25008 85.02693 77.94099
#
# Poissons Ratio (x) = 0.27583 0.24467
# Poissons Ratio (y) = 0.41280 0.13360
# Poissons Ratio (z) = 0.39945 0.14575
#
# Static dielectric constant tensor:
#      x y z
#    x 2.603820 0.416950 -0.210400 
#    y 0.416950 2.338400 -0.256380 
#    z -0.210400 -0.256380 1.916360 
# 
# From -- ./inp_files/348793.got.cif
#   From: 2010.05.17/outbox.cif.g08.bks.cpg/sg2_175_cif.got.tgz:348793.got - 2010.06.03 11:33:40.
