data_PCOD9042297
_publ_section_title
;
Structure prediction by ZEFSAII (Michael W. Deem and Ramdas Pophale) SiO2 
 PCOD9042297
Probable space group: P -1
;
_chemical_formula_sum "Si O2"
_cell_formula_units_Z 16
_cell_length_a 12.470884
_cell_length_b 5.472694
_cell_length_c 29.963077
_cell_angle_alpha 81.319560
_cell_angle_beta 159.044296
_cell_angle_gamma 100.985833
_cell_volume 715.836794
_symmetry_space_group_name_H-M "P -1"
_symmetry_group_IT_number 2
_symmetry_cell_setting 'triclinic'
loop_
_space_group_symop_operation_xyz
x,y,z
-x,-y,-z
loop_
_atom_site_type_symbol
_atom_site_label
_atom_site_fract_x
_atom_site_fract_y
_atom_site_fract_z
Si Si1 0.528800 0.395651 0.107059
Si Si2 0.634235 0.084686 0.321685
Si Si3 0.321181 0.940248 0.478924
Si Si4 0.634409 0.796944 0.690759
Si Si5 0.199923 0.273611 0.076175
Si Si6 0.842049 0.557827 0.611745
Si Si7 0.667477 0.086358 0.017468
Si Si8 0.761173 0.657405 0.425196
O O1 0.397476 0.343946 0.106950
O O2 0.894434 0.430873 0.249656
O O3 0.435647 0.657317 0.047256
O O4 0.400104 0.149978 0.035497
O O5 0.527921 0.119526 0.330379
O O6 0.429588 0.224385 0.206522
O O7 0.994537 0.165934 0.455147
O O8 0.606150 0.784553 0.320101
O O9 0.545968 0.925966 0.607769
O O10 0.128701 0.668744 0.404304
O O11 0.500000 0.000000 0.500000
O O12 0.130686 0.165840 0.405343
O O13 0.495736 0.505354 0.641766
O O14 0.982543 0.848846 0.835942
O O15 0.000000 0.500000 0.000000
O O16 0.000000 0.000000 0.000000
O O17 0.500000 0.500000 0.500000
O O18 0.500000 0.000000 0.000000
O O19 0.000000 0.500000 0.500000
#
# Coordination Sequence:
#
# PCOD9042297 Si02
#       8
#     2   2   2   2   2   2   2   2
#     4  12  27  51  74 111 147 199 250 306 378 436
#     4  10  23  44  70 108 143 185 248 298 374 440
#     4  10  24  42  69 102 138 186 236 292 367 427
#     4  11  25  42  75  98 149 188 244 298 378 427
#     4  12  28  47  77 106 152 198 249 307 369 452
#     4  10  24  43  74  99 147 183 242 298 371 434
#     4  12  30  49  76 107 149 198 254 306 363 450
#     4   9  22  42  69 103 141 181 238 302 361 437
#
# _framework density 22.351462000000001
#
# number of rings (size 3 to 8) (size 9 to 14) (size 15 to 20)
#    0.000    1.250    0.000    3.375   17.500    2.000 
#    0.000    0.000    0.000    0.000    0.000    0.000 
#    0.000    0.000    0.000    0.000    0.000    0.000 
#
# Total GULP energy -89334.668766 kJ/mol
# GULP energy per Si atom -5583.416798 kJ/mol
# Density = 2.230059 g / cm^3
# Si number density = 22.351462 Si / 1000 Ang^3
#
#
#
# Elastic Constant Matrix: (Units=GPa)
#
#
# Indices 1 2 3 4 5 6 
#
# 1 124.3580 41.7882 54.8023 -12.0384 -16.9411 17.3587
# 2 41.7882 180.8270 75.6656 -23.8674 -21.8640 -0.5193
# 3 54.8023 75.6656 179.2808 -5.1108 -20.2142 10.1835
# 4 -12.0384 -23.8674 -5.1108 44.0383 15.0711 -3.1597
# 5 -16.9411 -21.8640 -20.2142 15.0711 40.2128 -1.2063
# 6 17.3587 -0.5193 10.1835 -3.1597 -1.2063 22.4530
#
#
#
# Elastic Compliance Matrix: (Units=1/GPa)
#
#
# Indices 1 2 3 4 5 6 
#
# 1 0.010767 -0.001271 -0.002064 0.000702 0.002329 -0.007194
# 2 -0.001271 0.007541 -0.002749 0.003273 0.001044 0.002921
# 3 -0.002064 -0.002749 0.007679 -0.002071 0.002209 -0.002124
# 4 0.000702 0.003273 -0.002071 0.027897 -0.009304 0.003898
# 5 0.002329 0.001044 0.002209 -0.009304 0.030941 -0.002425
# 6 -0.007194 0.002921 -0.002124 0.003898 -0.002425 0.051548
#
#
# Mechanical properties :
#
#
# Convention : Reuss Voigt Hill
#
# Bulk Modulus (GPa) = 72.35909 92.10866 82.23388
# Shear Modulus (GPa) = 32.64834 42.15480 37.40157
#
# Velocity S-wave (km/s) = 3.82603 4.34752 4.09508
# Velocity P-wave (km/s) = 7.20844 8.15475 7.69615
#
# Compressibility (1/GPa) = 0.01381996
#
# Stress axis : x y z
#
# Youngs Moduli (GPa) = 92.87473 132.61347 130.21731
#
# Poissons Ratio (x) = 0.16858 0.26871
# Poissons Ratio (y) = 0.11806 0.35796
# Poissons Ratio (z) = 0.19166 0.36454
#
# Static dielectric constant tensor:
#      x y z
#    x 1.803080 -0.042800 -0.031530 
#    y -0.042800 2.156170 0.051210 
#    z -0.031530 0.051210 1.805280 
# 
# From -- ./inp_files/622872.got.cif
#   From: 2010.05.17/outbox.cif.g08.bks.cpg/sg2_312_cif.got.tgz:622872.got - 2010.06.03 11:33:40.
