data_PCOD9042209
_publ_section_title
;
Structure prediction by ZEFSAII (Michael W. Deem and Ramdas Pophale) SiO2 
 PCOD9042209
Probable space group: P -1
;
_chemical_formula_sum "Si O2"
_cell_formula_units_Z 16
_cell_length_a 19.750745
_cell_length_b 7.895704
_cell_length_c 23.850578
_cell_angle_alpha 32.945722
_cell_angle_beta 21.473530
_cell_angle_gamma 30.044591
_cell_volume 670.122395
_symmetry_space_group_name_H-M "P -1"
_symmetry_group_IT_number 2
_symmetry_cell_setting 'triclinic'
loop_
_space_group_symop_operation_xyz
x,y,z
-x,-y,-z
loop_
_atom_site_type_symbol
_atom_site_label
_atom_site_fract_x
_atom_site_fract_y
_atom_site_fract_z
Si Si1 0.464141 0.598156 0.064172
Si Si2 0.308450 0.749726 0.401604
Si Si3 0.794327 0.126383 0.010440
Si Si4 0.051107 0.322309 0.888518
Si Si5 0.078956 0.547432 0.366414
Si Si6 0.432921 0.393721 0.522113
Si Si7 0.379252 0.310881 0.914152
Si Si8 0.862546 0.762865 0.356751
O O1 0.227284 0.718493 0.222681
O O2 0.500000 0.500000 0.000000
O O3 0.600862 0.242348 0.087505
O O4 0.508483 0.930330 0.944947
O O5 0.379180 0.650919 0.438990
O O6 0.492404 0.598842 0.256677
O O7 0.149198 0.588637 0.554879
O O8 0.209889 0.156172 0.354477
O O9 0.976761 0.162599 0.826002
O O10 0.695021 0.423500 0.051473
O O11 0.867473 0.767905 0.085829
O O12 0.229040 0.339114 0.708642
O O13 0.833589 0.645497 0.962612
O O14 0.000000 0.000000 0.000000
O O15 0.000000 0.500000 0.500000
O O16 0.930065 0.739808 0.376492
O O17 0.500000 0.500000 0.500000
O O18 0.632420 0.053146 0.445617
#
# Coordination Sequence:
#
# PCOD9042209 Si02
#       8
#     2   2   2   2   2   2   2   2
#     4  12  25  46  66 100 141 178 234 286 340 412
#     4  12  25  47  71 103 140 184 232 283 346 424
#     4  11  24  44  73 100 136 184 232 283 344 412
#     4  10  23  44  70 101 134 181 229 277 343 416
#     4  12  29  44  70 102 143 182 232 287 354 406
#     4  12  28  46  73 107 145 179 233 293 354 408
#     4  11  24  44  73 100 136 184 232 283 344 412
#     4  12  25  47  71 103 140 184 232 283 346 424
#
# _framework density 23.876235999999999
#
# number of rings (size 3 to 8) (size 9 to 14) (size 15 to 20)
#    0.000    0.500    2.500    5.625   10.500    0.000 
#    0.000    1.875    0.000    0.000    0.000    0.000 
#    0.000    0.000    0.000    0.000    0.000    0.000 
#
# Total GULP energy -89457.152215 kJ/mol
# GULP energy per Si atom -5591.072013 kJ/mol
# Density = 2.382189 g / cm^3
# Si number density = 23.876236 Si / 1000 Ang^3
#
#
#
# Elastic Constant Matrix: (Units=GPa)
#
#
# Indices 1 2 3 4 5 6 
#
# 1 86.1001 -9.0314 23.8234 8.8884 22.6535 -24.4154
# 2 -9.0314 51.7078 14.5422 3.6281 6.9956 -16.6805
# 3 23.8234 14.5422 143.4933 4.4851 23.9874 -9.2151
# 4 8.8884 3.6281 4.4851 28.3275 2.5745 3.4391
# 5 22.6535 6.9956 23.9874 2.5745 43.3160 0.0188
# 6 -24.4154 -16.6805 -9.2151 3.4391 0.0188 48.5835
#
#
#
# Elastic Compliance Matrix: (Units=1/GPa)
#
#
# Indices 1 2 3 4 5 6 
#
# 1 0.021383 0.011149 -0.001506 -0.008650 -0.011642 0.014905
# 2 0.011149 0.028652 -0.002020 -0.007938 -0.008874 0.015622
# 3 -0.001506 -0.002020 0.007987 -0.000244 -0.003295 0.000083
# 4 -0.008650 -0.007938 -0.000244 0.039954 0.003571 -0.009949
# 5 -0.011642 -0.008874 -0.003295 0.003571 0.032224 -0.009788
# 6 0.014905 0.015622 0.000083 -0.009949 -0.009788 0.034161
#
#
# Mechanical properties :
#
#
# Convention : Reuss Voigt Hill
#
# Bulk Modulus (GPa) = 13.64850 37.77439 25.71144
# Shear Modulus (GPa) = 28.81179 40.84321 34.82750
#
# Velocity S-wave (km/s) = 3.47755 4.14045 3.82339
# Velocity P-wave (km/s) = 4.67474 6.22198 5.50301
#
# Compressibility (1/GPa) = 0.07326813
#
# Stress axis : x y z
#
# Youngs Moduli (GPa) = 46.76551 34.90156 125.19565
#
# Poissons Ratio (x) = -0.38911 0.18858
# Poissons Ratio (y) = -0.52138 0.25287
# Poissons Ratio (z) = 0.07044 0.07049
#
# Static dielectric constant tensor:
#      x y z
#    x 1.854460 0.049060 -0.168790 
#    y 0.049060 1.943980 0.094480 
#    z -0.168790 0.094480 1.693160 
# 
# From -- ./inp_files/613556.got.cif
#   From: 2010.05.17/outbox.cif.g08.bks.cpg/sg2_307_cif.got.tgz:613556.got - 2010.06.03 11:33:40.
