data_PCOD9042885
_publ_section_title
;
Structure prediction by ZEFSAII (Michael W. Deem and Ramdas Pophale) SiO2 
 PCOD9042885
Probable space group: P -1
;
_chemical_formula_sum "Si O2"
_cell_formula_units_Z 16
_cell_length_a 11.518744
_cell_length_b 11.703964
_cell_length_c 9.159711
_cell_angle_alpha 97.345442
_cell_angle_beta 39.009660
_cell_angle_gamma 93.481846
_cell_volume 769.433259
_symmetry_space_group_name_H-M "P -1"
_symmetry_group_IT_number 2
_symmetry_cell_setting 'triclinic'
loop_
_space_group_symop_operation_xyz
x,y,z
-x,-y,-z
loop_
_atom_site_type_symbol
_atom_site_label
_atom_site_fract_x
_atom_site_fract_y
_atom_site_fract_z
Si Si1 0.801299 0.560887 0.239405
Si Si2 0.897619 0.673109 0.657296
Si Si3 0.256449 0.532207 0.410335
Si Si4 0.053687 0.878196 0.352916
Si Si5 0.412953 0.339816 0.812808
Si Si6 0.437188 0.933257 0.908135
Si Si7 0.609274 0.903397 0.280642
Si Si8 0.790651 0.825647 0.364623
O O1 0.732372 0.487118 0.429372
O O2 0.673821 0.582151 0.223347
O O3 0.818093 0.688387 0.308473
O O4 0.000000 0.500000 0.000000
O O5 0.790067 0.586036 0.644061
O O6 0.082410 0.613520 0.539458
O O7 0.961691 0.779911 0.519802
O O8 0.756616 0.699303 0.930527
O O9 0.447827 0.592934 0.211361
O O10 0.958581 0.878801 0.289071
O O11 0.272455 0.857575 0.110886
O O12 0.000000 0.000000 0.500000
O O13 0.497302 0.214996 0.653333
O O14 0.606217 0.865076 0.646006
O O15 0.356514 0.032484 0.892572
O O16 0.500000 0.000000 0.000000
O O17 0.776389 0.865367 0.217672
O O18 0.500000 0.000000 0.500000
#
# Coordination Sequence:
#
# PCOD9042885 Si02
#       8
#     2   2   2   2   2   2   2   2
#     4  11  22  47  66  95 138 172 228 280 328 397
#     4  11  25  43  64 102 134 167 229 276 329 399
#     4  11  24  44  67  97 133 175 221 281 330 398
#     4  12  24  41  71 100 134 179 217 278 345 395
#     4  11  23  42  73  94 131 182 216 276 341 397
#     4  11  23  42  69  99 134 175 220 274 334 405
#     4   9  22  43  64  97 136 167 222 276 322 402
#     4  10  23  45  65  98 135 172 224 278 328 406
#
# _framework density 20.794525
#
# number of rings (size 3 to 8) (size 9 to 14) (size 15 to 20)
#    0.000    1.250    3.750    1.500    1.750    0.500 
#   13.500    0.000    0.000    0.000    0.000    0.000 
#    0.000    0.000    0.000    0.000    0.000    0.000 
#
# Total GULP energy -89262.479072 kJ/mol
# GULP energy per Si atom -5578.904942 kJ/mol
# Density = 2.074720 g / cm^3
# Si number density = 20.794525 Si / 1000 Ang^3
#
#
#
# Elastic Constant Matrix: (Units=GPa)
#
#
# Indices 1 2 3 4 5 6 
#
# 1 116.4900 56.9397 45.5082 -8.1557 4.8497 22.0141
# 2 56.9397 113.9607 35.1284 2.7665 -4.2383 1.3878
# 3 45.5082 35.1284 87.0900 -2.0345 0.2725 3.3089
# 4 -8.1557 2.7665 -2.0345 33.9424 -3.9374 0.5708
# 5 4.8497 -4.2383 0.2725 -3.9374 33.1990 -10.0811
# 6 22.0141 1.3878 3.3089 0.5708 -10.0811 35.2638
#
#
#
# Elastic Compliance Matrix: (Units=1/GPa)
#
#
# Indices 1 2 3 4 5 6 
#
# 1 0.016803 -0.006902 -0.005449 0.003730 -0.006367 -0.011587
# 2 -0.006902 0.012947 -0.001881 -0.002455 0.003947 0.005144
# 3 -0.005449 -0.001881 0.014990 -0.000165 0.001141 0.002398
# 4 0.003730 -0.002455 -0.000165 0.030834 0.002163 -0.002097
# 5 -0.006367 0.003947 0.001141 0.002163 0.036049 0.013983
# 6 -0.011587 0.005144 0.002398 -0.002097 0.013983 0.039195
#
#
# Mechanical properties :
#
#
# Convention : Reuss Voigt Hill
#
# Bulk Modulus (GPa) = 61.43984 65.85481 63.64732
# Shear Modulus (GPa) = 27.07012 32.47867 29.77440
#
# Velocity S-wave (km/s) = 3.61195 3.95636 3.78807
# Velocity P-wave (km/s) = 6.85603 7.25317 7.05739
#
# Compressibility (1/GPa) = 0.01627608
#
# Stress axis : x y z
#
# Youngs Moduli (GPa) = 59.51476 77.23808 66.71233
#
# Poissons Ratio (x) = 0.53309 0.36350
# Poissons Ratio (y) = 0.41077 0.12548
# Poissons Ratio (z) = 0.32429 0.14527
#
# Static dielectric constant tensor:
#      x y z
#    x 1.756390 -0.006460 0.008850 
#    y -0.006460 1.781820 0.005830 
#    z 0.008850 0.005830 1.758910 
# 
# From -- ./inp_files/258812.got.cif
#   From: 2010.05.17/outbox.cif.g08.bks.cpg/sg2_130_cif.got.tgz:258812.got - 2010.06.03 11:33:40.
