data_PCOD9042842
_publ_section_title
;
Structure prediction by ZEFSAII (Michael W. Deem and Ramdas Pophale) SiO2 
 PCOD9042842
Probable space group: P -1
;
_chemical_formula_sum "Si O2"
_cell_formula_units_Z 16
_cell_length_a 15.857695
_cell_length_b 8.377116
_cell_length_c 12.020281
_cell_angle_alpha 75.737601
_cell_angle_beta 46.091480
_cell_angle_gamma 112.882209
_cell_volume 666.623040
_symmetry_space_group_name_H-M "P -1"
_symmetry_group_IT_number 2
_symmetry_cell_setting 'triclinic'
loop_
_space_group_symop_operation_xyz
x,y,z
-x,-y,-z
loop_
_atom_site_type_symbol
_atom_site_label
_atom_site_fract_x
_atom_site_fract_y
_atom_site_fract_z
Si Si1 0.721332 0.743959 0.553212
Si Si2 0.922549 0.951170 0.954862
Si Si3 0.833709 0.383081 0.753059
Si Si4 0.616498 0.465998 0.173365
Si Si5 0.666369 0.154156 0.231779
Si Si6 0.546236 0.206757 0.711224
Si Si7 0.775615 0.701154 0.750720
Si Si8 0.969640 0.549077 0.228744
O O1 0.614893 0.772577 0.583560
O O2 0.627584 0.470431 0.636190
O O3 0.697693 0.711780 0.713080
O O4 0.944451 0.993630 0.267030
O O5 0.959263 0.184121 0.859541
O O6 0.707404 0.649328 0.169008
O O7 0.000000 0.000000 0.000000
O O8 0.776357 0.506309 0.759156
O O9 0.000000 0.500000 0.500000
O O10 0.949121 0.480174 0.745920
O O11 0.624305 0.053201 0.006796
O O12 0.673391 0.341329 0.136140
O O13 0.687832 0.632924 0.964950
O O14 0.500000 0.000000 0.500000
O O15 0.569098 0.912832 0.278863
O O16 0.887789 0.346613 0.021238
O O17 0.734479 0.301259 0.495761
O O18 0.000000 0.000000 0.500000
#
# Coordination Sequence:
#
# PCOD9042842 Si02
#       8
#     2   2   2   2   2   2   2   2
#     4  11  26  44  72  99 138 190 228 287 347 423
#     4  11  26  46  72 103 137 186 237 281 352 419
#     4  11  23  43  69  99 137 184 227 287 343 416
#     4  12  25  47  70 104 141 180 231 295 355 411
#     4  11  26  44  69 102 139 181 232 295 352 407
#     4  10  23  45  65 100 133 179 238 269 348 421
#     4  12  25  46  68 104 143 180 234 291 353 411
#     4  10  23  46  67  97 140 179 233 283 343 427
#
# _framework density 24.001570000000001
#
# number of rings (size 3 to 8) (size 9 to 14) (size 15 to 20)
#    0.000    1.000    3.750    3.375    7.000    5.000 
#    0.000    0.000    0.000    0.000    0.000    0.000 
#    0.000    0.000    0.000    0.000    0.000    0.000 
#
# Total GULP energy -89308.820398 kJ/mol
# GULP energy per Si atom -5581.801275 kJ/mol
# Density = 2.394694 g / cm^3
# Si number density = 24.001570 Si / 1000 Ang^3
#
#
#
# Elastic Constant Matrix: (Units=GPa)
#
#
# Indices 1 2 3 4 5 6 
#
# 1 82.0484 18.0529 19.9295 17.0703 -24.4538 19.0791
# 2 18.0529 46.3744 6.0719 0.6290 -4.1758 11.7711
# 3 19.9295 6.0719 141.1565 22.0909 -24.9051 -1.8910
# 4 17.0703 0.6290 22.0909 33.5595 0.2434 -3.8616
# 5 -24.4538 -4.1758 -24.9051 0.2434 44.4865 10.6294
# 6 19.0791 11.7711 -1.8910 -3.8616 10.6294 40.7598
#
#
#
# Elastic Compliance Matrix: (Units=1/GPa)
#
#
# Indices 1 2 3 4 5 6 
#
# 1 0.025822 -0.003945 0.002334 -0.016749 0.019400 -0.017485
# 2 -0.003945 0.024647 -0.000581 0.001290 0.001119 -0.005467
# 3 0.002334 -0.000581 0.009196 -0.007637 0.007156 -0.003088
# 4 -0.016749 0.001290 -0.007637 0.045282 -0.017419 0.015946
# 5 0.019400 0.001119 0.007156 -0.017419 0.042563 -0.021822
# 6 -0.017485 -0.005467 -0.003088 0.015946 -0.021822 0.041355
#
#
# Mechanical properties :
#
#
# Convention : Reuss Voigt Hill
#
# Bulk Modulus (GPa) = 18.08987 39.74310 28.91648
# Shear Modulus (GPa) = 23.62101 38.79616 31.20859
#
# Velocity S-wave (km/s) = 3.14051 4.02481 3.60984
# Velocity P-wave (km/s) = 4.55013 6.18007 5.42665
#
# Compressibility (1/GPa) = 0.05527957
#
# Stress axis : x y z
#
# Youngs Moduli (GPa) = 38.72737 40.57362 108.73970
#
# Poissons Ratio (x) = 0.16008 -0.25378
# Poissons Ratio (y) = 0.15279 0.06316
# Poissons Ratio (z) = -0.09038 0.02357
#
# Static dielectric constant tensor:
#      x y z
#    x 1.946080 -0.001420 0.031270 
#    y -0.001420 1.884560 0.053870 
#    z 0.031270 0.053870 2.049590 
# 
# From -- ./inp_files/447108.got.cif
#   From: 2010.05.17/outbox.cif.g08.bks.cpg/sg2_224_cif.got.tgz:447108.got - 2010.06.03 11:33:40.
