data_PCOD9042680
_publ_section_title
;
Structure prediction by ZEFSAII (Michael W. Deem and Ramdas Pophale) SiO2 
 PCOD9042680
Probable space group: P -1
;
_chemical_formula_sum "Si O2"
_cell_formula_units_Z 16
_cell_length_a 8.761975
_cell_length_b 8.947981
_cell_length_c 15.866595
_cell_angle_alpha 102.795772
_cell_angle_beta 141.949383
_cell_angle_gamma 69.634248
_cell_volume 715.822317
_symmetry_space_group_name_H-M "P -1"
_symmetry_group_IT_number 2
_symmetry_cell_setting 'triclinic'
loop_
_space_group_symop_operation_xyz
x,y,z
-x,-y,-z
loop_
_atom_site_type_symbol
_atom_site_label
_atom_site_fract_x
_atom_site_fract_y
_atom_site_fract_z
Si Si1 0.791666 0.436618 0.092181
Si Si2 0.044229 0.733353 0.505897
Si Si3 0.055106 0.678261 0.158379
Si Si4 0.234564 0.010464 0.834065
Si Si5 0.589656 0.565124 0.460751
Si Si6 0.967392 0.732762 0.665437
Si Si7 0.637511 0.024865 0.312886
Si Si8 0.950727 0.831657 0.948294
O O1 0.891480 0.557734 0.094528
O O2 0.942319 0.400499 0.240558
O O3 0.851103 0.276214 0.044121
O O4 0.500000 0.500000 0.000000
O O5 0.164451 0.572930 0.486164
O O6 0.206240 0.857284 0.568882
O O7 0.079067 0.695571 0.615347
O O8 0.750381 0.846324 0.377928
O O9 0.355924 0.593389 0.295959
O O10 0.962221 0.823298 0.202133
O O11 0.987060 0.744819 0.043414
O O12 0.309838 0.999876 0.767284
O O13 0.080642 0.876946 0.762595
O O14 0.500000 0.000000 0.000000
O O15 0.500000 0.500000 0.500000
O O16 0.669649 0.729862 0.527316
O O17 0.340457 0.123356 0.207457
O O18 0.000000 0.000000 0.000000
#
# Coordination Sequence:
#
# PCOD9042680 Si02
#       8
#     2   2   2   2   2   2   2   2
#     4  12  28  46  74 107 147 193 245 305 375 437
#     4  10  24  46  73 102 137 197 236 300 359 437
#     4  12  26  46  75 104 147 194 238 311 367 433
#     4  11  22  46  72 105 143 191 243 300 365 428
#     4  12  25  46  69 106 148 185 242 299 369 435
#     4  11  26  46  70 105 139 193 242 295 362 444
#     4  10  23  44  74 100 144 187 246 293 362 431
#     4  12  28  46  72 110 145 193 246 306 361 438
#
# _framework density 22.351917
#
# number of rings (size 3 to 8) (size 9 to 14) (size 15 to 20)
#    0.000    0.750    2.500    3.750    7.000    0.500 
#    0.000    0.000    0.000    0.000    0.000    0.000 
#    0.000    0.000    0.000    0.000    0.000    0.000 
#
# Total GULP energy -89422.445207 kJ/mol
# GULP energy per Si atom -5588.902825 kJ/mol
# Density = 2.230104 g / cm^3
# Si number density = 22.351917 Si / 1000 Ang^3
#
#
#
# Elastic Constant Matrix: (Units=GPa)
#
#
# Indices 1 2 3 4 5 6 
#
# 1 66.4591 55.5844 14.9021 -0.0733 -1.4135 2.7247
# 2 55.5844 127.9829 44.2959 9.0542 0.3745 -4.5640
# 3 14.9021 44.2959 80.5700 -0.9339 8.4422 9.3647
# 4 -0.0733 9.0542 -0.9339 39.2651 4.9045 1.7908
# 5 -1.4135 0.3745 8.4422 4.9045 43.3826 0.2200
# 6 2.7247 -4.5640 9.3647 1.7908 0.2200 44.4469
#
#
#
# Elastic Compliance Matrix: (Units=1/GPa)
#
#
# Indices 1 2 3 4 5 6 
#
# 1 0.024527 -0.011797 0.002358 0.002959 0.000125 -0.003332
# 2 -0.011797 0.015865 -0.007198 -0.004202 0.001334 0.004032
# 3 0.002358 -0.007198 0.016848 0.002699 -0.003422 -0.004525
# 4 0.002959 -0.004202 0.002699 0.027039 -0.003438 -0.002254
# 5 0.000125 0.001334 -0.003422 -0.003438 0.024093 0.000870
# 6 -0.003332 0.004032 -0.004525 -0.002254 0.000870 0.024157
#
#
# Mechanical properties :
#
#
# Convention : Reuss Voigt Hill
#
# Bulk Modulus (GPa) = 41.72344 56.06408 48.89376
# Shear Modulus (GPa) = 28.76981 36.10089 32.43535
#
# Velocity S-wave (km/s) = 3.59155 4.02321 3.81349
# Velocity P-wave (km/s) = 5.99217 6.83509 6.42746
#
# Compressibility (1/GPa) = 0.02396735
#
# Stress axis : x y z
#
# Youngs Moduli (GPa) = 40.77086 63.03020 59.35269
#
# Poissons Ratio (x) = 0.74357 -0.13994
# Poissons Ratio (y) = 0.48097 0.42720
# Poissons Ratio (z) = -0.09613 0.45367
#
# Static dielectric constant tensor:
#      x y z
#    x 1.814600 0.039070 0.095680 
#    y 0.039070 1.827580 0.018490 
#    z 0.095680 0.018490 2.034070 
# 
# From -- ./inp_files/495328.got.cif
#   From: 2010.05.17/outbox.cif.g08.bks.cpg/sg2_248_cif.got.tgz:495328.got - 2010.06.03 11:33:40.
