data_PCOD9042727
_publ_section_title
;
Structure prediction by ZEFSAII (Michael W. Deem and Ramdas Pophale) SiO2 
 PCOD9042727
Probable space group: P -1
;
_chemical_formula_sum "Si O2"
_cell_formula_units_Z 16
_cell_length_a 12.188565
_cell_length_b 17.530957
_cell_length_c 12.571788
_cell_angle_alpha 143.863049
_cell_angle_beta 157.043259
_cell_angle_gamma 34.651374
_cell_volume 580.311387
_symmetry_space_group_name_H-M "P -1"
_symmetry_group_IT_number 2
_symmetry_cell_setting 'triclinic'
loop_
_space_group_symop_operation_xyz
x,y,z
-x,-y,-z
loop_
_atom_site_type_symbol
_atom_site_label
_atom_site_fract_x
_atom_site_fract_y
_atom_site_fract_z
Si Si1 0.915013 0.545041 0.188573
Si Si2 0.924342 0.838040 0.504064
Si Si3 0.287795 0.883455 0.075817
Si Si4 0.074595 0.906819 0.320371
Si Si5 0.137434 0.748617 0.980069
Si Si6 0.268692 0.370317 0.639737
Si Si7 0.367360 0.237097 0.192613
Si Si8 0.648479 0.582476 0.797198
O O1 0.979419 0.679275 0.346810
O O2 0.832578 0.598610 0.292692
O O3 0.141629 0.387061 0.204939
O O4 0.622091 0.557158 0.869621
O O5 0.592396 0.904107 0.335713
O O6 0.938376 0.937826 0.533166
O O7 0.160682 0.837080 0.805087
O O8 0.354922 0.781069 0.121650
O O9 0.000000 0.000000 0.000000
O O10 0.069104 0.852748 0.133299
O O11 0.359789 0.819690 0.546267
O O12 0.798311 0.873605 0.085687
O O13 0.422707 0.620431 0.128783
O O14 0.845926 0.744431 0.654361
O O15 0.000000 0.500000 0.500000
O O16 0.437708 0.271589 0.173868
O O17 0.500000 0.500000 0.500000
O O18 0.000000 0.500000 0.000000
#
# Coordination Sequence:
#
# PCOD9042727 Si02
#       8
#     2   2   2   2   2   2   2   2
#     4  11  24  46  71 103 134 176 231 288 336 402
#     4  12  26  41  68 101 136 179 232 285 333 394
#     4  12  23  41  63  89 136 183 236 272 313 401
#     4  12  25  43  67  98 141 185 226 277 342 410
#     4  12  23  39  61  91 134 184 224 264 326 404
#     4  12  25  39  61  99 141 177 219 278 342 393
#     4  11  25  46  69  99 134 179 230 285 349 411
#     4  10  23  44  75 101 129 175 231 283 341 414
#
# _framework density 27.571406
#
# number of rings (size 3 to 8) (size 9 to 14) (size 15 to 20)
#    0.000    0.500    3.750    5.250    1.750    6.000 
#    0.000    1.250    0.000    0.000    0.000    0.000 
#    0.000    0.000    0.000    0.000    0.000    0.000 
#
# Total GULP energy -89463.657498 kJ/mol
# GULP energy per Si atom -5591.478594 kJ/mol
# Density = 2.750865 g / cm^3
# Si number density = 27.571406 Si / 1000 Ang^3
#
#
#
# Elastic Constant Matrix: (Units=GPa)
#
#
# Indices 1 2 3 4 5 6 
#
# 1 116.3707 54.6649 42.2080 -13.1438 -24.3748 12.0846
# 2 54.6649 110.3105 24.4633 7.1971 3.9935 2.6255
# 3 42.2080 24.4633 184.7047 -21.0229 -12.7451 19.1123
# 4 -13.1438 7.1971 -21.0229 43.8241 11.2855 11.2526
# 5 -24.3748 3.9935 -12.7451 11.2855 59.5108 -6.2528
# 6 12.0846 2.6255 19.1123 11.2526 -6.2528 59.5607
#
#
#
# Elastic Compliance Matrix: (Units=1/GPa)
#
#
# Indices 1 2 3 4 5 6 
#
# 1 0.014153 -0.007138 -0.001219 0.004178 0.004967 -0.002434
# 2 -0.007138 0.013184 -0.001007 -0.004458 -0.002998 0.001718
# 3 -0.001219 -0.001007 0.006484 0.003533 0.000029 -0.002453
# 4 0.004178 -0.004458 0.003533 0.029414 -0.003622 -0.007722
# 5 0.004967 -0.002998 0.000029 -0.003622 0.019931 0.001892
# 6 -0.002434 0.001718 -0.002453 -0.007722 0.001892 0.019652
#
#
# Mechanical properties :
#
#
# Convention : Reuss Voigt Hill
#
# Bulk Modulus (GPa) = 66.25136 72.67315 69.46226
# Shear Modulus (GPa) = 39.50117 51.91576 45.70847
#
# Velocity S-wave (km/s) = 3.78919 4.34401 4.07605
# Velocity P-wave (km/s) = 6.57458 7.18164 6.88481
#
# Compressibility (1/GPa) = 0.01509403
#
# Stress axis : x y z
#
# Youngs Moduli (GPa) = 70.65457 75.84690 154.22834
#
# Poissons Ratio (x) = 0.54139 0.18796
# Poissons Ratio (y) = 0.50433 0.15533
# Poissons Ratio (z) = 0.08611 0.07639
#
# Static dielectric constant tensor:
#      x y z
#    x 2.184070 0.022610 0.358270 
#    y 0.022610 2.573070 0.887230 
#    z 0.358270 0.887230 1.716080 
# 
# From -- ./inp_files/535113.got.cif
#   From: 2010.05.17/outbox.cif.g08.bks.cpg/sg2_268_cif.got.tgz:535113.got - 2010.06.03 11:33:40.
