data_PCOD9042460
_publ_section_title
;
Structure prediction by ZEFSAII (Michael W. Deem and Ramdas Pophale) SiO2 
 PCOD9042460
Probable space group: P -1
;
_chemical_formula_sum "Si O2"
_cell_formula_units_Z 16
_cell_length_a 16.220382
_cell_length_b 16.763778
_cell_length_c 17.652209
_cell_angle_alpha 31.068397
_cell_angle_beta 156.084061
_cell_angle_gamma 157.329634
_cell_volume 747.374142
_symmetry_space_group_name_H-M "P -1"
_symmetry_group_IT_number 2
_symmetry_cell_setting 'triclinic'
loop_
_space_group_symop_operation_xyz
x,y,z
-x,-y,-z
loop_
_atom_site_type_symbol
_atom_site_label
_atom_site_fract_x
_atom_site_fract_y
_atom_site_fract_z
Si Si1 0.265405 0.915499 0.810329
Si Si2 0.969604 0.603000 0.487637
Si Si3 0.948069 0.843226 0.736258
Si Si4 0.221537 0.814524 0.374151
Si Si5 0.900745 0.497053 0.055332
Si Si6 0.697901 0.771549 0.165559
Si Si7 0.526122 0.173919 0.663594
Si Si8 0.572168 0.904214 0.812567
O O1 0.054081 0.910982 0.684351
O O2 0.399537 0.055769 0.734074
O O3 0.130130 0.684840 0.860825
O O4 0.500000 0.000000 0.000000
O O5 0.781384 0.356035 0.528317
O O6 0.842517 0.679241 0.365632
O O7 0.002015 0.683447 0.363192
O O8 0.274690 0.712352 0.683430
O O9 0.944672 0.660868 0.901527
O O10 0.655665 0.774321 0.556762
O O11 0.151350 0.034639 0.808410
O O12 0.500000 0.000000 0.500000
O O13 0.213969 0.935974 0.202452
O O14 0.619090 0.392740 0.945391
O O15 0.841094 0.375107 0.776480
O O16 0.699924 0.842422 0.025235
O O17 0.510241 0.022875 0.715877
#
# Coordination Sequence:
#
# PCOD9042460 Si02
#       8
#     2   2   2   2   2   2   2   2
#     4  12  23  47  66  90 141 174 224 283 328 387
#     4  10  23  44  71  97 133 176 212 266 331 396
#     4  12  26  44  67  97 130 182 225 274 332 391
#     4   9  22  44  69  99 134 170 213 269 326 389
#     4  12  25  42  66  97 133 179 222 275 336 379
#     4  12  25  42  69 100 134 175 223 269 331 393
#     4  12  26  43  68  99 132 174 225 279 328 390
#     4  11  22  42  68  98 135 169 217 275 328 387
#
# _framework density 21.408284999999999
#
# number of rings (size 3 to 8) (size 9 to 14) (size 15 to 20)
#    0.000    0.750    6.250    0.750    3.500    2.000 
#    0.000    5.625    0.000    0.000    0.000    0.000 
#    0.000    0.000    0.000    0.000    0.000    0.000 
#
# Total GULP energy -89449.640254 kJ/mol
# GULP energy per Si atom -5590.602516 kJ/mol
# Density = 2.135956 g / cm^3
# Si number density = 21.408285 Si / 1000 Ang^3
#
#
#
# Elastic Constant Matrix: (Units=GPa)
#
#
# Indices 1 2 3 4 5 6 
#
# 1 40.3651 18.2716 2.6060 -4.9492 -14.3961 0.5574
# 2 18.2716 129.9565 38.1396 7.0059 -7.9646 -5.2989
# 3 2.6060 38.1396 58.4990 4.0153 8.9377 0.1869
# 4 -4.9492 7.0059 4.0153 20.0677 4.1194 -0.3239
# 5 -14.3961 -7.9646 8.9377 4.1194 33.5535 -3.2889
# 6 0.5574 -5.2989 0.1869 -0.3239 -3.2889 34.2359
#
#
#
# Elastic Compliance Matrix: (Units=1/GPa)
#
#
# Indices 1 2 3 4 5 6 
#
# 1 0.031746 -0.003672 -0.001369 0.006866 0.012287 0.000168
# 2 -0.003672 0.010840 -0.007190 -0.003957 0.003603 0.002086
# 3 -0.001369 -0.007190 0.023212 -0.000743 -0.008587 -0.002049
# 4 0.006866 -0.003957 -0.000743 0.053965 -0.004484 -0.000640
# 5 0.012287 0.003603 -0.008587 -0.004484 0.039172 0.004125
# 6 0.000168 0.002086 -0.002049 -0.000640 0.004125 0.029931
#
#
# Mechanical properties :
#
#
# Convention : Reuss Voigt Hill
#
# Bulk Modulus (GPa) = 24.19134 38.53944 31.36539
# Shear Modulus (GPa) = 22.01609 28.89166 25.45387
#
# Velocity S-wave (km/s) = 3.21033 3.67761 3.45189
# Velocity P-wave (km/s) = 5.00661 6.00619 5.52904
#
# Compressibility (1/GPa) = 0.04133711
#
# Stress axis : x y z
#
# Youngs Moduli (GPa) = 31.49998 92.24815 43.08093
#
# Poissons Ratio (x) = 0.33872 0.05899
# Poissons Ratio (y) = 0.11566 0.30973
# Poissons Ratio (z) = 0.04314 0.66322
#
# Static dielectric constant tensor:
#      x y z
#    x 1.820460 0.028450 -0.022560 
#    y 0.028450 1.754710 -0.015740 
#    z -0.022560 -0.015740 1.762620 
# 
# From -- ./inp_files/533713.got.cif
#   From: 2010.05.17/outbox.cif.g08.bks.cpg/sg2_267_cif.got.tgz:533713.got - 2010.06.03 11:33:40.
