data_PCOD9042604
_publ_section_title
;
Structure prediction by ZEFSAII (Michael W. Deem and Ramdas Pophale) SiO2 
 PCOD9042604
Probable space group: P -1
;
_chemical_formula_sum "Si O2"
_cell_formula_units_Z 16
_cell_length_a 11.369838
_cell_length_b 5.582081
_cell_length_c 11.450884
_cell_angle_alpha 85.500498
_cell_angle_beta 83.756682
_cell_angle_gamma 62.125158
_cell_volume 638.306972
_symmetry_space_group_name_H-M "P -1"
_symmetry_group_IT_number 2
_symmetry_cell_setting 'triclinic'
loop_
_space_group_symop_operation_xyz
x,y,z
-x,-y,-z
loop_
_atom_site_type_symbol
_atom_site_label
_atom_site_fract_x
_atom_site_fract_y
_atom_site_fract_z
Si Si1 0.288140 0.736241 0.274607
Si Si2 0.902954 0.244985 0.083389
Si Si3 0.864250 0.784275 0.386983
Si Si4 0.002485 0.149322 0.343191
Si Si5 0.656923 0.723565 0.567680
Si Si6 0.745023 0.775403 0.158882
Si Si7 0.550866 0.709463 0.349463
Si Si8 0.646254 0.252188 0.999114
O O1 0.267493 0.481250 0.328260
O O2 0.433864 0.658221 0.313405
O O3 0.297477 0.788222 0.136094
O O4 0.161984 0.992371 0.329946
O O5 0.865917 0.564452 0.073872
O O6 0.957855 0.176091 0.211139
O O7 0.757472 0.280195 0.063245
O O8 0.000000 0.000000 0.000000
O O9 0.743558 0.838880 0.485229
O O10 0.806023 0.865743 0.258129
O O11 0.947651 0.454519 0.386164
O O12 0.940989 0.955733 0.405452
O O13 0.619171 0.579378 0.469929
O O14 0.525431 0.968500 0.625808
O O15 0.664067 0.649807 0.244691
O O16 0.643333 0.000025 0.074293
O O17 0.500000 0.500000 0.000000
#
# Coordination Sequence:
#
# PCOD9042604 Si02
#       8
#     2   2   2   2   2   2   2   2
#     4  12  26  40  67 103 142 185 241 306 366 438
#     4  11  23  45  70 102 146 197 245 296 373 446
#     4  10  24  46  75 104 140 195 247 300 366 441
#     4  11  25  45  73 108 146 191 245 302 370 440
#     4  10  24  45  71  96 137 187 243 306 369 437
#     4  10  23  44  73 102 144 192 247 303 366 442
#     4  10  23  46  67 100 134 191 243 304 370 438
#     4  12  25  42  69 108 145 190 242 307 368 440
#
# _framework density 25.066310999999999
#
# number of rings (size 3 to 8) (size 9 to 14) (size 15 to 20)
#    0.000    1.250    2.500    1.875    3.500    5.500 
#    6.750    0.000    0.000    0.000    0.000    0.000 
#    0.000    0.000    0.000    0.000    0.000    0.000 
#
# Total GULP energy -89447.994287 kJ/mol
# GULP energy per Si atom -5590.499643 kJ/mol
# Density = 2.500926 g / cm^3
# Si number density = 25.066311 Si / 1000 Ang^3
#
#
#
# Elastic Constant Matrix: (Units=GPa)
#
#
# Indices 1 2 3 4 5 6 
#
# 1 102.3715 35.1285 35.1489 24.6436 4.0832 -0.2371
# 2 35.1285 104.3696 58.4890 3.6823 -10.0106 -19.2659
# 3 35.1489 58.4890 140.7785 5.6471 2.3193 4.0804
# 4 24.6436 3.6823 5.6471 43.3509 -4.2588 -6.7423
# 5 4.0832 -10.0106 2.3193 -4.2588 25.6965 10.1150
# 6 -0.2371 -19.2659 4.0804 -6.7423 10.1150 40.0282
#
#
#
# Elastic Compliance Matrix: (Units=1/GPa)
#
#
# Indices 1 2 3 4 5 6 
#
# 1 0.013843 -0.004609 -0.001077 -0.008121 -0.004339 -0.002298
# 2 -0.004609 0.016361 -0.006108 0.003749 0.005215 0.007784
# 3 -0.001077 -0.006108 0.010084 -0.000933 -0.001829 -0.003669
# 4 -0.008121 0.003749 -0.000933 0.028857 0.005525 0.005316
# 5 -0.004339 0.005215 -0.001829 0.005525 0.045862 -0.007988
# 6 -0.002298 0.007784 -0.003669 0.005316 -0.007988 0.032003
#
#
# Mechanical properties :
#
#
# Convention : Reuss Voigt Hill
#
# Bulk Modulus (GPa) = 59.88989 67.22804 63.55897
# Shear Modulus (GPa) = 28.38258 36.39868 32.39063
#
# Velocity S-wave (km/s) = 3.36862 3.81477 3.59861
# Velocity P-wave (km/s) = 6.25096 6.80306 6.53285
#
# Compressibility (1/GPa) = 0.01669731
#
# Stress axis : x y z
#
# Youngs Moduli (GPa) = 72.24094 61.12248 99.16640
#
# Poissons Ratio (x) = 0.28173 0.10683
# Poissons Ratio (y) = 0.33298 0.60575
# Poissons Ratio (z) = 0.07782 0.37336
#
# Static dielectric constant tensor:
#      x y z
#    x 2.047330 0.094800 0.015110 
#    y 0.094800 2.079030 -0.005670 
#    z 0.015110 -0.005670 1.970920 
# 
# From -- ./inp_files/364828.got.cif
#   From: 2010.05.17/outbox.cif.g08.bks.cpg/sg2_183_cif.got.tgz:364828.got - 2010.06.03 11:33:40.
