data_PCOD9042318
_publ_section_title
;
Structure prediction by ZEFSAII (Michael W. Deem and Ramdas Pophale) SiO2 
 PCOD9042318
Probable space group: P -1
;
_chemical_formula_sum "Si O2"
_cell_formula_units_Z 16
_cell_length_a 10.941463
_cell_length_b 8.698802
_cell_length_c 9.761901
_cell_angle_alpha 56.829399
_cell_angle_beta 76.341421
_cell_angle_gamma 83.524230
_cell_volume 755.563298
_symmetry_space_group_name_H-M "P -1"
_symmetry_group_IT_number 2
_symmetry_cell_setting 'triclinic'
loop_
_space_group_symop_operation_xyz
x,y,z
-x,-y,-z
loop_
_atom_site_type_symbol
_atom_site_label
_atom_site_fract_x
_atom_site_fract_y
_atom_site_fract_z
Si Si1 0.249665 0.190391 0.097195
Si Si2 0.877043 0.453483 0.144019
Si Si3 0.142050 0.949037 0.002500
Si Si4 0.722248 0.092893 0.275760
Si Si5 0.750452 0.380186 0.751167
Si Si6 0.822479 0.801644 0.581728
Si Si7 0.069197 0.643334 0.513771
Si Si8 0.526127 0.291632 0.047524
O O1 0.175828 0.173363 0.268166
O O2 0.203416 0.040637 0.074387
O O3 0.218940 0.386248 0.942698
O O4 0.396623 0.190434 0.092766
O O5 0.814830 0.260777 0.210337
O O6 0.908584 0.439462 0.302551
O O7 0.000000 0.500000 0.000000
O O8 0.154168 0.730357 0.122702
O O9 0.218156 0.010385 0.819287
O O10 0.000000 0.000000 0.000000
O O11 0.731263 0.949539 0.466522
O O12 0.597245 0.183285 0.203170
O O13 0.766745 0.597072 0.665389
O O14 0.797045 0.326372 0.612943
O O15 0.617504 0.310142 0.881535
O O16 0.965653 0.802242 0.484054
O O17 0.000000 0.500000 0.500000
O O18 0.500000 0.500000 0.000000
#
# Coordination Sequence:
#
# PCOD9042318 Si02
#       8
#     2   2   2   2   2   2   2   2
#     4  12  25  42  74 101 140 185 236 288 346 420
#     4  12  24  43  70 103 137 188 233 283 361 426
#     4  11  25  42  70 105 138 181 234 288 354 417
#     4  11  26  42  70 100 139 184 239 284 350 420
#     4  10  23  44  70  95 141 185 224 289 347 408
#     4  11  23  43  67 106 139 182 227 295 357 410
#     4  10  24  39  69 101 143 174 228 292 352 408
#     4  11  22  49  72  96 137 195 238 282 343 424
#
# _framework density 21.176255000000001
#
# number of rings (size 3 to 8) (size 9 to 14) (size 15 to 20)
#    0.000    1.000    3.750    2.250   12.250    3.000 
#    0.000    0.625    2.750    0.000    0.000    0.000 
#    0.000    0.000    0.000    0.000    0.000    0.000 
#
# Total GULP energy -89425.472728 kJ/mol
# GULP energy per Si atom -5589.092046 kJ/mol
# Density = 2.112806 g / cm^3
# Si number density = 21.176255 Si / 1000 Ang^3
#
#
#
# Elastic Constant Matrix: (Units=GPa)
#
#
# Indices 1 2 3 4 5 6 
#
# 1 127.8897 47.3722 38.8285 4.1430 14.6681 -2.5219
# 2 47.3722 90.7910 42.4186 5.8547 4.5751 9.8487
# 3 38.8285 42.4186 125.2763 14.4327 18.5727 -2.4780
# 4 4.1430 5.8547 14.4327 49.2251 -6.5437 2.7650
# 5 14.6681 4.5751 18.5727 -6.5437 38.9748 2.6125
# 6 -2.5219 9.8487 -2.4780 2.7650 2.6125 36.2052
#
#
#
# Elastic Compliance Matrix: (Units=1/GPa)
#
#
# Indices 1 2 3 4 5 6 
#
# 1 0.010392 -0.005038 -0.000946 -0.000541 -0.003114 0.002296
# 2 -0.005038 0.016127 -0.004430 0.000438 0.002540 -0.005258
# 3 -0.000946 -0.004430 0.010977 -0.003431 -0.005100 0.002521
# 4 -0.000541 0.000438 -0.003431 0.022210 0.005684 -0.002498
# 5 -0.003114 0.002540 -0.005100 0.005684 0.030175 -0.003868
# 6 0.002296 -0.005258 0.002521 -0.002498 -0.003868 0.029853
#
#
# Mechanical properties :
#
#
# Convention : Reuss Voigt Hill
#
# Bulk Modulus (GPa) = 59.99350 66.79953 63.39651
# Shear Modulus (GPa) = 34.21894 39.23685 36.72790
#
# Velocity S-wave (km/s) = 4.02420 4.30917 4.16912
# Velocity P-wave (km/s) = 7.06996 7.50810 7.29232
#
# Compressibility (1/GPa) = 0.01666847
#
# Stress axis : x y z
#
# Youngs Moduli (GPa) = 96.22416 62.00865 91.10113
#
# Poissons Ratio (x) = 0.31238 0.08617
# Poissons Ratio (y) = 0.48475 0.40359
# Poissons Ratio (z) = 0.09102 0.27471
#
# Static dielectric constant tensor:
#      x y z
#    x 1.735200 -0.138510 -0.082820 
#    y -0.138510 1.649000 -0.022130 
#    z -0.082820 -0.022130 1.829710 
# 
# From -- ./inp_files/237161.got.cif
#   From: 2010.05.17/outbox.cif.g08.bks.cpg/sg2_119_cif.got.tgz:237161.got - 2010.06.03 11:33:40.
