data_PCOD9042371
_publ_section_title
;
Structure prediction by ZEFSAII (Michael W. Deem and Ramdas Pophale) SiO2 
 PCOD9042371
Probable space group: P -1
;
_chemical_formula_sum "Si O2"
_cell_formula_units_Z 16
_cell_length_a 9.629374
_cell_length_b 9.624951
_cell_length_c 12.303910
_cell_angle_alpha 72.923389
_cell_angle_beta 60.736009
_cell_angle_gamma 93.996223
_cell_volume 919.344796
_symmetry_space_group_name_H-M "P -1"
_symmetry_group_IT_number 2
_symmetry_cell_setting 'triclinic'
loop_
_space_group_symop_operation_xyz
x,y,z
-x,-y,-z
loop_
_atom_site_type_symbol
_atom_site_label
_atom_site_fract_x
_atom_site_fract_y
_atom_site_fract_z
Si Si1 0.330886 0.671265 0.330319
Si Si2 0.852864 0.263099 0.815209
Si Si3 0.652183 0.558918 0.282244
Si Si4 0.495680 0.063731 0.660854
Si Si5 0.832569 0.052345 0.060817
Si Si6 0.993635 0.366854 0.953240
Si Si7 0.535307 0.777990 0.593046
Si Si8 0.801067 0.633245 0.445890
O O1 0.281500 0.703391 0.220674
O O2 0.501069 0.622109 0.287750
O O3 0.199824 0.525701 0.462165
O O4 0.358272 0.822904 0.355624
O O5 0.913288 0.382942 0.862474
O O6 0.018453 0.274174 0.680037
O O7 0.797820 0.109042 0.940586
O O8 0.820915 0.639859 0.140230
O O9 0.603163 0.380646 0.316073
O O10 0.690582 0.588912 0.388651
O O11 0.327669 0.047717 0.797695
O O12 0.521894 0.899262 0.661855
O O13 0.478423 0.141956 0.534964
O O14 0.886034 0.207746 0.073013
O O15 0.000000 0.000000 0.000000
O O16 0.000000 0.500000 0.000000
O O17 0.706336 0.727805 0.534892
#
# Coordination Sequence:
#
# PCOD9042371 Si02
#       8
#     2   2   2   2   2   2   2   2
#     4  11  19  34  54  81 104 135 173 219 263 305
#     4   9  22  34  57  77 104 136 177 214 262 307
#     4  10  17  33  59  79  99 137 180 215 253 310
#     4  11  20  30  52  79 110 133 170 217 259 301
#     4  10  20  35  55  75 103 141 176 209 253 316
#     4   9  19  36  56  76 100 136 179 217 253 305
#     4  10  19  31  52  83 101 133 175 219 254 299
#     4  10  17  36  57  78 100 138 179 214 253 311
#
# _framework density 17.403700000000001
#
# number of rings (size 3 to 8) (size 9 to 14) (size 15 to 20)
#    0.750    1.250    2.500    3.375    0.000    0.500 
#    0.000    1.250    5.500    0.000    0.000    0.000 
#    0.000    0.000    0.000    0.000    0.000    0.000 
#
# Total GULP energy -89074.971593 kJ/mol
# GULP energy per Si atom -5567.185725 kJ/mol
# Density = 1.736409 g / cm^3
# Si number density = 17.403700 Si / 1000 Ang^3
#
#
#
# Elastic Constant Matrix: (Units=GPa)
#
#
# Indices 1 2 3 4 5 6 
#
# 1 66.6838 16.9854 28.5655 -1.5523 17.1502 -5.5931
# 2 16.9854 97.0764 3.5860 6.0454 -0.0509 2.6249
# 3 28.5655 3.5860 46.0702 -0.8213 -0.1454 2.1940
# 4 -1.5523 6.0454 -0.8213 24.4177 1.7455 -3.2909
# 5 17.1502 -0.0509 -0.1454 1.7455 27.7201 -5.3407
# 6 -5.5931 2.6249 2.1940 -3.2909 -5.3407 13.2764
#
#
#
# Elastic Compliance Matrix: (Units=1/GPa)
#
#
# Indices 1 2 3 4 5 6 
#
# 1 0.029464 -0.005109 -0.018359 0.005198 -0.016524 0.011098
# 2 -0.005109 0.011479 0.002441 -0.003909 0.002520 -0.004781
# 3 -0.018359 0.002441 0.033382 -0.002759 0.009685 -0.010521
# 4 0.005198 -0.003909 -0.002759 0.044156 -0.003524 0.012946
# 5 -0.016524 0.002520 0.009685 -0.003524 0.048414 0.009542
# 6 0.011098 -0.004781 -0.010521 0.012946 0.009542 0.089729
#
#
# Mechanical properties :
#
#
# Convention : Reuss Voigt Hill
#
# Bulk Modulus (GPa) = 30.98990 34.23380 32.61185
# Shear Modulus (GPa) = 16.15845 23.79573 19.97709
#
# Velocity S-wave (km/s) = 3.05035 3.70169 3.39169
# Velocity P-wave (km/s) = 5.50012 6.16304 5.84100
#
# Compressibility (1/GPa) = 0.03226858
#
# Stress axis : x y z
#
# Youngs Moduli (GPa) = 33.94006 87.11524 29.95636
#
# Poissons Ratio (x) = 0.44511 0.54997
# Poissons Ratio (y) = 0.17342 -0.07311
# Poissons Ratio (z) = 0.62311 -0.21261
#
# Static dielectric constant tensor:
#      x y z
#    x 1.575740 -0.005350 -0.014630 
#    y -0.005350 1.623880 -0.007050 
#    z -0.014630 -0.007050 1.606890 
# 
# From -- ./inp_files/254096.got.cif
#   From: 2010.05.17/outbox.cif.g08.bks.cpg/sg2_128_cif.got.tgz:254096.got - 2010.06.03 11:33:40.
