data_PCOD9042356
_publ_section_title
;
Structure prediction by ZEFSAII (Michael W. Deem and Ramdas Pophale) SiO2 
 PCOD9042356
Probable space group: P -1
;
_chemical_formula_sum "Si O2"
_cell_formula_units_Z 12
_cell_length_a 12.270436
_cell_length_b 11.331209
_cell_length_c 6.636200
_cell_angle_alpha 112.916812
_cell_angle_beta 60.574528
_cell_angle_gamma 137.060171
_cell_volume 546.788412
_symmetry_space_group_name_H-M "P -1"
_symmetry_group_IT_number 2
_symmetry_cell_setting 'triclinic'
loop_
_space_group_symop_operation_xyz
x,y,z
-x,-y,-z
loop_
_atom_site_type_symbol
_atom_site_label
_atom_site_fract_x
_atom_site_fract_y
_atom_site_fract_z
Si Si1 0.688487 0.367464 0.378569
Si Si2 0.458259 0.346596 0.305311
Si Si3 0.334123 0.916611 0.961674
Si Si4 0.003765 0.227948 0.636164
Si Si5 0.391532 0.219263 0.868051
Si Si6 0.129842 0.086960 0.682742
O O1 0.608910 0.354757 0.227261
O O2 0.708308 0.229534 0.248369
O O3 0.545461 0.304928 0.630027
O O4 0.853681 0.567316 0.392780
O O5 0.500000 0.500000 0.500000
O O6 0.282019 0.174499 0.439735
O O7 0.437281 0.348670 0.090328
O O8 0.362443 0.064729 0.905835
O O9 0.173676 0.827154 0.193087
O O10 0.500000 0.000000 0.000000
O O11 0.050136 0.167579 0.744972
O O12 0.988975 0.115781 0.392375
O O13 0.224326 0.144592 0.847305
#
# Coordination Sequence:
#
# PCOD9042356 Si02
#       6
#     2   2   2   2   2   2
#     4  11  24  42  70 105 137 178 234 281 338 411
#     4  11  21  45  69 100 136 178 223 285 342 404
#     4  12  23  46  72  93 143 190 227 279 347 405
#     4  11  23  46  67 103 146 177 224 296 341 392
#     4  11  24  45  74 100 132 190 229 276 342 423
#     4  10  23  44  70  99 143 180 227 281 351 401
#
# _framework density 21.94633
#
# number of rings (size 3 to 8) (size 9 to 14) (size 15 to 20)
#    0.000    1.000    5.000    2.000    0.000    3.333 
#    3.000    1.667    0.000    0.000    0.000    0.000 
#    0.000    0.000    0.000    0.000    0.000    0.000 
#
# Total GULP energy -67114.557056 kJ/mol
# GULP energy per Si atom -5592.879755 kJ/mol
# Density = 2.189638 g / cm^3
# Si number density = 21.946330 Si / 1000 Ang^3
#
#
#
# Elastic Constant Matrix: (Units=GPa)
#
#
# Indices 1 2 3 4 5 6 
#
# 1 101.2414 38.3978 40.2104 2.4803 8.8983 15.2673
# 2 38.3978 150.4039 47.3697 17.2141 -4.2010 2.1357
# 3 40.2104 47.3697 112.8816 27.6285 15.6077 0.9491
# 4 2.4803 17.2141 27.6285 36.8504 0.7421 -7.9950
# 5 8.8983 -4.2010 15.6077 0.7421 40.3036 2.1064
# 6 15.2673 2.1357 0.9491 -7.9950 2.1064 35.7948
#
#
#
# Elastic Compliance Matrix: (Units=1/GPa)
#
#
# Indices 1 2 3 4 5 6 
#
# 1 0.013139 -0.002311 -0.004018 0.002196 -0.001376 -0.004788
# 2 -0.002311 0.008321 -0.002541 -0.001875 0.002396 -0.000003
# 3 -0.004018 -0.002541 0.014264 -0.009205 -0.004717 -0.000292
# 4 0.002196 -0.001875 -0.009205 0.036342 0.001827 0.007429
# 5 -0.001376 0.002396 -0.004717 0.001827 0.027191 -0.000623
# 6 -0.004788 -0.000003 -0.000292 0.007429 -0.000623 0.031683
#
#
# Mechanical properties :
#
#
# Convention : Reuss Voigt Hill
#
# Bulk Modulus (GPa) = 55.60226 68.49809 62.05018
# Shear Modulus (GPa) = 32.32658 38.49302 35.40980
#
# Velocity S-wave (km/s) = 3.84211 4.19258 4.02116
# Velocity P-wave (km/s) = 6.71364 7.39705 7.06361
#
# Compressibility (1/GPa) = 0.01798488
#
# Stress axis : x y z
#
# Youngs Moduli (GPa) = 76.11153 120.18490 70.10734
#
# Poissons Ratio (x) = 0.27772 0.28166
# Poissons Ratio (y) = 0.17587 0.17813
# Poissons Ratio (z) = 0.30578 0.30536
#
# Static dielectric constant tensor:
#      x y z
#    x 1.829240 -0.010360 -0.001140 
#    y -0.010360 1.835300 0.029300 
#    z -0.001140 0.029300 1.823740 
# 
# From -- ./inp_files/25485.got.cif
#   From: 2010.05.17/outbox.cif.g08.bks.cpg/sg2_13_cif.got.tgz:25485.got - 2010.06.03 11:33:40.
