data_PCOD9042670
_publ_section_title
;
Structure prediction by ZEFSAII (Michael W. Deem and Ramdas Pophale) SiO2 
 PCOD9042670
Probable space group: P -1
;
_chemical_formula_sum "Si O2"
_cell_formula_units_Z 14
_cell_length_a 25.624969
_cell_length_b 5.125058
_cell_length_c 11.582952
_cell_angle_alpha 102.675057
_cell_angle_beta 29.946198
_cell_angle_gamma 82.939647
_cell_volume 567.534547
_symmetry_space_group_name_H-M "P -1"
_symmetry_group_IT_number 2
_symmetry_cell_setting 'triclinic'
loop_
_space_group_symop_operation_xyz
x,y,z
-x,-y,-z
loop_
_atom_site_type_symbol
_atom_site_label
_atom_site_fract_x
_atom_site_fract_y
_atom_site_fract_z
Si Si1 0.044373 0.538593 0.070642
Si Si2 0.018507 0.254655 0.540218
Si Si3 0.303426 0.968118 0.980897
Si Si4 0.482067 0.492212 0.171126
Si Si5 0.797268 0.254173 0.333418
Si Si6 0.248883 0.264272 0.337682
Si Si7 0.537344 0.186671 0.534855
O O1 0.067761 0.543069 0.161972
O O2 0.890352 0.675950 0.368399
O O3 0.089854 0.736803 0.940446
O O4 0.141925 0.138981 0.805169
O O5 0.000000 0.500000 0.500000
O O6 0.175202 0.997491 0.253575
O O7 0.000000 0.000000 0.500000
O O8 0.273946 0.264050 0.151962
O O9 0.435159 0.594062 0.735921
O O10 0.317443 0.989594 0.819891
O O11 0.341920 0.549938 0.454467
O O12 0.463002 0.781881 0.322222
O O13 0.500000 0.500000 0.000000
O O14 0.618129 0.111735 0.910262
O O15 0.762554 0.447469 0.540340
O O16 0.500000 0.000000 0.500000
#
# Coordination Sequence:
#
# PCOD9042670 Si02
#       7
#     2   2   2   2   2   2   2
#     4  11  26  46  72 107 142 196 244 294 366 440
#     4  11  25  43  69 101 146 185 236 297 360 427
#     4   9  23  44  66 100 133 192 237 291 354 438
#     4  11  26  45  72 111 146 189 241 310 370 427
#     4  12  25  46  74 109 145 185 243 309 360 430
#     4  10  23  48  69  99 147 191 243 292 367 440
#     4  10  23  44  73  98 139 187 242 293 359 441
#
# _framework density 24.668099999999999
#
# number of rings (size 3 to 8) (size 9 to 14) (size 15 to 20)
#    0.000    1.429    0.000    3.000    8.000    1.143 
#   10.286    0.000    0.000    0.000    0.000    0.000 
#    0.000    0.000    0.000    0.000    0.000    0.000 
#
# Total GULP energy -78208.371188 kJ/mol
# GULP energy per Si atom -5586.312228 kJ/mol
# Density = 2.461195 g / cm^3
# Si number density = 24.668100 Si / 1000 Ang^3
#
#
#
# Elastic Constant Matrix: (Units=GPa)
#
#
# Indices 1 2 3 4 5 6 
#
# 1 182.4509 44.2046 52.6009 8.1233 52.9768 29.0728
# 2 44.2046 79.7026 9.5639 1.5091 17.4454 15.9994
# 3 52.6009 9.5639 106.0075 11.5465 6.2096 12.0550
# 4 8.1233 1.5091 11.5465 20.0425 4.6981 -0.6432
# 5 52.9768 17.4454 6.2096 4.6981 68.3421 1.2230
# 6 29.0728 15.9994 12.0550 -0.6432 1.2230 49.4773
#
#
#
# Elastic Compliance Matrix: (Units=1/GPa)
#
#
# Indices 1 2 3 4 5 6 
#
# 1 0.009686 -0.002775 -0.003738 -0.000187 -0.006381 -0.003728
# 2 -0.002775 0.015060 0.000495 -0.000007 -0.001678 -0.003319
# 3 -0.003738 0.000495 0.011873 -0.005890 0.002115 -0.000985
# 4 -0.000187 -0.000007 -0.005890 0.054161 -0.003083 0.002328
# 5 -0.006381 -0.001678 0.002115 -0.003083 0.019969 0.003243
# 6 -0.003728 -0.003319 -0.000985 0.002328 0.003243 0.023665
#
#
# Mechanical properties :
#
#
# Convention : Reuss Voigt Hill
#
# Bulk Modulus (GPa) = 40.67834 64.54443 52.61139
# Shear Modulus (GPa) = 32.33240 45.02516 38.67878
#
# Velocity S-wave (km/s) = 3.62428 4.27692 3.96405
# Velocity P-wave (km/s) = 5.83438 7.11416 6.50581
#
# Compressibility (1/GPa) = 0.02458310
#
# Stress axis : x y z
#
# Youngs Moduli (GPa) = 103.24232 66.40118 84.22484
#
# Poissons Ratio (x) = 0.18426 0.31480
# Poissons Ratio (y) = 0.28649 -0.04167
# Poissons Ratio (z) = 0.38589 -0.03285
#
# Static dielectric constant tensor:
#      x y z
#    x 2.058940 0.004680 0.026450 
#    y 0.004680 1.936750 -0.064110 
#    z 0.026450 -0.064110 1.996810 
# 
# From -- ./inp_files/473452.got.cif
#   From: 2010.05.17/outbox.cif.g08.bks.cpg/sg2_237_cif.got.tgz:473452.got - 2010.06.03 11:33:40.
