data_PCOD9042324
_publ_section_title
;
Structure prediction by ZEFSAII (Michael W. Deem and Ramdas Pophale) SiO2 
 PCOD9042324
Probable space group: P -1
;
_chemical_formula_sum "Si O2"
_cell_formula_units_Z 15
_cell_length_a 6.312607
_cell_length_b 7.442359
_cell_length_c 19.302519
_cell_angle_alpha 131.577868
_cell_angle_beta 75.672640
_cell_angle_gamma 116.696069
_cell_volume 604.311926
_symmetry_space_group_name_H-M "P -1"
_symmetry_group_IT_number 2
_symmetry_cell_setting 'triclinic'
loop_
_space_group_symop_operation_xyz
x,y,z
-x,-y,-z
loop_
_atom_site_type_symbol
_atom_site_label
_atom_site_fract_x
_atom_site_fract_y
_atom_site_fract_z
Si Si1 0.604392 0.079551 0.684059
Si Si2 0.000000 0.000000 0.000000
Si Si3 0.537675 0.275820 0.985619
Si Si4 0.104031 0.242998 0.647469
Si Si5 0.606576 0.618871 0.657446
Si Si6 0.271040 0.328907 0.814158
Si Si7 0.842206 0.955514 0.842445
Si Si8 0.718375 0.178881 0.480042
O O1 0.655989 0.888629 0.684013
O O2 0.388696 0.893686 0.606436
O O3 0.510649 0.275723 0.778883
O O4 0.839684 0.227629 0.657562
O O5 0.276740 0.075245 0.973071
O O6 0.088708 0.072750 0.092558
O O7 0.677522 0.413090 0.079244
O O8 0.500000 0.500000 0.000000
O O9 0.694903 0.141690 0.901948
O O10 0.324066 0.437753 0.634666
O O11 0.177419 0.323841 0.742503
O O12 0.090728 0.949493 0.560628
O O13 0.685734 0.690486 0.748242
O O14 0.755398 0.469212 0.571579
O O15 0.076629 0.096668 0.813644
O O16 0.500000 0.000000 0.500000
#
# Coordination Sequence:
#
# PCOD9042324 Si02
#       8
#     2   1   2   2   2   2   2   2
#     4  11  23  44  68 102 135 177 230 273 344 405
#     4  12  28  44  72 102 134 180 234 284 344 416
#     4  12  26  46  71  98 136 180 230 289 345 403
#     4  10  23  44  70  96 139 177 221 282 339 409
#     4  11  23  44  69 100 137 176 230 286 334 407
#     4  11  24  46  67  97 139 179 224 284 339 410
#     4  12  26  48  69 103 140 181 234 284 347 412
#     4   9  22  44  65 103 137 176 226 274 341 411
#
# _framework density 24.821618000000001
#
# number of rings (size 3 to 8) (size 9 to 14) (size 15 to 20)
#    0.000    1.067    2.667    2.800    0.000    3.733 
#    9.600    0.000    0.000    0.000    0.000    0.000 
#    0.000    0.000    0.000    0.000    0.000    0.000 
#
# Total GULP energy -83793.761107 kJ/mol
# GULP energy per Si atom -5586.250740 kJ/mol
# Density = 2.476512 g / cm^3
# Si number density = 24.821618 Si / 1000 Ang^3
#
#
#
# Elastic Constant Matrix: (Units=GPa)
#
#
# Indices 1 2 3 4 5 6 
#
# 1 69.4882 25.8219 23.1590 9.2514 -11.3306 24.4615
# 2 25.8219 68.6533 -3.6415 -1.3663 -8.5499 11.2215
# 3 23.1590 -3.6415 110.6787 5.2475 -11.2965 -6.9229
# 4 9.2514 -1.3663 5.2475 32.6397 0.2499 1.5985
# 5 -11.3306 -8.5499 -11.2965 0.2499 44.3536 -17.9299
# 6 24.4615 11.2215 -6.9229 1.5985 -17.9299 45.7693
#
#
#
# Elastic Compliance Matrix: (Units=1/GPa)
#
#
# Indices 1 2 3 4 5 6 
#
# 1 0.024040 -0.007672 -0.005983 -0.005552 -0.001843 -0.012400
# 2 -0.007672 0.017773 0.002385 0.002468 0.002456 0.000980
# 3 -0.005983 0.002385 0.011181 -0.000326 0.004189 0.005956
# 4 -0.005552 0.002468 -0.000326 0.032332 -0.000866 0.000844
# 5 -0.001843 0.002456 0.004189 -0.000866 0.028567 0.012238
# 6 -0.012400 0.000980 0.005956 0.000844 0.012238 0.033902
#
#
# Mechanical properties :
#
#
# Convention : Reuss Voigt Hill
#
# Bulk Modulus (GPa) = 32.83763 37.72214 35.27988
# Shear Modulus (GPa) = 27.70278 38.11790 32.91034
#
# Velocity S-wave (km/s) = 3.34439 3.92302 3.64521
# Velocity P-wave (km/s) = 5.30768 5.97916 5.65340
#
# Compressibility (1/GPa) = 0.03045287
#
# Stress axis : x y z
#
# Youngs Moduli (GPa) = 41.59755 56.26498 89.43636
#
# Poissons Ratio (x) = 0.43169 0.53511
# Poissons Ratio (y) = 0.31915 -0.21331
# Poissons Ratio (z) = 0.24889 -0.13419
#
# Static dielectric constant tensor:
#      x y z
#    x 1.950290 -0.019450 0.012770 
#    y -0.019450 1.970860 0.021150 
#    z 0.012770 0.021150 1.960460 
# 
# From -- ./inp_files/52834.got.cif
#   From: 2010.05.17/outbox.cif.g08.bks.cpg/sg2_27_cif.got.tgz:52834.got - 2010.06.03 11:33:40.
