data_PCOD9042206
_publ_section_title
;
Structure prediction by ZEFSAII (Michael W. Deem and Ramdas Pophale) SiO2 
 PCOD9042206
Probable space group: P -1
;
_chemical_formula_sum "Si O2"
_cell_formula_units_Z 16
_cell_length_a 14.395353
_cell_length_b 15.211773
_cell_length_c 8.435045
_cell_angle_alpha 101.926957
_cell_angle_beta 120.675105
_cell_angle_gamma 28.558946
_cell_volume 614.757370
_symmetry_space_group_name_H-M "P -1"
_symmetry_group_IT_number 2
_symmetry_cell_setting 'triclinic'
loop_
_space_group_symop_operation_xyz
x,y,z
-x,-y,-z
loop_
_atom_site_type_symbol
_atom_site_label
_atom_site_fract_x
_atom_site_fract_y
_atom_site_fract_z
Si Si1 0.876229 0.808407 0.806174
Si Si2 0.471243 0.385636 0.048293
Si Si3 0.798740 0.298531 0.342362
Si Si4 0.238700 0.859846 0.341011
Si Si5 0.107250 0.032241 0.937239
Si Si6 0.927785 0.727940 0.322946
Si Si7 0.385307 0.286889 0.382349
Si Si8 0.406569 0.102153 0.183764
O O1 0.730328 0.831874 0.752288
O O2 0.178378 0.570393 0.910058
O O3 0.650374 0.033105 0.587743
O O4 0.920266 0.843937 0.002310
O O5 0.402779 0.489978 0.864217
O O6 0.619269 0.350638 0.268357
O O7 0.689912 0.144697 0.095933
O O8 0.956757 0.258230 0.557433
O O9 0.011049 0.085862 0.330664
O O10 0.519309 0.687714 0.580623
O O11 0.210614 0.908555 0.148572
O O12 0.172739 0.806317 0.276229
O O13 0.172753 0.471163 0.404607
O O14 0.733752 0.851732 0.349377
O O15 0.724871 0.859343 0.051281
O O16 0.311481 0.279129 0.168976
#
# Coordination Sequence:
#
# PCOD9042206 Si02
#       8
#     2   2   2   2   2   2   2   2
#     4  11  22  37  60  91 125 149 187 250 300 348
#     4  10  19  31  58  90 123 148 187 244 295 348
#     4  10  17  33  58  88 117 152 194 240 288 345
#     4   9  16  30  55  85 119 142 190 241 277 343
#     4   9  18  30  51  89 119 151 177 232 301 340
#     4  11  24  41  62  84 113 163 204 239 288 350
#     4  11  21  37  63  90 112 152 203 247 288 339
#     4  11  25  43  58  83 122 159 199 243 291 351
#
# _framework density 26.026527999999999
#
# number of rings (size 3 to 8) (size 9 to 14) (size 15 to 20)
#    0.000    1.750    3.750    2.250    3.500    1.500 
#    0.000    0.625    0.000    1.500    0.000    0.000 
#    0.000    0.000    0.000    0.000    0.000    0.000 
#
# Total GULP energy -89334.329010 kJ/mol
# GULP energy per Si atom -5583.395563 kJ/mol
# Density = 2.596729 g / cm^3
# Si number density = 26.026528 Si / 1000 Ang^3
#
#
#
# Elastic Constant Matrix: (Units=GPa)
#
#
# Indices 1 2 3 4 5 6 
#
# 1 49.2854 36.1384 13.3671 -13.5996 27.7538 -13.2880
# 2 36.1384 165.7173 22.9763 0.1909 24.7707 -22.0658
# 3 13.3671 22.9763 101.8633 5.8190 29.0207 4.0959
# 4 -13.5996 0.1909 5.8190 36.2432 4.5807 17.1840
# 5 27.7538 24.7707 29.0207 4.5807 50.9261 -2.5422
# 6 -13.2880 -22.0658 4.0959 17.1840 -2.5422 31.3730
#
#
#
# Elastic Compliance Matrix: (Units=1/GPa)
#
#
# Indices 1 2 3 4 5 6 
#
# 1 0.042141 -0.005710 0.000994 0.017350 -0.022196 0.002401
# 2 -0.005710 0.008213 -0.001238 -0.005071 0.000596 0.006345
# 3 0.000994 -0.001238 0.012044 0.000759 -0.007021 -0.003007
# 4 0.017350 -0.005071 0.000759 0.046412 -0.012733 -0.022770
# 5 -0.022196 0.000596 -0.007021 -0.012733 0.036683 0.001881
# 6 0.002401 0.006345 -0.003007 -0.022770 0.001881 0.050371
#
#
# Mechanical properties :
#
#
# Convention : Reuss Voigt Hill
#
# Bulk Modulus (GPa) = 19.80643 51.31439 35.56041
# Shear Modulus (GPa) = 22.26147 40.00075 31.13111
#
# Velocity S-wave (km/s) = 2.92779 3.92461 3.46226
# Velocity P-wave (km/s) = 4.36530 6.34789 5.44755
#
# Compressibility (1/GPa) = 0.05048866
#
# Stress axis : x y z
#
# Youngs Moduli (GPa) = 23.72967 121.75781 83.03034
#
# Poissons Ratio (x) = 0.69526 -0.08252
# Poissons Ratio (y) = 0.13550 0.10282
# Poissons Ratio (z) = -0.02358 0.15078
#
# Static dielectric constant tensor:
#      x y z
#    x 2.048560 -0.070040 0.002400 
#    y -0.070040 2.040130 0.041040 
#    z 0.002400 0.041040 2.200620 
# 
# From -- ./inp_files/337767.got.cif
#   From: 2010.05.17/outbox.cif.g08.bks.cpg/sg2_169_cif.got.tgz:337767.got - 2010.06.03 11:33:40.
