data_PCOD9042121
_publ_section_title
;
Structure prediction by ZEFSAII (Michael W. Deem and Ramdas Pophale) SiO2 
 PCOD9042121
Probable space group: P -1
;
_chemical_formula_sum "Si O2"
_cell_formula_units_Z 14
_cell_length_a 5.227727
_cell_length_b 14.315668
_cell_length_c 11.371858
_cell_angle_alpha 123.676397
_cell_angle_beta 76.591669
_cell_angle_gamma 69.194893
_cell_volume 552.366139
_symmetry_space_group_name_H-M "P -1"
_symmetry_group_IT_number 2
_symmetry_cell_setting 'triclinic'
loop_
_space_group_symop_operation_xyz
x,y,z
-x,-y,-z
loop_
_atom_site_type_symbol
_atom_site_label
_atom_site_fract_x
_atom_site_fract_y
_atom_site_fract_z
Si Si1 0.340271 0.003292 0.831249
Si Si2 0.341552 0.875014 0.511772
Si Si3 0.275428 0.457810 0.035329
Si Si4 0.596859 0.141947 0.769181
Si Si5 0.687662 0.326973 0.467441
Si Si6 0.644563 0.197036 0.150802
Si Si7 0.063294 0.507314 0.348790
O O1 0.441227 0.102927 0.858221
O O2 0.479374 0.903104 0.631035
O O3 0.460678 0.898054 0.854667
O O4 0.947924 0.104833 0.965258
O O5 0.515536 0.847897 0.348773
O O6 0.299632 0.757552 0.478256
O O7 0.981090 0.020207 0.641020
O O8 0.502760 0.291922 0.911454
O O9 0.500000 0.500000 0.000000
O O10 0.108376 0.529907 0.225414
O O11 0.000000 0.500000 0.000000
O O12 0.780290 0.229397 0.274995
O O13 0.881799 0.391799 0.514472
O O14 0.699316 0.550270 0.425655
O O15 0.346627 0.346635 0.238492
#
# Coordination Sequence:
#
# PCOD9042121 Si02
#       7
#     2   2   2   2   2   2   2
#     4  10  23  46  70 105 142 192 243 309 360 433
#     4  10  23  44  69 110 137 189 245 302 366 443
#     4  12  28  48  74 112 148 189 240 304 372 446
#     4  11  24  43  76  99 146 191 241 303 373 435
#     4  11  26  47  74 107 148 194 247 302 363 433
#     4  10  24  46  72 107 148 192 257 296 363 436
#     4  12  25  48  74 106 148 196 242 302 369 433
#
# _framework density 25.345506
#
# number of rings (size 3 to 8) (size 9 to 14) (size 15 to 20)
#    0.000    1.143    0.000    4.714   10.000    0.000 
#    5.143    2.857    0.000    0.000    0.000    0.000 
#    0.000    0.000    0.000    0.000    0.000    0.000 
#
# Total GULP energy -78475.769157 kJ/mol
# GULP energy per Si atom -5605.412083 kJ/mol
# Density = 2.528782 g / cm^3
# Si number density = 25.345506 Si / 1000 Ang^3
#
#
#
# Elastic Constant Matrix: (Units=GPa)
#
#
# Indices 1 2 3 4 5 6 
#
# 1 102.3862 45.1021 28.1217 -2.4355 -3.1935 -0.0357
# 2 45.1021 125.8654 34.2321 6.1373 8.1341 12.4540
# 3 28.1217 34.2321 113.9106 -18.6078 2.1034 3.2539
# 4 -2.4355 6.1373 -18.6078 61.2629 -4.2476 -7.1430
# 5 -3.1935 8.1341 2.1034 -4.2476 31.4559 3.0822
# 6 -0.0357 12.4540 3.2539 -7.1430 3.0822 32.2838
#
#
#
# Elastic Compliance Matrix: (Units=1/GPa)
#
#
# Indices 1 2 3 4 5 6 
#
# 1 0.012213 -0.004283 -0.001697 0.000773 0.002391 0.001780
# 2 -0.004283 0.010909 -0.002488 -0.002728 -0.003039 -0.004276
# 3 -0.001697 -0.002488 0.010488 0.003455 0.000173 0.000649
# 4 0.000773 -0.002728 0.003455 0.018384 0.002592 0.004525
# 5 0.002391 -0.003039 0.000173 0.002592 0.033299 -0.001448
# 6 0.001780 -0.004276 0.000649 0.004525 -0.001448 0.033701
#
#
# Mechanical properties :
#
#
# Convention : Reuss Voigt Hill
#
# Bulk Modulus (GPa) = 59.97407 61.89710 60.93559
# Shear Modulus (GPa) = 35.33831 40.64761 37.99296
#
# Velocity S-wave (km/s) = 3.73803 4.00902 3.87589
# Velocity P-wave (km/s) = 6.50727 6.77525 6.64261
#
# Compressibility (1/GPa) = 0.01667387
#
# Stress axis : x y z
#
# Youngs Moduli (GPa) = 81.87746 91.66653 95.34550
#
# Poissons Ratio (x) = 0.39263 0.16178
# Poissons Ratio (y) = 0.35070 0.23725
# Poissons Ratio (z) = 0.13893 0.22810
#
# Static dielectric constant tensor:
#      x y z
#    x 1.990650 -0.041630 0.064710 
#    y -0.041630 2.005700 -0.030970 
#    z 0.064710 -0.030970 1.994660 
# 
# From -- ./inp_files/118798.got.cif
#   From: 2010.05.17/outbox.cif.g08.bks.cpg/sg2_60_cif.got.tgz:118798.got - 2010.06.03 11:33:40.
