data_PCOD9042390
_publ_section_title
;
Structure prediction by ZEFSAII (Michael W. Deem and Ramdas Pophale) SiO2 
 PCOD9042390
Probable space group: P -1
;
_chemical_formula_sum "Si O2"
_cell_formula_units_Z 12
_cell_length_a 12.806858
_cell_length_b 5.119348
_cell_length_c 15.251037
_cell_angle_alpha 83.819866
_cell_angle_beta 29.523874
_cell_angle_gamma 74.186937
_cell_volume 456.074886
_symmetry_space_group_name_H-M "P -1"
_symmetry_group_IT_number 2
_symmetry_cell_setting 'triclinic'
loop_
_space_group_symop_operation_xyz
x,y,z
-x,-y,-z
loop_
_atom_site_type_symbol
_atom_site_label
_atom_site_fract_x
_atom_site_fract_y
_atom_site_fract_z
Si Si1 0.312819 0.384325 0.102153
Si Si2 0.789147 0.786610 0.463498
Si Si3 0.160148 0.172230 0.384544
Si Si4 0.220642 0.233303 0.986118
Si Si5 0.736514 0.239916 0.338113
Si Si6 0.352097 0.702669 0.789082
O O1 0.287877 0.167562 0.200676
O O2 0.060590 0.629697 0.272646
O O3 0.500000 0.500000 0.000000
O O4 0.340773 0.265871 0.987501
O O5 0.720774 0.919994 0.605634
O O6 0.626323 0.605700 0.582778
O O7 0.730051 0.008953 0.420559
O O8 0.000000 0.500000 0.500000
O O9 0.000000 0.000000 0.500000
O O10 0.271712 0.443564 0.873276
O O11 0.280355 0.920485 0.914626
O O12 0.950718 0.329727 0.198327
O O13 0.500000 0.500000 0.500000
O O14 0.757908 0.135623 0.225390
#
# Coordination Sequence:
#
# PCOD9042390 Si02
#       6
#     2   2   2   2   2   2
#     4  11  25  49  78 113 152 202 258 320 387 460
#     4  11  25  48  75 109 151 199 255 316 380 455
#     4  10  23  44  71 102 141 191 246 306 371 441
#     4  12  27  49  75 112 154 199 254 317 381 457
#     4  12  26  49  79 114 154 204 256 316 385 461
#     4  12  27  47  75 112 154 203 253 313 382 456
#
# _framework density 26.31147
#
# number of rings (size 3 to 8) (size 9 to 14) (size 15 to 20)
#    0.000    0.667    0.000    6.500    0.000   10.667 
#    0.000    7.500    0.000    0.000    0.000    0.000 
#    0.000    0.000    0.000    0.000    0.000    0.000 
#
# Total GULP energy -67315.819039 kJ/mol
# GULP energy per Si atom -5609.651587 kJ/mol
# Density = 2.625158 g / cm^3
# Si number density = 26.311470 Si / 1000 Ang^3
#
#
#
# Elastic Constant Matrix: (Units=GPa)
#
#
# Indices 1 2 3 4 5 6 
#
# 1 148.2283 8.8309 27.9450 -2.5652 16.1044 -0.7562
# 2 8.8309 113.5446 43.1292 -21.0437 -6.8488 -7.5659
# 3 27.9450 43.1292 138.5372 -12.0571 -13.9889 -4.7172
# 4 -2.5652 -21.0437 -12.0571 62.8536 1.6792 -1.9645
# 5 16.1044 -6.8488 -13.9889 1.6792 72.1430 -9.7664
# 6 -0.7562 -7.5659 -4.7172 -1.9645 -9.7664 60.4707
#
#
#
# Elastic Compliance Matrix: (Units=1/GPa)
#
#
# Indices 1 2 3 4 5 6 
#
# 1 0.007280 -0.000083 -0.001658 -0.000007 -0.002005 -0.000373
# 2 -0.000083 0.010601 -0.002921 0.003011 0.000563 0.001286
# 3 -0.001658 -0.002921 0.008722 0.000597 0.001853 0.000613
# 4 -0.000007 0.003011 0.000597 0.017060 0.000142 0.001000
# 5 -0.002005 0.000563 0.001853 0.000142 0.015074 0.002629
# 6 -0.000373 0.001286 0.000613 0.001000 0.002629 0.017198
#
#
# Mechanical properties :
#
#
# Convention : Reuss Voigt Hill
#
# Bulk Modulus (GPa) = 57.87794 62.23558 60.05676
# Shear Modulus (GPa) = 54.93399 60.45380 57.69390
#
# Velocity S-wave (km/s) = 4.57424 4.79855 4.68774
# Velocity P-wave (km/s) = 7.06705 7.37606 7.22321
#
# Compressibility (1/GPa) = 0.01727774
#
# Stress axis : x y z
#
# Youngs Moduli (GPa) = 137.36782 94.33411 114.65246
#
# Poissons Ratio (x) = 0.00787 0.19012
# Poissons Ratio (y) = 0.01145 0.33487
# Poissons Ratio (z) = 0.22778 0.27552
#
# Static dielectric constant tensor:
#      x y z
#    x 2.058940 -0.007250 0.025750 
#    y -0.007250 1.974630 0.124560 
#    z 0.025750 0.124560 2.160390 
# 
# From -- ./inp_files/510921.got.cif
#   From: 2010.05.17/outbox.cif.g08.bks.cpg/sg2_256_cif.got.tgz:510921.got - 2010.06.03 11:33:40.
