data_PCOD9042302
_publ_section_title
;
Structure prediction by ZEFSAII (Michael W. Deem and Ramdas Pophale) SiO2 
 PCOD9042302
Probable space group: P -1
;
_chemical_formula_sum "Si O2"
_cell_formula_units_Z 14
_cell_length_a 5.721063
_cell_length_b 10.637667
_cell_length_c 26.576311
_cell_angle_alpha 25.019788
_cell_angle_beta 62.500121
_cell_angle_gamma 69.370463
_cell_volume 597.269093
_symmetry_space_group_name_H-M "P -1"
_symmetry_group_IT_number 2
_symmetry_cell_setting 'triclinic'
loop_
_space_group_symop_operation_xyz
x,y,z
-x,-y,-z
loop_
_atom_site_type_symbol
_atom_site_label
_atom_site_fract_x
_atom_site_fract_y
_atom_site_fract_z
Si Si1 0.320396 0.661715 0.730851
Si Si2 0.632364 0.976430 0.791649
Si Si3 0.658538 0.595241 0.013020
Si Si4 0.684743 0.585349 0.289095
Si Si5 0.984948 0.176881 0.592898
Si Si6 0.183441 0.911050 0.470172
Si Si7 0.950532 0.243367 0.991523
O O1 0.343721 0.616776 0.684947
O O2 0.131973 0.371833 0.878500
O O3 0.625033 0.768769 0.678726
O O4 0.207519 0.963818 0.647988
O O5 0.372389 0.725901 0.895463
O O6 0.563044 0.269995 0.718303
O O7 0.760987 0.000914 0.715580
O O8 0.789940 0.831809 0.871600
O O9 0.837614 0.612651 0.038178
O O10 0.350553 0.673055 0.020069
O O11 0.724549 0.372669 0.408763
O O12 0.891839 0.887604 0.141649
O O13 0.926030 0.205156 0.530328
O O14 0.000000 0.500000 0.500000
O O15 0.000000 0.000000 0.500000
#
# Coordination Sequence:
#
# PCOD9042302 Si02
#       7
#     2   2   2   2   2   2   2
#     4  12  26  50  74 108 156 196 261 322 389 462
#     4  10  23  44  70 110 152 195 261 309 395 448
#     4  10  23  45  74 109 158 204 246 327 383 466
#     4  11  26  46  76 113 151 205 255 318 391 470
#     4  12  27  46  77 109 145 199 260 319 380 466
#     4  12  28  49  78 106 155 206 253 321 395 462
#     4  11  25  47  79 114 155 203 265 316 393 454
#
# _framework density 23.440021999999999
#
# number of rings (size 3 to 8) (size 9 to 14) (size 15 to 20)
#    0.000    0.857    2.857    2.571    4.000    9.714 
#    2.571    4.286    0.000    0.000    0.000    0.000 
#    0.000    0.000    0.000    0.000    0.000    0.000 
#
# Total GULP energy -77953.353214 kJ/mol
# GULP energy per Si atom -5568.096658 kJ/mol
# Density = 2.338667 g / cm^3
# Si number density = 23.440022 Si / 1000 Ang^3
#
#
#
# Elastic Constant Matrix: (Units=GPa)
#
#
# Indices 1 2 3 4 5 6 
#
# 1 62.4154 32.1422 10.0473 19.2408 -2.6745 -0.0320
# 2 32.1422 148.1989 13.0776 17.3165 -2.1698 0.8899
# 3 10.0473 13.0776 92.3627 21.6001 -4.8447 -15.8750
# 4 19.2408 17.3165 21.6001 37.3060 2.6256 11.7020
# 5 -2.6745 -2.1698 -4.8447 2.6256 29.9559 2.6947
# 6 -0.0320 0.8899 -15.8750 11.7020 2.6947 32.3355
#
#
#
# Elastic Compliance Matrix: (Units=1/GPa)
#
#
# Indices 1 2 3 4 5 6 
#
# 1 0.021427 -0.003352 0.002215 -0.012715 0.002641 0.005582
# 2 -0.003352 0.007713 -0.000223 -0.001845 0.000357 0.000313
# 3 0.002215 -0.000223 0.016584 -0.015036 0.002981 0.013343
# 4 -0.012715 -0.001845 -0.015036 0.051315 -0.005911 -0.025422
# 5 0.002641 0.000357 0.002981 -0.005911 0.034580 0.000714
# 6 0.005582 0.000313 0.013343 -0.025422 0.000714 0.046614
#
#
# Mechanical properties :
#
#
# Convention : Reuss Voigt Hill
#
# Bulk Modulus (GPa) = 23.25391 45.94569 34.59980
# Shear Modulus (GPa) = 25.60328 36.43348 31.01838
#
# Velocity S-wave (km/s) = 3.30856 3.94677 3.64168
# Velocity P-wave (km/s) = 4.95354 6.35715 5.69872
#
# Compressibility (1/GPa) = 0.04300352
#
# Stress axis : x y z
#
# Youngs Moduli (GPa) = 46.67063 129.64524 60.30068
#
# Poissons Ratio (x) = 0.43455 -0.13358
# Poissons Ratio (y) = 0.15643 0.01347
# Poissons Ratio (z) = -0.10339 0.02897
#
# Static dielectric constant tensor:
#      x y z
#    x 2.173750 -0.136480 0.025620 
#    y -0.136480 1.929820 -0.022780 
#    z 0.025620 -0.022780 2.085890 
# 
# From -- ./inp_files/603703.got.cif
#   From: 2010.05.17/outbox.cif.g08.bks.cpg/sg2_302_cif.got.tgz:603703.got - 2010.06.03 11:33:40.
