data_PCOD9042295
_publ_section_title
;
Structure prediction by ZEFSAII (Michael W. Deem and Ramdas Pophale) SiO2 
 PCOD9042295
Probable space group: P -1
;
_chemical_formula_sum "Si O2"
_cell_formula_units_Z 15
_cell_length_a 8.911071
_cell_length_b 14.034804
_cell_length_c 8.317975
_cell_angle_alpha 54.527565
_cell_angle_beta 49.588650
_cell_angle_gamma 70.172118
_cell_volume 643.921233
_symmetry_space_group_name_H-M "P -1"
_symmetry_group_IT_number 2
_symmetry_cell_setting 'triclinic'
loop_
_space_group_symop_operation_xyz
x,y,z
-x,-y,-z
loop_
_atom_site_type_symbol
_atom_site_label
_atom_site_fract_x
_atom_site_fract_y
_atom_site_fract_z
Si Si1 0.129191 0.815194 0.862915
Si Si2 0.500000 0.500000 0.000000
Si Si3 0.606822 0.993066 0.667539
Si Si4 0.198125 0.003031 0.122215
Si Si5 0.144669 0.755459 0.284994
Si Si6 0.573779 0.726581 0.943224
Si Si7 0.036347 0.487715 0.301492
Si Si8 0.072973 0.375012 0.006045
O O1 0.311185 0.907170 0.607985
O O2 0.133293 0.763041 0.091011
O O3 0.938172 0.891380 0.914009
O O4 0.097950 0.722285 0.829152
O O5 0.522878 0.633163 0.930342
O O6 0.732221 0.481154 0.915471
O O7 0.619441 0.860404 0.725979
O O8 0.735275 0.999966 0.736041
O O9 0.387055 0.012532 0.863982
O O10 0.090553 0.878678 0.273499
O O11 0.017702 0.649314 0.558353
O O12 0.374112 0.734735 0.179568
O O13 0.746851 0.679360 0.978964
O O14 0.000000 0.500000 0.500000
O O15 0.876269 0.571906 0.257056
O O16 0.000000 0.500000 0.000000
#
# Coordination Sequence:
#
# PCOD9042295 Si02
#       8
#     2   1   2   2   2   2   2   2
#     4  12  24  46  71 105 139 189 226 290 350 420
#     4  12  24  44  72 100 140 184 228 282 364 394
#     4  10  24  44  72 103 145 174 237 288 347 415
#     4  10  23  44  70 108 135 183 228 289 349 417
#     4  11  26  47  70 102 145 177 241 286 353 411
#     4  11  24  46  70 103 138 187 230 291 344 420
#     4  12  25  49  68 101 142 182 231 299 336 422
#     4  12  26  44  71 106 139 182 245 278 354 420
#
# _framework density 23.294774
#
# number of rings (size 3 to 8) (size 9 to 14) (size 15 to 20)
#    0.000    0.800    5.333    0.800    3.733    2.667 
#    4.800    1.333    0.000    0.000    0.000    0.000 
#    0.000    0.000    0.000    0.000    0.000    0.000 
#
# Total GULP energy -83550.062227 kJ/mol
# GULP energy per Si atom -5570.004148 kJ/mol
# Density = 2.324175 g / cm^3
# Si number density = 23.294774 Si / 1000 Ang^3
#
#
#
# Elastic Constant Matrix: (Units=GPa)
#
#
# Indices 1 2 3 4 5 6 
#
# 1 108.4372 38.0993 49.8853 -18.6051 -13.8767 -11.5105
# 2 38.0993 148.3761 23.4627 -30.1909 -14.6190 10.8841
# 3 49.8853 23.4627 95.1244 -32.3115 -10.3849 -9.2891
# 4 -18.6051 -30.1909 -32.3115 38.7684 5.5186 -12.3356
# 5 -13.8767 -14.6190 -10.3849 5.5186 27.4711 -6.3484
# 6 -11.5105 10.8841 -9.2891 -12.3356 -6.3484 50.0036
#
#
#
# Elastic Compliance Matrix: (Units=1/GPa)
#
#
# Indices 1 2 3 4 5 6 
#
# 1 0.013580 -0.002335 -0.005627 0.000445 0.004146 0.003225
# 2 -0.002335 0.008696 0.001567 0.006514 0.002688 -0.000191
# 3 -0.005627 0.001567 0.019736 0.016541 0.003648 0.006574
# 4 0.000445 0.006514 0.016541 0.048918 0.003412 0.014258
# 5 0.004146 0.002688 0.003648 0.003412 0.042298 0.007259
# 6 0.003225 -0.000191 0.006574 0.014258 0.007259 0.026443
#
#
# Mechanical properties :
#
#
# Convention : Reuss Voigt Hill
#
# Bulk Modulus (GPa) = 34.22091 63.87024 49.04558
# Shear Modulus (GPa) = 27.44237 39.28133 33.36185
#
# Velocity S-wave (km/s) = 3.43599 4.11088 3.78849
# Velocity P-wave (km/s) = 5.51939 7.07179 6.34326
#
# Compressibility (1/GPa) = 0.02922190
#
# Stress axis : x y z
#
# Youngs Moduli (GPa) = 73.63652 115.00087 50.66929
#
# Poissons Ratio (x) = 0.26850 0.28512
# Poissons Ratio (y) = 0.17192 -0.07940
# Poissons Ratio (z) = 0.41436 -0.18021
#
# Static dielectric constant tensor:
#      x y z
#    x 2.054610 0.067130 0.116880 
#    y 0.067130 1.927990 0.003730 
#    z 0.116880 0.003730 2.035070 
# 
# From -- ./inp_files/199289.got.cif
#   From: 2010.05.17/outbox.cif.g08.bks.cpg/sg2_100_cif.got.tgz:199289.got - 2010.06.03 11:33:40.
