data_PCOD9042567
_publ_section_title
;
Structure prediction by ZEFSAII (Michael W. Deem and Ramdas Pophale) SiO2 
 PCOD9042567
Probable space group: P -1
;
_chemical_formula_sum "Si O2"
_cell_formula_units_Z 14
_cell_length_a 12.283516
_cell_length_b 11.476817
_cell_length_c 11.861182
_cell_angle_alpha 40.179074
_cell_angle_beta 45.313941
_cell_angle_gamma 34.068614
_cell_volume 592.793193
_symmetry_space_group_name_H-M "P -1"
_symmetry_group_IT_number 2
_symmetry_cell_setting 'triclinic'
loop_
_space_group_symop_operation_xyz
x,y,z
-x,-y,-z
loop_
_atom_site_type_symbol
_atom_site_label
_atom_site_fract_x
_atom_site_fract_y
_atom_site_fract_z
Si Si1 0.364907 0.128498 0.619244
Si Si2 0.310285 0.078187 0.287717
Si Si3 0.462268 0.686896 0.294396
Si Si4 0.389855 0.506711 0.273851
Si Si5 0.032025 0.787272 0.193090
Si Si6 0.130164 0.522200 0.968641
Si Si7 0.837366 0.105945 0.295645
O O1 0.504841 0.981147 0.732001
O O2 0.331407 0.365125 0.480161
O O3 0.146125 0.206962 0.722400
O O4 0.500000 0.000000 0.500000
O O5 0.369859 0.934430 0.234556
O O6 0.221638 0.970427 0.497687
O O7 0.174730 0.355093 0.163447
O O8 0.500000 0.500000 0.500000
O O9 0.356022 0.685610 0.261023
O O10 0.672066 0.585713 0.165835
O O11 0.629330 0.310385 0.232449
O O12 0.267856 0.586756 0.186292
O O13 0.967548 0.869859 0.306805
O O14 0.000000 0.000000 0.000000
O O15 0.057198 0.779384 0.856099
O O16 0.000000 0.500000 0.000000
#
# Coordination Sequence:
#
# PCOD9042567 Si02
#       7
#     2   2   2   2   2   2   2
#     4  11  22  46  70  97 136 184 235 276 351 414
#     4  11  23  45  74  95 140 190 222 287 350 410
#     4  11  21  46  72  98 139 181 225 290 352 406
#     4  10  23  44  72  98 135 185 232 277 349 411
#     4  12  27  42  70 104 136 183 235 289 343 417
#     4  11  26  41  69 109 134 180 234 282 349 421
#     4  10  24  49  64 102 147 179 225 294 354 394
#
# _framework density 23.617007999999998
#
# number of rings (size 3 to 8) (size 9 to 14) (size 15 to 20)
#    0.000    1.143    7.143    0.857    6.000    4.571 
#    2.571    0.000    0.000    0.000    0.000    0.000 
#    0.000    0.000    0.000    0.000    0.000    0.000 
#
# Total GULP energy -78028.227868 kJ/mol
# GULP energy per Si atom -5573.444848 kJ/mol
# Density = 2.356325 g / cm^3
# Si number density = 23.617008 Si / 1000 Ang^3
#
#
#
# Elastic Constant Matrix: (Units=GPa)
#
#
# Indices 1 2 3 4 5 6 
#
# 1 168.7984 7.5762 35.6473 -6.6693 -31.8375 -27.5847
# 2 7.5762 41.3648 6.9721 -3.8423 -3.9388 5.1993
# 3 35.6473 6.9721 70.2903 -16.4695 -10.2891 -20.7700
# 4 -6.6693 -3.8423 -16.4695 20.3342 -1.4234 9.2532
# 5 -31.8375 -3.9388 -10.2891 -1.4234 40.2389 -9.4017
# 6 -27.5847 5.1993 -20.7700 9.2532 -9.4017 38.1995
#
#
#
# Elastic Compliance Matrix: (Units=1/GPa)
#
#
# Indices 1 2 3 4 5 6 
#
# 1 0.009338 -0.001994 -0.000875 -0.001549 0.009051 0.009142
# 2 -0.001994 0.026484 -0.003004 0.005642 -0.001521 -0.008419
# 3 -0.000875 -0.003004 0.022242 0.012854 0.007641 0.010638
# 4 -0.001549 0.005642 0.012854 0.064867 0.002577 -0.009976
# 5 0.009051 -0.001521 0.007641 0.002577 0.038525 0.019755
# 6 0.009142 -0.008419 0.010638 -0.009976 0.019755 0.046989
#
#
# Mechanical properties :
#
#
# Convention : Reuss Voigt Hill
#
# Bulk Modulus (GPa) = 21.58963 42.31611 31.95287
# Shear Modulus (GPa) = 21.21961 35.10504 28.16232
#
# Velocity S-wave (km/s) = 3.00073 3.85961 3.45695
# Velocity P-wave (km/s) = 4.60079 6.14969 5.43074
#
# Compressibility (1/GPa) = 0.04631853
#
# Stress axis : x y z
#
# Youngs Moduli (GPa) = 107.08510 37.75838 44.95984
#
# Poissons Ratio (x) = 0.07529 0.03933
# Poissons Ratio (y) = 0.21354 0.13507
# Poissons Ratio (z) = 0.09368 0.11343
#
# Static dielectric constant tensor:
#      x y z
#    x 36.607050 6.760150 7.186950 
#    y 6.760150 3.468680 1.484740 
#    z 7.186950 1.484740 3.432460 
# 
# From -- ./inp_files/424883.got.cif
#   From: 2010.05.17/outbox.cif.g08.bks.cpg/sg2_213_cif.got.tgz:424883.got - 2010.06.03 11:33:40.
