data_PCOD9042852
_publ_section_title
;
Structure prediction by ZEFSAII (Michael W. Deem and Ramdas Pophale) SiO2 
 PCOD9042852
Probable space group: P -1
;
_chemical_formula_sum "Si O2"
_cell_formula_units_Z 14
_cell_length_a 16.795006
_cell_length_b 8.643258
_cell_length_c 5.215933
_cell_angle_alpha 108.460910
_cell_angle_beta 120.774185
_cell_angle_gamma 76.574460
_cell_volume 614.779431
_symmetry_space_group_name_H-M "P -1"
_symmetry_group_IT_number 2
_symmetry_cell_setting 'triclinic'
loop_
_space_group_symop_operation_xyz
x,y,z
-x,-y,-z
loop_
_atom_site_type_symbol
_atom_site_label
_atom_site_fract_x
_atom_site_fract_y
_atom_site_fract_z
Si Si1 0.718530 0.986507 0.780874
Si Si2 0.101555 0.845495 0.325113
Si Si3 0.601604 0.906640 0.057008
Si Si4 0.559102 0.535929 0.867817
Si Si5 0.749600 0.324869 0.162891
Si Si6 0.098150 0.173055 0.749722
Si Si7 0.903025 0.465117 0.204262
O O1 0.671800 0.932135 0.417778
O O2 0.649222 0.957526 0.893815
O O3 0.821571 0.907884 0.975427
O O4 0.732934 0.176596 0.868901
O O5 0.200100 0.771880 0.567612
O O6 0.008726 0.825138 0.332283
O O7 0.104014 0.044972 0.446611
O O8 0.087445 0.713406 0.008899
O O9 0.585294 0.717241 0.946857
O O10 0.500000 0.000000 0.000000
O O11 0.500000 0.500000 0.500000
O O12 0.500000 0.500000 0.000000
O O13 0.652778 0.428406 0.042470
O O14 0.825039 0.446073 0.274057
O O15 0.122621 0.361648 0.884247
O O16 0.000000 0.500000 0.500000
#
# Coordination Sequence:
#
# PCOD9042852 Si02
#       7
#     2   2   2   2   2   2   2
#     4  11  26  44  72 104 142 192 237 303 358 439
#     4  10  24  44  66  97 147 187 244 302 361 444
#     4  12  25  47  73 104 141 188 240 297 371 435
#     4  12  27  46  75 109 144 188 239 307 367 436
#     4  11  26  45  68 103 141 189 244 301 370 432
#     4  10  23  45  65 104 141 190 247 293 374 431
#     4  12  25  42  71 105 142 196 245 307 368 438
#
# _framework density 22.772396000000001
#
# number of rings (size 3 to 8) (size 9 to 14) (size 15 to 20)
#    0.000    0.857    1.429    4.286    8.000    1.714 
#    0.000    0.000    0.000    0.000    0.000    0.000 
#    0.000    0.000    0.000    0.000    0.000    0.000 
#
# Total GULP energy -78061.369422 kJ/mol
# GULP energy per Si atom -5575.812102 kJ/mol
# Density = 2.272056 g / cm^3
# Si number density = 22.772396 Si / 1000 Ang^3
#
#
#
# Elastic Constant Matrix: (Units=GPa)
#
#
# Indices 1 2 3 4 5 6 
#
# 1 119.4770 65.7932 54.1149 -17.4819 11.6072 4.9993
# 2 65.7932 102.7469 19.5864 -3.5122 17.4183 -25.7821
# 3 54.1149 19.5864 155.0898 15.8363 14.0273 -7.5954
# 4 -17.4819 -3.5122 15.8363 34.1286 2.5279 17.6327
# 5 11.6072 17.4183 14.0273 2.5279 36.7656 -7.4678
# 6 4.9993 -25.7821 -7.5954 17.6327 -7.4678 46.1159
#
#
#
# Elastic Compliance Matrix: (Units=1/GPa)
#
#
# Indices 1 2 3 4 5 6 
#
# 1 0.053892 -0.041823 -0.022492 0.064201 -0.004868 -0.058264
# 2 -0.041823 0.044614 0.016768 -0.051375 -0.000269 0.051838
# 3 -0.022492 0.016768 0.016640 -0.031268 0.000354 0.026566
# 4 0.064201 -0.051375 -0.031268 0.117200 -0.009775 -0.087227
# 5 -0.004868 -0.000269 0.000354 -0.009775 0.031277 0.009238
# 6 -0.058264 0.051838 0.026566 -0.087227 0.009238 0.096205
#
#
# Mechanical properties :
#
#
# Convention : Reuss Voigt Hill
#
# Bulk Modulus (GPa) = 49.86656 72.92251 61.39453
# Shear Modulus (GPa) = 10.83177 39.25664 25.04420
#
# Velocity S-wave (km/s) = 2.18331 4.15645 3.31986
# Velocity P-wave (km/s) = 5.31988 7.42473 6.45863
#
# Compressibility (1/GPa) = 0.02005352
#
# Stress axis : x y z
#
# Youngs Moduli (GPa) = 18.55549 22.41448 60.09602
#
# Poissons Ratio (x) = 0.93743 1.35165
# Poissons Ratio (y) = 0.77604 -1.00766
# Poissons Ratio (z) = 0.41734 -0.37584
#
# Static dielectric constant tensor:
#      x y z
#    x 1.946620 -0.026760 -0.061520 
#    y -0.026760 1.934220 0.017630 
#    z -0.061520 0.017630 1.887690 
# 
# From -- ./inp_files/107736.got.cif
#   From: 2010.05.17/outbox.cif.g08.bks.cpg/sg2_54_cif.got.tgz:107736.got - 2010.06.03 11:33:40.
