data_PCOD9042457
_publ_section_title
;
Structure prediction by ZEFSAII (Michael W. Deem and Ramdas Pophale) SiO2 
 PCOD9042457
Probable space group: P -1
;
_chemical_formula_sum "Si O2"
_cell_formula_units_Z 14
_cell_length_a 13.866384
_cell_length_b 7.881513
_cell_length_c 14.070604
_cell_angle_alpha 48.450934
_cell_angle_beta 150.501395
_cell_angle_gamma 134.020558
_cell_volume 537.024916
_symmetry_space_group_name_H-M "P -1"
_symmetry_group_IT_number 2
_symmetry_cell_setting 'triclinic'
loop_
_space_group_symop_operation_xyz
x,y,z
-x,-y,-z
loop_
_atom_site_type_symbol
_atom_site_label
_atom_site_fract_x
_atom_site_fract_y
_atom_site_fract_z
Si Si1 0.223983 0.750806 0.075082
Si Si2 0.702634 0.535998 0.046723
Si Si3 0.018582 0.096628 0.703587
Si Si4 0.721371 0.104685 0.599398
Si Si5 0.751675 0.615943 0.378676
Si Si6 0.388032 0.989843 0.804041
Si Si7 0.926394 0.727093 0.976932
O O1 0.446356 0.907110 0.173624
O O2 0.195346 0.477009 0.128144
O O3 0.157532 0.776953 0.116444
O O4 0.070573 0.848713 0.840992
O O5 0.807005 0.746537 0.130785
O O6 0.711266 0.290569 0.189799
O O7 0.467544 0.493380 0.826262
O O8 0.839623 0.595503 0.047844
O O9 0.079064 0.248044 0.603923
O O10 0.794490 0.066661 0.567571
O O11 0.777559 0.391012 0.539660
O O12 0.500000 0.000000 0.500000
O O13 0.855991 0.960732 0.820712
O O14 0.736715 0.824881 0.358530
O O15 0.500000 0.000000 0.000000
#
# Coordination Sequence:
#
# PCOD9042457 Si02
#       7
#     2   2   2   2   2   2   2
#     4  10  18  33  55  86 107 144 192 230 266 328
#     4  11  20  36  58  89 113 140 185 242 283 310
#     4  11  23  35  59  89 111 143 187 241 278 317
#     4  11  22  38  56  80 115 155 187 219 276 347
#     4  11  20  38  59  84 114 150 187 222 275 344
#     4  10  17  33  59  82 110 145 190 229 271 324
#     4  10  20  35  58  83 111 147 188 228 274 330
#
# _framework density 26.069554
#
# number of rings (size 3 to 8) (size 9 to 14) (size 15 to 20)
#    0.000    1.429    7.143    0.857    0.000    2.286 
#    0.000    0.714    0.000    2.571    0.000    0.000 
#    0.000    0.000    0.000    0.000    0.000    0.000 
#
# Total GULP energy -78306.165683 kJ/mol
# GULP energy per Si atom -5593.297549 kJ/mol
# Density = 2.601022 g / cm^3
# Si number density = 26.069554 Si / 1000 Ang^3
#
#
#
# Elastic Constant Matrix: (Units=GPa)
#
#
# Indices 1 2 3 4 5 6 
#
# 1 176.8390 52.9333 42.9663 4.3618 38.7555 67.7152
# 2 52.9333 123.5971 46.0508 -28.6844 -0.6269 42.5721
# 3 42.9663 46.0508 126.0364 -6.3081 8.4792 9.6602
# 4 4.3618 -28.6844 -6.3081 48.3021 -2.6442 0.8213
# 5 38.7555 -0.6269 8.4792 -2.6442 30.8624 2.9973
# 6 67.7152 42.5721 9.6602 0.8213 2.9973 67.3362
#
#
#
# Elastic Compliance Matrix: (Units=1/GPa)
#
#
# Indices 1 2 3 4 5 6 
#
# 1 0.016702 -0.002391 -0.002655 -0.004092 -0.019284 -0.013995
# 2 -0.002391 0.015231 -0.004153 0.009162 0.005918 -0.007005
# 3 -0.002655 -0.004153 0.010008 -0.000983 0.000040 0.003870
# 4 -0.004092 0.009162 -0.000983 0.026867 0.008113 -0.002225
# 5 -0.019284 0.005918 0.000040 0.008113 0.056155 0.013047
# 6 -0.013995 -0.007005 0.003870 -0.002225 0.013047 0.032244
#
#
# Mechanical properties :
#
#
# Convention : Reuss Voigt Hill
#
# Bulk Modulus (GPa) = 42.47408 78.93038 60.70223
# Shear Modulus (GPa) = 27.25521 48.26826 37.76173
#
# Velocity S-wave (km/s) = 3.23690 4.30760 3.81004
# Velocity P-wave (km/s) = 5.50436 7.42180 6.53380
#
# Compressibility (1/GPa) = 0.02354377
#
# Stress axis : x y z
#
# Youngs Moduli (GPa) = 59.87451 65.65616 99.91887
#
# Poissons Ratio (x) = 0.15697 0.26528
# Poissons Ratio (y) = 0.14314 0.41493
# Poissons Ratio (z) = 0.15896 0.27265
#
# Static dielectric constant tensor:
#      x y z
#    x 2.044390 -0.035200 -0.021880 
#    y -0.035200 2.020020 0.070410 
#    z -0.021880 0.070410 2.160360 
# 
# From -- ./inp_files/237827.got.cif
#   From: 2010.05.17/outbox.cif.g08.bks.cpg/sg2_119_cif.got.tgz:237827.got - 2010.06.03 11:33:40.
