data_PCOD9042821
_publ_section_title
;
Structure prediction by ZEFSAII (Michael W. Deem and Ramdas Pophale) SiO2 
 PCOD9042821
Probable space group: P -1
;
_chemical_formula_sum "Si O2"
_cell_formula_units_Z 16
_cell_length_a 15.031902
_cell_length_b 12.027977
_cell_length_c 14.204663
_cell_angle_alpha 42.347132
_cell_angle_beta 150.271076
_cell_angle_gamma 117.769904
_cell_volume 729.372960
_symmetry_space_group_name_H-M "P -1"
_symmetry_group_IT_number 2
_symmetry_cell_setting 'triclinic'
loop_
_space_group_symop_operation_xyz
x,y,z
-x,-y,-z
loop_
_atom_site_type_symbol
_atom_site_label
_atom_site_fract_x
_atom_site_fract_y
_atom_site_fract_z
Si Si1 0.870333 0.109653 0.216145
Si Si2 0.894097 0.745250 0.409314
Si Si3 0.743081 0.904096 0.506820
Si Si4 0.337281 0.272200 0.296115
Si Si5 0.616806 0.571679 0.945434
Si Si6 0.469050 0.517031 0.572333
Si Si7 0.586917 0.664628 0.077671
Si Si8 0.147805 0.408465 0.341164
O O1 0.021515 0.146545 0.265709
O O2 0.820772 0.969357 0.198452
O O3 0.658903 0.312885 0.916786
O O4 0.000000 0.000000 0.500000
O O5 0.799497 0.656285 0.307172
O O6 0.819796 0.721726 0.457910
O O7 0.147313 0.619161 0.717691
O O8 0.672979 0.895870 0.553808
O O9 0.737076 0.735780 0.549194
O O10 0.593151 0.118189 0.194226
O O11 0.505893 0.312103 0.473207
O O12 0.376175 0.283056 0.214387
O O13 0.101920 0.455791 0.986594
O O14 0.572194 0.649630 0.961348
O O15 0.458589 0.496400 0.822835
O O16 0.500000 0.500000 0.500000
O O17 0.248591 0.535203 0.376812
#
# Coordination Sequence:
#
# PCOD9042821 Si02
#       8
#     2   2   2   2   2   2   2   2
#     4  12  23  38  62  93 134 165 201 255 310 373
#     4  11  22  38  65  89 122 154 202 261 304 362
#     4  12  22  38  59  90 125 160 199 245 311 366
#     4  11  23  41  61  86 131 163 198 255 307 371
#     4  10  23  45  63  86 117 161 208 262 309 355
#     4  12  23  36  60  91 128 167 202 242 311 386
#     4  11  24  40  66  89 115 158 214 257 304 366
#     4  11  22  37  61  92 123 164 199 240 312 382
#
# _framework density 21.93665
#
# number of rings (size 3 to 8) (size 9 to 14) (size 15 to 20)
#    0.000    0.750    5.000    3.750    1.750    1.500 
#    0.000    0.000    0.000    0.750    0.000    0.000 
#    0.000    0.000    0.000    0.000    0.000    0.000 
#
# Total GULP energy -89404.975904 kJ/mol
# GULP energy per Si atom -5587.810994 kJ/mol
# Density = 2.188672 g / cm^3
# Si number density = 21.936650 Si / 1000 Ang^3
#
#
#
# Elastic Constant Matrix: (Units=GPa)
#
#
# Indices 1 2 3 4 5 6 
#
# 1 87.7917 30.1595 5.7739 -1.2483 -4.2579 14.1161
# 2 30.1595 105.1318 8.4906 24.9999 -0.3223 24.1825
# 3 5.7739 8.4906 23.7432 3.3232 -8.1264 0.3495
# 4 -1.2483 24.9999 3.3232 24.7790 5.9493 1.1690
# 5 -4.2579 -0.3223 -8.1264 5.9493 28.2189 1.8351
# 6 14.1161 24.1825 0.3495 1.1690 1.8351 36.1530
#
#
#
# Elastic Compliance Matrix: (Units=1/GPa)
#
#
# Indices 1 2 3 4 5 6 
#
# 1 0.013565 -0.004438 -0.002336 0.005515 0.000323 -0.002500
# 2 -0.004438 0.017345 -0.001246 -0.017967 0.003572 -0.009457
# 3 -0.002336 -0.001246 0.049892 -0.009413 0.015936 0.000759
# 4 0.005515 -0.017967 -0.009413 0.063462 -0.016030 0.008718
# 5 0.000323 0.003572 0.015936 -0.016030 0.043780 -0.004374
# 6 -0.002500 -0.009457 0.000759 0.008718 -0.004374 0.034895
#
#
# Mechanical properties :
#
#
# Convention : Reuss Voigt Hill
#
# Bulk Modulus (GPa) = 15.44160 33.94607 24.69383
# Shear Modulus (GPa) = 19.18898 29.31301 24.25100
#
# Velocity S-wave (km/s) = 2.96082 3.65945 3.32852
# Velocity P-wave (km/s) = 4.32932 5.77613 5.10425
#
# Compressibility (1/GPa) = 0.06476014
#
# Stress axis : x y z
#
# Youngs Moduli (GPa) = 73.71951 57.65516 20.04333
#
# Poissons Ratio (x) = 0.25588 0.04682
# Poissons Ratio (y) = 0.32717 0.02498
# Poissons Ratio (z) = 0.17221 0.07187
#
# Static dielectric constant tensor:
#      x y z
#    x 1.834690 0.011670 -0.044220 
#    y 0.011670 1.847290 0.017070 
#    z -0.044220 0.017070 1.814420 
# 
# From -- ./inp_files/281658.got.cif
#   From: 2010.05.17/outbox.cif.g08.bks.cpg/sg2_141_cif.got.tgz:281658.got - 2010.06.03 11:33:40.
