data_PCOD9042367
_publ_section_title
;
Structure prediction by ZEFSAII (Michael W. Deem and Ramdas Pophale) SiO2 
 PCOD9042367
Probable space group: P -1
;
_chemical_formula_sum "Si O2"
_cell_formula_units_Z 12
_cell_length_a 14.104978
_cell_length_b 9.237240
_cell_length_c 5.666725
_cell_angle_alpha 87.777263
_cell_angle_beta 79.805234
_cell_angle_gamma 40.314974
_cell_volume 464.752315
_symmetry_space_group_name_H-M "P -1"
_symmetry_group_IT_number 2
_symmetry_cell_setting 'triclinic'
loop_
_space_group_symop_operation_xyz
x,y,z
-x,-y,-z
loop_
_atom_site_type_symbol
_atom_site_label
_atom_site_fract_x
_atom_site_fract_y
_atom_site_fract_z
Si Si1 0.849327 0.230602 0.921682
Si Si2 0.036564 0.537652 0.726391
Si Si3 0.718538 0.672226 0.080496
Si Si4 0.372469 0.714293 0.711200
Si Si5 0.171855 0.977225 0.392430
Si Si6 0.585159 0.113823 0.941442
O O1 0.829564 0.425417 0.931087
O O2 0.699089 0.331362 0.095248
O O3 0.847970 0.166034 0.663425
O O4 0.000000 0.000000 0.000000
O O5 0.212840 0.369049 0.693547
O O6 0.000000 0.500000 0.500000
O O7 0.951716 0.787015 0.703339
O O8 0.000000 0.500000 0.000000
O O9 0.694992 0.850384 0.945669
O O10 0.556837 0.784632 0.136955
O O11 0.500000 0.500000 0.500000
O O12 0.444567 0.769654 0.806218
O O13 0.213082 0.950120 0.647395
O O14 0.326140 0.864577 0.231079
#
# Coordination Sequence:
#
# PCOD9042367 Si02
#       6
#     2   2   2   2   2   2
#     4  11  24  43  68 103 147 184 245 305 375 441
#     4  12  26  47  73 107 147 196 245 312 385 447
#     4  11  22  45  69 106 138 190 246 313 364 450
#     4  11  24  45  70 104 145 196 246 305 379 452
#     4  11  23  44  71  99 145 193 242 302 376 450
#     4  10  23  44  71 100 143 187 250 300 376 443
#
# _framework density 25.820205000000001
#
# number of rings (size 3 to 8) (size 9 to 14) (size 15 to 20)
#    0.000    1.000    3.333    3.000    2.333    3.333 
#    9.000    5.000    0.000    0.000    0.000    0.000 
#    0.000    0.000    0.000    0.000    0.000    0.000 
#
# Total GULP energy -67039.292204 kJ/mol
# GULP energy per Si atom -5586.607684 kJ/mol
# Density = 2.576144 g / cm^3
# Si number density = 25.820205 Si / 1000 Ang^3
#
#
#
# Elastic Constant Matrix: (Units=GPa)
#
#
# Indices 1 2 3 4 5 6 
#
# 1 140.7986 54.2589 63.3770 3.2978 40.9989 -3.7506
# 2 54.2589 156.2200 42.0642 -22.0635 18.5569 5.7797
# 3 63.3770 42.0642 87.9303 -4.3184 22.8879 -2.8228
# 4 3.2978 -22.0635 -4.3184 41.4418 -15.2421 10.5073
# 5 40.9989 18.5569 22.8879 -15.2421 56.3879 -4.0359
# 6 -3.7506 5.7797 -2.8228 10.5073 -4.0359 60.5095
#
#
#
# Elastic Compliance Matrix: (Units=1/GPa)
#
#
# Indices 1 2 3 4 5 6 
#
# 1 0.013841 -0.003055 -0.006701 -0.006765 -0.008061 0.001474
# 2 -0.003055 0.008750 -0.002195 0.005794 0.001654 -0.002023
# 3 -0.006701 -0.002195 0.017655 0.000589 -0.001382 0.000423
# 4 -0.006765 0.005794 0.000589 0.033534 0.011407 -0.006008
# 5 -0.008061 0.001654 -0.001382 0.011407 0.026629 -0.000927
# 6 0.001474 -0.002023 0.000423 -0.006008 -0.000927 0.017812
#
#
# Mechanical properties :
#
#
# Convention : Reuss Voigt Hill
#
# Bulk Modulus (GPa) = 61.18589 78.26102 69.72346
# Shear Modulus (GPa) = 33.88180 46.68441 40.28310
#
# Velocity S-wave (km/s) = 3.62639 4.25674 3.95414
# Velocity P-wave (km/s) = 6.42515 7.38482 6.92164
#
# Compressibility (1/GPa) = 0.01634364
#
# Stress axis : x y z
#
# Youngs Moduli (GPa) = 72.24740 114.28424 56.64199
#
# Poissons Ratio (x) = 0.34919 0.37957
# Poissons Ratio (y) = 0.22075 0.12431
# Poissons Ratio (z) = 0.48415 0.25081
#
# Static dielectric constant tensor:
#      x y z
#    x 2.027140 -0.029030 -0.001970 
#    y -0.029030 2.083540 -0.023730 
#    z -0.001970 -0.023730 2.273600 
# 
# From -- ./inp_files/38673.got.cif
#   From: 2010.05.17/outbox.cif.g08.bks.cpg/sg2_20_cif.got.tgz:38673.got - 2010.06.03 11:33:40.
