data_PCOD9042774
_publ_section_title
;
Structure prediction by ZEFSAII (Michael W. Deem and Ramdas Pophale) SiO2 
 PCOD9042774
Probable space group: P -1
;
_chemical_formula_sum "Si O2"
_cell_formula_units_Z 13
_cell_length_a 10.239824
_cell_length_b 11.655089
_cell_length_c 5.074416
_cell_angle_alpha 78.260834
_cell_angle_beta 85.219963
_cell_angle_gamma 65.754254
_cell_volume 540.642409
_symmetry_space_group_name_H-M "P -1"
_symmetry_group_IT_number 2
_symmetry_cell_setting 'triclinic'
loop_
_space_group_symop_operation_xyz
x,y,z
-x,-y,-z
loop_
_atom_site_type_symbol
_atom_site_label
_atom_site_fract_x
_atom_site_fract_y
_atom_site_fract_z
Si Si1 0.370452 0.857002 0.471656
Si Si2 0.865530 0.519425 0.702638
Si Si3 0.500000 0.000000 0.500000
Si Si4 0.082902 0.284655 0.008397
Si Si5 0.084541 0.013720 0.228833
Si Si6 0.380677 0.197982 0.918323
Si Si7 0.548051 0.609076 0.840609
O O1 0.353249 0.969673 0.623738
O O2 0.515219 0.868229 0.317121
O O3 0.421767 0.717778 0.647177
O O4 0.242636 0.901252 0.272405
O O5 0.872850 0.629328 0.837828
O O6 0.696535 0.557154 0.670277
O O7 0.000000 0.500000 0.500000
O O8 0.927346 0.378714 0.891234
O O9 0.594463 0.891116 0.788678
O O10 0.084198 0.153521 0.169164
O O11 0.220265 0.246491 0.811656
O O12 0.000000 0.000000 0.500000
O O13 0.000000 0.000000 0.000000
O O14 0.422559 0.313326 0.954980
O O15 0.500000 0.500000 0.000000
#
# Coordination Sequence:
#
# PCOD9042774 Si02
#       7
#     2   2   1   2   2   2   2
#     4  10  25  44  74 106 147 198 256 323 387 465
#     4  10  23  44  76 107 148 203 260 319 387 463
#     4   8  22  40  76 108 140 192 254 322 378 454
#     4  10  24  45  72 107 148 201 259 319 380 478
#     4  12  32  48  73 111 161 210 253 323 406 476
#     4   9  22  43  73 107 146 194 256 320 387 453
#     4  11  25  43  74 113 155 200 256 322 400 470
#
# _framework density 24.045466999999999
#
# number of rings (size 3 to 8) (size 9 to 14) (size 15 to 20)
#    0.923    0.923    0.000    0.923   12.923    1.846 
#    0.000    0.000    0.000    0.000    0.000    0.000 
#    0.000    0.000    0.000    0.000    0.000    0.000 
#
# Total GULP energy -72427.971893 kJ/mol
# GULP energy per Si atom -5571.382453 kJ/mol
# Density = 2.399074 g / cm^3
# Si number density = 24.045467 Si / 1000 Ang^3
#
#
#
# Elastic Constant Matrix: (Units=GPa)
#
#
# Indices 1 2 3 4 5 6 
#
# 1 120.3394 65.3078 59.8155 -25.3839 5.4369 -4.3995
# 2 65.3078 150.0328 61.6933 -40.3537 -8.8055 1.3793
# 3 59.8155 61.6933 116.4444 -25.1696 4.4890 -4.4759
# 4 -25.3839 -40.3537 -25.1696 55.7372 -7.1763 -15.0371
# 5 5.4369 -8.8055 4.4890 -7.1763 51.6759 -13.0064
# 6 -4.3995 1.3793 -4.4759 -15.0371 -13.0064 28.8709
#
#
#
# Elastic Compliance Matrix: (Units=1/GPa)
#
#
# Indices 1 2 3 4 5 6 
#
# 1 0.012760 -0.003345 -0.004251 0.001949 -0.000737 0.002129
# 2 -0.003345 0.011470 -0.002786 0.007321 0.004681 0.004432
# 3 -0.004251 -0.002786 0.012930 0.002641 -0.000071 0.002834
# 4 0.001949 0.007321 0.002641 0.032777 0.010998 0.022383
# 5 -0.000737 0.004681 -0.000071 0.010998 0.026071 0.017126
# 6 0.002129 0.004432 0.002834 0.022383 0.017126 0.054562
#
#
# Mechanical properties :
#
#
# Convention : Reuss Voigt Hill
#
# Bulk Modulus (GPa) = 60.99034 84.49444 72.74239
# Shear Modulus (GPa) = 28.28053 40.59013 34.43533
#
# Velocity S-wave (km/s) = 3.43319 4.11306 3.78841
# Velocity P-wave (km/s) = 6.41369 7.60079 7.03233
#
# Compressibility (1/GPa) = 0.01639604
#
# Stress axis : x y z
#
# Youngs Moduli (GPa) = 78.36721 87.18356 77.33839
#
# Poissons Ratio (x) = 0.29163 0.32877
# Poissons Ratio (y) = 0.26214 0.21549
# Poissons Ratio (z) = 0.33314 0.24292
#
# Static dielectric constant tensor:
#      x y z
#    x 2.046750 -0.106500 0.052500 
#    y -0.106500 2.051240 0.044540 
#    z 0.052500 0.044540 2.194230 
# 
# From -- ./inp_files/23342.got.cif
#   From: 2010.05.17/outbox.cif.g08.bks.cpg/sg2_12_cif.got.tgz:23342.got - 2010.06.03 11:33:40.
