data_PCOD9042173
_publ_section_title
;
Structure prediction by ZEFSAII (Michael W. Deem and Ramdas Pophale) SiO2 
 PCOD9042173
Probable space group: P -1
;
_chemical_formula_sum "Si O2"
_cell_formula_units_Z 16
_cell_length_a 9.773006
_cell_length_b 13.448758
_cell_length_c 6.808054
_cell_angle_alpha 126.586869
_cell_angle_beta 97.072567
_cell_angle_gamma 105.066004
_cell_volume 647.650164
_symmetry_space_group_name_H-M "P -1"
_symmetry_group_IT_number 2
_symmetry_cell_setting 'triclinic'
loop_
_space_group_symop_operation_xyz
x,y,z
-x,-y,-z
loop_
_atom_site_type_symbol
_atom_site_label
_atom_site_fract_x
_atom_site_fract_y
_atom_site_fract_z
Si Si1 0.264069 0.677548 0.008842
Si Si2 0.682661 0.726894 0.756765
Si Si3 0.028863 0.550820 0.336118
Si Si4 0.336172 0.563516 0.502498
Si Si5 0.233495 0.940427 0.140195
Si Si6 0.799436 0.996764 0.351846
Si Si7 0.447872 0.901265 0.566965
Si Si8 0.966295 0.816904 0.645732
O O1 0.321088 0.598048 0.769983
O O2 0.099577 0.578593 0.946305
O O3 0.241761 0.796900 0.023170
O O4 0.386356 0.753417 0.285526
O O5 0.505962 0.664616 0.593788
O O6 0.696092 0.594762 0.698984
O O7 0.799806 0.778382 0.656316
O O8 0.732484 0.849468 0.066313
O O9 0.204363 0.583689 0.385593
O O10 0.988370 0.678526 0.457527
O O11 0.000000 0.500000 0.500000
O O12 0.399732 0.044019 0.214841
O O13 0.089635 0.904572 0.935160
O O14 0.787331 0.998421 0.584979
O O15 0.694197 0.073701 0.349812
O O16 0.969615 0.092001 0.427467
O O17 0.500000 0.000000 0.500000
#
# Coordination Sequence:
#
# PCOD9042173 Si02
#       8
#     2   2   2   2   2   2   2   2
#     4   9  14  32  58  82 113 143 198 246 283 338
#     4  11  21  35  54  88 125 157 197 238 295 364
#     4  10  17  33  58  88 113 148 209 244 282 348
#     4  10  18  32  60  88 114 160 202 241 292 350
#     4  10  19  37  61  86 120 154 197 248 294 349
#     4  10  23  37  55  93 122 154 195 240 306 356
#     4   8  17  33  56  83 118 149 188 246 294 339
#     4  12  22  37  62  89 121 158 195 247 297 348
#
# _framework density 24.704694
#
# number of rings (size 3 to 8) (size 9 to 14) (size 15 to 20)
#    0.000    2.250    5.000    2.625    0.000    1.000 
#    0.000    2.500    0.000    0.000    0.000    7.875 
#    0.000    0.000    0.000    0.000    0.000    0.000 
#
# Total GULP energy -89553.790875 kJ/mol
# GULP energy per Si atom -5597.111930 kJ/mol
# Density = 2.464847 g / cm^3
# Si number density = 24.704694 Si / 1000 Ang^3
#
#
#
# Elastic Constant Matrix: (Units=GPa)
#
#
# Indices 1 2 3 4 5 6 
#
# 1 162.3062 7.8133 32.7311 9.8015 31.9210 1.4197
# 2 7.8133 53.9278 20.0813 18.1498 -2.1014 4.6180
# 3 32.7311 20.0813 132.0696 31.9648 6.8233 -7.0699
# 4 9.8015 18.1498 31.9648 42.2038 0.6434 2.1441
# 5 31.9210 -2.1014 6.8233 0.6434 43.6095 7.4882
# 6 1.4197 4.6180 -7.0699 2.1441 7.4882 37.9701
#
#
#
# Elastic Compliance Matrix: (Units=1/GPa)
#
#
# Indices 1 2 3 4 5 6 
#
# 1 0.007561 -0.000737 -0.001357 -0.000361 -0.005464 0.000652
# 2 -0.000737 0.022317 -0.001526 -0.008156 0.002490 -0.003001
# 3 -0.001357 -0.001526 0.009953 -0.006687 -0.000996 0.002663
# 4 -0.000361 -0.008156 -0.006687 0.032451 0.000822 -0.002234
# 5 -0.005464 0.002490 -0.000996 0.000822 0.028206 -0.005893
# 6 0.000652 -0.003001 0.002663 -0.002234 -0.005893 0.028461
#
#
# Mechanical properties :
#
#
# Convention : Reuss Voigt Hill
#
# Bulk Modulus (GPa) = 30.68426 52.17276 41.42851
# Shear Modulus (GPa) = 34.00102 43.93519 38.96811
#
# Velocity S-wave (km/s) = 3.71387 4.22170 3.97590
# Velocity P-wave (km/s) = 5.55318 6.70284 6.15491
#
# Compressibility (1/GPa) = 0.03259000
#
# Stress axis : x y z
#
# Youngs Moduli (GPa) = 132.25462 44.80817 100.47670
#
# Poissons Ratio (x) = 0.03304 0.13637
# Poissons Ratio (y) = 0.09753 0.15331
# Poissons Ratio (z) = 0.17950 0.06837
#
# Static dielectric constant tensor:
#      x y z
#    x 2.036210 -0.010460 0.011980 
#    y -0.010460 2.048120 -0.027510 
#    z 0.011980 -0.027510 1.950550 
# 
# From -- ./inp_files/260766.got.cif
#   From: 2010.05.17/outbox.cif.g08.bks.cpg/sg2_131_cif.got.tgz:260766.got - 2010.06.03 11:33:40.
