data_PCOD9042171
_publ_section_title
;
Structure prediction by ZEFSAII (Michael W. Deem and Ramdas Pophale) SiO2 
 PCOD9042171
Probable space group: P -1
;
_chemical_formula_sum "Si O2"
_cell_formula_units_Z 16
_cell_length_a 24.238599
_cell_length_b 18.449808
_cell_length_c 14.840866
_cell_angle_alpha 151.754058
_cell_angle_beta 19.037110
_cell_angle_gamma 160.707045
_cell_volume 711.304326
_symmetry_space_group_name_H-M "P -1"
_symmetry_group_IT_number 2
_symmetry_cell_setting 'triclinic'
loop_
_space_group_symop_operation_xyz
x,y,z
-x,-y,-z
loop_
_atom_site_type_symbol
_atom_site_label
_atom_site_fract_x
_atom_site_fract_y
_atom_site_fract_z
Si Si1 0.667752 0.661657 0.001771
Si Si2 0.236938 0.777007 0.024725
Si Si3 0.770174 0.185033 0.244988
Si Si4 0.052306 0.841318 0.884166
Si Si5 0.045678 0.659272 0.377601
Si Si6 0.937290 0.685527 0.232638
Si Si7 0.456032 0.534993 0.827738
Si Si8 0.308563 0.781731 0.285010
O O1 0.917937 0.730721 0.681976
O O2 0.500000 0.500000 0.000000
O O3 0.547845 0.529107 0.134618
O O4 0.755659 0.893806 0.126737
O O5 0.230924 0.808956 0.174392
O O6 0.037496 0.749577 0.249730
O O7 0.175508 0.557964 0.870907
O O8 0.481826 0.972751 0.808537
O O9 0.941709 0.209642 0.078042
O O10 0.844909 0.411689 0.376995
O O11 0.500000 0.000000 0.500000
O O12 0.837209 0.160896 0.017541
O O13 0.157732 0.775412 0.585377
O O14 0.777242 0.693053 0.112499
O O15 0.152333 0.652158 0.294212
O O16 0.722059 0.663793 0.521131
O O17 0.407427 0.684745 0.061751
#
# Coordination Sequence:
#
# PCOD9042171 Si02
#       8
#     2   2   2   2   2   2   2   2
#     4  12  26  43  70 105 140 184 239 297 345 418
#     4  10  23  44  69  98 138 185 230 291 351 415
#     4  11  23  44  71 102 140 186 232 288 352 419
#     4  12  25  44  70 103 141 191 233 287 358 407
#     4  11  23  43  66 102 139 182 238 283 352 417
#     4  10  24  44  69 103 139 183 237 285 353 412
#     4  12  25  45  71 102 146 184 235 293 341 425
#     4  12  24  44  71 100 141 188 234 285 349 418
#
# _framework density 22.493888999999999
#
# number of rings (size 3 to 8) (size 9 to 14) (size 15 to 20)
#    0.000    0.750    2.500    4.875    1.750    5.000 
#    0.000    0.000    0.000    0.000    0.000    0.000 
#    0.000    0.000    0.000    0.000    0.000    0.000 
#
# Total GULP energy -89496.110189 kJ/mol
# GULP energy per Si atom -5593.506887 kJ/mol
# Density = 2.244269 g / cm^3
# Si number density = 22.493889 Si / 1000 Ang^3
#
#
#
# Elastic Constant Matrix: (Units=GPa)
#
#
# Indices 1 2 3 4 5 6 
#
# 1 107.2383 41.5424 27.5045 5.0544 7.2984 -5.6503
# 2 41.5424 73.6450 28.6727 -11.3171 2.9278 -2.0826
# 3 27.5045 28.6727 101.2975 -2.2763 -4.9314 -2.1079
# 4 5.0544 -11.3171 -2.2763 29.9317 -4.3445 -1.2231
# 5 7.2984 2.9278 -4.9314 -4.3445 33.3824 -7.5191
# 6 -5.6503 -2.0826 -2.1079 -1.2231 -7.5191 32.0871
#
#
#
# Elastic Compliance Matrix: (Units=1/GPa)
#
#
# Indices 1 2 3 4 5 6 
#
# 1 0.013174 -0.007479 -0.001716 -0.005589 -0.003025 0.000800
# 2 -0.007479 0.020524 -0.003550 0.008838 0.000515 0.000239
# 3 -0.001716 -0.003550 0.011492 0.000234 0.002604 0.000842
# 4 -0.005589 0.008838 0.000234 0.038698 0.006082 0.002505
# 5 -0.003025 0.000515 0.002604 0.006082 0.033495 0.007753
# 6 0.000800 0.000239 0.000842 0.002505 0.007753 0.033289
#
#
# Mechanical properties :
#
#
# Convention : Reuss Voigt Hill
#
# Bulk Modulus (GPa) = 50.76267 53.06887 51.91577
# Shear Modulus (GPa) = 27.36292 31.37765 29.37029
#
# Velocity S-wave (km/s) = 3.49156 3.73894 3.61737
# Velocity P-wave (km/s) = 6.23466 6.50257 6.37002
#
# Compressibility (1/GPa) = 0.01969952
#
# Stress axis : x y z
#
# Youngs Moduli (GPa) = 75.90731 48.72316 87.01469
#
# Poissons Ratio (x) = 0.36441 0.14934
# Poissons Ratio (y) = 0.56772 0.30891
# Poissons Ratio (z) = 0.13028 0.17297
#
# Static dielectric constant tensor:
#      x y z
#    x 1.836430 0.015780 -0.007710 
#    y 0.015780 1.896680 -0.037670 
#    z -0.007710 -0.037670 1.822690 
# 
# From -- ./inp_files/543178.got.cif
#   From: 2010.05.17/outbox.cif.g08.bks.cpg/sg2_272_cif.got.tgz:543178.got - 2010.06.03 11:33:40.
