data_PCOD9042693
_publ_section_title
;
Structure prediction by ZEFSAII (Michael W. Deem and Ramdas Pophale) SiO2 
 PCOD9042693
Probable space group: P -1
;
_chemical_formula_sum "Si O2"
_cell_formula_units_Z 16
_cell_length_a 9.140041
_cell_length_b 11.356419
_cell_length_c 11.363342
_cell_angle_alpha 63.732229
_cell_angle_beta 138.982621
_cell_angle_gamma 127.090809
_cell_volume 617.299605
_symmetry_space_group_name_H-M "P -1"
_symmetry_group_IT_number 2
_symmetry_cell_setting 'triclinic'
loop_
_space_group_symop_operation_xyz
x,y,z
-x,-y,-z
loop_
_atom_site_type_symbol
_atom_site_label
_atom_site_fract_x
_atom_site_fract_y
_atom_site_fract_z
Si Si1 0.698955 0.114641 0.658975
Si Si2 0.361832 0.403446 0.110875
Si Si3 0.075064 0.779743 0.655732
Si Si4 0.814885 0.295482 0.856284
Si Si5 0.906623 0.628188 0.375598
Si Si6 0.656587 0.873766 0.911547
Si Si7 0.710959 0.547385 0.703680
Si Si8 0.211826 0.952464 0.873659
O O1 0.629965 0.202215 0.680231
O O2 0.902616 0.244448 0.648487
O O3 0.500000 0.000000 0.500000
O O4 0.773247 0.011732 0.831622
O O5 0.624669 0.547574 0.188510
O O6 0.353131 0.266533 0.096224
O O7 0.359615 0.381801 0.260637
O O8 0.092764 0.397432 0.927923
O O9 0.962652 0.648313 0.740939
O O10 0.364357 0.835056 0.772175
O O11 0.070231 0.907554 0.682524
O O12 0.723409 0.400509 0.818451
O O13 0.850102 0.183640 0.014883
O O14 0.922005 0.708338 0.475329
O O15 0.000000 0.500000 0.500000
O O16 0.789608 0.921483 0.098694
O O17 0.500000 0.500000 0.500000
O O18 0.500000 0.000000 0.000000
#
# Coordination Sequence:
#
# PCOD9042693 Si02
#       8
#     2   2   2   2   2   2   2   2
#     4  11  23  43  73 105 149 189 246 307 359 432
#     4  12  25  45  73 110 149 191 247 299 364 440
#     4  11  20  42  71 101 142 195 235 300 360 431
#     4  11  26  46  70 107 150 194 244 304 371 439
#     4  12  23  42  72 113 149 196 246 302 365 432
#     4  10  23  44  74 104 140 196 246 299 366 430
#     4  12  26  44  73 106 146 189 241 305 375 432
#     4   9  21  42  71 104 147 194 242 301 366 431
#
# _framework density 25.919343000000001
#
# number of rings (size 3 to 8) (size 9 to 14) (size 15 to 20)
#    0.000    1.000    5.000    1.125    1.750    2.500 
#    0.000    1.250    0.000    8.250    0.000    0.000 
#    0.000    0.000    0.000    0.000    0.000    0.000 
#
# Total GULP energy -89463.797034 kJ/mol
# GULP energy per Si atom -5591.487315 kJ/mol
# Density = 2.586035 g / cm^3
# Si number density = 25.919343 Si / 1000 Ang^3
#
#
#
# Elastic Constant Matrix: (Units=GPa)
#
#
# Indices 1 2 3 4 5 6 
#
# 1 125.7955 71.0101 45.7576 17.4230 -35.3846 -2.6746
# 2 71.0101 141.4427 63.4414 26.5552 -18.5482 13.8260
# 3 45.7576 63.4414 135.3975 37.0903 -42.9079 -30.6105
# 4 17.4230 26.5552 37.0903 44.2161 -10.4324 -14.1187
# 5 -35.3846 -18.5482 -42.9079 -10.4324 59.5890 22.7086
# 6 -2.6746 13.8260 -30.6105 -14.1187 22.7086 52.5624
#
#
#
# Elastic Compliance Matrix: (Units=1/GPa)
#
#
# Indices 1 2 3 4 5 6 
#
# 1 0.012805 -0.005572 0.000299 -0.000671 0.006181 -0.000559
# 2 -0.005572 0.013774 -0.005406 -0.004219 -0.000637 -0.007913
# 3 0.000299 -0.005406 0.014563 -0.005863 0.005717 0.005874
# 4 -0.000671 -0.004219 -0.005863 0.032013 -0.003249 0.007664
# 5 0.006181 -0.000637 0.005717 -0.003249 0.027151 -0.008792
# 6 -0.000559 -0.007913 0.005874 0.007664 -0.008792 0.030356
#
#
# Mechanical properties :
#
#
# Convention : Reuss Voigt Hill
#
# Bulk Modulus (GPa) = 50.54268 84.78378 67.66323
# Shear Modulus (GPa) = 31.52273 46.10193 38.81233
#
# Velocity S-wave (km/s) = 3.49117 4.22200 3.87386
# Velocity P-wave (km/s) = 5.98275 7.51989 6.79493
#
# Compressibility (1/GPa) = 0.01978526
#
# Stress axis : x y z
#
# Youngs Moduli (GPa) = 78.09171 72.59925 68.66638
#
# Poissons Ratio (x) = 0.40453 -0.02055
# Poissons Ratio (y) = 0.43513 0.37121
# Poissons Ratio (z) = -0.02337 0.39247
#
# Static dielectric constant tensor:
#      x y z
#    x 1.839150 -0.176500 0.044900 
#    y -0.176500 1.897240 0.114450 
#    z 0.044900 0.114450 2.046360 
# 
# From -- ./inp_files/392526.got.cif
#   From: 2010.05.17/outbox.cif.g08.bks.cpg/sg2_197_cif.got.tgz:392526.got - 2010.06.03 11:33:40.
