data_PCOD9042854
_publ_section_title
;
Structure prediction by ZEFSAII (Michael W. Deem and Ramdas Pophale) SiO2 
 PCOD9042854
Probable space group: P -1
;
_chemical_formula_sum "Si O2"
_cell_formula_units_Z 15
_cell_length_a 5.273983
_cell_length_b 17.131563
_cell_length_c 15.966131
_cell_angle_alpha 149.764855
_cell_angle_beta 56.962929
_cell_angle_gamma 121.401510
_cell_volume 604.668141
_symmetry_space_group_name_H-M "P -1"
_symmetry_group_IT_number 2
_symmetry_cell_setting 'triclinic'
loop_
_space_group_symop_operation_xyz
x,y,z
-x,-y,-z
loop_
_atom_site_type_symbol
_atom_site_label
_atom_site_fract_x
_atom_site_fract_y
_atom_site_fract_z
Si Si1 0.672007 0.712481 0.405169
Si Si2 0.260350 0.942053 0.679984
Si Si3 0.353300 0.185467 0.305197
Si Si4 0.303466 0.083865 0.980466
Si Si5 0.500000 0.500000 0.500000
Si Si6 0.368870 0.596158 0.790045
Si Si7 0.838184 0.327388 0.844601
Si Si8 0.124269 0.226225 0.864656
O O1 0.487023 0.829965 0.496187
O O2 0.640982 0.784018 0.568723
O O3 0.554789 0.529427 0.270330
O O4 0.004383 0.715774 0.309849
O O5 0.999708 0.822089 0.660572
O O6 0.345039 0.059144 0.850535
O O7 0.141026 0.051981 0.733301
O O8 0.557460 0.318817 0.343192
O O9 0.442024 0.012653 0.115002
O O10 0.357367 0.268580 0.153410
O O11 0.000000 0.000000 0.000000
O O12 0.319594 0.505513 0.627576
O O13 0.085369 0.679558 0.950267
O O14 0.474370 0.308312 0.881364
O O15 0.957472 0.225741 0.804413
O O16 0.000000 0.500000 0.000000
#
# Coordination Sequence:
#
# PCOD9042854 Si02
#       8
#     2   2   2   2   1   2   2   2
#     4  10  26  45  72 103 153 191 248 316 375 446
#     4  11  25  45  71 103 150 195 247 312 381 445
#     4  10  23  45  65 107 143 194 247 308 379 447
#     4  11  24  42  72 104 145 199 254 309 373 454
#     4  10  24  40  72 102 144 190 246 302 384 440
#     4  11  23  48  73 109 148 197 251 312 377 457
#     4  12  27  48  77 116 148 200 258 312 381 449
#     4  12  27  47  80 109 150 200 257 311 376 453
#
# _framework density 24.806994
#
# number of rings (size 3 to 8) (size 9 to 14) (size 15 to 20)
#    0.000    1.067    2.667    2.000    5.600    4.267 
#    0.000    4.000    0.000    0.000    0.000    0.000 
#    0.000    0.000    0.000    0.000    0.000    0.000 
#
# Total GULP energy -83557.742242 kJ/mol
# GULP energy per Si atom -5570.516149 kJ/mol
# Density = 2.475053 g / cm^3
# Si number density = 24.806994 Si / 1000 Ang^3
#
#
#
# Elastic Constant Matrix: (Units=GPa)
#
#
# Indices 1 2 3 4 5 6 
#
# 1 57.0514 17.9939 9.7688 -0.3007 -3.9688 3.3244
# 2 17.9939 115.2620 31.9851 13.1387 -8.0245 -1.3348
# 3 9.7688 31.9851 84.9836 14.9395 -17.3730 -0.7214
# 4 -0.3007 13.1387 14.9395 47.4000 -3.1801 -6.4870
# 5 -3.9688 -8.0245 -17.3730 -3.1801 24.1677 -7.1959
# 6 3.3244 -1.3348 -0.7214 -6.4870 -7.1959 45.9945
#
#
#
# Elastic Compliance Matrix: (Units=1/GPa)
#
#
# Indices 1 2 3 4 5 6 
#
# 1 0.018715 -0.002673 -0.001107 0.001140 0.001214 -0.001097
# 2 -0.002673 0.010200 -0.003098 -0.001792 0.000567 0.000277
# 3 -0.001107 -0.003098 0.015695 -0.003236 0.010048 0.001352
# 4 0.001140 -0.001792 -0.003236 0.023157 0.001291 0.003283
# 5 0.001214 0.000567 0.010048 0.001291 0.051644 0.008348
# 6 -0.001097 0.000277 0.001352 0.003283 0.008348 0.023619
#
#
# Mechanical properties :
#
#
# Convention : Reuss Voigt Hill
#
# Bulk Modulus (GPa) = 32.41116 41.86587 37.13851
# Shear Modulus (GPa) = 29.92756 36.68237 33.30496
#
# Velocity S-wave (km/s) = 3.47712 3.84957 3.66808
# Velocity P-wave (km/s) = 5.40501 6.05576 5.73962
#
# Compressibility (1/GPa) = 0.03085357
#
# Stress axis : x y z
#
# Youngs Moduli (GPa) = 53.43341 98.04059 63.71523
#
# Poissons Ratio (x) = 0.26202 0.07053
# Poissons Ratio (y) = 0.14281 0.19742
# Poissons Ratio (z) = 0.05915 0.30377
#
# Static dielectric constant tensor:
#      x y z
#    x 2.077560 -0.019960 0.036190 
#    y -0.019960 2.009110 0.054360 
#    z 0.036190 0.054360 1.954900 
# 
# From -- ./inp_files/105077.got.cif
#   From: 2010.05.17/outbox.cif.g08.bks.cpg/sg2_53_cif.got.tgz:105077.got - 2010.06.03 11:33:40.
