data_PCOD9042338
_publ_section_title
;
Structure prediction by ZEFSAII (Michael W. Deem and Ramdas Pophale) SiO2 
 PCOD9042338
Probable space group: P -1
;
_chemical_formula_sum "Si O2"
_cell_formula_units_Z 16
_cell_length_a 13.736253
_cell_length_b 19.541980
_cell_length_c 8.561883
_cell_angle_alpha 128.328495
_cell_angle_beta 60.373985
_cell_angle_gamma 156.392912
_cell_volume 701.730499
_symmetry_space_group_name_H-M "P -1"
_symmetry_group_IT_number 2
_symmetry_cell_setting 'triclinic'
loop_
_space_group_symop_operation_xyz
x,y,z
-x,-y,-z
loop_
_atom_site_type_symbol
_atom_site_label
_atom_site_fract_x
_atom_site_fract_y
_atom_site_fract_z
Si Si1 0.061601 0.605626 0.957404
Si Si2 0.380551 0.574152 0.952645
Si Si3 0.473197 0.978995 0.675664
Si Si4 0.585689 0.218866 0.340646
Si Si5 0.667540 0.643338 0.419220
Si Si6 0.863619 0.123406 0.020981
Si Si7 0.842320 0.915072 0.855090
Si Si8 0.588902 0.420156 0.733699
O O1 0.265738 0.815418 0.158055
O O2 0.809350 0.480529 0.941004
O O3 0.191905 0.647863 0.769029
O O4 0.000000 0.500000 0.000000
O O5 0.241449 0.386644 0.755928
O O6 0.557498 0.721256 0.874559
O O7 0.538243 0.667545 0.118442
O O8 0.500000 0.000000 0.500000
O O9 0.385814 0.825716 0.597984
O O10 0.285656 0.924910 0.799820
O O11 0.580482 0.316869 0.525729
O O12 0.327077 0.013158 0.166554
O O13 0.500000 0.500000 0.500000
O O14 0.856281 0.847397 0.622079
O O15 0.518383 0.587120 0.318347
O O16 0.129170 0.355083 0.129613
O O17 0.907878 0.054601 0.935468
O O18 0.000000 0.000000 0.000000
#
# Coordination Sequence:
#
# PCOD9042338 Si02
#       8
#     2   2   2   2   2   2   2   2
#     4  11  25  44  71 105 143 186 235 289 350 424
#     4  11  24  44  70 102 139 181 237 288 348 425
#     4  11  26  42  67 104 141 185 237 287 348 420
#     4  11  25  47  68 104 150 187 232 289 351 417
#     4  10  23  44  70  98 135 180 231 286 348 412
#     4  11  23  45  68  99 141 185 231 287 353 414
#     4  11  24  46  69 101 140 183 234 294 355 415
#     4  12  25  44  77 102 141 187 229 290 357 416
#
# _framework density 22.800775000000002
#
# number of rings (size 3 to 8) (size 9 to 14) (size 15 to 20)
#    0.000    1.000    1.250    6.375    7.000    2.000 
#    2.250    1.250    0.000    0.000    0.000    0.000 
#    0.000    0.000    0.000    0.000    0.000    0.000 
#
# Total GULP energy -89556.943132 kJ/mol
# GULP energy per Si atom -5597.308946 kJ/mol
# Density = 2.274888 g / cm^3
# Si number density = 22.800775 Si / 1000 Ang^3
#
#
#
# Elastic Constant Matrix: (Units=GPa)
#
#
# Indices 1 2 3 4 5 6 
#
# 1 130.2308 17.3642 30.9770 -4.7755 -8.7531 -30.0450
# 2 17.3642 64.0696 22.5672 5.9535 -3.7875 -16.2898
# 3 30.9770 22.5672 109.1100 3.1347 -10.3002 -14.2524
# 4 -4.7755 5.9535 3.1347 30.8444 -8.7285 6.0055
# 5 -8.7531 -3.7875 -10.3002 -8.7285 39.1426 3.6756
# 6 -30.0450 -16.2898 -14.2524 6.0055 3.6756 42.5361
#
#
#
# Elastic Compliance Matrix: (Units=1/GPa)
#
#
# Indices 1 2 3 4 5 6 
#
# 1 0.009623 -0.000542 -0.001776 0.001033 0.001324 0.005734
# 2 -0.000542 0.018852 -0.002805 -0.004951 -0.000765 0.006662
# 3 -0.001776 -0.002805 0.010590 -0.000490 0.001903 0.001125
# 4 0.001033 -0.004951 -0.000490 0.037475 0.008672 -0.007371
# 5 0.001324 -0.000765 0.001903 0.008672 0.028430 -0.002401
# 6 0.005734 0.006662 0.001125 -0.007371 -0.002401 0.031736
#
#
# Mechanical properties :
#
#
# Convention : Reuss Voigt Hill
#
# Bulk Modulus (GPa) = 34.69938 49.46969 42.08454
# Shear Modulus (GPa) = 31.93711 38.00478 34.97094
#
# Velocity S-wave (km/s) = 3.74666 4.08710 3.92057
# Velocity P-wave (km/s) = 5.82822 6.63446 6.24437
#
# Compressibility (1/GPa) = 0.02881896
#
# Stress axis : x y z
#
# Youngs Moduli (GPa) = 103.91616 53.04596 94.42917
#
# Poissons Ratio (x) = 0.02878 0.16766
# Poissons Ratio (y) = 0.05637 0.26486
# Poissons Ratio (z) = 0.18450 0.14879
#
# Static dielectric constant tensor:
#      x y z
#    x 1.816990 0.010910 0.009080 
#    y 0.010910 1.868910 0.012100 
#    z 0.009080 0.012100 1.824120 
# 
# From -- ./inp_files/279816.got.cif
#   From: 2010.05.17/outbox.cif.g08.bks.cpg/sg2_140_cif.got.tgz:279816.got - 2010.06.03 11:33:40.
