data_PCOD9042757
_publ_section_title
;
Structure prediction by ZEFSAII (Michael W. Deem and Ramdas Pophale) SiO2 
 PCOD9042757
Probable space group: P -1
;
_chemical_formula_sum "Si O2"
_cell_formula_units_Z 16
_cell_length_a 9.153356
_cell_length_b 11.070740
_cell_length_c 17.357261
_cell_angle_alpha 32.493883
_cell_angle_beta 127.365315
_cell_angle_gamma 113.462423
_cell_volume 723.847308
_symmetry_space_group_name_H-M "P -1"
_symmetry_group_IT_number 2
_symmetry_cell_setting 'triclinic'
loop_
_space_group_symop_operation_xyz
x,y,z
-x,-y,-z
loop_
_atom_site_type_symbol
_atom_site_label
_atom_site_fract_x
_atom_site_fract_y
_atom_site_fract_z
Si Si1 0.871708 0.128473 0.991856
Si Si2 0.519015 0.539507 0.262335
Si Si3 0.264452 0.117427 0.065283
Si Si4 0.925950 0.699887 0.581159
Si Si5 0.497179 0.311625 0.534110
Si Si6 0.506856 0.497816 0.109277
Si Si7 0.797258 0.225629 0.237905
Si Si8 0.097573 0.354289 0.682576
O O1 0.052099 0.220499 0.976339
O O2 0.948992 0.892269 0.192455
O O3 0.696627 0.306432 0.880433
O O4 0.778313 0.036674 0.936710
O O5 0.571498 0.376585 0.441367
O O6 0.529573 0.422333 0.245303
O O7 0.674979 0.687711 0.229963
O O8 0.388871 0.936292 0.262914
O O9 0.379944 0.301097 0.976975
O O10 0.724644 0.667211 0.558886
O O11 0.047102 0.716205 0.687127
O O12 0.026314 0.505953 0.655338
O O13 0.875242 0.955584 0.387190
O O14 0.500000 0.500000 0.500000
O O15 0.612778 0.284200 0.204132
O O16 0.291069 0.610737 0.950411
O O17 0.000000 0.500000 0.500000
#
# Coordination Sequence:
#
# PCOD9042757 Si02
#       8
#     2   2   2   2   2   2   2   2
#     4  11  24  38  65  97 138 182 212 270 337 405
#     4  12  25  39  64 100 142 169 224 280 332 394
#     4  11  22  42  65  94 136 179 226 260 334 412
#     4  11  23  44  70  98 128 186 222 270 329 413
#     4  12  24  42  66 103 139 180 211 270 348 411
#     4  11  23  44  70  97 122 178 233 288 315 387
#     4  10  23  44  75  91 127 178 243 267 329 384
#     4  12  25  40  65 104 143 170 218 278 341 404
#
# _framework density 22.104109000000001
#
# number of rings (size 3 to 8) (size 9 to 14) (size 15 to 20)
#    0.000    0.750    5.000    2.625    5.250    0.000 
#    0.000    1.250    0.000    0.000    0.000    0.000 
#    0.000    0.000    0.000    0.000    0.000    0.000 
#
# Total GULP energy -89473.504531 kJ/mol
# GULP energy per Si atom -5592.094033 kJ/mol
# Density = 2.205380 g / cm^3
# Si number density = 22.104109 Si / 1000 Ang^3
#
#
#
# Elastic Constant Matrix: (Units=GPa)
#
#
# Indices 1 2 3 4 5 6 
#
# 1 85.9479 13.9894 23.0192 5.9972 -3.3087 6.6684
# 2 13.9894 54.4822 20.3517 15.6499 -4.1005 9.6984
# 3 23.0192 20.3517 111.7583 10.4383 -9.7454 -3.0989
# 4 5.9972 15.6499 10.4383 40.3118 -4.8373 5.3050
# 5 -3.3087 -4.1005 -9.7454 -4.8373 43.2337 12.5066
# 6 6.6684 9.6984 -3.0989 5.3050 12.5066 33.7745
#
#
#
# Elastic Compliance Matrix: (Units=1/GPa)
#
#
# Indices 1 2 3 4 5 6 
#
# 1 0.012792 -0.001870 -0.002264 -0.000133 0.001014 -0.002551
# 2 -0.001870 0.023315 -0.003190 -0.006802 0.002457 -0.006460
# 3 -0.002264 -0.003190 0.010263 -0.001226 0.001095 0.002092
# 4 -0.000133 -0.006802 -0.001226 0.028708 0.003410 -0.003905
# 5 0.001014 0.002457 0.001095 0.003410 0.027391 -0.011484
# 6 -0.002551 -0.006460 0.002092 -0.003905 -0.011484 0.037024
#
#
# Mechanical properties :
#
#
# Convention : Reuss Voigt Hill
#
# Bulk Modulus (GPa) = 31.52414 40.76767 36.14591
# Shear Modulus (GPa) = 30.35522 36.45254 33.40388
#
# Velocity S-wave (km/s) = 3.70980 4.06535 3.89164
# Velocity P-wave (km/s) = 5.71339 6.36550 6.04824
#
# Compressibility (1/GPa) = 0.03172172
#
# Stress axis : x y z
#
# Youngs Moduli (GPa) = 78.17376 42.89038 97.43552
#
# Poissons Ratio (x) = 0.08021 0.22060
# Poissons Ratio (y) = 0.14619 0.31084
# Poissons Ratio (z) = 0.17699 0.13683
#
# Static dielectric constant tensor:
#      x y z
#    x 1.810830 0.018960 -0.016410 
#    y 0.018960 1.816200 0.007470 
#    z -0.016410 0.007470 1.877550 
# 
# From -- ./inp_files/178764.got.cif
#   From: 2010.05.17/outbox.cif.g08.bks.cpg/sg2_90_cif.got.tgz:178764.got - 2010.06.03 11:33:40.
