data_PCOD9042826
_publ_section_title
;
Structure prediction by ZEFSAII (Michael W. Deem and Ramdas Pophale) SiO2 
 PCOD9042826
Probable space group: P -1
;
_chemical_formula_sum "Si O2"
_cell_formula_units_Z 16
_cell_length_a 18.478453
_cell_length_b 12.036754
_cell_length_c 10.707605
_cell_angle_alpha 103.369959
_cell_angle_beta 55.459941
_cell_angle_gamma 53.208112
_cell_volume 787.450698
_symmetry_space_group_name_H-M "P -1"
_symmetry_group_IT_number 2
_symmetry_cell_setting 'triclinic'
loop_
_space_group_symop_operation_xyz
x,y,z
-x,-y,-z
loop_
_atom_site_type_symbol
_atom_site_label
_atom_site_fract_x
_atom_site_fract_y
_atom_site_fract_z
Si Si1 0.122077 0.184978 0.734943
Si Si2 0.597803 0.941390 0.678970
Si Si3 0.158570 0.779814 0.173929
Si Si4 0.831481 0.501269 0.895253
Si Si5 0.889943 0.647892 0.514501
Si Si6 0.414599 0.623165 0.254686
Si Si7 0.942712 0.373579 0.225068
Si Si8 0.073296 0.867885 0.757280
O O1 0.257897 0.136740 0.557453
O O2 0.888616 0.470950 0.973021
O O3 0.244504 0.928430 0.497244
O O4 0.092249 0.199687 0.913700
O O5 0.646893 0.919763 0.771161
O O6 0.704180 0.691582 0.498831
O O7 0.366391 0.217819 0.917667
O O8 0.190606 0.607081 0.110362
O O9 0.382091 0.576722 0.919905
O O10 0.000000 0.000000 0.500000
O O11 0.069014 0.917335 0.161773
O O12 0.041255 0.305598 0.575242
O O13 0.000000 0.500000 0.500000
O O14 0.002270 0.582236 0.731704
O O15 0.302082 0.649041 0.437723
O O16 0.500000 0.500000 0.000000
O O17 0.939012 0.254597 0.259723
O O18 0.000000 0.000000 0.000000
#
# Coordination Sequence:
#
# PCOD9042826 Si02
#       8
#     2   2   2   2   2   2   2   2
#     4  11  20  44  67  97 138 170 230 288 341 415
#     4   9  22  39  66  97 130 177 227 278 337 415
#     4  12  25  43  72 102 135 187 241 290 347 424
#     4  11  21  40  68  97 130 172 229 286 340 407
#     4   9  23  41  61  93 136 179 221 278 343 404
#     4  12  24  44  70 102 134 188 237 282 351 414
#     4  10  23  45  64 100 142 178 223 286 348 414
#     4  12  25  47  69 101 149 183 229 297 353 413
#
# _framework density 20.318732000000001
#
# number of rings (size 3 to 8) (size 9 to 14) (size 15 to 20)
#    0.750    0.500    5.000    0.375    1.750    1.500 
#    2.250    0.000    0.000    0.000    0.000    0.000 
#    0.000    0.000    0.000    0.000    0.000    0.000 
#
# Total GULP energy -89104.669020 kJ/mol
# GULP energy per Si atom -5569.041814 kJ/mol
# Density = 2.027249 g / cm^3
# Si number density = 20.318732 Si / 1000 Ang^3
#
#
#
# Elastic Constant Matrix: (Units=GPa)
#
#
# Indices 1 2 3 4 5 6 
#
# 1 75.2275 30.4740 34.7818 -6.5886 -13.5010 -13.2072
# 2 30.4740 117.1312 35.6499 -5.1815 2.9708 -9.2837
# 3 34.7818 35.6499 62.0938 -5.2019 -5.7101 -17.6230
# 4 -6.5886 -5.1815 -5.2019 37.5039 -1.0893 -5.5888
# 5 -13.5010 2.9708 -5.7101 -1.0893 41.8866 1.9398
# 6 -13.2072 -9.2837 -17.6230 -5.5888 1.9398 47.9509
#
#
#
# Elastic Compliance Matrix: (Units=1/GPa)
#
#
# Indices 1 2 3 4 5 6 
#
# 1 0.019660 -0.002444 -0.008370 0.002398 0.005342 0.001929
# 2 -0.002444 0.010763 -0.005092 0.000235 -0.002223 -0.000344
# 3 -0.008370 -0.005092 0.025834 0.002397 0.000949 0.006444
# 4 0.002398 0.000235 0.002397 0.028213 0.001594 0.004811
# 5 0.005342 -0.002223 0.000949 0.001594 0.025900 0.000528
# 6 0.001929 -0.000344 0.006444 0.004811 0.000528 0.024227
#
#
# Mechanical properties :
#
#
# Convention : Reuss Voigt Hill
#
# Bulk Modulus (GPa) = 40.90941 50.69599 45.80270
# Shear Modulus (GPa) = 28.64367 35.70472 32.17420
#
# Velocity S-wave (km/s) = 3.75869 4.19648 3.98361
# Velocity P-wave (km/s) = 6.24617 6.96313 6.61437
#
# Compressibility (1/GPa) = 0.02444425
#
# Stress axis : x y z
#
# Youngs Moduli (GPa) = 50.86348 92.91246 38.70903
#
# Poissons Ratio (x) = 0.22709 0.32399
# Poissons Ratio (y) = 0.12432 0.19712
# Poissons Ratio (z) = 0.42572 0.47315
#
# Static dielectric constant tensor:
#      x y z
#    x 1.716480 -0.033800 0.015760 
#    y -0.033800 1.781540 0.010030 
#    z 0.015760 0.010030 1.801380 
# 
# From -- ./inp_files/307955.got.cif
#   From: 2010.05.17/outbox.cif.g08.bks.cpg/sg2_154_cif.got.tgz:307955.got - 2010.06.03 11:33:40.
