data_PCOD9042776
_publ_section_title
;
Structure prediction by ZEFSAII (Michael W. Deem and Ramdas Pophale) SiO2 
 PCOD9042776
Probable space group: P -1
;
_chemical_formula_sum "Si O2"
_cell_formula_units_Z 10
_cell_length_a 8.045563
_cell_length_b 9.648308
_cell_length_c 11.487862
_cell_angle_alpha 123.809798
_cell_angle_beta 52.539951
_cell_angle_gamma 147.990141
_cell_volume 373.450629
_symmetry_space_group_name_H-M "P -1"
_symmetry_group_IT_number 2
_symmetry_cell_setting 'triclinic'
loop_
_space_group_symop_operation_xyz
x,y,z
-x,-y,-z
loop_
_atom_site_type_symbol
_atom_site_label
_atom_site_fract_x
_atom_site_fract_y
_atom_site_fract_z
Si Si1 0.116521 0.317511 0.069021
Si Si2 0.897035 0.538490 0.216471
Si Si3 0.862120 0.233638 0.397879
Si Si4 0.862403 0.757312 0.511833
Si Si5 0.739313 0.991490 0.870711
O O1 0.093105 0.940164 0.043308
O O2 0.093325 0.485865 0.092677
O O3 0.929651 0.239954 0.235232
O O4 0.500000 0.500000 0.000000
O O5 0.021276 0.685819 0.355677
O O6 0.513155 0.262540 0.225300
O O7 0.970361 0.743828 0.201937
O O8 0.000000 0.500000 0.500000
O O9 0.056246 0.206950 0.371081
O O10 0.500000 0.000000 0.500000
O O11 0.500000 0.500000 0.500000
O O12 0.000000 0.000000 0.500000
O O13 0.500000 0.000000 0.000000
#
# Coordination Sequence:
#
# PCOD9042776 Si02
#       5
#     2   2   2   2   2
#     4  11  26  50  82 120 160 205 268 332 400 473
#     4  11  24  49  77 111 154 209 260 328 390 477
#     4  12  28  53  82 113 163 212 263 337 406 466
#     4  12  27  49  81 113 154 213 272 323 393 485
#     4  10  23  44  76 107 151 205 254 320 394 467
#
# _framework density 26.777301999999999
#
# number of rings (size 3 to 8) (size 9 to 14) (size 15 to 20)
#    0.000    0.800    2.000    4.800    8.400    1.600 
#    7.200   12.000    0.000    0.000    0.000    0.000 
#    0.000    0.000    0.000    0.000    0.000    0.000 
#
# Total GULP energy -55840.485072 kJ/mol
# GULP energy per Si atom -5584.048507 kJ/mol
# Density = 2.671636 g / cm^3
# Si number density = 26.777302 Si / 1000 Ang^3
#
#
#
# Elastic Constant Matrix: (Units=GPa)
#
#
# Indices 1 2 3 4 5 6 
#
# 1 171.0973 66.7448 38.4168 -0.8012 12.8188 16.7888
# 2 66.7448 225.8940 47.9047 3.3793 22.7303 9.2082
# 3 38.4168 47.9047 127.5674 12.9594 46.0912 8.1679
# 4 -0.8012 3.3793 12.9594 49.1495 5.2733 -3.0592
# 5 12.8188 22.7303 46.0912 5.2733 72.1437 -6.5065
# 6 16.7888 9.2082 8.1679 -3.0592 -6.5065 50.6190
#
#
#
# Elastic Compliance Matrix: (Units=1/GPa)
#
#
# Indices 1 2 3 4 5 6 
#
# 1 0.007000 -0.001706 -0.001404 0.000493 -0.000004 -0.001756
# 2 -0.001706 0.005263 -0.001229 -0.000019 -0.000593 -0.000270
# 3 -0.001404 -0.001229 0.011551 -0.002394 -0.006766 -0.002189
# 4 0.000493 -0.000019 -0.002394 0.021076 0.000043 0.001506
# 5 -0.000004 -0.000593 -0.006766 0.000043 0.018693 0.003606
# 6 -0.001756 -0.000270 -0.002189 0.001506 0.003606 0.021295
#
#
# Mechanical properties :
#
#
# Convention : Reuss Voigt Hill
#
# Bulk Modulus (GPa) = 66.06657 92.29905 79.18281
# Shear Modulus (GPa) = 50.70972 59.14862 54.92917
#
# Velocity S-wave (km/s) = 4.35645 4.70500 4.53408
# Velocity P-wave (km/s) = 7.07327 8.00375 7.55285
#
# Compressibility (1/GPa) = 0.01513625
#
# Stress axis : x y z
#
# Youngs Moduli (GPa) = 142.85299 190.02226 86.57187
#
# Poissons Ratio (x) = 0.32420 0.12152
# Poissons Ratio (y) = 0.24372 0.10640
# Poissons Ratio (z) = 0.20052 0.23354
#
# Static dielectric constant tensor:
#      x y z
#    x 2.158070 -0.138110 -0.010860 
#    y -0.138110 2.299200 -0.147420 
#    z -0.010860 -0.147420 2.624250 
# 
# From -- ./inp_files/490044.got.cif
#   From: 2010.05.17/outbox.cif.g08.bks.cpg/sg2_246_cif.got.tgz:490044.got - 2010.06.03 11:33:40.
