data_PCOD9042904
_publ_section_title
;
Structure prediction by ZEFSAII (Michael W. Deem and Ramdas Pophale) SiO2 
 PCOD9042904
Probable space group: P -1
;
_chemical_formula_sum "Si O2"
_cell_formula_units_Z 14
_cell_length_a 8.144071
_cell_length_b 19.155342
_cell_length_c 5.919275
_cell_angle_alpha 59.611364
_cell_angle_beta 124.317089
_cell_angle_gamma 131.597559
_cell_volume 557.261615
_symmetry_space_group_name_H-M "P -1"
_symmetry_group_IT_number 2
_symmetry_cell_setting 'triclinic'
loop_
_space_group_symop_operation_xyz
x,y,z
-x,-y,-z
loop_
_atom_site_type_symbol
_atom_site_label
_atom_site_fract_x
_atom_site_fract_y
_atom_site_fract_z
Si Si1 0.331347 0.703943 0.135305
Si Si2 0.768123 0.046062 0.690070
Si Si3 0.441779 0.734456 0.659080
Si Si4 0.150533 0.259525 0.518645
Si Si5 0.077630 0.075094 0.241656
Si Si6 0.847246 0.576466 0.982166
Si Si7 0.595227 0.593620 0.150955
O O1 0.314344 0.736990 0.326105
O O2 0.591747 0.723821 0.327348
O O3 0.342938 0.740655 0.821802
O O4 0.105039 0.595982 0.131723
O O5 0.949937 0.148084 0.548311
O O6 0.500000 0.000000 0.500000
O O7 0.812664 0.962936 0.792619
O O8 0.850239 0.069897 0.973899
O O9 0.710232 0.821504 0.705637
O O10 0.467597 0.642672 0.845911
O O11 0.103196 0.317900 0.203439
O O12 0.199754 0.321595 0.681975
O O13 0.000000 0.000000 0.500000
O O14 0.642706 0.499940 0.786461
O O15 0.725884 0.554563 0.166676
#
# Coordination Sequence:
#
# PCOD9042904 Si02
#       7
#     2   2   2   2   2   2   2
#     4  11  25  44  73 103 140 191 236 284 363 417
#     4  11  26  43  71 104 137 184 242 296 359 429
#     4  11  24  47  71 101 147 188 232 299 351 425
#     4  11  23  45  68  99 145 181 235 298 355 421
#     4  11  25  44  70  98 144 186 238 297 361 425
#     4  11  25  41  72 101 140 188 235 294 352 429
#     4  10  23  45  66 104 142 183 238 290 358 419
#
# _framework density 25.122851000000001
#
# number of rings (size 3 to 8) (size 9 to 14) (size 15 to 20)
#    0.000    1.143    4.286    1.286    6.000    3.429 
#    0.000    0.000    0.000    0.000    0.000    0.000 
#    0.000    0.000    0.000    0.000    0.000    0.000 
#
# Total GULP energy -78002.902080 kJ/mol
# GULP energy per Si atom -5571.635863 kJ/mol
# Density = 2.506567 g / cm^3
# Si number density = 25.122851 Si / 1000 Ang^3
#
#
#
# Elastic Constant Matrix: (Units=GPa)
#
#
# Indices 1 2 3 4 5 6 
#
# 1 68.9966 27.9868 23.7264 24.4446 -2.2030 20.5888
# 2 27.9868 169.9236 45.2482 29.1222 14.7032 23.1091
# 3 23.7264 45.2482 135.0609 30.0347 -15.7079 17.6994
# 4 24.4446 29.1222 30.0347 50.4090 3.8844 8.7518
# 5 -2.2030 14.7032 -15.7079 3.8844 35.5966 6.5223
# 6 20.5888 23.1091 17.6994 8.7518 6.5223 48.4964
#
#
#
# Elastic Compliance Matrix: (Units=1/GPa)
#
#
# Indices 1 2 3 4 5 6 
#
# 1 0.020099 -0.001341 0.000113 -0.008132 0.004019 -0.007008
# 2 -0.001341 0.007495 -0.002089 -0.001911 -0.003635 -0.001406
# 3 0.000113 -0.002089 0.010317 -0.005011 0.006479 -0.002785
# 4 -0.008132 -0.001911 -0.005011 0.027957 -0.005317 0.001861
# 5 0.004019 -0.003635 0.006479 -0.005317 0.034382 -0.006004
# 6 -0.007008 -0.001406 -0.002785 0.001861 -0.006004 0.025753
#
#
# Mechanical properties :
#
#
# Convention : Reuss Voigt Hill
#
# Bulk Modulus (GPa) = 31.97316 63.10045 47.53681
# Shear Modulus (GPa) = 34.94920 45.36840 40.15880
#
# Velocity S-wave (km/s) = 3.73383 4.25415 4.00246
# Velocity P-wave (km/s) = 5.59849 7.02152 6.34999
#
# Compressibility (1/GPa) = 0.03127623
#
# Stress axis : x y z
#
# Youngs Moduli (GPa) = 49.75276 133.41475 96.92836
#
# Poissons Ratio (x) = 0.17897 -0.01092
# Poissons Ratio (y) = 0.06674 0.20248
# Poissons Ratio (z) = -0.00561 0.27870
#
# Static dielectric constant tensor:
#      x y z
#    x 2.160140 -0.027160 -0.088970 
#    y -0.027160 1.977420 0.048950 
#    z -0.088970 0.048950 2.184620 
# 
# From -- ./inp_files/55407.got.cif
#   From: 2010.05.17/outbox.cif.g08.bks.cpg/sg2_28_cif.got.tgz:55407.got - 2010.06.03 11:33:40.
