data_PCOD9042892
_publ_section_title
;
Structure prediction by ZEFSAII (Michael W. Deem and Ramdas Pophale) SiO2 
 PCOD9042892
Probable space group: P -1
;
_chemical_formula_sum "Si O2"
_cell_formula_units_Z 16
_cell_length_a 15.049177
_cell_length_b 10.182569
_cell_length_c 7.399152
_cell_angle_alpha 48.494484
_cell_angle_beta 48.510354
_cell_angle_gamma 51.076610
_cell_volume 598.767086
_symmetry_space_group_name_H-M "P -1"
_symmetry_group_IT_number 2
_symmetry_cell_setting 'triclinic'
loop_
_space_group_symop_operation_xyz
x,y,z
-x,-y,-z
loop_
_atom_site_type_symbol
_atom_site_label
_atom_site_fract_x
_atom_site_fract_y
_atom_site_fract_z
Si Si1 0.402852 0.388465 0.519362
Si Si2 0.833728 0.582223 0.716728
Si Si3 0.904692 0.201327 0.162761
Si Si4 0.550181 0.660132 0.069975
Si Si5 0.134921 0.609245 0.519305
Si Si6 0.128146 0.143556 0.306609
Si Si7 0.635683 0.960375 0.179594
Si Si8 0.819160 0.062775 0.064957
O O1 0.488605 0.506976 0.235808
O O2 0.428478 0.352516 0.730795
O O3 0.256111 0.499440 0.572555
O O4 0.430652 0.191457 0.565789
O O5 0.892086 0.505284 0.511976
O O6 0.851830 0.764948 0.613035
O O7 0.871641 0.420156 0.967305
O O8 0.686498 0.624765 0.837357
O O9 0.884299 0.060642 0.471223
O O10 0.812736 0.154893 0.182099
O O11 0.048598 0.102771 0.992943
O O12 0.454861 0.858518 0.960561
O O13 0.170282 0.776424 0.228629
O O14 0.005391 0.707034 0.714896
O O15 0.244489 0.127057 0.036887
O O16 0.702377 0.002677 0.227056
#
# Coordination Sequence:
#
# PCOD9042892 Si02
#       8
#     2   2   2   2   2   2   2   2
#     4  11  25  43  69  92 130 182 213 273 320 382
#     4  11  24  43  70  95 132 173 215 271 319 395
#     4   9  22  40  65  93 134 173 208 260 335 374
#     4  11  26  47  64  91 136 174 225 264 322 384
#     4  10  23  45  66 100 131 165 223 265 331 385
#     4  11  25  40  68 102 133 168 210 274 328 390
#     4  12  25  42  67  99 134 167 224 266 321 393
#     4   9  20  43  64  96 134 169 211 270 317 394
#
# _framework density 26.721575000000001
#
# number of rings (size 3 to 8) (size 9 to 14) (size 15 to 20)
#    0.000    1.500    2.500    1.500    7.000    4.000 
#    0.000    0.625    0.000    0.000    0.000    0.000 
#    0.000    0.000    0.000    0.000    0.000    0.000 
#
# Total GULP energy -89719.720956 kJ/mol
# GULP energy per Si atom -5607.482560 kJ/mol
# Density = 2.666076 g / cm^3
# Si number density = 26.721575 Si / 1000 Ang^3
#
#
#
# Elastic Constant Matrix: (Units=GPa)
#
#
# Indices 1 2 3 4 5 6 
#
# 1 147.0607 51.2538 47.0288 -26.6707 -5.1439 -6.8279
# 2 51.2538 74.8505 47.2797 -14.0940 -25.2552 -13.1260
# 3 47.0288 47.2797 91.7684 -33.4820 -20.4459 -4.0081
# 4 -26.6707 -14.0940 -33.4820 55.5789 7.1481 -2.8291
# 5 -5.1439 -25.2552 -20.4459 7.1481 45.8142 -3.9576
# 6 -6.8279 -13.1260 -4.0081 -2.8291 -3.9576 49.1971
#
#
#
# Elastic Compliance Matrix: (Units=1/GPa)
#
#
# Indices 1 2 3 4 5 6 
#
# 1 0.009947 -0.006730 -0.001556 0.002576 -0.003750 -0.000695
# 2 -0.006730 0.028490 -0.009330 -0.002803 0.011802 0.006695
# 3 -0.001556 -0.009330 0.020182 0.008731 0.002294 -0.000374
# 4 0.002576 -0.002803 0.008731 0.023984 -0.000961 0.001623
# 5 -0.003750 0.011802 0.002294 -0.000961 0.029529 0.005135
# 6 -0.000695 0.006695 -0.000374 0.001623 0.005135 0.022492
#
#
# Mechanical properties :
#
#
# Convention : Reuss Voigt Hill
#
# Bulk Modulus (GPa) = 42.76029 67.20048 54.98038
# Shear Modulus (GPa) = 28.14489 41.32587 34.73538
#
# Velocity S-wave (km/s) = 3.24892 3.93687 3.60932
# Velocity P-wave (km/s) = 5.48734 6.77261 6.16357
#
# Compressibility (1/GPa) = 0.02338618
#
# Stress axis : x y z
#
# Youngs Moduli (GPa) = 100.53362 35.09968 49.55018
#
# Poissons Ratio (x) = 0.23624 0.07709
# Poissons Ratio (y) = 0.67664 0.46230
# Poissons Ratio (z) = 0.15642 0.32748
#
# Static dielectric constant tensor:
#      x y z
#    x 2.145830 0.070930 0.065540 
#    y 0.070930 2.125240 0.025650 
#    z 0.065540 0.025650 2.047130 
# 
# From -- ./inp_files/306141.got.cif
#   From: 2010.05.17/outbox.cif.g08.bks.cpg/sg2_154_cif.got.tgz:306141.got - 2010.06.03 11:33:40.
