data_PCOD9042793
_publ_section_title
;
Structure prediction by ZEFSAII (Michael W. Deem and Ramdas Pophale) SiO2 
 PCOD9042793
Probable space group: P -1
;
_chemical_formula_sum "Si O2"
_cell_formula_units_Z 13
_cell_length_a 9.814611
_cell_length_b 12.323102
_cell_length_c 7.863153
_cell_angle_alpha 62.821096
_cell_angle_beta 62.698257
_cell_angle_gamma 38.728115
_cell_volume 520.262153
_symmetry_space_group_name_H-M "P -1"
_symmetry_group_IT_number 2
_symmetry_cell_setting 'triclinic'
loop_
_space_group_symop_operation_xyz
x,y,z
-x,-y,-z
loop_
_atom_site_type_symbol
_atom_site_label
_atom_site_fract_x
_atom_site_fract_y
_atom_site_fract_z
Si Si1 0.936179 0.644859 0.306081
Si Si2 0.411520 0.936851 0.426020
Si Si3 0.000000 0.500000 0.000000
Si Si4 0.331721 0.746054 0.774109
Si Si5 0.457742 0.127100 0.077882
Si Si6 0.826016 0.050462 0.766259
Si Si7 0.723854 0.353249 0.767812
O O1 0.672608 0.803032 0.348353
O O2 0.000000 0.500000 0.500000
O O3 0.064513 0.688497 0.271374
O O4 0.006505 0.573387 0.125183
O O5 0.376987 0.864964 0.652878
O O6 0.283970 0.935876 0.352115
O O7 0.344996 0.116484 0.306724
O O8 0.729537 0.673448 0.021136
O O9 0.522394 0.562114 0.695252
O O10 0.342555 0.686546 0.999642
O O11 0.082750 0.869398 0.762064
O O12 0.691838 0.060874 0.987301
O O13 0.500000 0.000000 0.000000
O O14 0.788575 0.216611 0.688075
#
# Coordination Sequence:
#
# PCOD9042793 Si02
#       7
#     2   2   1   2   2   2   2
#     4  12  26  51  76 114 152 193 264 313 362 462
#     4  11  24  49  72 107 151 192 260 313 357 466
#     4  12  26  48  84 106 148 208 244 306 400 418
#     4  11  25  44  69 106 150 193 241 307 386 437
#     4  10  23  44  77 108 144 196 260 305 361 461
#     4  11  24  46  71 106 143 196 241 308 383 441
#     4  11  27  46  72 105 155 189 247 319 371 451
#
# _framework density 24.987403
#
# number of rings (size 3 to 8) (size 9 to 14) (size 15 to 20)
#    0.000    0.923    4.615    1.846    6.462    1.846 
#    2.769    2.308    0.000    0.000    0.000    0.000 
#    0.000    0.000    0.000    0.000    0.000    0.000 
#
# Total GULP energy -72461.447085 kJ/mol
# GULP energy per Si atom -5573.957468 kJ/mol
# Density = 2.493053 g / cm^3
# Si number density = 24.987403 Si / 1000 Ang^3
#
#
#
# Elastic Constant Matrix: (Units=GPa)
#
#
# Indices 1 2 3 4 5 6 
#
# 1 170.4041 67.7614 32.5443 6.4449 -14.6268 -0.6337
# 2 67.7614 106.4098 -7.9565 16.6769 4.5683 -36.4257
# 3 32.5443 -7.9565 105.9181 -7.4903 -26.1574 2.9175
# 4 6.4449 16.6769 -7.4903 25.0106 2.6405 -3.1753
# 5 -14.6268 4.5683 -26.1574 2.6405 36.9612 5.2157
# 6 -0.6337 -36.4257 2.9175 -3.1753 5.2157 44.7641
#
#
#
# Elastic Compliance Matrix: (Units=1/GPa)
#
#
# Indices 1 2 3 4 5 6 
#
# 1 0.010916 -0.010661 -0.002561 0.001892 0.004931 -0.008794
# 2 -0.010661 0.025293 0.001872 -0.010083 -0.008200 0.020549
# 3 -0.002561 0.001872 0.012343 0.002335 0.007324 -0.000005
# 4 0.001892 -0.010083 0.002335 0.046146 0.001082 -0.005183
# 5 0.004931 -0.008200 0.007324 0.001082 0.036718 -0.011282
# 6 -0.008794 0.020549 -0.000005 -0.005183 -0.011282 0.039883
#
#
# Mechanical properties :
#
#
# Convention : Reuss Voigt Hill
#
# Bulk Modulus (GPa) = 38.68434 63.04783 50.86608
# Shear Modulus (GPa) = 24.67696 40.70603 32.69150
#
# Velocity S-wave (km/s) = 3.14598 4.04054 3.62099
# Velocity P-wave (km/s) = 5.35830 6.85964 6.15492
#
# Compressibility (1/GPa) = 0.02585026
#
# Stress axis : x y z
#
# Youngs Moduli (GPa) = 91.60797 39.53613 81.01897
#
# Poissons Ratio (x) = 0.42151 0.20751
# Poissons Ratio (y) = 0.97668 -0.15164
# Poissons Ratio (z) = 0.23463 -0.07400
#
# Static dielectric constant tensor:
#      x y z
#    x 1.969960 0.017240 0.063760 
#    y 0.017240 2.010610 -0.084500 
#    z 0.063760 -0.084500 2.202830 
# 
# From -- ./inp_files/184759.got.cif
#   From: 2010.05.17/outbox.cif.g08.bks.cpg/sg2_93_cif.got.tgz:184759.got - 2010.06.03 11:33:40.
