data_PCOD9042062
_publ_section_title
;
Structure prediction by ZEFSAII (Michael W. Deem and Ramdas Pophale) SiO2 
 PCOD9042062
Probable space group: P -1
;
_chemical_formula_sum "Si O2"
_cell_formula_units_Z 10
_cell_length_a 17.402336
_cell_length_b 9.914177
_cell_length_c 7.964242
_cell_angle_alpha 31.353094
_cell_angle_beta 38.563111
_cell_angle_gamma 33.179044
_cell_volume 380.214506
_symmetry_space_group_name_H-M "P -1"
_symmetry_group_IT_number 2
_symmetry_cell_setting 'triclinic'
loop_
_space_group_symop_operation_xyz
x,y,z
-x,-y,-z
loop_
_atom_site_type_symbol
_atom_site_label
_atom_site_fract_x
_atom_site_fract_y
_atom_site_fract_z
Si Si1 0.435194 0.182001 0.584824
Si Si2 0.744276 0.342043 0.358584
Si Si3 0.650456 0.957872 0.721306
Si Si4 0.857788 0.678175 0.173464
Si Si5 0.948456 0.061554 0.825032
O O1 0.352988 0.512950 0.464448
O O2 0.287880 0.159172 0.864656
O O3 0.500000 0.000000 0.500000
O O4 0.595651 0.047245 0.534886
O O5 0.678146 0.203688 0.493343
O O6 0.906305 0.074950 0.390008
O O7 0.757413 0.608849 0.957791
O O8 0.500000 0.000000 0.000000
O O9 0.853174 0.415495 0.568180
O O10 0.000000 0.500000 0.000000
O O11 0.876426 0.885032 0.058211
O O12 0.000000 0.000000 0.000000
#
# Coordination Sequence:
#
# PCOD9042062 Si02
#       5
#     2   2   2   2   2
#     4  11  26  44  74 107 147 185 245 301 364 427
#     4  11  24  47  73 101 144 191 241 292 363 432
#     4  10  23  44  69 101 140 189 232 292 360 433
#     4  12  27  51  75 109 149 194 242 308 370 425
#     4  12  28  47  80 104 147 196 250 298 362 445
#
# _framework density 26.300944000000001
#
# number of rings (size 3 to 8) (size 9 to 14) (size 15 to 20)
#    0.000    0.800    2.000    4.800    8.400    1.600 
#    0.000   10.000    0.000    0.000    0.000    0.000 
#    0.000    0.000    0.000    0.000    0.000    0.000 
#
# Total GULP energy -55671.457926 kJ/mol
# GULP energy per Si atom -5567.145793 kJ/mol
# Density = 2.624108 g / cm^3
# Si number density = 26.300944 Si / 1000 Ang^3
#
#
#
# Elastic Constant Matrix: (Units=GPa)
#
#
# Indices 1 2 3 4 5 6 
#
# 1 176.8513 58.6607 70.8358 -35.2229 -46.9485 48.8568
# 2 58.6607 162.8001 57.3388 -8.8995 -11.2639 13.4408
# 3 70.8358 57.3388 115.4428 -45.3174 -36.0382 24.8426
# 4 -35.2229 -8.8995 -45.3174 56.9949 0.3360 -24.2290
# 5 -46.9485 -11.2639 -36.0382 0.3360 50.8440 -14.7316
# 6 48.8568 13.4408 24.8426 -24.2290 -14.7316 58.0966
#
#
#
# Elastic Compliance Matrix: (Units=1/GPa)
#
#
# Indices 1 2 3 4 5 6 
#
# 1 0.010820 -0.002637 -0.000331 0.003957 0.007777 -0.004725
# 2 -0.002637 0.008742 -0.006410 -0.005646 -0.005220 -0.000742
# 3 -0.000331 -0.006410 0.023820 0.019196 0.016092 0.003662
# 4 0.003957 -0.005646 0.019196 0.038830 0.018867 0.010748
# 5 0.007777 -0.005220 0.016092 0.018867 0.038547 0.005429
# 6 -0.004725 -0.000742 0.003662 0.010748 0.005429 0.025651
#
#
# Mechanical properties :
#
#
# Convention : Reuss Voigt Hill
#
# Bulk Modulus (GPa) = 40.60978 92.08499 66.34738
# Shear Modulus (GPa) = 28.83920 51.07103 39.95511
#
# Velocity S-wave (km/s) = 3.31495 4.41136 3.90186
# Velocity P-wave (km/s) = 5.48870 7.81248 6.75132
#
# Compressibility (1/GPa) = 0.02462461
#
# Stress axis : x y z
#
# Youngs Moduli (GPa) = 92.42240 114.39235 41.98149
#
# Poissons Ratio (x) = 0.30171 0.01391
# Poissons Ratio (y) = 0.24376 0.26909
# Poissons Ratio (z) = 0.03063 0.73322
#
# Static dielectric constant tensor:
#      x y z
#    x 1.563320 0.064790 -0.475150 
#    y 0.064790 2.030160 0.104870 
#    z -0.475150 0.104870 1.598940 
# 
# From -- ./inp_files/82258.got.cif
#   From: 2010.05.17/outbox.cif.g08.bks.cpg/sg2_42_cif.got.tgz:82258.got - 2010.06.03 11:33:40.
