data_PCOD9042178
_publ_section_title
;
Structure prediction by ZEFSAII (Michael W. Deem and Ramdas Pophale) SiO2 
 PCOD9042178
Probable space group: P -1
;
_chemical_formula_sum "Si O2"
_cell_formula_units_Z 14
_cell_length_a 11.416495
_cell_length_b 7.978241
_cell_length_c 9.378486
_cell_angle_alpha 77.003560
_cell_angle_beta 125.969050
_cell_angle_gamma 124.801664
_cell_volume 559.815490
_symmetry_space_group_name_H-M "P -1"
_symmetry_group_IT_number 2
_symmetry_cell_setting 'triclinic'
loop_
_space_group_symop_operation_xyz
x,y,z
-x,-y,-z
loop_
_atom_site_type_symbol
_atom_site_label
_atom_site_fract_x
_atom_site_fract_y
_atom_site_fract_z
Si Si1 0.460715 0.219483 0.992335
Si Si2 0.759682 0.798997 0.929465
Si Si3 0.981068 0.578875 0.711582
Si Si4 0.887883 0.118256 0.731868
Si Si5 0.329111 0.491356 0.341567
Si Si6 0.838938 0.019823 0.406378
Si Si7 0.687234 0.232840 0.930240
O O1 0.640379 0.326339 0.015151
O O2 0.316856 0.136698 0.779605
O O3 0.407802 0.309479 0.066452
O O4 0.427847 0.011031 0.079998
O O5 0.754565 0.662229 0.822850
O O6 0.785922 0.995841 0.825244
O O7 0.930106 0.866710 0.129879
O O8 0.929701 0.346839 0.704171
O O9 0.808283 0.575411 0.618026
O O10 0.090855 0.744945 0.635066
O O11 0.110414 0.676654 0.921709
O O12 0.792348 0.994548 0.543854
O O13 0.500000 0.500000 0.500000
O O14 0.358817 0.700452 0.258981
O O15 0.000000 0.000000 0.500000
#
# Coordination Sequence:
#
# PCOD9042178 Si02
#       7
#     2   2   2   2   2   2   2
#     4  10  23  44  69  99 134 183 222 275 336 402
#     4  11  24  42  70  98 136 179 225 277 338 403
#     4  11  24  46  69  96 139 180 225 276 341 400
#     4  11  23  41  69 103 133 181 228 269 342 403
#     4  12  27  44  68 103 134 176 224 287 335 397
#     4  11  22  40  70 102 139 174 224 282 328 398
#     4  10  23  44  70  93 140 178 225 268 343 398
#
# _framework density 25.008240000000001
#
# number of rings (size 3 to 8) (size 9 to 14) (size 15 to 20)
#    0.000    1.143    2.857    2.571   10.000    0.571 
#   10.286    1.429    0.000    0.000    0.000    0.000 
#    0.000    0.000    0.000    0.000    0.000    0.000 
#
# Total GULP energy -78398.374757 kJ/mol
# GULP energy per Si atom -5599.883911 kJ/mol
# Density = 2.495132 g / cm^3
# Si number density = 25.008240 Si / 1000 Ang^3
#
#
#
# Elastic Constant Matrix: (Units=GPa)
#
#
# Indices 1 2 3 4 5 6 
#
# 1 98.3727 -3.8708 19.8096 -4.5072 -0.8738 10.4898
# 2 -3.8708 73.2043 17.1249 -14.5106 -1.2956 -6.8109
# 3 19.8096 17.1249 106.5493 -17.3047 8.1557 2.7709
# 4 -4.5072 -14.5106 -17.3047 30.1676 -4.3523 -1.7313
# 5 -0.8738 -1.2956 8.1557 -4.3523 46.2125 -0.8118
# 6 10.4898 -6.8109 2.7709 -1.7313 -0.8118 37.0303
#
#
#
# Elastic Compliance Matrix: (Units=1/GPa)
#
#
# Indices 1 2 3 4 5 6 
#
# 1 0.010948 0.000987 -0.002028 0.000882 0.000628 -0.002713
# 2 0.000987 0.015864 -0.001767 0.007162 0.001505 0.003138
# 3 -0.002028 -0.001767 0.010971 0.004892 -0.001570 -0.000377
# 4 0.000882 0.007162 0.004892 0.040142 0.003181 0.002648
# 5 0.000628 0.001505 -0.001570 0.003181 0.022285 0.000854
# 6 -0.002713 0.003138 -0.000377 0.002648 0.000854 0.028521
#
#
# Mechanical properties :
#
#
# Convention : Reuss Voigt Hill
#
# Bulk Modulus (GPa) = 31.08836 38.25041 34.66939
# Shear Modulus (GPa) = 34.46611 39.01959 36.74285
#
# Velocity S-wave (km/s) = 3.71643 3.95431 3.83721
# Velocity P-wave (km/s) = 5.55644 6.01474 5.79012
#
# Compressibility (1/GPa) = 0.03216637
#
# Stress axis : x y z
#
# Youngs Moduli (GPa) = 91.34093 63.03514 91.15009
#
# Poissons Ratio (x) = -0.06221 0.18489
# Poissons Ratio (y) = -0.09014 0.16105
# Poissons Ratio (z) = 0.18527 0.11137
#
# Static dielectric constant tensor:
#      x y z
#    x 1.998690 -0.038460 0.005330 
#    y -0.038460 2.056900 -0.039320 
#    z 0.005330 -0.039320 1.944240 
# 
# From -- ./inp_files/219017.got.cif
#   From: 2010.05.17/outbox.cif.g08.bks.cpg/sg2_110_cif.got.tgz:219017.got - 2010.06.03 11:33:40.
