data_PCOD9042454
_publ_section_title
;
Structure prediction by ZEFSAII (Michael W. Deem and Ramdas Pophale) SiO2 
 PCOD9042454
Probable space group: P -1
;
_chemical_formula_sum "Si O2"
_cell_formula_units_Z 15
_cell_length_a 16.413970
_cell_length_b 8.647454
_cell_length_c 19.277203
_cell_angle_alpha 45.839674
_cell_angle_beta 21.962403
_cell_angle_gamma 54.603820
_cell_volume 710.952964
_symmetry_space_group_name_H-M "P -1"
_symmetry_group_IT_number 2
_symmetry_cell_setting 'triclinic'
loop_
_space_group_symop_operation_xyz
x,y,z
-x,-y,-z
loop_
_atom_site_type_symbol
_atom_site_label
_atom_site_fract_x
_atom_site_fract_y
_atom_site_fract_z
Si Si1 0.157348 0.586993 0.244150
Si Si2 0.076944 0.736457 0.828965
Si Si3 0.703007 0.614921 0.662685
Si Si4 0.500000 0.000000 0.500000
Si Si5 0.193105 0.430747 0.111595
Si Si6 0.192770 0.892723 0.910157
Si Si7 0.662741 0.933437 0.104359
Si Si8 0.215011 0.863723 0.534634
O O1 0.250339 0.483572 0.269131
O O2 0.168667 0.455765 0.205486
O O3 0.903020 0.595938 0.459552
O O4 0.300227 0.837622 0.038425
O O5 0.249271 0.901007 0.691937
O O6 0.198696 0.732346 0.660754
O O7 0.000000 0.500000 0.000000
O O8 0.848172 0.811333 0.970965
O O9 0.714447 0.874402 0.584853
O O10 0.458371 0.482538 0.871022
O O11 0.386715 0.931967 0.687466
O O12 0.030468 0.204206 0.284663
O O13 0.113337 0.632081 0.073979
O O14 0.277422 0.007817 0.880586
O O15 0.000000 0.000000 0.000000
O O16 0.400738 0.809342 0.353339
#
# Coordination Sequence:
#
# PCOD9042454 Si02
#       8
#     2   2   2   1   2   2   2   2
#     4  10  23  44  71  96 131 176 215 274 336 391
#     4  12  26  42  64  94 132 174 222 273 327 384
#     4  11  22  46  71  96 132 171 221 275 332 390
#     4  12  22  40  64  86 122 174 216 266 322 372
#     4  11  25  42  66  98 132 173 220 269 331 394
#     4  11  22  38  64  90 125 172 218 262 322 384
#     4  11  23  43  64  94 134 170 218 271 324 392
#     4  12  25  42  67 100 133 170 222 273 328 393
#
# _framework density 21.098443
#
# number of rings (size 3 to 8) (size 9 to 14) (size 15 to 20)
#    0.000    0.800    6.667    1.200    0.000    3.200 
#    0.000    1.333    0.000    0.000    0.000    0.000 
#    0.000    0.000    0.000    0.000    0.000    0.000 
#
# Total GULP energy -83595.116376 kJ/mol
# GULP energy per Si atom -5573.007758 kJ/mol
# Density = 2.105042 g / cm^3
# Si number density = 21.098443 Si / 1000 Ang^3
#
#
#
# Elastic Constant Matrix: (Units=GPa)
#
#
# Indices 1 2 3 4 5 6 
#
# 1 43.5918 5.0715 43.4067 2.8252 8.7681 -11.5259
# 2 5.0715 17.9233 20.2484 8.9312 -3.8187 -11.6636
# 3 43.4067 20.2484 151.7436 16.8439 -3.5500 -2.9463
# 4 2.8252 8.9312 16.8439 20.2451 -1.7864 3.2777
# 5 8.7681 -3.8187 -3.5500 -1.7864 55.4174 3.2032
# 6 -11.5259 -11.6636 -2.9463 3.2777 3.2032 23.1578
#
#
#
# Elastic Compliance Matrix: (Units=1/GPa)
#
#
# Indices 1 2 3 4 5 6 
#
# 1 0.054166 0.053058 -0.018920 -0.025231 -0.010191 0.056256
# 2 0.053058 0.227229 -0.030761 -0.107465 -0.007022 0.153121
# 3 -0.018920 -0.030761 0.014799 0.008202 0.003512 -0.024673
# 4 -0.025231 -0.107465 0.008202 0.107167 0.005280 -0.081538
# 5 -0.010191 -0.007022 0.003512 0.005280 0.020245 -0.011710
# 6 0.056256 0.153121 -0.024673 -0.081538 -0.011710 0.158324
#
#
# Mechanical properties :
#
#
# Convention : Reuss Voigt Hill
#
# Bulk Modulus (GPa) = 3.30088 38.96799 21.13443
# Shear Modulus (GPa) = 7.39470 29.39952 18.39711
#
# Velocity S-wave (km/s) = 1.87416 3.73694 2.95611
# Velocity P-wave (km/s) = 2.50024 6.09338 4.65728
#
# Compressibility (1/GPa) = 0.30294951
#
# Stress axis : x y z
#
# Youngs Moduli (GPa) = 18.46172 4.40084 67.57027
#
# Poissons Ratio (x) = -0.23350 1.27841
# Poissons Ratio (y) = -0.97954 2.07851
# Poissons Ratio (z) = 0.34929 0.13537
#
# Static dielectric constant tensor:
#      x y z
#    x 1.746790 0.006440 -0.020070 
#    y 0.006440 1.789420 0.027700 
#    z -0.020070 0.027700 1.788440 
# 
# From -- ./inp_files/599368.got.cif
#   From: 2010.05.17/outbox.cif.g08.bks.cpg/sg2_300_cif.got.tgz:599368.got - 2010.06.03 11:33:40.
