data_PCOD9042145
_publ_section_title
;
Structure prediction by ZEFSAII (Michael W. Deem and Ramdas Pophale) SiO2 
 PCOD9042145
Probable space group: P -1
;
_chemical_formula_sum "Si O2"
_cell_formula_units_Z 16
_cell_length_a 9.306390
_cell_length_b 17.108032
_cell_length_c 5.080499
_cell_angle_alpha 65.575485
_cell_angle_beta 110.752957
_cell_angle_gamma 118.323419
_cell_volume 635.578528
_symmetry_space_group_name_H-M "P -1"
_symmetry_group_IT_number 2
_symmetry_cell_setting 'triclinic'
loop_
_space_group_symop_operation_xyz
x,y,z
-x,-y,-z
loop_
_atom_site_type_symbol
_atom_site_label
_atom_site_fract_x
_atom_site_fract_y
_atom_site_fract_z
Si Si1 0.071686 0.111601 0.897102
Si Si2 0.336941 0.105816 0.468767
Si Si3 0.118006 0.890945 0.727157
Si Si4 0.666092 0.192084 0.329070
Si Si5 0.867766 0.555475 0.073749
Si Si6 0.677167 0.580715 0.423022
Si Si7 0.801597 0.360431 0.525235
Si Si8 0.468814 0.274783 0.720175
O O1 0.959081 0.137973 0.997631
O O2 0.246233 0.133749 0.126562
O O3 0.029924 0.137412 0.545549
O O4 0.000000 0.000000 0.000000
O O5 0.517535 0.109341 0.493488
O O6 0.378043 0.184015 0.609692
O O7 0.217196 0.003223 0.626731
O O8 0.243141 0.846225 0.769953
O O9 0.786136 0.266131 0.504069
O O10 0.571260 0.249678 0.047808
O O11 0.744823 0.572212 0.189270
O O12 0.849099 0.449083 0.242533
O O13 0.056429 0.616062 0.194667
O O14 0.812146 0.575214 0.726272
O O15 0.500000 0.500000 0.500000
O O16 0.648079 0.675519 0.317314
O O17 0.619354 0.344369 0.542090
#
# Coordination Sequence:
#
# PCOD9042145 Si02
#       8
#     2   2   2   2   2   2   2   2
#     4  10  23  44  69  96 130 173 229 283 331 392
#     4  10  24  43  66  98 133 181 225 277 341 392
#     4  11  25  44  72  96 134 182 230 275 331 407
#     4  11  26  43  67  98 141 177 226 280 336 397
#     4  11  26  45  77  98 134 181 224 274 336 410
#     4  12  25  45  71 102 133 175 226 272 337 404
#     4  10  25  46  66 103 136 177 222 280 339 392
#     4  11  26  42  68  96 144 174 222 287 332 399
#
# _framework density 25.173915999999998
#
# number of rings (size 3 to 8) (size 9 to 14) (size 15 to 20)
#    0.000    1.250    1.250    3.000   14.000    3.500 
#    0.000    0.000    0.000    0.000    0.000    0.000 
#    0.000    0.000    0.000    0.000    0.000    0.000 
#
# Total GULP energy -89725.425081 kJ/mol
# GULP energy per Si atom -5607.839068 kJ/mol
# Density = 2.511662 g / cm^3
# Si number density = 25.173916 Si / 1000 Ang^3
#
#
#
# Elastic Constant Matrix: (Units=GPa)
#
#
# Indices 1 2 3 4 5 6 
#
# 1 134.8747 42.7998 -7.2304 9.2419 0.5533 -15.6901
# 2 42.7998 102.3522 26.1409 20.8427 13.1235 6.6128
# 3 -7.2304 26.1409 84.2009 8.4891 9.9362 1.8425
# 4 9.2419 20.8427 8.4891 30.2083 -5.9340 6.9944
# 5 0.5533 13.1235 9.9362 -5.9340 39.9972 2.4323
# 6 -15.6901 6.6128 1.8425 6.9944 2.4323 40.0267
#
#
#
# Elastic Compliance Matrix: (Units=1/GPa)
#
#
# Indices 1 2 3 4 5 6 
#
# 1 0.009661 -0.004689 0.002280 -0.001375 0.000350 0.004676
# 2 -0.004689 0.015195 -0.003605 -0.008493 -0.005140 -0.002386
# 3 0.002280 -0.003605 0.013792 -0.002998 -0.002814 0.001549
# 4 -0.001375 -0.008493 -0.002998 0.043989 0.010522 -0.007324
# 5 0.000350 -0.005140 -0.002814 0.010522 0.029095 -0.002491
# 6 0.004676 -0.002386 0.001549 -0.007324 -0.002491 0.028570
#
#
# Mechanical properties :
#
#
# Convention : Reuss Voigt Hill
#
# Bulk Modulus (GPa) = 37.56583 49.42759 43.49671
# Shear Modulus (GPa) = 31.01671 39.36094 35.18882
#
# Velocity S-wave (km/s) = 3.51393 3.95848 3.74281
# Velocity P-wave (km/s) = 5.60522 6.36944 5.99951
#
# Compressibility (1/GPa) = 0.02661994
#
# Stress axis : x y z
#
# Youngs Moduli (GPa) = 103.50483 65.81297 72.50719
#
# Poissons Ratio (x) = 0.30863 -0.16535
# Poissons Ratio (y) = 0.48538 0.26138
# Poissons Ratio (z) = -0.23604 0.23725
#
# Static dielectric constant tensor:
#      x y z
#    x 2.059250 0.091490 -0.048560 
#    y 0.091490 2.010120 -0.035920 
#    z -0.048560 -0.035920 1.959690 
# 
# From -- ./inp_files/38469.got.cif
#   From: 2010.05.17/outbox.cif.g08.bks.cpg/sg2_20_cif.got.tgz:38469.got - 2010.06.03 11:33:40.
