data_PCOD9042001
_publ_section_title
;
Structure prediction by ZEFSAII (Michael W. Deem and Ramdas Pophale) SiO2 
 PCOD9042001
Probable space group: P -1
;
_chemical_formula_sum "Si O2"
_cell_formula_units_Z 14
_cell_length_a 14.724034
_cell_length_b 14.911199
_cell_length_c 6.898842
_cell_angle_alpha 105.181126
_cell_angle_beta 67.672779
_cell_angle_gamma 150.795931
_cell_volume 675.420992
_symmetry_space_group_name_H-M "P -1"
_symmetry_group_IT_number 2
_symmetry_cell_setting 'triclinic'
loop_
_space_group_symop_operation_xyz
x,y,z
-x,-y,-z
loop_
_atom_site_type_symbol
_atom_site_label
_atom_site_fract_x
_atom_site_fract_y
_atom_site_fract_z
Si Si1 0.548267 0.948353 0.306947
Si Si2 0.221911 0.489834 0.894858
Si Si3 0.394253 0.123526 0.412468
Si Si4 0.576210 0.528353 0.161951
Si Si5 0.785527 0.822582 0.469795
Si Si6 0.152299 0.795948 0.138840
Si Si7 0.869876 0.411414 0.744092
O O1 0.588479 0.898672 0.395993
O O2 0.355209 0.771329 0.240687
O O3 0.500000 0.000000 0.500000
O O4 0.720346 0.103139 0.101908
O O5 0.391913 0.680299 0.742192
O O6 0.321469 0.489029 0.933166
O O7 0.049993 0.313876 0.792244
O O8 0.108237 0.471201 0.108042
O O9 0.274034 0.119951 0.490670
O O10 0.285259 0.955079 0.281804
O O11 0.733979 0.723904 0.256787
O O12 0.378179 0.354035 0.351560
O O13 0.500000 0.500000 0.000000
O O14 0.000000 0.000000 0.500000
O O15 0.100129 0.650233 0.171875
O O16 0.000000 0.500000 0.500000
#
# Coordination Sequence:
#
# PCOD9042001 Si02
#       7
#     2   2   2   2   2   2   2
#     4  12  23  40  64  94 130 170 214 265 318 382
#     4  11  24  43  65  94 133 172 214 265 325 384
#     4  11  24  42  67  95 131 173 211 266 326 384
#     4  10  24  44  67  98 134 170 219 276 326 388
#     4  10  23  44  68  98 131 170 221 271 328 393
#     4  12  24  43  64  95 133 167 218 267 316 388
#     4  12  24  42  65  94 131 174 215 262 323 385
#
# _framework density 20.727813000000001
#
# number of rings (size 3 to 8) (size 9 to 14) (size 15 to 20)
#    0.000    0.857    2.857    4.286    2.000    1.714 
#    2.571    0.000    0.000    0.000    0.000    0.000 
#    0.000    0.000    0.000    0.000    0.000    0.000 
#
# Total GULP energy -78249.520639 kJ/mol
# GULP energy per Si atom -5589.251474 kJ/mol
# Density = 2.068064 g / cm^3
# Si number density = 20.727813 Si / 1000 Ang^3
#
#
#
# Elastic Constant Matrix: (Units=GPa)
#
#
# Indices 1 2 3 4 5 6 
#
# 1 121.2207 43.1473 69.2123 -10.3659 24.4027 16.4458
# 2 43.1473 104.1953 20.2442 2.2541 -0.9805 25.6797
# 3 69.2123 20.2442 86.1054 -7.6160 15.2381 -7.9198
# 4 -10.3659 2.2541 -7.6160 29.1812 2.1839 -1.8529
# 5 24.4027 -0.9805 15.2381 2.1839 35.4251 5.1057
# 6 16.4458 25.6797 -7.9198 -1.8529 5.1057 41.6203
#
#
#
# Elastic Compliance Matrix: (Units=1/GPa)
#
#
# Indices 1 2 3 4 5 6 
#
# 1 0.021212 -0.004115 -0.015132 0.003969 -0.007360 -0.007642
# 2 -0.004115 0.013843 -0.002024 -0.003990 0.005510 -0.008153
# 3 -0.015132 -0.002024 0.026160 0.002628 -0.002874 0.012676
# 4 0.003969 -0.003990 0.002628 0.037433 -0.006845 0.003899
# 5 -0.007360 0.005510 -0.002874 -0.006845 0.035938 -0.005752
# 6 -0.007642 -0.008153 0.012676 0.003899 -0.005752 0.035368
#
#
# Mechanical properties :
#
#
# Convention : Reuss Voigt Hill
#
# Bulk Modulus (GPa) = 53.56047 64.08101 58.82074
# Shear Modulus (GPa) = 22.86016 33.17318 28.01667
#
# Velocity S-wave (km/s) = 3.32456 4.00486 3.68046
# Velocity P-wave (km/s) = 6.37439 7.23656 6.81912
#
# Compressibility (1/GPa) = 0.01867048
#
# Stress axis : x y z
#
# Youngs Moduli (GPa) = 47.14295 72.24125 38.22628
#
# Poissons Ratio (x) = 0.29731 0.57845
# Poissons Ratio (y) = 0.19402 0.07738
# Poissons Ratio (z) = 0.71338 0.14624
#
# Static dielectric constant tensor:
#      x y z
#    x 1.724580 -0.006840 -0.023050 
#    y -0.006840 1.901520 0.109590 
#    z -0.023050 0.109590 1.798680 
# 
# From -- ./inp_files/49221.got.cif
#   From: 2010.05.17/outbox.cif.g08.bks.cpg/sg2_25_cif.got.tgz:49221.got - 2010.06.03 11:33:40.
