data_PCOD9042377
_publ_section_title
;
Structure prediction by ZEFSAII (Michael W. Deem and Ramdas Pophale) SiO2 
 PCOD9042377
Probable space group: P -1
;
_chemical_formula_sum "Si O2"
_cell_formula_units_Z 14
_cell_length_a 12.481647
_cell_length_b 5.943388
_cell_length_c 12.582863
_cell_angle_alpha 115.153859
_cell_angle_beta 43.693026
_cell_angle_gamma 103.192222
_cell_volume 578.975085
_symmetry_space_group_name_H-M "P -1"
_symmetry_group_IT_number 2
_symmetry_cell_setting 'triclinic'
loop_
_space_group_symop_operation_xyz
x,y,z
-x,-y,-z
loop_
_atom_site_type_symbol
_atom_site_label
_atom_site_fract_x
_atom_site_fract_y
_atom_site_fract_z
Si Si1 0.130782 0.364733 0.954498
Si Si2 0.348351 0.881733 0.629356
Si Si3 0.854888 0.761124 0.852662
Si Si4 0.302488 0.530340 0.399496
Si Si5 0.878781 0.883974 0.637180
Si Si6 0.373149 0.752131 0.828465
Si Si7 0.663407 0.335346 0.826313
O O1 0.262575 0.550893 0.907546
O O2 0.213330 0.110261 0.792898
O O3 0.065563 0.302483 0.104321
O O4 0.000000 0.500000 0.000000
O O5 0.294940 0.691515 0.543444
O O6 0.383642 0.751351 0.692397
O O7 0.500000 0.000000 0.500000
O O8 0.939845 0.857880 0.708941
O O9 0.788511 0.515979 0.808375
O O10 0.709584 0.973366 0.026302
O O11 0.164144 0.370159 0.435958
O O12 0.458249 0.331516 0.260609
O O13 0.326251 0.703088 0.315378
O O14 0.717502 0.075675 0.793541
O O15 0.000000 0.000000 0.500000
O O16 0.500000 0.500000 0.000000
#
# Coordination Sequence:
#
# PCOD9042377 Si02
#       7
#     2   2   2   2   2   2   2
#     4  11  25  47  71 104 144 190 239 292 358 422
#     4  11  25  44  72 107 145 183 242 294 352 427
#     4  10  23  44  71 101 138 188 239 290 349 435
#     4  11  24  42  74 105 140 188 236 289 358 422
#     4  11  26  48  69 106 145 184 235 299 363 415
#     4  11  23  45  71 106 143 187 239 290 355 427
#     4  11  23  43  72 102 137 183 239 287 354 426
#
# _framework density 24.180658000000001
#
# number of rings (size 3 to 8) (size 9 to 14) (size 15 to 20)
#    0.000    1.143    1.429    3.857    4.000    6.857 
#   15.429    0.000    0.000    0.000    0.000    0.000 
#    0.000    0.000    0.000    0.000    0.000    0.000 
#
# Total GULP energy -78471.964045 kJ/mol
# GULP energy per Si atom -5605.140289 kJ/mol
# Density = 2.412562 g / cm^3
# Si number density = 24.180658 Si / 1000 Ang^3
#
#
#
# Elastic Constant Matrix: (Units=GPa)
#
#
# Indices 1 2 3 4 5 6 
#
# 1 120.6761 39.9191 67.9262 -11.0756 20.4773 -27.5302
# 2 39.9191 87.4665 43.7891 -2.6340 17.0288 -10.3738
# 3 67.9262 43.7891 115.4968 -18.3349 24.7631 -10.1506
# 4 -11.0756 -2.6340 -18.3349 53.3527 -9.5072 5.9006
# 5 20.4773 17.0288 24.7631 -9.5072 50.9740 -2.0680
# 6 -27.5302 -10.3738 -10.1506 5.9006 -2.0680 52.7860
#
#
#
# Elastic Compliance Matrix: (Units=1/GPa)
#
#
# Indices 1 2 3 4 5 6 
#
# 1 0.014416 -0.002159 -0.006881 -0.000394 -0.001568 0.005754
# 2 -0.002159 0.015012 -0.004063 -0.001663 -0.002438 0.001133
# 3 -0.006881 -0.004063 0.015184 0.003320 -0.002714 -0.001945
# 4 -0.000394 -0.001663 0.003320 0.020454 0.002832 -0.002069
# 5 -0.001568 -0.002438 -0.002714 0.002832 0.022858 -0.001240
# 6 0.005754 0.001133 -0.001945 -0.002069 -0.001240 0.021977
#
#
# Mechanical properties :
#
#
# Convention : Reuss Voigt Hill
#
# Bulk Modulus (GPa) = 54.33272 69.65646 61.99459
# Shear Modulus (GPa) = 35.15129 42.88953 39.02041
#
# Velocity S-wave (km/s) = 3.81687 4.21612 4.02145
# Velocity P-wave (km/s) = 6.47634 7.25052 6.87434
#
# Compressibility (1/GPa) = 0.01840511
#
# Stress axis : x y z
#
# Youngs Moduli (GPa) = 69.36545 66.61546 65.85993
#
# Poissons Ratio (x) = 0.14382 0.45317
# Poissons Ratio (y) = 0.14976 0.26762
# Poissons Ratio (z) = 0.47729 0.27069
#
# Static dielectric constant tensor:
#      x y z
#    x 1.908110 -0.009470 -0.031290 
#    y -0.009470 1.917970 -0.017070 
#    z -0.031290 -0.017070 1.950360 
# 
# From -- ./inp_files/78844.got.cif
#   From: 2010.05.17/outbox.cif.g08.bks.cpg/sg2_40_cif.got.tgz:78844.got - 2010.06.03 11:33:40.
