data_PCOD9042679
_publ_section_title
;
Structure prediction by ZEFSAII (Michael W. Deem and Ramdas Pophale) SiO2 
 PCOD9042679
Probable space group: P -1
;
_chemical_formula_sum "Si O2"
_cell_formula_units_Z 16
_cell_length_a 18.459458
_cell_length_b 5.305129
_cell_length_c 8.708423
_cell_angle_alpha 106.632991
_cell_angle_beta 62.811296
_cell_angle_gamma 76.403607
_cell_volume 656.463676
_symmetry_space_group_name_H-M "P -1"
_symmetry_group_IT_number 2
_symmetry_cell_setting 'triclinic'
loop_
_space_group_symop_operation_xyz
x,y,z
-x,-y,-z
loop_
_atom_site_type_symbol
_atom_site_label
_atom_site_fract_x
_atom_site_fract_y
_atom_site_fract_z
Si Si1 0.945763 0.816882 0.674535
Si Si2 0.714935 0.760390 0.780666
Si Si3 0.396329 0.740565 0.783745
Si Si4 0.990106 0.310268 0.111449
Si Si5 0.364470 0.184784 0.616348
Si Si6 0.129515 0.830777 0.469615
Si Si7 0.557691 0.763268 0.775572
Si Si8 0.203448 0.196964 0.595865
O O1 0.000000 0.500000 0.500000
O O2 0.930425 0.760154 0.853754
O O3 0.024080 0.931900 0.624828
O O4 0.871456 0.006627 0.661172
O O5 0.810116 0.502405 0.685932
O O6 0.649840 0.611659 0.757455
O O7 0.732254 0.889595 0.629310
O O8 0.670996 0.004545 0.994156
O O9 0.368989 0.477515 0.729358
O O10 0.493079 0.618318 0.756145
O O11 0.399682 0.918741 0.657631
O O12 0.887865 0.513556 0.302145
O O13 0.000000 0.500000 0.000000
O O14 0.000000 0.000000 0.000000
O O15 0.417776 0.128321 0.391494
O O16 0.262258 0.237540 0.681606
O O17 0.170309 0.943131 0.589121
O O18 0.500000 0.000000 0.000000
#
# Coordination Sequence:
#
# PCOD9042679 Si02
#       8
#     2   2   2   2   2   2   2   2
#     4  11  23  44  72 101 129 192 238 300 358 429
#     4  10  23  44  74 100 142 188 242 297 351 433
#     4  11  25  47  68 114 141 188 237 297 361 423
#     4  12  27  46  68 102 143 184 233 296 368 429
#     4  11  26  45  74 102 153 184 232 300 359 412
#     4  11  22  42  77  96 140 178 257 291 352 426
#     4   9  21  46  74 107 141 197 237 284 352 436
#     4  11  25  47  66 100 138 196 235 294 358 436
#
# _framework density 24.373017000000001
#
# number of rings (size 3 to 8) (size 9 to 14) (size 15 to 20)
#    0.000    1.250    2.500    1.500    7.000    1.000 
#    6.750    2.500    0.000    0.000    0.000    0.000 
#    0.000    0.000    0.000    0.000    0.000    0.000 
#
# Total GULP energy -89325.560746 kJ/mol
# GULP energy per Si atom -5582.847547 kJ/mol
# Density = 2.431754 g / cm^3
# Si number density = 24.373017 Si / 1000 Ang^3
#
#
#
# Elastic Constant Matrix: (Units=GPa)
#
#
# Indices 1 2 3 4 5 6 
#
# 1 163.7720 24.2638 20.7109 4.5538 23.4077 13.2975
# 2 24.2638 95.6921 33.1242 3.8491 21.0357 15.4657
# 3 20.7109 33.1242 124.6630 4.1362 15.4078 8.0591
# 4 4.5538 3.8491 4.1362 30.4097 -3.9649 6.7808
# 5 23.4077 21.0357 15.4078 -3.9649 39.4036 4.6902
# 6 13.2975 15.4657 8.0591 6.7808 4.6902 34.3130
#
#
#
# Elastic Compliance Matrix: (Units=1/GPa)
#
#
# Indices 1 2 3 4 5 6 
#
# 1 0.006909 -0.000510 -0.000431 -0.001006 -0.003567 -0.001660
# 2 -0.000510 0.013375 -0.002482 -0.001032 -0.005459 -0.004298
# 3 -0.000431 -0.002482 0.009061 -0.001037 -0.002023 -0.000361
# 4 -0.001006 -0.001032 -0.001037 0.035585 0.005938 -0.006745
# 5 -0.003567 -0.005459 -0.002023 0.005938 0.031946 -0.001222
# 6 -0.001660 -0.004298 -0.000361 -0.006745 -0.001222 0.033308
#
#
# Mechanical properties :
#
#
# Convention : Reuss Voigt Hill
#
# Bulk Modulus (GPa) = 44.44748 60.03609 52.24178
# Shear Modulus (GPa) = 34.59529 41.22716 37.91122
#
# Velocity S-wave (km/s) = 3.77159 4.11726 3.94821
# Velocity P-wave (km/s) = 6.10266 6.87663 6.50118
#
# Compressibility (1/GPa) = 0.02249846
#
# Stress axis : x y z
#
# Youngs Moduli (GPa) = 144.74585 74.76715 110.36839
#
# Poissons Ratio (x) = 0.03811 0.04754
# Poissons Ratio (y) = 0.07378 0.27397
# Poissons Ratio (z) = 0.06235 0.18560
#
# Static dielectric constant tensor:
#      x y z
#    x 2.071010 0.069510 -0.066800 
#    y 0.069510 1.947700 -0.071140 
#    z -0.066800 -0.071140 1.977850 
# 
# From -- ./inp_files/323986.got.cif
#   From: 2010.05.17/outbox.cif.g08.bks.cpg/sg2_162_cif.got.tgz:323986.got - 2010.06.03 11:33:40.
