data_PCOD9042897
_publ_section_title
;
Structure prediction by ZEFSAII (Michael W. Deem and Ramdas Pophale) SiO2 
 PCOD9042897
Probable space group: P -1
;
_chemical_formula_sum "Si O2"
_cell_formula_units_Z 14
_cell_length_a 12.075326
_cell_length_b 12.008721
_cell_length_c 8.526908
_cell_angle_alpha 141.925811
_cell_angle_beta 58.289342
_cell_angle_gamma 127.855665
_cell_volume 599.748250
_symmetry_space_group_name_H-M "P -1"
_symmetry_group_IT_number 2
_symmetry_cell_setting 'triclinic'
loop_
_space_group_symop_operation_xyz
x,y,z
-x,-y,-z
loop_
_atom_site_type_symbol
_atom_site_label
_atom_site_fract_x
_atom_site_fract_y
_atom_site_fract_z
Si Si1 0.663809 0.095169 0.936808
Si Si2 0.568958 0.523629 0.144036
Si Si3 0.635941 0.139328 0.650509
Si Si4 0.300556 0.516059 0.485289
Si Si5 0.868690 0.887362 0.673688
Si Si6 0.139874 0.577707 0.380936
Si Si7 0.120474 0.236873 0.816006
O O1 0.666670 0.072959 0.723101
O O2 0.758866 0.990989 0.831447
O O3 0.714600 0.319541 0.207479
O O4 0.500000 0.000000 0.000000
O O5 0.462677 0.540705 0.373280
O O6 0.713950 0.708437 0.231232
O O7 0.500000 0.500000 0.000000
O O8 0.603552 0.331917 0.930007
O O9 0.775921 0.207923 0.513814
O O10 0.500000 0.000000 0.500000
O O11 0.205085 0.297667 0.366882
O O12 0.252430 0.549765 0.385183
O O13 0.908417 0.805586 0.392270
O O14 0.015207 0.060384 0.801865
O O15 0.000000 0.500000 0.500000
O O16 0.102106 0.431603 0.100721
#
# Coordination Sequence:
#
# PCOD9042897 Si02
#       7
#     2   2   2   2   2   2   2
#     4  12  26  44  73 108 145 181 238 297 349 424
#     4  11  22  44  72  95 139 182 231 290 343 420
#     4  11  25  44  70 105 135 185 235 290 352 411
#     4  12  24  45  72 105 139 185 237 289 352 417
#     4  11  26  45  72 103 144 186 233 291 354 422
#     4  11  24  43  68 101 143 183 235 290 350 421
#     4  10  23  45  66 100 139 185 235 283 352 415
#
# _framework density 23.343129000000001
#
# number of rings (size 3 to 8) (size 9 to 14) (size 15 to 20)
#    0.000    0.857    2.857    5.143    2.000    5.714 
#    0.000    7.143    0.000    0.000    0.000    0.000 
#    0.000    0.000    0.000    0.000    0.000    0.000 
#
# Total GULP energy -78286.654732 kJ/mol
# GULP energy per Si atom -5591.903909 kJ/mol
# Density = 2.329000 g / cm^3
# Si number density = 23.343129 Si / 1000 Ang^3
#
#
#
# Elastic Constant Matrix: (Units=GPa)
#
#
# Indices 1 2 3 4 5 6 
#
# 1 40.9283 31.0757 3.6012 14.4274 3.4652 5.8272
# 2 31.0757 176.5017 14.2974 7.0716 5.5237 27.0810
# 3 3.6012 14.2974 82.3345 11.8429 -4.4106 7.1110
# 4 14.4274 7.0716 11.8429 41.6679 7.8957 0.7000
# 5 3.4652 5.5237 -4.4106 7.8957 34.3051 2.5721
# 6 5.8272 27.0810 7.1110 0.7000 2.5721 50.5365
#
#
#
# Elastic Compliance Matrix: (Units=1/GPa)
#
#
# Indices 1 2 3 4 5 6 
#
# 1 0.032117 -0.005183 0.001113 -0.010587 0.000241 -0.000948
# 2 -0.005183 0.007104 -0.000934 0.001048 -0.000753 -0.003054
# 3 0.001113 -0.000934 0.013196 -0.004498 0.002888 -0.001569
# 4 -0.010587 0.001048 -0.004498 0.030010 -0.006676 0.001216
# 5 0.000241 -0.000753 0.002888 -0.006676 0.031270 -0.001530
# 6 -0.000948 -0.003054 -0.001569 0.001216 -0.001530 0.021815
#
#
# Mechanical properties :
#
#
# Convention : Reuss Voigt Hill
#
# Bulk Modulus (GPa) = 23.58003 44.19036 33.88519
# Shear Modulus (GPa) = 31.31725 42.02124 36.66925
#
# Velocity S-wave (km/s) = 3.66677 4.24743 3.96773
# Velocity P-wave (km/s) = 5.29625 6.55942 5.96139
#
# Compressibility (1/GPa) = 0.04240877
#
# Stress axis : x y z
#
# Youngs Moduli (GPa) = 31.13657 140.76669 75.77827
#
# Poissons Ratio (x) = 0.72954 -0.08433
# Poissons Ratio (y) = 0.16137 0.07080
# Poissons Ratio (z) = -0.03465 0.13152
#
# Static dielectric constant tensor:
#      x y z
#    x 1.937570 -0.044580 0.020890 
#    y -0.044580 2.223450 -0.104530 
#    z 0.020890 -0.104530 1.879760 
# 
# From -- ./inp_files/263727.got.cif
#   From: 2010.05.17/outbox.cif.g08.bks.cpg/sg2_132_cif.got.tgz:263727.got - 2010.06.03 11:33:40.
