data_PCOD9042613
_publ_section_title
;
Structure prediction by ZEFSAII (Michael W. Deem and Ramdas Pophale) SiO2 
 PCOD9042613
Probable space group: P -1
;
_chemical_formula_sum "Si O2"
_cell_formula_units_Z 13
_cell_length_a 7.269166
_cell_length_b 7.924984
_cell_length_c 15.216641
_cell_angle_alpha 56.210913
_cell_angle_beta 46.994031
_cell_angle_gamma 56.772680
_cell_volume 511.845347
_symmetry_space_group_name_H-M "P -1"
_symmetry_group_IT_number 2
_symmetry_cell_setting 'triclinic'
loop_
_space_group_symop_operation_xyz
x,y,z
-x,-y,-z
loop_
_atom_site_type_symbol
_atom_site_label
_atom_site_fract_x
_atom_site_fract_y
_atom_site_fract_z
Si Si1 0.032351 0.698469 0.539530
Si Si2 0.188945 0.563907 0.992194
Si Si3 0.500000 0.500000 0.500000
Si Si4 0.884221 0.792560 0.359764
Si Si5 0.410095 0.789067 0.100930
Si Si6 0.312976 0.310070 0.779469
Si Si7 0.467080 0.897673 0.733879
O O1 0.978741 0.771038 0.435690
O O2 0.765456 0.761532 0.660870
O O3 0.278055 0.748730 0.488471
O O4 0.174842 0.436881 0.572116
O O5 0.995436 0.635287 0.115974
O O6 0.442428 0.364798 0.979306
O O7 0.294290 0.746047 0.863819
O O8 0.000000 0.500000 0.000000
O O9 0.380881 0.474149 0.644533
O O10 0.108278 0.812970 0.212326
O O11 0.646426 0.988022 0.354017
O O12 0.536140 0.684229 0.181263
O O13 0.500000 0.000000 0.000000
O O14 0.414782 0.076518 0.773832
#
# Coordination Sequence:
#
# PCOD9042613 Si02
#       7
#     2   2   1   2   2   2   2
#     4  11  25  44  72 102 147 194 242 296 358 437
#     4  10  23  44  73 103 146 192 241 295 364 433
#     4  12  24  50  68 102 154 188 242 298 364 430
#     4  11  22  44  70 106 145 190 246 292 355 443
#     4  11  23  46  71 106 143 195 246 294 362 438
#     4  11  25  45  70 109 148 191 241 302 361 432
#     4  12  24  46  73 113 145 188 245 301 373 423
#
# _framework density 25.398294
#
# number of rings (size 3 to 8) (size 9 to 14) (size 15 to 20)
#    0.000    0.923    4.615    2.769    0.000    1.846 
#    8.308    2.308    0.000    0.000    0.000    0.000 
#    0.000    0.000    0.000    0.000    0.000    0.000 
#
# Total GULP energy -72609.710321 kJ/mol
# GULP energy per Si atom -5585.362332 kJ/mol
# Density = 2.534049 g / cm^3
# Si number density = 25.398294 Si / 1000 Ang^3
#
#
#
# Elastic Constant Matrix: (Units=GPa)
#
#
# Indices 1 2 3 4 5 6 
#
# 1 88.1587 25.2649 44.4281 12.9445 -5.2528 -22.3652
# 2 25.2649 110.5078 71.2588 6.8155 -22.2549 -9.7505
# 3 44.4281 71.2588 195.7356 19.2202 -34.6489 -12.3439
# 4 12.9445 6.8155 19.2202 49.3919 -7.5746 -9.8024
# 5 -5.2528 -22.2549 -34.6489 -7.5746 56.3383 0.5566
# 6 -22.3652 -9.7505 -12.3439 -9.8024 0.5566 47.0710
#
#
#
# Elastic Compliance Matrix: (Units=1/GPa)
#
#
# Indices 1 2 3 4 5 6 
#
# 1 0.014604 -0.001332 -0.002477 -0.001704 -0.000973 0.005670
# 2 -0.001332 0.012324 -0.003739 0.000701 0.002528 0.001055
# 3 -0.002477 -0.003739 0.007653 -0.001437 0.002808 -0.000277
# 4 -0.001704 0.000701 -0.001437 0.022196 0.002183 0.003555
# 5 -0.000973 0.002528 0.002808 0.002183 0.020669 0.001008
# 6 0.005670 0.001055 -0.000277 0.003555 0.001008 0.024813
#
#
# Mechanical properties :
#
#
# Convention : Reuss Voigt Hill
#
# Bulk Modulus (GPa) = 51.32297 75.14508 63.23402
# Shear Modulus (GPa) = 40.37165 47.45693 43.91429
#
# Velocity S-wave (km/s) = 3.99123 4.32731 4.16267
# Velocity P-wave (km/s) = 6.44135 7.39043 6.93215
#
# Compressibility (1/GPa) = 0.01948445
#
# Stress axis : x y z
#
# Youngs Moduli (GPa) = 68.47453 81.14460 130.66459
#
# Poissons Ratio (x) = 0.10809 0.32369
# Poissons Ratio (y) = 0.09121 0.48854
# Poissons Ratio (z) = 0.16963 0.30339
#
# Static dielectric constant tensor:
#      x y z
#    x -1.441360 -0.219670 0.688270 
#    y -0.219670 2.093160 0.048970 
#    z 0.688270 0.048970 1.912680 
# 
# From -- ./inp_files/267671.got.cif
#   From: 2010.05.17/outbox.cif.g08.bks.cpg/sg2_134_cif.got.tgz:267671.got - 2010.06.03 11:33:40.
