data_PCOD9042303
_publ_section_title
;
Structure prediction by ZEFSAII (Michael W. Deem and Ramdas Pophale) SiO2 
 PCOD9042303
Probable space group: P -1
;
_chemical_formula_sum "Si O2"
_cell_formula_units_Z 14
_cell_length_a 7.978586
_cell_length_b 20.122583
_cell_length_c 9.227772
_cell_angle_alpha 142.718021
_cell_angle_beta 68.843509
_cell_angle_gamma 136.345521
_cell_volume 531.541338
_symmetry_space_group_name_H-M "P -1"
_symmetry_group_IT_number 2
_symmetry_cell_setting 'triclinic'
loop_
_space_group_symop_operation_xyz
x,y,z
-x,-y,-z
loop_
_atom_site_type_symbol
_atom_site_label
_atom_site_fract_x
_atom_site_fract_y
_atom_site_fract_z
Si Si1 0.734567 0.680030 0.153058
Si Si2 0.755373 0.326308 0.926252
Si Si3 0.299262 0.843846 0.635755
Si Si4 0.284816 0.129481 0.342892
Si Si5 0.765210 0.488582 0.663872
Si Si6 0.747438 0.994922 0.280712
Si Si7 0.751196 0.538187 0.441840
O O1 0.030573 0.818386 0.387535
O O2 0.500000 0.500000 0.000000
O O3 0.765645 0.622377 0.902439
O O4 0.680153 0.783496 0.366302
O O5 0.677470 0.418009 0.128119
O O6 0.217667 0.716367 0.313038
O O7 0.035179 0.445845 0.147456
O O8 0.499821 0.147457 0.780153
O O9 0.568182 0.915977 0.754124
O O10 0.362571 0.989782 0.794853
O O11 0.030864 0.727706 0.622839
O O12 0.471600 0.288297 0.446306
O O13 0.951623 0.987417 0.168618
O O14 0.825276 0.500737 0.496971
O O15 0.500000 0.500000 0.500000
#
# Coordination Sequence:
#
# PCOD9042303 Si02
#       7
#     2   2   2   2   2   2   2
#     4   8  18  37  71  98 132 185 225 282 340 416
#     4  12  25  45  75 102 143 180 241 299 346 411
#     4  12  24  44  75 106 131 190 246 278 343 435
#     4   9  21  40  72 101 140 180 233 286 348 418
#     4  11  21  44  70  97 144 189 228 288 364 409
#     4  10  23  44  70 112 139 179 236 303 353 393
#     4  12  29  44  71 106 143 187 241 286 352 431
#
# _framework density 26.338495999999999
#
# number of rings (size 3 to 8) (size 9 to 14) (size 15 to 20)
#    0.857    0.571    2.857    2.143    2.000    0.571 
#    2.571    3.571    0.000    0.000    0.000    0.000 
#    0.000    0.000    0.000    0.000    0.000    0.000 
#
# Total GULP energy -78248.903096 kJ/mol
# GULP energy per Si atom -5589.207364 kJ/mol
# Density = 2.627855 g / cm^3
# Si number density = 26.338496 Si / 1000 Ang^3
#
#
#
# Elastic Constant Matrix: (Units=GPa)
#
#
# Indices 1 2 3 4 5 6 
#
# 1 166.6751 44.9519 39.1677 4.8715 -20.7004 18.8312
# 2 44.9519 125.1342 24.3733 -7.7470 13.0120 13.9881
# 3 39.1677 24.3733 61.6685 -13.8901 16.2948 5.8142
# 4 4.8715 -7.7470 -13.8901 43.1851 -4.9090 10.4303
# 5 -20.7004 13.0120 16.2948 -4.9090 30.0948 2.3144
# 6 18.8312 13.9881 5.8142 10.4303 2.3144 36.7471
#
#
#
# Elastic Compliance Matrix: (Units=1/GPa)
#
#
# Indices 1 2 3 4 5 6 
#
# 1 0.011663 -0.003562 -0.010276 -0.002807 0.014910 -0.003137
# 2 -0.003562 0.010238 0.000735 0.002295 -0.006714 -0.002417
# 3 -0.010276 0.000735 0.030416 0.008750 -0.022358 -0.000901
# 4 -0.002807 0.002295 0.008750 0.028554 -0.002328 -0.008778
# 5 0.014910 -0.006714 -0.022358 -0.002328 0.058464 -0.004569
# 6 -0.003137 -0.002417 -0.000901 -0.008778 -0.004569 0.032663
#
#
# Mechanical properties :
#
#
# Convention : Reuss Voigt Hill
#
# Bulk Modulus (GPa) = 38.29861 63.38485 50.84173
# Shear Modulus (GPa) = 24.16516 38.33773 31.25144
#
# Velocity S-wave (km/s) = 3.03229 3.81934 3.44834
# Velocity P-wave (km/s) = 5.17998 6.60057 5.93295
#
# Compressibility (1/GPa) = 0.02611061
#
# Stress axis : x y z
#
# Youngs Moduli (GPa) = 85.73767 97.67295 32.87760
#
# Poissons Ratio (x) = 0.34789 0.33786
# Poissons Ratio (y) = 0.30538 -0.02415
# Poissons Ratio (z) = 0.88107 -0.07176
#
# Static dielectric constant tensor:
#      x y z
#    x 5.204800 -0.741010 0.118210 
#    y -0.741010 2.228710 -0.151330 
#    z 0.118210 -0.151330 2.064560 
# 
# From -- ./inp_files/402328.got.cif
#   From: 2010.05.17/outbox.cif.g08.bks.cpg/sg2_202_cif.got.tgz:402328.got - 2010.06.03 11:33:40.
