data_PCOD9042961
_publ_section_title
;
Structure prediction by ZEFSAII (Michael W. Deem and Ramdas Pophale) SiO2 
 PCOD9042961
Probable space group: P -1
;
_chemical_formula_sum "Si O2"
_cell_formula_units_Z 16
_cell_length_a 7.497746
_cell_length_b 9.651433
_cell_length_c 11.638269
_cell_angle_alpha 90.533137
_cell_angle_beta 90.649235
_cell_angle_gamma 47.234681
_cell_volume 618.246210
_symmetry_space_group_name_H-M "P -1"
_symmetry_group_IT_number 2
_symmetry_cell_setting 'triclinic'
loop_
_space_group_symop_operation_xyz
x,y,z
-x,-y,-z
loop_
_atom_site_type_symbol
_atom_site_label
_atom_site_fract_x
_atom_site_fract_y
_atom_site_fract_z
Si Si1 0.164804 0.278037 0.210402
Si Si2 0.752411 0.788338 0.521239
Si Si3 0.356330 0.073522 0.864829
Si Si4 0.547056 0.465683 0.686295
Si Si5 0.507236 0.682739 0.079759
Si Si6 0.048763 0.365453 0.695631
Si Si7 0.092046 0.738434 0.970464
Si Si8 0.180009 0.779284 0.521218
O O1 0.236289 0.248938 0.344456
O O2 0.976308 0.503143 0.206616
O O3 0.416494 0.149604 0.142520
O O4 0.022865 0.220297 0.157418
O O5 0.816433 0.647599 0.417692
O O6 0.990561 0.755585 0.505122
O O7 0.500000 0.000000 0.500000
O O8 0.462136 0.170843 0.894865
O O9 0.233951 0.151618 0.739878
O O10 0.135290 0.153160 0.945913
O O11 0.517684 0.391872 0.800830
O O12 0.780559 0.442196 0.696428
O O13 0.323179 0.676892 0.640111
O O14 0.619429 0.328832 0.578542
O O15 0.264849 0.774598 0.004914
O O16 0.730492 0.488900 0.015342
O O17 0.000000 0.000000 0.500000
#
# Coordination Sequence:
#
# PCOD9042961 Si02
#       8
#     2   2   2   2   2   2   2   2
#     4  12  26  44  75 105 140 194 239 299 365 429
#     4  11  24  44  69 107 140 185 238 287 369 425
#     4  12  25  46  73 109 144 189 243 303 358 427
#     4  10  23  45  67 103 139 195 232 287 369 411
#     4  11  24  45  78 100 148 191 239 302 356 436
#     4  11  24  45  74  98 149 183 239 300 351 440
#     4  11  25  47  72 109 142 189 248 296 367 424
#     4  10  24  41  68 101 146 181 236 298 345 428
#
# _framework density 25.879655
#
# number of rings (size 3 to 8) (size 9 to 14) (size 15 to 20)
#    0.000    1.000    3.750    1.875    3.500    0.500 
#    0.000    0.000    0.000    0.000    0.000    0.000 
#    0.000    0.000    0.000    0.000    0.000    0.000 
#
# Total GULP energy -89435.228321 kJ/mol
# GULP energy per Si atom -5589.701770 kJ/mol
# Density = 2.582075 g / cm^3
# Si number density = 25.879655 Si / 1000 Ang^3
#
#
#
# Elastic Constant Matrix: (Units=GPa)
#
#
# Indices 1 2 3 4 5 6 
#
# 1 124.4674 35.1506 34.3606 20.9816 5.1645 -27.1140
# 2 35.1506 147.4454 44.1633 8.1940 -10.2373 -26.6199
# 3 34.3606 44.1633 127.4223 7.4339 -20.0117 -19.0024
# 4 20.9816 8.1940 7.4339 47.4833 -15.5814 -0.4464
# 5 5.1645 -10.2373 -20.0117 -15.5814 38.2350 -3.6514
# 6 -27.1140 -26.6199 -19.0024 -0.4464 -3.6514 42.5802
#
#
#
# Elastic Compliance Matrix: (Units=1/GPa)
#
#
# Indices 1 2 3 4 5 6 
#
# 1 0.011309 -0.001107 -0.002368 -0.006048 -0.005054 0.004956
# 2 -0.001107 0.008407 -0.001735 -0.000046 0.001849 0.003935
# 3 -0.002368 -0.001735 0.010350 0.001802 0.006253 0.002581
# 4 -0.006048 -0.000046 0.001802 0.027662 0.012859 -0.001683
# 5 -0.005054 0.001849 0.006253 0.012859 0.036224 0.003969
# 6 0.004956 0.003935 0.002581 -0.001683 0.003969 0.030575
#
#
# Mechanical properties :
#
#
# Convention : Reuss Voigt Hill
#
# Bulk Modulus (GPa) = 50.90226 69.63155 60.26690
# Shear Modulus (GPa) = 35.33647 44.70374 40.02010
#
# Velocity S-wave (km/s) = 3.69916 4.16067 3.93669
# Velocity P-wave (km/s) = 6.16089 7.07431 6.63334
#
# Compressibility (1/GPa) = 0.01964549
#
# Stress axis : x y z
#
# Youngs Moduli (GPa) = 88.42295 118.94560 96.62053
#
# Poissons Ratio (x) = 0.13167 0.22879
# Poissons Ratio (y) = 0.09788 0.16768
# Poissons Ratio (z) = 0.20938 0.20643
#
# Static dielectric constant tensor:
#      x y z
#    x 2.041520 0.054660 0.191350 
#    y 0.054660 2.094790 0.005900 
#    z 0.191350 0.005900 2.482440 
# 
# From -- ./inp_files/390437.got.cif
#   From: 2010.05.17/outbox.cif.g08.bks.cpg/sg2_196_cif.got.tgz:390437.got - 2010.06.03 11:33:40.
