data_PCOD9042855
_publ_section_title
;
Structure prediction by ZEFSAII (Michael W. Deem and Ramdas Pophale) SiO2 
 PCOD9042855
Probable space group: P -1
;
_chemical_formula_sum "Si O2"
_cell_formula_units_Z 14
_cell_length_a 9.626745
_cell_length_b 13.999514
_cell_length_c 9.417085
_cell_angle_alpha 135.783943
_cell_angle_beta 52.203697
_cell_angle_gamma 120.056387
_cell_volume 694.980080
_symmetry_space_group_name_H-M "P -1"
_symmetry_group_IT_number 2
_symmetry_cell_setting 'triclinic'
loop_
_space_group_symop_operation_xyz
x,y,z
-x,-y,-z
loop_
_atom_site_type_symbol
_atom_site_label
_atom_site_fract_x
_atom_site_fract_y
_atom_site_fract_z
Si Si1 0.440343 0.253268 0.916699
Si Si2 0.251314 0.186223 0.685981
Si Si3 0.094337 0.120520 0.163108
Si Si4 0.637447 0.889776 0.780490
Si Si5 0.435465 0.622033 0.756986
Si Si6 0.192781 0.866330 0.447437
Si Si7 0.949421 0.346866 0.933509
O O1 0.388780 0.261357 0.792945
O O2 0.599377 0.155034 0.710668
O O3 0.253345 0.198287 0.052084
O O4 0.527593 0.378176 0.096135
O O5 0.325578 0.152533 0.448165
O O6 0.100299 0.287199 0.866443
O O7 0.187370 0.030994 0.615993
O O8 0.187547 0.068419 0.191496
O O9 0.927041 0.191479 0.404897
O O10 0.000000 0.000000 0.000000
O O11 0.549247 0.756594 0.773470
O O12 0.500000 0.000000 0.000000
O O13 0.500000 0.500000 0.500000
O O14 0.234654 0.636427 0.858725
O O15 0.103173 0.774687 0.277738
O O16 0.000000 0.500000 0.000000
#
# Coordination Sequence:
#
# PCOD9042855 Si02
#       7
#     2   2   2   2   2   2   2
#     4  10  24  41  64  99 132 167 214 265 328 380
#     4  12  22  41  67  98 130 161 220 270 316 386
#     4  11  22  37  63  91 136 165 208 258 327 376
#     4  11  24  38  63  97 128 164 215 264 320 379
#     4  10  23  45  65  86 127 174 211 264 323 386
#     4  11  23  41  66  96 133 173 207 266 326 379
#     4  11  24  42  65  93 128 173 216 265 323 381
#
# _framework density 20.144461
#
# number of rings (size 3 to 8) (size 9 to 14) (size 15 to 20)
#    0.000    1.143    2.857    4.286    6.000    0.000 
#    0.000    7.143    0.000    0.000    0.000    0.000 
#    0.000    0.000    0.000    0.000    0.000    0.000 
#
# Total GULP energy -77991.122551 kJ/mol
# GULP energy per Si atom -5570.794468 kJ/mol
# Density = 2.009861 g / cm^3
# Si number density = 20.144461 Si / 1000 Ang^3
#
#
#
# Elastic Constant Matrix: (Units=GPa)
#
#
# Indices 1 2 3 4 5 6 
#
# 1 112.9960 30.9224 49.4717 9.7128 0.2106 -14.7563
# 2 30.9224 35.8404 17.5979 3.2615 -5.2870 3.5660
# 3 49.4717 17.5979 133.3160 1.2074 -10.5790 -14.5956
# 4 9.7128 3.2615 1.2074 47.1172 2.6729 -2.6280
# 5 0.2106 -5.2870 -10.5790 2.6729 33.2259 -14.9634
# 6 -14.7563 3.5660 -14.5956 -2.6280 -14.9634 22.8269
#
#
#
# Elastic Compliance Matrix: (Units=1/GPa)
#
#
# Indices 1 2 3 4 5 6 
#
# 1 0.014913 -0.012283 -0.002458 -0.001664 0.002432 0.011391
# 2 -0.012283 0.041570 -0.003082 -0.001142 -0.002333 -0.018066
# 3 -0.002458 -0.003082 0.010610 0.000613 0.007722 0.010810
# 4 -0.001664 -0.001142 0.000613 0.021765 -0.001172 0.001232
# 5 0.002432 -0.002333 0.007722 -0.001172 0.050084 0.039571
# 6 0.011391 -0.018066 0.010810 0.001232 0.039571 0.086987
#
#
# Mechanical properties :
#
#
# Convention : Reuss Voigt Hill
#
# Bulk Modulus (GPa) = 31.79827 53.12627 42.46227
# Shear Modulus (GPa) = 18.37845 32.91137 25.64491
#
# Velocity S-wave (km/s) = 3.02376 4.04637 3.57185
# Velocity P-wave (km/s) = 5.29247 6.94700 6.17539
#
# Compressibility (1/GPa) = 0.03144825
#
# Stress axis : x y z
#
# Youngs Moduli (GPa) = 67.05404 24.05596 94.24694
#
# Poissons Ratio (x) = 0.29549 0.23161
# Poissons Ratio (y) = 0.82366 0.29044
# Poissons Ratio (z) = 0.16479 0.07413
#
# Static dielectric constant tensor:
#      x y z
#    x 1.768890 0.014560 0.027200 
#    y 0.014560 1.780050 -0.043850 
#    z 0.027200 -0.043850 1.764180 
# 
# From -- ./inp_files/158253.got.cif
#   From: 2010.05.17/outbox.cif.g08.bks.cpg/sg2_80_cif.got.tgz:158253.got - 2010.06.03 11:33:40.
