data_PCOD9042989
_publ_section_title
;
Structure prediction by ZEFSAII (Michael W. Deem and Ramdas Pophale) SiO2 
 PCOD9042989
Probable space group: P -1
;
_chemical_formula_sum "Si O2"
_cell_formula_units_Z 16
_cell_length_a 9.489622
_cell_length_b 8.768212
_cell_length_c 12.298601
_cell_angle_alpha 130.393197
_cell_angle_beta 78.088797
_cell_angle_gamma 95.259292
_cell_volume 761.385316
_symmetry_space_group_name_H-M "P -1"
_symmetry_group_IT_number 2
_symmetry_cell_setting 'triclinic'
loop_
_space_group_symop_operation_xyz
x,y,z
-x,-y,-z
loop_
_atom_site_type_symbol
_atom_site_label
_atom_site_fract_x
_atom_site_fract_y
_atom_site_fract_z
Si Si1 0.063141 0.361681 0.023005
Si Si2 0.364116 0.861290 0.959668
Si Si3 0.056393 0.556155 0.681297
Si Si4 0.616477 0.814797 0.390114
Si Si5 0.915306 0.965503 0.809635
Si Si6 0.389964 0.549357 0.634193
Si Si7 0.645253 0.527331 0.055437
Si Si8 0.106571 0.122389 0.470226
O O1 0.226359 0.431680 0.031158
O O2 0.031077 0.133114 0.891216
O O3 0.000000 0.500000 0.000000
O O4 0.975345 0.409205 0.169492
O O5 0.380339 0.760350 0.792891
O O6 0.345098 0.674160 0.962219
O O7 0.217753 0.992763 0.067476
O O8 0.500000 0.000000 0.000000
O O9 0.225697 0.533010 0.616910
O O10 0.015740 0.332608 0.559698
O O11 0.981730 0.744140 0.720450
O O12 0.559595 0.617705 0.363539
O O13 0.649025 0.726008 0.223756
O O14 0.755144 0.856856 0.462909
O O15 0.500000 0.000000 0.500000
O O16 0.860048 0.974381 0.697699
O O17 0.500000 0.500000 0.500000
O O18 0.500000 0.500000 0.000000
O O19 0.000000 0.000000 0.500000
#
# Coordination Sequence:
#
# PCOD9042989 Si02
#       8
#     2   2   2   2   2   2   2   2
#     4  12  22  45  73 100 145 185 239 302 355 431
#     4  11  26  43  66 103 143 184 239 291 365 425
#     4  11  25  44  68 106 139 187 245 294 369 425
#     4  10  24  45  65  97 134 179 234 283 356 426
#     4  12  25  44  73 105 145 190 243 300 359 436
#     4  10  23  45  67  94 139 184 229 291 354 428
#     4  11  26  44  70 106 137 184 242 302 360 428
#     4  11  25  45  69 101 141 185 234 298 356 429
#
# _framework density 21.014327999999999
#
# number of rings (size 3 to 8) (size 9 to 14) (size 15 to 20)
#    0.000    1.000    2.500    3.750    7.000    2.000 
#    2.250    0.000    0.000    0.000    0.000    0.000 
#    0.000    0.000    0.000    0.000    0.000    0.000 
#
# Total GULP energy -89217.595203 kJ/mol
# GULP energy per Si atom -5576.099700 kJ/mol
# Density = 2.096650 g / cm^3
# Si number density = 21.014328 Si / 1000 Ang^3
#
#
#
# Elastic Constant Matrix: (Units=GPa)
#
#
# Indices 1 2 3 4 5 6 
#
# 1 117.0273 46.7094 42.7954 1.4091 -16.2636 12.5006
# 2 46.7094 83.5649 41.3779 13.8762 -16.4665 8.9570
# 3 42.7954 41.3779 126.7087 -8.8030 -15.7867 4.6053
# 4 1.4091 13.8762 -8.8030 47.5712 -1.3584 -2.5609
# 5 -16.2636 -16.4665 -15.7867 -1.3584 36.1102 4.7790
# 6 12.5006 8.9570 4.6053 -2.5609 4.7790 37.9810
#
#
#
# Elastic Compliance Matrix: (Units=1/GPa)
#
#
# Indices 1 2 3 4 5 6 
#
# 1 0.011894 -0.004997 -0.001908 0.000677 0.002639 -0.002791
# 2 -0.004997 0.019269 -0.004313 -0.006316 0.004865 -0.003415
# 3 -0.001908 -0.004313 0.010384 0.003308 0.001787 0.000384
# 4 0.000677 -0.006316 0.003308 0.023575 -0.000577 0.002528
# 5 0.002639 0.004865 0.001787 -0.000577 0.032705 -0.006386
# 6 -0.002791 -0.003415 0.000384 0.002528 -0.006386 0.028980
#
#
# Mechanical properties :
#
#
# Convention : Reuss Voigt Hill
#
# Bulk Modulus (GPa) = 52.32842 65.45182 58.89012
# Shear Modulus (GPa) = 32.13110 37.42702 34.77906
#
# Velocity S-wave (km/s) = 3.91450 4.22480 4.07260
# Velocity P-wave (km/s) = 6.73694 7.41704 7.08516
#
# Compressibility (1/GPa) = 0.01911007
#
# Stress axis : x y z
#
# Youngs Moduli (GPa) = 84.07693 51.89738 96.30568
#
# Poissons Ratio (x) = 0.25931 0.18376
# Poissons Ratio (y) = 0.42010 0.41540
# Poissons Ratio (z) = 0.16043 0.22385
#
# Static dielectric constant tensor:
#      x y z
#    x 1.735720 -0.035490 0.015230 
#    y -0.035490 1.756390 -0.020360 
#    z 0.015230 -0.020360 1.817000 
# 
# From -- ./inp_files/243721.got.cif
#   From: 2010.05.17/outbox.cif.g08.bks.cpg/sg2_122_cif.got.tgz:243721.got - 2010.06.03 11:33:40.
