data_PCOD9042069
_publ_section_title
;
Structure prediction by ZEFSAII (Michael W. Deem and Ramdas Pophale) SiO2 
 PCOD9042069
Probable space group: P -1
;
_chemical_formula_sum "Si O2"
_cell_formula_units_Z 16
_cell_length_a 11.951486
_cell_length_b 11.044145
_cell_length_c 9.870637
_cell_angle_alpha 94.595425
_cell_angle_beta 121.837451
_cell_angle_gamma 47.199645
_cell_volume 726.687846
_symmetry_space_group_name_H-M "P -1"
_symmetry_group_IT_number 2
_symmetry_cell_setting 'triclinic'
loop_
_space_group_symop_operation_xyz
x,y,z
-x,-y,-z
loop_
_atom_site_type_symbol
_atom_site_label
_atom_site_fract_x
_atom_site_fract_y
_atom_site_fract_z
Si Si1 0.241345 0.063041 0.348211
Si Si2 0.559284 0.204138 0.322987
Si Si3 0.904672 0.325162 0.560582
Si Si4 0.688562 0.425076 0.688654
Si Si5 0.682489 0.314690 0.188888
Si Si6 0.636544 0.919658 0.207930
Si Si7 0.114373 0.824830 0.966572
Si Si8 0.663555 0.743494 0.445580
O O1 0.263126 0.946035 0.470328
O O2 0.436312 0.897930 0.368084
O O3 0.248694 0.195121 0.421733
O O4 0.035665 0.183245 0.152217
O O5 0.374092 0.394970 0.296467
O O6 0.618120 0.248253 0.238742
O O7 0.514726 0.099313 0.238677
O O8 0.863348 0.293476 0.678426
O O9 0.800208 0.324624 0.368523
O O10 0.791695 0.533182 0.521640
O O11 0.140817 0.181176 0.678475
O O12 0.500000 0.500000 0.500000
O O13 0.712144 0.340068 0.837782
O O14 0.820177 0.176827 0.139185
O O15 0.500000 0.500000 0.000000
O O16 0.659294 0.778162 0.287588
O O17 0.500000 0.000000 0.000000
O O18 0.000000 0.000000 0.000000
#
# Coordination Sequence:
#
# PCOD9042069 Si02
#       8
#     2   2   2   2   2   2   2   2
#     4  10  23  44  69 102 135 187 231 285 344 409
#     4  11  23  46  69  99 145 178 229 291 349 417
#     4  12  26  45  76 102 143 188 229 289 359 412
#     4  12  24  46  68 107 141 183 227 286 358 417
#     4  12  26  44  72 107 138 183 231 291 357 420
#     4  11  28  44  67 103 137 187 238 290 340 410
#     4  12  28  42  70 105 140 183 235 284 350 425
#     4  10  23  45  71  93 141 184 231 285 341 412
#
# _framework density 22.017707999999999
#
# number of rings (size 3 to 8) (size 9 to 14) (size 15 to 20)
#    0.000    0.750    3.750    2.625    7.000    2.000 
#    0.000    1.250    0.000    0.000    0.000    0.000 
#    0.000    0.000    0.000    0.000    0.000    0.000 
#
# Total GULP energy -89349.125519 kJ/mol
# GULP energy per Si atom -5584.320345 kJ/mol
# Density = 2.196759 g / cm^3
# Si number density = 22.017708 Si / 1000 Ang^3
#
#
#
# Elastic Constant Matrix: (Units=GPa)
#
#
# Indices 1 2 3 4 5 6 
#
# 1 82.3618 0.7692 35.5527 4.0655 -29.0619 -13.5963
# 2 0.7692 86.6636 4.1472 13.1040 -13.7286 -8.2724
# 3 35.5527 4.1472 112.8084 12.1786 -5.5047 -9.2615
# 4 4.0655 13.1040 12.1786 24.1002 -8.1024 -8.3051
# 5 -29.0619 -13.7286 -5.5047 -8.1024 26.5668 2.8717
# 6 -13.5963 -8.2724 -9.2615 -8.3051 2.8717 32.3056
#
#
#
# Elastic Compliance Matrix: (Units=1/GPa)
#
#
# Indices 1 2 3 4 5 6 
#
# 1 0.029433 0.004992 -0.008119 0.012306 0.035622 0.011335
# 2 0.004992 0.014128 -0.000916 -0.003008 0.011256 0.003682
# 3 -0.008119 -0.000916 0.011716 -0.007606 -0.009092 -0.001440
# 4 0.012306 -0.003008 -0.007606 0.059061 0.026719 0.015037
# 5 0.035622 0.011256 -0.009092 0.026719 0.087134 0.014391
# 6 0.011335 0.003682 -0.001440 0.015037 0.014391 0.038841
#
#
# Mechanical properties :
#
#
# Convention : Reuss Voigt Hill
#
# Bulk Modulus (GPa) = 21.19144 40.30799 30.74971
# Shear Modulus (GPa) = 18.93003 32.68551 25.80777
#
# Velocity S-wave (km/s) = 2.93535 3.85711 3.42736
# Velocity P-wave (km/s) = 4.59718 6.17926 5.44597
#
# Compressibility (1/GPa) = 0.04718887
#
# Stress axis : x y z
#
# Youngs Moduli (GPa) = 33.97560 70.78297 85.35059
#
# Poissons Ratio (x) = -0.35331 0.69299
# Poissons Ratio (y) = -0.16959 0.07820
# Poissons Ratio (z) = 0.27586 0.06486
#
# Static dielectric constant tensor:
#      x y z
#    x 1.839120 -0.036000 -0.070370 
#    y -0.036000 1.872740 0.009600 
#    z -0.070370 0.009600 2.056580 
# 
# From -- ./inp_files/262558.got.cif
#   From: 2010.05.17/outbox.cif.g08.bks.cpg/sg2_132_cif.got.tgz:262558.got - 2010.06.03 11:33:40.
