data_PCOD9042343
_publ_section_title
;
Structure prediction by ZEFSAII (Michael W. Deem and Ramdas Pophale) SiO2 
 PCOD9042343
Probable space group: P -1
;
_chemical_formula_sum "Si O2"
_cell_formula_units_Z 12
_cell_length_a 7.519852
_cell_length_b 10.345410
_cell_length_c 9.080218
_cell_angle_alpha 72.338424
_cell_angle_beta 130.403795
_cell_angle_gamma 116.950869
_cell_volume 479.454396
_symmetry_space_group_name_H-M "P -1"
_symmetry_group_IT_number 2
_symmetry_cell_setting 'triclinic'
loop_
_space_group_symop_operation_xyz
x,y,z
-x,-y,-z
loop_
_atom_site_type_symbol
_atom_site_label
_atom_site_fract_x
_atom_site_fract_y
_atom_site_fract_z
Si Si1 0.351099 0.873386 0.718467
Si Si2 0.813464 0.247748 0.026425
Si Si3 0.499106 0.205004 0.613144
Si Si4 0.704195 0.594931 0.689075
Si Si5 0.747912 0.714197 0.961202
Si Si6 0.033074 0.656993 0.399039
O O1 0.292371 0.865373 0.862631
O O2 0.571913 0.807931 0.843181
O O3 0.110871 0.771485 0.534405
O O4 0.435644 0.034826 0.646737
O O5 0.008273 0.393645 0.157319
O O6 0.987442 0.208825 0.010428
O O7 0.595694 0.268156 0.805039
O O8 0.274346 0.245294 0.413374
O O9 0.723085 0.285774 0.594419
O O10 0.500000 0.500000 0.500000
O O11 0.624352 0.586498 0.819482
O O12 0.815473 0.665504 0.171662
O O13 0.000000 0.500000 0.500000
#
# Coordination Sequence:
#
# PCOD9042343 Si02
#       6
#     2   2   2   2   2   2
#     4  12  24  44  76 106 139 189 236 292 352 423
#     4   9  24  43  68 104 139 185 232 288 353 415
#     4  11  24  46  70 103 147 184 236 296 351 417
#     4  10  23  44  70  98 143 188 227 290 358 412
#     4   9  24  46  67 104 143 180 235 293 352 408
#     4  11  25  42  70 104 144 187 237 287 352 423
#
# _framework density 25.028448999999998
#
# number of rings (size 3 to 8) (size 9 to 14) (size 15 to 20)
#    1.000    0.667    1.667    1.000    2.333    8.667 
#    0.000    0.000    0.000    0.000    0.000    0.000 
#    0.000    0.000    0.000    0.000    0.000    0.000 
#
# Total GULP energy -67037.135210 kJ/mol
# GULP energy per Si atom -5586.427934 kJ/mol
# Density = 2.497148 g / cm^3
# Si number density = 25.028449 Si / 1000 Ang^3
#
#
#
# Elastic Constant Matrix: (Units=GPa)
#
#
# Indices 1 2 3 4 5 6 
#
# 1 87.5022 23.6452 38.2750 -15.9531 -13.1145 6.8301
# 2 23.6452 134.9971 79.3402 -6.3562 -13.4473 5.5226
# 3 38.2750 79.3402 238.1822 6.6699 -6.6042 -4.6028
# 4 -15.9531 -6.3562 6.6699 51.5256 4.8501 -6.9493
# 5 -13.1145 -13.4473 -6.6042 4.8501 39.3463 -10.8286
# 6 6.8301 5.5226 -4.6028 -6.9493 -10.8286 16.9117
#
#
#
# Elastic Compliance Matrix: (Units=1/GPa)
#
#
# Indices 1 2 3 4 5 6 
#
# 1 0.013847 -0.000621 -0.002096 0.003870 0.002879 -0.002526
# 2 -0.000621 0.009682 -0.003142 0.000938 0.001855 -0.002192
# 3 -0.002096 -0.003142 0.005683 -0.001389 0.000166 0.002954
# 4 0.003870 0.000938 -0.001389 0.021802 0.000652 0.007129
# 5 0.002879 0.001855 0.000166 0.000652 0.032237 0.019186
# 6 -0.002526 -0.002192 0.002954 0.007129 0.019186 0.076885
#
#
# Mechanical properties :
#
#
# Convention : Reuss Voigt Hill
#
# Bulk Modulus (GPa) = 57.16649 82.57801 69.87225
# Shear Modulus (GPa) = 28.13975 42.85146 35.49561
#
# Velocity S-wave (km/s) = 3.35671 4.14225 3.77000
# Velocity P-wave (km/s) = 6.15740 7.47950 6.85042
#
# Compressibility (1/GPa) = 0.01749277
#
# Stress axis : x y z
#
# Youngs Moduli (GPa) = 72.21729 103.28450 175.97638
#
# Poissons Ratio (x) = 0.06418 0.36877
# Poissons Ratio (y) = 0.04488 0.55300
# Poissons Ratio (z) = 0.15133 0.32457
#
# Static dielectric constant tensor:
#      x y z
#    x 2.028550 -0.018600 -0.001540 
#    y -0.018600 2.074800 0.059810 
#    z -0.001540 0.059810 1.961970 
# 
# From -- ./inp_files/184576.got.cif
#   From: 2010.05.17/outbox.cif.g08.bks.cpg/sg2_93_cif.got.tgz:184576.got - 2010.06.03 11:33:40.
