data_PCOD9042608
_publ_section_title
;
Structure prediction by ZEFSAII (Michael W. Deem and Ramdas Pophale) SiO2 
 PCOD9042608
Probable space group: P -1
;
_chemical_formula_sum "Si O2"
_cell_formula_units_Z 16
_cell_length_a 5.379791
_cell_length_b 18.122345
_cell_length_c 8.992623
_cell_angle_alpha 103.833513
_cell_angle_beta 125.232467
_cell_angle_gamma 98.459817
_cell_volume 648.895615
_symmetry_space_group_name_H-M "P -1"
_symmetry_group_IT_number 2
_symmetry_cell_setting 'triclinic'
loop_
_space_group_symop_operation_xyz
x,y,z
-x,-y,-z
loop_
_atom_site_type_symbol
_atom_site_label
_atom_site_fract_x
_atom_site_fract_y
_atom_site_fract_z
Si Si1 0.125924 0.544147 0.909358
Si Si2 0.653463 0.911143 0.719891
Si Si3 0.791151 0.994174 0.276044
Si Si4 0.726796 0.232347 0.691543
Si Si5 0.537044 0.830729 0.927907
Si Si6 0.123774 0.390069 0.713760
Si Si7 0.856670 0.731491 0.558242
Si Si8 0.058537 0.710552 0.903970
O O1 0.028260 0.469615 0.724047
O O2 0.003313 0.618069 0.878173
O O3 0.515673 0.582684 0.079203
O O4 0.000000 0.500000 0.000000
O O5 0.493159 0.972174 0.763620
O O6 0.386520 0.847652 0.486625
O O7 0.753312 0.866390 0.872564
O O8 0.961335 0.955709 0.742841
O O9 0.000000 0.000000 0.500000
O O10 0.639297 0.902904 0.116537
O O11 0.391289 0.246060 0.619048
O O12 0.909246 0.313194 0.699541
O O13 0.913610 0.237172 0.911924
O O14 0.398459 0.749157 0.944948
O O15 0.187132 0.808608 0.712553
O O16 0.114108 0.350830 0.531147
O O17 0.778863 0.715036 0.698048
#
# Coordination Sequence:
#
# PCOD9042608 Si02
#       8
#     2   2   2   2   2   2   2   2
#     4  11  22  43  71 104 142 190 244 310 372 446
#     4  12  26  47  78 106 155 197 245 319 370 441
#     4  12  27  49  75 113 150 202 253 312 375 447
#     4  12  22  46  72 104 146 197 235 317 370 448
#     4  10  24  46  69 110 142 197 252 295 380 446
#     4  11  22  41  72 100 144 188 247 298 389 433
#     4  10  23  45  66 103 145 187 254 296 378 441
#     4  10  23  44  73 102 146 192 248 297 374 455
#
# _framework density 24.657278999999999
#
# number of rings (size 3 to 8) (size 9 to 14) (size 15 to 20)
#    0.750    0.250    3.750    2.625    0.000    2.500 
#    6.750    2.500    0.000    0.000    0.000    0.000 
#    0.000    0.000    0.000    0.000    0.000    0.000 
#
# Total GULP energy -89351.898280 kJ/mol
# GULP energy per Si atom -5584.493643 kJ/mol
# Density = 2.460116 g / cm^3
# Si number density = 24.657279 Si / 1000 Ang^3
#
#
#
# Elastic Constant Matrix: (Units=GPa)
#
#
# Indices 1 2 3 4 5 6 
#
# 1 68.8519 23.1067 8.7698 5.7043 -8.8224 12.6371
# 2 23.1067 106.4433 25.1154 7.2168 -11.9890 7.3492
# 3 8.7698 25.1154 129.8779 12.6754 -25.5035 -6.3864
# 4 5.7043 7.2168 12.6754 45.1969 9.2256 -3.4636
# 5 -8.8224 -11.9890 -25.5035 9.2256 36.6957 8.7581
# 6 12.6371 7.3492 -6.3864 -3.4636 8.7581 35.4657
#
#
#
# Elastic Compliance Matrix: (Units=1/GPa)
#
#
# Indices 1 2 3 4 5 6 
#
# 1 0.017916 -0.002450 0.000611 -0.004034 0.006817 -0.007843
# 2 -0.002450 0.010892 -0.001250 -0.001932 0.003204 -0.002589
# 3 0.000611 -0.001250 0.009811 -0.004251 0.007750 -0.000521
# 4 -0.004034 -0.001932 -0.004251 0.027342 -0.013094 0.006976
# 5 0.006817 0.003204 0.007750 -0.013094 0.041789 -0.013296
# 6 -0.007843 -0.002589 -0.000521 0.006976 -0.013296 0.035398
#
#
# Mechanical properties :
#
#
# Convention : Reuss Voigt Hill
#
# Bulk Modulus (GPa) = 30.82701 46.57302 38.70001
# Shear Modulus (GPa) = 31.22231 40.01705 35.61968
#
# Velocity S-wave (km/s) = 3.56230 4.03293 3.80490
# Velocity P-wave (km/s) = 5.42672 6.37301 5.91881
#
# Compressibility (1/GPa) = 0.03243909
#
# Stress axis : x y z
#
# Youngs Moduli (GPa) = 55.81660 91.80835 101.92434
#
# Poissons Ratio (x) = 0.22497 -0.06226
# Poissons Ratio (y) = 0.13677 0.12746
# Poissons Ratio (z) = -0.03409 0.11481
#
# Static dielectric constant tensor:
#      x y z
#    x 2.146000 -0.003590 0.010720 
#    y -0.003590 1.991330 -0.006820 
#    z 0.010720 -0.006820 1.940720 
# 
# From -- ./inp_files/141462.got.cif
#   From: 2010.05.17/outbox.cif.g08.bks.cpg/sg2_71_cif.got.tgz:141462.got - 2010.06.03 11:33:40.
