data_PCOD9042434
_publ_section_title
;
Structure prediction by ZEFSAII (Michael W. Deem and Ramdas Pophale) SiO2 
 PCOD9042434
Probable space group: P -1
;
_chemical_formula_sum "Si O2"
_cell_formula_units_Z 12
_cell_length_a 11.980502
_cell_length_b 15.013807
_cell_length_c 21.300325
_cell_angle_alpha 161.936101
_cell_angle_beta 28.249582
_cell_angle_gamma 152.444454
_cell_volume 529.920453
_symmetry_space_group_name_H-M "P -1"
_symmetry_group_IT_number 2
_symmetry_cell_setting 'triclinic'
loop_
_space_group_symop_operation_xyz
x,y,z
-x,-y,-z
loop_
_atom_site_type_symbol
_atom_site_label
_atom_site_fract_x
_atom_site_fract_y
_atom_site_fract_z
Si Si1 0.886379 0.607576 0.686100
Si Si2 0.744569 0.750055 0.015346
Si Si3 0.468112 0.108651 0.917272
Si Si4 0.466772 0.729651 0.783096
Si Si5 0.005523 0.318955 0.546439
Si Si6 0.030315 0.300307 0.790766
O O1 0.851063 0.348661 0.582030
O O2 0.000000 0.500000 0.500000
O O3 0.624070 0.657182 0.838938
O O4 0.095025 0.934670 0.819616
O O5 0.943627 0.571837 0.788245
O O6 0.500000 0.500000 0.000000
O O7 0.657205 0.862484 0.068130
O O8 0.762149 0.206001 0.826922
O O9 0.411643 0.828923 0.807005
O O10 0.714154 0.635856 0.587035
O O11 0.240582 0.465307 0.747767
O O12 0.500000 0.000000 0.000000
O O13 0.923216 0.997173 0.405188
O O14 0.000000 0.500000 0.000000
#
# Coordination Sequence:
#
# PCOD9042434 Si02
#       6
#     2   2   2   2   2   2
#     4  11  25  47  77 101 140 195 245 307 360 427
#     4  11  27  49  73 106 153 188 247 307 364 434
#     4  10  23  44  71 107 141 192 235 300 367 425
#     4  11  21  42  71 106 155 191 240 304 360 433
#     4  10  23  44  71 107 141 192 235 300 367 425
#     4  11  23  40  71 110 150 188 247 298 358 439
#
# _framework density 22.644907
#
# number of rings (size 3 to 8) (size 9 to 14) (size 15 to 20)
#    0.000    1.333    3.333    3.000    4.667    0.000 
#    0.000   20.000    0.000    0.000    0.000    0.000 
#    0.000    0.000    0.000    0.000    0.000    0.000 
#
# Total GULP energy -66969.713459 kJ/mol
# GULP energy per Si atom -5580.809455 kJ/mol
# Density = 2.259337 g / cm^3
# Si number density = 22.644907 Si / 1000 Ang^3
#
#
#
# Elastic Constant Matrix: (Units=GPa)
#
#
# Indices 1 2 3 4 5 6 
#
# 1 65.5016 39.0923 51.6687 16.5020 -17.9838 -7.9826
# 2 39.0923 210.7055 52.8872 -1.1591 -18.3034 -31.7387
# 3 51.6687 52.8872 148.2662 5.9860 -16.0783 -10.8228
# 4 16.5020 -1.1591 5.9860 30.9377 -2.5008 1.1839
# 5 -17.9838 -18.3034 -16.0783 -2.5008 47.9654 2.1874
# 6 -7.9826 -31.7387 -10.8228 1.1839 2.1874 16.0131
#
#
#
# Elastic Compliance Matrix: (Units=1/GPa)
#
#
# Indices 1 2 3 4 5 6 
#
# 1 0.028094 -0.002135 -0.007454 -0.013299 0.006305 0.004857
# 2 -0.002135 0.007394 -0.000881 0.001196 0.001207 0.012742
# 3 -0.007454 -0.000881 0.009657 0.002054 0.000173 0.000890
# 4 -0.013299 0.001196 0.002054 0.039152 -0.001547 -0.005554
# 5 0.006305 0.001207 0.000173 -0.001547 0.023534 0.002552
# 6 0.004857 0.012742 0.000890 -0.005554 0.002552 0.090789
#
#
# Mechanical properties :
#
#
# Convention : Reuss Voigt Hill
#
# Bulk Modulus (GPa) = 41.31154 79.08553 60.19854
# Shear Modulus (GPa) = 21.96565 37.70491 29.83528
#
# Velocity S-wave (km/s) = 3.11787 4.08493 3.63371
# Velocity P-wave (km/s) = 5.58966 7.56630 6.65181
#
# Compressibility (1/GPa) = 0.02420631
#
# Stress axis : x y z
#
# Youngs Moduli (GPa) = 35.59439 135.24564 103.55153
#
# Poissons Ratio (x) = 0.28879 0.77183
# Poissons Ratio (y) = 0.07601 0.09119
# Poissons Ratio (z) = 0.26530 0.11910
#
# Static dielectric constant tensor:
#      x y z
#    x 1.805370 0.028660 0.027420 
#    y 0.028660 1.853380 0.026480 
#    z 0.027420 0.026480 1.845480 
# 
# From -- ./inp_files/595289.got.cif
#   From: 2010.05.17/outbox.cif.g08.bks.cpg/sg2_298_cif.got.tgz:595289.got - 2010.06.03 11:33:40.
