data_PCOD9042597
_publ_section_title
;
Structure prediction by ZEFSAII (Michael W. Deem and Ramdas Pophale) SiO2 
 PCOD9042597
Probable space group: P -1
;
_chemical_formula_sum "Si O2"
_cell_formula_units_Z 13
_cell_length_a 15.489089
_cell_length_b 9.266506
_cell_length_c 9.828605
_cell_angle_alpha 44.190594
_cell_angle_beta 145.601878
_cell_angle_gamma 122.219187
_cell_volume 549.358329
_symmetry_space_group_name_H-M "P -1"
_symmetry_group_IT_number 2
_symmetry_cell_setting 'triclinic'
loop_
_space_group_symop_operation_xyz
x,y,z
-x,-y,-z
loop_
_atom_site_type_symbol
_atom_site_label
_atom_site_fract_x
_atom_site_fract_y
_atom_site_fract_z
Si Si1 0.770468 0.387933 0.287461
Si Si2 0.115549 0.185979 0.899339
Si Si3 0.537628 0.292936 0.598112
Si Si4 0.000000 0.500000 0.000000
Si Si5 0.664716 0.081972 0.148434
Si Si6 0.202451 0.238012 0.264530
Si Si7 0.753655 0.286594 0.648348
O O1 0.779964 0.632297 0.115621
O O2 0.671224 0.278469 0.123846
O O3 0.730092 0.342397 0.421208
O O4 0.946024 0.273593 0.565881
O O5 0.103758 0.170364 0.058627
O O6 0.187372 0.960762 0.092926
O O7 0.500000 0.500000 0.500000
O O8 0.375777 0.203869 0.455111
O O9 0.597083 0.332265 0.500501
O O10 0.669278 0.144542 0.955126
O O11 0.865880 0.534914 0.924199
O O12 0.877607 0.412616 0.794857
O O13 0.793094 0.899095 0.498584
O O14 0.500000 0.000000 0.000000
#
# Coordination Sequence:
#
# PCOD9042597 Si02
#       7
#     2   2   2   1   2   2   2
#     4  11  23  45  74 109 142 190 242 292 364 424
#     4  11  24  44  75 105 145 190 237 305 354 425
#     4  11  24  45  69 101 147 186 231 301 358 421
#     4  12  24  40  78 102 142 190 240 294 362 422
#     4  10  23  44  73 101 144 193 234 294 358 428
#     4  11  22  46  71 103 147 183 240 296 362 421
#     4  12  25  44  73 107 140 191 237 299 356 430
#
# _framework density 23.663969999999999
#
# number of rings (size 3 to 8) (size 9 to 14) (size 15 to 20)
#    0.000    0.923    4.615    2.308    0.000    1.846 
#    2.769    3.846    0.000    0.000    0.000    0.000 
#    0.000    0.000    0.000    0.000    0.000    0.000 
#
# Total GULP energy -72450.051076 kJ/mol
# GULP energy per Si atom -5573.080852 kJ/mol
# Density = 2.361011 g / cm^3
# Si number density = 23.663970 Si / 1000 Ang^3
#
#
#
# Elastic Constant Matrix: (Units=GPa)
#
#
# Indices 1 2 3 4 5 6 
#
# 1 123.5902 38.5751 20.8357 5.5552 0.2957 -8.6546
# 2 38.5751 120.0134 24.9521 26.4420 -1.4264 0.6002
# 3 20.8357 24.9521 77.3565 13.4903 -14.8789 6.0117
# 4 5.5552 26.4420 13.4903 37.6749 -0.5234 -3.9862
# 5 0.2957 -1.4264 -14.8789 -0.5234 28.9392 -1.9438
# 6 -8.6546 0.6002 6.0117 -3.9862 -1.9438 37.2768
#
#
#
# Elastic Compliance Matrix: (Units=1/GPa)
#
#
# Indices 1 2 3 4 5 6 
#
# 1 0.009545 -0.003006 -0.002376 0.001830 -0.001248 0.002778
# 2 -0.003006 0.011162 -0.001547 -0.006991 -0.000435 -0.001398
# 3 -0.002376 -0.001547 0.016746 -0.004796 0.008249 -0.003310
# 4 0.001830 -0.006991 -0.004796 0.033377 -0.001904 0.004781
# 5 -0.001248 -0.000435 0.008249 -0.001904 0.038767 0.000205
# 6 0.002778 -0.001398 -0.003310 0.004781 0.000205 0.028550
#
#
# Mechanical properties :
#
#
# Convention : Reuss Voigt Hill
#
# Bulk Modulus (GPa) = 42.37972 54.40956 48.39464
# Shear Modulus (GPa) = 31.27528 36.55134 33.91331
#
# Velocity S-wave (km/s) = 3.63938 3.93440 3.78976
# Velocity P-wave (km/s) = 5.96724 6.60922 6.29642
#
# Compressibility (1/GPa) = 0.02359619
#
# Stress axis : x y z
#
# Youngs Moduli (GPa) = 104.76252 89.58741 59.71418
#
# Poissons Ratio (x) = 0.26929 0.14191
# Poissons Ratio (y) = 0.31490 0.09235
# Poissons Ratio (z) = 0.24897 0.13856
#
# Static dielectric constant tensor:
#      x y z
#    x 1.855990 0.004950 0.004620 
#    y 0.004950 1.886940 -0.062250 
#    z 0.004620 -0.062250 2.033710 
# 
# From -- ./inp_files/294369.got.cif
#   From: 2010.05.17/outbox.cif.g08.bks.cpg/sg2_148_cif.got.tgz:294369.got - 2010.06.03 11:33:40.
