data_PCOD9042838
_publ_section_title
;
Structure prediction by ZEFSAII (Michael W. Deem and Ramdas Pophale) SiO2 
 PCOD9042838
Probable space group: P -1
;
_chemical_formula_sum "Si O2"
_cell_formula_units_Z 14
_cell_length_a 15.649492
_cell_length_b 13.614974
_cell_length_c 10.224701
_cell_angle_alpha 74.043972
_cell_angle_beta 86.036543
_cell_angle_gamma 153.721944
_cell_volume 622.263704
_symmetry_space_group_name_H-M "P -1"
_symmetry_group_IT_number 2
_symmetry_cell_setting 'triclinic'
loop_
_space_group_symop_operation_xyz
x,y,z
-x,-y,-z
loop_
_atom_site_type_symbol
_atom_site_label
_atom_site_fract_x
_atom_site_fract_y
_atom_site_fract_z
Si Si1 0.511459 0.134768 0.565501
Si Si2 0.550523 0.802084 0.202121
Si Si3 0.039767 0.883903 0.874993
Si Si4 0.442859 0.829766 0.745648
Si Si5 0.811043 0.140362 0.785050
Si Si6 0.066655 0.958284 0.542330
Si Si7 0.521131 0.423556 0.113283
O O1 0.425285 0.120086 0.686322
O O2 0.451367 0.091462 0.436015
O O3 0.855593 0.506006 0.396108
O O4 0.373764 0.869337 0.715190
O O5 0.219281 0.426121 0.333476
O O6 0.674796 0.827858 0.187320
O O7 0.727346 0.058560 0.974909
O O8 0.105552 0.983276 0.681869
O O9 0.828481 0.545315 0.040579
O O10 0.844213 0.755404 0.988899
O O11 0.693419 0.099497 0.726188
O O12 0.626376 0.834087 0.862563
O O13 0.000000 0.000000 0.500000
O O14 0.337259 0.228888 0.333217
O O15 0.500000 0.500000 0.000000
#
# Coordination Sequence:
#
# PCOD9042838 Si02
#       7
#     2   2   2   2   2   2   2
#     4  11  24  42  67  97 136 174 229 270 332 391
#     4  12  25  41  69 103 131 175 225 278 325 402
#     4  11  25  42  67  98 138 169 224 275 333 394
#     4  10  23  45  64  96 135 182 214 279 332 390
#     4  11  22  43  66  95 136 173 225 269 336 395
#     4  12  24  46  69  98 135 176 222 272 337 399
#     4  11  22  45  70  92 134 177 212 277 334 392
#
# _framework density 22.498498999999999
#
# number of rings (size 3 to 8) (size 9 to 14) (size 15 to 20)
#    0.000    0.857    7.143    0.429    4.000    1.714 
#    0.000    1.429    0.000    0.000    0.000    0.000 
#    0.000    0.000    0.000    0.000    0.000    0.000 
#
# Total GULP energy -78334.649987 kJ/mol
# GULP energy per Si atom -5595.332142 kJ/mol
# Density = 2.244729 g / cm^3
# Si number density = 22.498499 Si / 1000 Ang^3
#
#
#
# Elastic Constant Matrix: (Units=GPa)
#
#
# Indices 1 2 3 4 5 6 
#
# 1 46.6425 6.4098 36.0188 -0.7420 0.8914 15.9377
# 2 6.4098 60.8834 31.8283 10.8121 -5.1592 23.8905
# 3 36.0188 31.8283 163.6686 12.6796 -10.1248 27.4948
# 4 -0.7420 10.8121 12.6796 28.4313 6.1878 8.7521
# 5 0.8914 -5.1592 -10.1248 6.1878 47.3733 -2.5989
# 6 15.9377 23.8905 27.4948 8.7521 -2.5989 42.4969
#
#
#
# Elastic Compliance Matrix: (Units=1/GPa)
#
#
# Indices 1 2 3 4 5 6 
#
# 1 0.029226 0.002624 -0.005906 0.006119 -0.002877 -0.010051
# 2 0.002624 0.022838 -0.002708 -0.004405 0.001828 -0.011052
# 3 -0.005906 -0.002708 0.008458 -0.003018 0.001964 -0.000994
# 4 0.006119 -0.004405 -0.003018 0.042044 -0.007113 -0.006960
# 5 -0.002877 0.001828 0.001964 -0.007113 0.022801 0.001640
# 6 -0.010051 -0.011052 -0.000994 -0.006960 0.001640 0.035690
#
#
# Mechanical properties :
#
#
# Convention : Reuss Voigt Hill
#
# Bulk Modulus (GPa) = 20.59984 46.63424 33.61704
# Shear Modulus (GPa) = 26.42451 36.78949 31.60700
#
# Velocity S-wave (km/s) = 3.43082 4.04814 3.75220
# Velocity P-wave (km/s) = 4.98698 6.52860 5.80916
#
# Compressibility (1/GPa) = 0.04854408
#
# Stress axis : x y z
#
# Youngs Moduli (GPa) = 34.21557 43.78647 118.22585
#
# Poissons Ratio (x) = -0.11490 0.69821
# Poissons Ratio (y) = -0.08978 0.32013
# Poissons Ratio (z) = 0.20207 0.11856
#
# Static dielectric constant tensor:
#      x y z
#    x 1.841240 -0.002040 0.002290 
#    y -0.002040 1.886000 -0.018030 
#    z 0.002290 -0.018030 1.802180 
# 
# From -- ./inp_files/314923.got.cif
#   From: 2010.05.17/outbox.cif.g08.bks.cpg/sg2_158_cif.got.tgz:314923.got - 2010.06.03 11:33:40.
