data_PCOD9042506
_publ_section_title
;
Structure prediction by ZEFSAII (Michael W. Deem and Ramdas Pophale) SiO2 
 PCOD9042506
Probable space group: P -1
;
_chemical_formula_sum "Si O2"
_cell_formula_units_Z 14
_cell_length_a 14.270241
_cell_length_b 5.075862
_cell_length_c 20.547445
_cell_angle_alpha 93.368177
_cell_angle_beta 21.574034
_cell_angle_gamma 94.649651
_cell_volume 544.900256
_symmetry_space_group_name_H-M "P -1"
_symmetry_group_IT_number 2
_symmetry_cell_setting 'triclinic'
loop_
_space_group_symop_operation_xyz
x,y,z
-x,-y,-z
loop_
_atom_site_type_symbol
_atom_site_label
_atom_site_fract_x
_atom_site_fract_y
_atom_site_fract_z
Si Si1 0.757361 0.001124 0.487937
Si Si2 0.709209 0.695175 0.401198
Si Si3 0.046365 0.790593 0.058992
Si Si4 0.110839 0.849524 0.367017
Si Si5 0.681299 0.690461 0.170291
Si Si6 0.620259 0.608821 0.828677
Si Si7 0.122138 0.398307 0.201065
O O1 0.600753 0.221634 0.628336
O O2 0.010472 0.103859 0.284734
O O3 0.585184 0.883912 0.537305
O O4 0.880157 0.832435 0.462952
O O5 0.500000 0.500000 0.500000
O O6 0.899615 0.802138 0.222559
O O7 0.873777 0.531827 0.341480
O O8 0.834409 0.697790 0.140234
O O9 0.266315 0.582676 0.903660
O O10 0.178554 0.074786 0.959272
O O11 0.225703 0.586866 0.316632
O O12 0.331394 0.076255 0.203536
O O13 0.000000 0.000000 0.500000
O O14 0.745816 0.521273 0.814921
O O15 0.332346 0.488910 0.014117
#
# Coordination Sequence:
#
# PCOD9042506 Si02
#       7
#     2   2   2   2   2   2   2
#     4  11  26  44  73 103 147 186 240 298 361 422
#     4  12  27  43  72 106 145 191 245 295 355 424
#     4  10  25  44  67  95 137 187 240 285 347 413
#     4  11  24  44  73 106 142 183 234 294 362 429
#     4  10  24  45  68  95 137 186 235 289 349 419
#     4  10  23  44  72 102 140 181 233 294 354 423
#     4  10  24  42  70 101 141 182 234 294 358 415
#
# _framework density 25.692777
#
# number of rings (size 3 to 8) (size 9 to 14) (size 15 to 20)
#    0.000    1.429    1.429    1.286   12.000    5.143 
#    0.000    0.000    0.000    0.000    0.000    0.000 
#    0.000    0.000    0.000    0.000    0.000    0.000 
#
# Total GULP energy -78171.573134 kJ/mol
# GULP energy per Si atom -5583.683795 kJ/mol
# Density = 2.563430 g / cm^3
# Si number density = 25.692777 Si / 1000 Ang^3
#
#
#
# Elastic Constant Matrix: (Units=GPa)
#
#
# Indices 1 2 3 4 5 6 
#
# 1 81.8250 0.9789 17.7804 -3.8236 16.0530 10.7858
# 2 0.9789 59.4145 -1.1038 10.1328 -6.3136 -0.5749
# 3 17.7804 -1.1038 83.5102 -6.5441 -2.7667 3.5221
# 4 -3.8236 10.1328 -6.5441 34.7059 -4.9018 8.5013
# 5 16.0530 -6.3136 -2.7667 -4.9018 37.6073 0.0409
# 6 10.7858 -0.5749 3.5221 8.5013 0.0409 27.1535
#
#
#
# Elastic Compliance Matrix: (Units=1/GPa)
#
#
# Indices 1 2 3 4 5 6 
#
# 1 0.015128 -0.001433 -0.003028 0.002120 -0.006638 -0.006300
# 2 -0.001433 0.018165 0.000080 -0.005701 0.002921 0.002724
# 3 -0.003028 0.000080 0.012984 0.002795 0.002627 -0.001359
# 4 0.002120 -0.005701 0.002795 0.034625 0.002870 -0.012170
# 5 -0.006638 0.002921 0.002627 0.002870 0.030480 0.001413
# 6 -0.006300 0.002724 -0.001359 -0.012170 0.001413 0.043372
#
#
# Mechanical properties :
#
#
# Convention : Reuss Voigt Hill
#
# Bulk Modulus (GPa) = 26.65595 28.89562 27.77579
# Shear Modulus (GPa) = 28.40567 33.69963 31.05265
#
# Velocity S-wave (km/s) = 3.32865 3.62558 3.48028
# Velocity P-wave (km/s) = 5.01703 5.36633 5.19462
#
# Compressibility (1/GPa) = 0.03751508
#
# Stress axis : x y z
#
# Youngs Moduli (GPa) = 66.10204 55.05079 77.01964
#
# Poissons Ratio (x) = 0.07891 0.23321
# Poissons Ratio (y) = 0.09475 -0.00620
# Poissons Ratio (z) = 0.20015 -0.00443
#
# Static dielectric constant tensor:
#      x y z
#    x 2.085840 0.161070 0.036660 
#    y 0.161070 2.413930 0.036200 
#    z 0.036660 0.036200 2.066490 
# 
# From -- ./inp_files/229587.got.cif
#   From: 2010.05.17/outbox.cif.g08.bks.cpg/sg2_115_cif.got.tgz:229587.got - 2010.06.03 11:33:40.
