data_PCOD9042250
_publ_section_title
;
Structure prediction by ZEFSAII (Michael W. Deem and Ramdas Pophale) SiO2 
 PCOD9042250
Probable space group: P -1
;
_chemical_formula_sum "Si O2"
_cell_formula_units_Z 16
_cell_length_a 25.423309
_cell_length_b 5.097377
_cell_length_c 5.445640
_cell_angle_alpha 84.732102
_cell_angle_beta 119.433061
_cell_angle_gamma 100.967836
_cell_volume 603.398555
_symmetry_space_group_name_H-M "P -1"
_symmetry_group_IT_number 2
_symmetry_cell_setting 'triclinic'
loop_
_space_group_symop_operation_xyz
x,y,z
-x,-y,-z
loop_
_atom_site_type_symbol
_atom_site_label
_atom_site_fract_x
_atom_site_fract_y
_atom_site_fract_z
Si Si1 0.465447 0.890647 0.181312
Si Si2 0.752775 0.218086 0.490515
Si Si3 0.373411 0.958426 0.606104
Si Si4 0.864148 0.644162 0.258708
Si Si5 0.736438 0.726694 0.181675
Si Si6 0.393496 0.482420 0.335567
Si Si7 0.881216 0.191894 0.002903
Si Si8 0.009871 0.169113 0.253436
O O1 0.442926 0.580126 0.227884
O O2 0.500000 0.000000 0.500000
O O3 0.397982 0.957223 0.943208
O O4 0.500000 0.000000 0.000000
O O5 0.740185 0.520734 0.434040
O O6 0.700222 0.065912 0.562065
O O7 0.739373 0.033244 0.234891
O O8 0.824237 0.221188 0.699609
O O9 0.406219 0.228576 0.534526
O O10 0.390070 0.714020 0.507054
O O11 0.797524 0.685120 0.185307
O O12 0.864678 0.347265 0.191929
O O13 0.919464 0.698083 0.575133
O O14 0.879696 0.876544 0.068037
O O15 0.673355 0.604768 0.922579
O O16 0.951734 0.324287 0.101727
O O17 0.000000 0.000000 0.500000
O O18 0.000000 0.000000 0.000000
#
# Coordination Sequence:
#
# PCOD9042250 Si02
#       8
#     2   2   2   2   2   2   2   2
#     4  12  28  54  82 120 160 207 260 317 384 468
#     4  12  24  42  72 109 150 198 256 321 385 458
#     4  12  27  50  79 112 158 206 259 321 389 461
#     4  11  23  43  66 102 146 198 252 315 384 456
#     4  12  24  42  72 109 150 198 256 321 385 458
#     4  12  27  50  79 112 158 206 259 321 389 461
#     4  11  23  43  66 102 146 198 252 315 384 456
#     4  10  23  44  70 102 148 196 254 312 380 455
#
# _framework density 26.516468
#
# number of rings (size 3 to 8) (size 9 to 14) (size 15 to 20)
#    0.000    0.500    2.500    5.625    0.000    3.000 
#    0.000    5.625    0.000    0.000    0.000    0.000 
#    0.000    0.000    0.000    0.000    0.000    0.000 
#
# Total GULP energy -89496.381943 kJ/mol
# GULP energy per Si atom -5593.523871 kJ/mol
# Density = 2.645612 g / cm^3
# Si number density = 26.516468 Si / 1000 Ang^3
#
#
#
# Elastic Constant Matrix: (Units=GPa)
#
#
# Indices 1 2 3 4 5 6 
#
# 1 141.6738 19.3241 39.7359 12.3255 7.3031 10.7829
# 2 19.3241 103.3231 38.6488 -3.6131 0.1995 2.5522
# 3 39.7359 38.6488 179.3749 14.0762 26.4481 7.0057
# 4 12.3255 -3.6131 14.0762 54.2020 -1.3426 2.8945
# 5 7.3031 0.1995 26.4481 -1.3426 50.0669 4.7825
# 6 10.7829 2.5522 7.0057 2.8945 4.7825 43.9873
#
#
#
# Elastic Compliance Matrix: (Units=1/GPa)
#
#
# Indices 1 2 3 4 5 6 
#
# 1 0.007815 -0.000989 -0.001295 -0.001434 -0.000345 -0.001520
# 2 -0.000989 0.010841 -0.002451 0.001634 0.001465 -0.000263
# 3 -0.001295 -0.002451 0.007062 -0.001782 -0.003564 -0.000160
# 4 -0.001434 0.001634 -0.001782 0.019441 0.001754 -0.000929
# 5 -0.000345 0.001465 -0.003564 0.001754 0.022134 -0.001955
# 6 -0.001520 -0.000263 -0.000160 -0.000929 -0.001955 0.023421
#
#
# Mechanical properties :
#
#
# Convention : Reuss Voigt Hill
#
# Bulk Modulus (GPa) = 61.54853 68.86549 65.20701
# Shear Modulus (GPa) = 47.34907 51.42878 49.38892
#
# Velocity S-wave (km/s) = 4.23028 4.40876 4.32044
# Velocity P-wave (km/s) = 6.86456 7.20718 7.03795
#
# Compressibility (1/GPa) = 0.01624734
#
# Stress axis : x y z
#
# Youngs Moduli (GPa) = 127.96044 92.24370 141.61239
#
# Poissons Ratio (x) = 0.09123 0.18344
# Poissons Ratio (y) = 0.12655 0.34704
# Poissons Ratio (z) = 0.16575 0.22606
#
# Static dielectric constant tensor:
#      x y z
#    x 2.399670 0.138220 -0.063000 
#    y 0.138220 2.127790 -0.076250 
#    z -0.063000 -0.076250 2.135910 
# 
# From -- ./inp_files/121688.got.cif
#   From: 2010.05.17/outbox.cif.g08.bks.cpg/sg2_61_cif.got.tgz:121688.got - 2010.06.03 11:33:40.
