data_PCOD9042050
_publ_section_title
;
Structure prediction by ZEFSAII (Michael W. Deem and Ramdas Pophale) SiO2 
 PCOD9042050
Probable space group: P -1
;
_chemical_formula_sum "Si O2"
_cell_formula_units_Z 16
_cell_length_a 10.137911
_cell_length_b 6.229806
_cell_length_c 16.936053
_cell_angle_alpha 46.877179
_cell_angle_beta 116.476691
_cell_angle_gamma 120.116025
_cell_volume 666.305972
_symmetry_space_group_name_H-M "P -1"
_symmetry_group_IT_number 2
_symmetry_cell_setting 'triclinic'
loop_
_space_group_symop_operation_xyz
x,y,z
-x,-y,-z
loop_
_atom_site_type_symbol
_atom_site_label
_atom_site_fract_x
_atom_site_fract_y
_atom_site_fract_z
Si Si1 0.349162 0.741912 0.283900
Si Si2 0.886943 0.438320 0.876913
Si Si3 0.817731 0.399285 0.166823
Si Si4 0.651436 0.927505 0.526906
Si Si5 0.893273 0.215081 0.395492
Si Si6 0.117773 0.884349 0.313053
Si Si7 0.327780 0.775147 0.992385
Si Si8 0.482176 0.613336 0.877993
O O1 0.249741 0.663744 0.197244
O O2 0.390169 0.440530 0.397235
O O3 0.240503 0.820620 0.300762
O O4 0.490867 0.034284 0.225277
O O5 0.817782 0.257055 0.982780
O O6 0.036244 0.374480 0.895024
O O7 0.926712 0.810259 0.800241
O O8 0.877845 0.219743 0.295413
O O9 0.699481 0.546237 0.144148
O O10 0.500000 0.000000 0.500000
O O11 0.727872 0.084538 0.426765
O O12 0.791284 0.043909 0.597922
O O13 0.977405 0.567761 0.355667
O O14 0.000000 0.000000 0.500000
O O15 0.372725 0.462263 0.103027
O O16 0.279259 0.792041 0.884538
O O17 0.500000 0.000000 0.000000
O O18 0.500000 0.500000 0.000000
#
# Coordination Sequence:
#
# PCOD9042050 Si02
#       8
#     2   2   2   2   2   2   2   2
#     4  11  22  45  71 101 145 186 236 295 361 429
#     4  11  22  43  71 103 136 181 241 290 351 434
#     4  11  25  42  70 105 137 186 238 295 356 425
#     4  11  27  43  72 108 136 188 247 302 356 423
#     4  12  24  48  69  99 145 187 237 296 366 422
#     4  11  23  44  71  97 138 190 232 292 366 421
#     4  11  24  46  69 104 146 187 238 296 361 438
#     4  10  23  44  69 100 143 192 227 292 368 419
#
# _framework density 24.012992000000001
#
# number of rings (size 3 to 8) (size 9 to 14) (size 15 to 20)
#    0.000    1.000    3.750    3.000    1.750    3.500 
#    0.000    6.250    0.000    0.000    0.000    0.000 
#    0.000    0.000    0.000    0.000    0.000    0.000 
#
# Total GULP energy -89389.584059 kJ/mol
# GULP energy per Si atom -5586.849004 kJ/mol
# Density = 2.395834 g / cm^3
# Si number density = 24.012992 Si / 1000 Ang^3
#
#
#
# Elastic Constant Matrix: (Units=GPa)
#
#
# Indices 1 2 3 4 5 6 
#
# 1 143.0539 13.5271 44.1457 -12.6121 -25.8278 17.5651
# 2 13.5271 88.4660 68.0009 -13.7966 -0.7512 11.2595
# 3 44.1457 68.0009 126.8970 1.0970 -23.6462 14.1594
# 4 -12.6121 -13.7966 1.0970 51.0690 10.6484 -2.4797
# 5 -25.8278 -0.7512 -23.6462 10.6484 44.7822 1.2872
# 6 17.5651 11.2595 14.1594 -2.4797 1.2872 32.6216
#
#
#
# Elastic Compliance Matrix: (Units=1/GPa)
#
#
# Indices 1 2 3 4 5 6 
#
# 1 0.009034 0.001823 -0.003059 0.001901 0.003293 -0.004151
# 2 0.001823 0.024157 -0.015061 0.009005 -0.008587 -0.001759
# 3 -0.003059 -0.015061 0.019210 -0.007434 0.009964 -0.002451
# 4 0.001901 0.009005 -0.007434 0.024486 -0.008537 0.001293
# 5 0.003293 -0.008587 0.009964 -0.008537 0.031521 -0.005027
# 6 -0.004151 -0.001759 -0.002451 0.001293 -0.005027 0.034857
#
#
# Mechanical properties :
#
#
# Convention : Reuss Voigt Hill
#
# Bulk Modulus (GPa) = 50.48882 67.75159 59.12021
# Shear Modulus (GPa) = 27.40279 41.21077 34.30678
#
# Velocity S-wave (km/s) = 3.38178 4.14718 3.78388
# Velocity P-wave (km/s) = 6.02659 7.15597 6.61543
#
# Compressibility (1/GPa) = 0.01980636
#
# Stress axis : x y z
#
# Youngs Moduli (GPa) = 110.69458 41.39512 52.05572
#
# Poissons Ratio (x) = -0.07547 0.15926
# Poissons Ratio (y) = -0.20181 0.78402
# Poissons Ratio (z) = 0.33866 0.62346
#
# Static dielectric constant tensor:
#      x y z
#    x 2.039920 -0.107020 0.029900 
#    y -0.107020 2.039030 -0.017350 
#    z 0.029900 -0.017350 1.925100 
# 
# From -- ./inp_files/553269.got.cif
#   From: 2010.05.17/outbox.cif.g08.bks.cpg/sg2_277_cif.got.tgz:553269.got - 2010.06.03 11:33:40.
