data_PCOD9042630
_publ_section_title
;
Structure prediction by ZEFSAII (Michael W. Deem and Ramdas Pophale) SiO2 
 PCOD9042630
Probable space group: P -1
;
_chemical_formula_sum "Si O2"
_cell_formula_units_Z 16
_cell_length_a 23.604824
_cell_length_b 5.344210
_cell_length_c 6.687890
_cell_angle_alpha 85.387632
_cell_angle_beta 96.077568
_cell_angle_gamma 124.909029
_cell_volume 687.770756
_symmetry_space_group_name_H-M "P -1"
_symmetry_group_IT_number 2
_symmetry_cell_setting 'triclinic'
loop_
_space_group_symop_operation_xyz
x,y,z
-x,-y,-z
loop_
_atom_site_type_symbol
_atom_site_label
_atom_site_fract_x
_atom_site_fract_y
_atom_site_fract_z
Si Si1 0.978076 0.791526 0.193624
Si Si2 0.496774 0.729571 0.631428
Si Si3 0.257113 0.839360 0.893491
Si Si4 0.078081 0.769329 0.440760
Si Si5 0.152245 0.236068 0.750045
Si Si6 0.651025 0.110805 0.706971
Si Si7 0.874258 0.233898 0.953502
Si Si8 0.658021 0.657260 0.426294
O O1 0.915119 0.755221 0.293345
O O2 0.941530 0.457556 0.101170
O O3 0.050791 0.955291 0.319789
O O4 0.000000 0.000000 0.000000
O O5 0.500000 0.500000 0.500000
O O6 0.418471 0.530601 0.694650
O O7 0.500000 0.000000 0.500000
O O8 0.570036 0.907308 0.760428
O O9 0.223661 0.558319 0.742934
O O10 0.190217 0.768245 0.995205
O O11 0.291263 0.142402 0.750992
O O12 0.305009 0.828802 0.079318
O O13 0.000000 0.500000 0.500000
O O14 0.137807 0.979497 0.604130
O O15 0.106495 0.681118 0.273794
O O16 0.147323 0.102283 0.976943
O O17 0.665418 0.410786 0.570035
O O18 0.660878 0.896328 0.573188
#
# Coordination Sequence:
#
# PCOD9042630 Si02
#       8
#     2   2   2   2   2   2   2   2
#     4  11  21  43  66  92 123 158 215 288 347 410
#     4   8  16  37  68 105 141 181 240 302 348 403
#     4  11  28  45  66  99 147 189 237 282 357 443
#     4  12  23  43  74  91 121 172 225 286 363 411
#     4  11  25  43  63  97 132 174 224 283 353 432
#     4  10  23  44  73 105 147 194 238 300 357 411
#     4  11  25  44  62  96 134 169 220 292 343 427
#     4  10  23  44  73 106 145 192 245 294 354 425
#
# _framework density 23.263562
#
# number of rings (size 3 to 8) (size 9 to 14) (size 15 to 20)
#    0.000    1.500    2.500    1.500    3.500    2.500 
#    0.000    0.000    0.000    9.000    0.000    0.000 
#    0.000    0.000    0.000    0.000    0.000    0.000 
#
# Total GULP energy -89149.536137 kJ/mol
# GULP energy per Si atom -5571.846009 kJ/mol
# Density = 2.321061 g / cm^3
# Si number density = 23.263562 Si / 1000 Ang^3
#
#
#
# Elastic Constant Matrix: (Units=GPa)
#
#
# Indices 1 2 3 4 5 6 
#
# 1 103.3034 49.4864 43.9193 8.3283 17.1846 15.4044
# 2 49.4864 144.5923 56.5384 -7.9952 0.2097 8.0273
# 3 43.9193 56.5384 106.6384 2.0060 5.1432 21.1548
# 4 8.3283 -7.9952 2.0060 29.0891 0.1696 4.7597
# 5 17.1846 0.2097 5.1432 0.1696 35.5439 4.6888
# 6 15.4044 8.0273 21.1548 4.7597 4.6888 44.0779
#
#
#
# Elastic Compliance Matrix: (Units=1/GPa)
#
#
# Indices 1 2 3 4 5 6 
#
# 1 0.014597 -0.003895 -0.003223 -0.004719 -0.006326 -0.001663
# 2 -0.003895 0.010004 -0.004045 0.003998 0.002284 0.000806
# 3 -0.003223 -0.004045 0.013786 -0.000366 0.000214 -0.004737
# 4 -0.004719 0.003998 -0.000366 0.037363 0.002556 -0.003210
# 5 -0.006326 0.002284 0.000214 0.002556 0.031390 -0.001923
# 6 -0.001663 0.000806 -0.004737 -0.003210 -0.001923 0.025946
#
#
# Mechanical properties :
#
#
# Convention : Reuss Voigt Hill
#
# Bulk Modulus (GPa) = 62.26455 72.71360 67.48907
# Shear Modulus (GPa) = 31.10147 35.38151 33.24149
#
# Velocity S-wave (km/s) = 3.66036 3.90410 3.78419
# Velocity P-wave (km/s) = 6.68485 7.18658 6.94025
#
# Compressibility (1/GPa) = 0.01606050
#
# Stress axis : x y z
#
# Youngs Moduli (GPa) = 68.50706 99.96265 72.53898
#
# Poissons Ratio (x) = 0.38935 0.23380
# Poissons Ratio (y) = 0.26683 0.29342
# Poissons Ratio (z) = 0.22080 0.40435
#
# Static dielectric constant tensor:
#      x y z
#    x 1.852880 -0.162180 -0.326640 
#    y -0.162180 2.073270 -0.194280 
#    z -0.326640 -0.194280 1.023660 
# 
# From -- ./inp_files/125823.got.cif
#   From: 2010.05.17/outbox.cif.g08.bks.cpg/sg2_63_cif.got.tgz:125823.got - 2010.06.03 11:33:40.
