data_PCOD9042720
_publ_section_title
;
Structure prediction by ZEFSAII (Michael W. Deem and Ramdas Pophale) SiO2 
 PCOD9042720
Probable space group: P -1
;
_chemical_formula_sum "Si O2"
_cell_formula_units_Z 14
_cell_length_a 12.032572
_cell_length_b 9.136070
_cell_length_c 8.879104
_cell_angle_alpha 128.773481
_cell_angle_beta 65.645454
_cell_angle_gamma 93.718839
_cell_volume 667.069139
_symmetry_space_group_name_H-M "P -1"
_symmetry_group_IT_number 2
_symmetry_cell_setting 'triclinic'
loop_
_space_group_symop_operation_xyz
x,y,z
-x,-y,-z
loop_
_atom_site_type_symbol
_atom_site_label
_atom_site_fract_x
_atom_site_fract_y
_atom_site_fract_z
Si Si1 0.508301 0.811381 0.111671
Si Si2 0.771713 0.744773 0.765700
Si Si3 0.385923 0.492865 0.887647
Si Si4 0.308773 0.232755 0.514775
Si Si5 0.966527 0.718205 0.216653
Si Si6 0.986238 0.964661 0.810614
Si Si7 0.146702 0.640003 0.337835
O O1 0.532636 0.691033 0.177849
O O2 0.413480 0.024958 0.316799
O O3 0.640782 0.829866 0.983639
O O4 0.456917 0.662070 0.938606
O O5 0.733545 0.703404 0.590967
O O6 0.865353 0.881529 0.801294
O O7 0.842725 0.551489 0.693375
O O8 0.348451 0.398538 0.696423
O O9 0.265979 0.591824 0.127122
O O10 0.184014 0.199872 0.642638
O O11 0.025043 0.705407 0.340768
O O12 0.030051 0.843181 0.154906
O O13 0.000000 0.500000 0.000000
O O14 0.118148 0.816997 0.584318
O O15 0.000000 0.000000 0.000000
#
# Coordination Sequence:
#
# PCOD9042720 Si02
#       7
#     2   2   2   2   2   2   2
#     4  10  24  47  64 102 140 184 235 285 339 413
#     4  11  26  45  68 101 146 179 226 297 336 412
#     4  10  23  44  74  97 136 184 236 286 343 410
#     4  12  24  42  74  98 138 187 231 286 344 411
#     4  12  25  43  70 102 135 180 230 282 349 418
#     4  12  27  42  70 106 138 183 225 288 356 411
#     4  11  23  46  68  99 143 175 229 283 351 407
#
# _framework density 20.98733
#
# number of rings (size 3 to 8) (size 9 to 14) (size 15 to 20)
#    0.000    0.857    2.857    3.429    6.000    0.571 
#    7.714    0.000    0.000    0.000    0.000    0.000 
#    0.000    0.000    0.000    0.000    0.000    0.000 
#
# Total GULP energy -78263.464631 kJ/mol
# GULP energy per Si atom -5590.247474 kJ/mol
# Density = 2.093956 g / cm^3
# Si number density = 20.987330 Si / 1000 Ang^3
#
#
#
# Elastic Constant Matrix: (Units=GPa)
#
#
# Indices 1 2 3 4 5 6 
#
# 1 106.0008 53.8007 53.4925 -0.2526 10.0193 -3.4708
# 2 53.8007 134.2734 70.3726 9.7433 -5.8330 11.1729
# 3 53.4925 70.3726 121.1258 2.2957 9.9496 -11.6246
# 4 -0.2526 9.7433 2.2957 18.9194 -6.6535 1.4370
# 5 10.0193 -5.8330 9.9496 -6.6535 38.9091 -8.5224
# 6 -3.4708 11.1729 -11.6246 1.4370 -8.5224 22.2781
#
#
#
# Elastic Compliance Matrix: (Units=1/GPa)
#
#
# Indices 1 2 3 4 5 6 
#
# 1 0.013418 -0.003977 -0.003308 0.001599 -0.002661 0.001238
# 2 -0.003977 0.014453 -0.007744 -0.005053 0.001932 -0.010844
# 3 -0.003308 -0.007744 0.015375 0.000637 -0.001796 0.010663
# 4 0.001599 -0.005053 0.000637 0.058452 0.009299 0.002903
# 5 -0.002661 0.001932 -0.001796 0.009299 0.030654 0.008806
# 6 0.001238 -0.010844 0.010663 0.002903 0.008806 0.059264
#
#
# Mechanical properties :
#
#
# Convention : Reuss Voigt Hill
#
# Bulk Modulus (GPa) = 75.83244 79.63685 77.73465
# Shear Modulus (GPa) = 22.11725 28.27027 25.19376
#
# Velocity S-wave (km/s) = 3.24981 3.67415 3.46848
# Velocity P-wave (km/s) = 7.09173 7.48510 7.29107
#
# Compressibility (1/GPa) = 0.01318697
#
# Stress axis : x y z
#
# Youngs Moduli (GPa) = 74.52877 69.19201 65.04235
#
# Poissons Ratio (x) = 0.27519 0.21515
# Poissons Ratio (y) = 0.29641 0.50368
# Poissons Ratio (z) = 0.24653 0.53582
#
# Static dielectric constant tensor:
#      x y z
#    x 1.745120 0.014140 -0.015170 
#    y 0.014140 1.716590 0.006190 
#    z -0.015170 0.006190 1.772050 
# 
# From -- ./inp_files/180808.got.cif
#   From: 2010.05.17/outbox.cif.g08.bks.cpg/sg2_91_cif.got.tgz:180808.got - 2010.06.03 11:33:40.
