data_PCOD9042411
_publ_section_title
;
Structure prediction by ZEFSAII (Michael W. Deem and Ramdas Pophale) SiO2 
 PCOD9042411
Probable space group: P -1
;
_chemical_formula_sum "Si O2"
_cell_formula_units_Z 13
_cell_length_a 8.749977
_cell_length_b 9.886546
_cell_length_c 12.946010
_cell_angle_alpha 37.618810
_cell_angle_beta 51.943517
_cell_angle_gamma 57.662035
_cell_volume 535.733381
_symmetry_space_group_name_H-M "P -1"
_symmetry_group_IT_number 2
_symmetry_cell_setting 'triclinic'
loop_
_space_group_symop_operation_xyz
x,y,z
-x,-y,-z
loop_
_atom_site_type_symbol
_atom_site_label
_atom_site_fract_x
_atom_site_fract_y
_atom_site_fract_z
Si Si1 0.000000 0.500000 0.000000
Si Si2 0.774135 0.907008 0.206979
Si Si3 0.897913 0.773700 0.666199
Si Si4 0.464750 0.730790 0.815883
Si Si5 0.661542 0.794973 0.091955
Si Si6 0.536613 0.618130 0.638179
Si Si7 0.083274 0.558268 0.320036
O O1 0.938033 0.617933 0.843766
O O2 0.147380 0.287486 0.007233
O O3 0.709209 0.857416 0.150118
O O4 0.645960 0.773906 0.423518
O O5 0.994262 0.805371 0.187949
O O6 0.721143 0.152042 0.119812
O O7 0.668296 0.834937 0.694990
O O8 0.976957 0.618251 0.631563
O O9 0.000000 0.000000 0.500000
O O10 0.409234 0.737279 0.712440
O O11 0.500000 0.500000 0.000000
O O12 0.563166 0.562383 0.274454
O O13 0.500000 0.000000 0.000000
O O14 0.688789 0.479096 0.735025
O O15 0.000000 0.500000 0.500000
#
# Coordination Sequence:
#
# PCOD9042411 Si02
#       7
#     1   2   2   2   2   2   2
#     4  12  26  46  72 110 152 194 252 312 382 442
#     4  11  22  43  75 101 139 195 245 303 375 457
#     4  11  25  47  73 104 147 197 249 311 375 460
#     4  11  24  46  69 106 148 188 246 310 384 443
#     4  12  26  47  71 106 148 195 251 315 377 450
#     4  10  23  44  71 104 144 187 245 308 375 456
#     4   9  21  44  68 106 138 182 243 303 368 448
#
# _framework density 24.265802999999998
#
# number of rings (size 3 to 8) (size 9 to 14) (size 15 to 20)
#    0.000    1.231    1.538    3.692    2.154    4.923 
#   13.846    2.308    0.000    0.000    0.000    0.000 
#    0.000    0.000    0.000    0.000    0.000    0.000 
#
# Total GULP energy -72385.550631 kJ/mol
# GULP energy per Si atom -5568.119279 kJ/mol
# Density = 2.421057 g / cm^3
# Si number density = 24.265803 Si / 1000 Ang^3
#
#
#
# Elastic Constant Matrix: (Units=GPa)
#
#
# Indices 1 2 3 4 5 6 
#
# 1 46.6035 35.1509 30.2459 -8.9119 24.5018 12.0295
# 2 35.1509 204.5728 48.1894 17.5349 27.2877 1.0681
# 3 30.2459 48.1894 77.1036 16.6803 18.4139 9.0577
# 4 -8.9119 17.5349 16.6803 49.0234 10.6693 15.1182
# 5 24.5018 27.2877 18.4139 10.6693 52.8996 -4.5237
# 6 12.0295 1.0681 9.0577 15.1182 -4.5237 49.0238
#
#
#
# Elastic Compliance Matrix: (Units=1/GPa)
#
#
# Indices 1 2 3 4 5 6 
#
# 1 0.072211 -0.006066 -0.021659 0.038658 -0.033017 -0.028553
# 2 -0.006066 0.006448 -0.001361 -0.004082 0.001033 0.002954
# 3 -0.021659 -0.001361 0.023302 -0.014584 0.006086 0.006098
# 4 0.038658 -0.004082 -0.014584 0.045639 -0.021878 -0.022796
# 5 -0.033017 0.001033 0.006086 -0.021878 0.037424 0.017155
# 6 -0.028553 0.002954 0.006098 -0.022796 0.017155 0.034826
#
#
# Mechanical properties :
#
#
# Convention : Reuss Voigt Hill
#
# Bulk Modulus (GPa) = 22.83712 61.71694 42.27703
# Shear Modulus (GPa) = 17.08704 44.50226 30.79465
#
# Velocity S-wave (km/s) = 2.65648 4.28711 3.56625
# Velocity P-wave (km/s) = 4.34061 7.07069 5.86667
#
# Compressibility (1/GPa) = 0.04378836
#
# Stress axis : x y z
#
# Youngs Moduli (GPa) = 13.84826 155.09289 42.91510
#
# Poissons Ratio (x) = 0.94080 0.92951
# Poissons Ratio (y) = 0.08400 0.05841
# Poissons Ratio (z) = 0.29994 0.21107
#
# Static dielectric constant tensor:
#      x y z
#    x 2.160710 -0.327110 -0.174560 
#    y -0.327110 2.452580 0.128340 
#    z -0.174560 0.128340 2.108570 
# 
# From -- ./inp_files/240825.got.cif
#   From: 2010.05.17/outbox.cif.g08.bks.cpg/sg2_121_cif.got.tgz:240825.got - 2010.06.03 11:33:40.
