data_PCOD9042543
_publ_section_title
;
Structure prediction by ZEFSAII (Michael W. Deem and Ramdas Pophale) SiO2 
 PCOD9042543
Probable space group: P -1
;
_chemical_formula_sum "Si O2"
_cell_formula_units_Z 12
_cell_length_a 25.912447
_cell_length_b 23.564203
_cell_length_c 5.803593
_cell_angle_alpha 131.193264
_cell_angle_beta 129.492957
_cell_angle_gamma 10.222050
_cell_volume 471.259408
_symmetry_space_group_name_H-M "P -1"
_symmetry_group_IT_number 2
_symmetry_cell_setting 'triclinic'
loop_
_space_group_symop_operation_xyz
x,y,z
-x,-y,-z
loop_
_atom_site_type_symbol
_atom_site_label
_atom_site_fract_x
_atom_site_fract_y
_atom_site_fract_z
Si Si1 0.856330 0.287832 0.127931
Si Si2 0.863311 0.793557 0.886981
Si Si3 0.362562 0.624911 0.689131
Si Si4 0.385972 0.787035 0.494300
Si Si5 0.835397 0.613495 0.960637
Si Si6 0.729615 0.580640 0.308460
O O1 0.555089 0.597171 0.223327
O O2 0.039835 0.014783 0.831576
O O3 0.810129 0.408058 0.147032
O O4 0.076005 0.084898 0.396502
O O5 0.023906 0.551586 0.831814
O O6 0.669458 0.065579 0.209579
O O7 0.115372 0.566274 0.879689
O O8 0.619594 0.029113 0.651774
O O9 0.500000 0.500000 0.500000
O O10 0.416873 0.475757 0.467913
O O11 0.500000 0.500000 0.000000
O O12 0.859894 0.500798 0.633916
O O13 0.000000 0.500000 0.000000
O O14 0.500000 0.000000 0.000000
#
# Coordination Sequence:
#
# PCOD9042543 Si02
#       6
#     2   2   2   2   2   2
#     4  11  23  44  72 105 148 196 246 305 370 443
#     4  12  26  45  75 107 143 192 248 303 375 453
#     4  10  23  44  72 108 156 203 257 315 376 446
#     4  11  23  44  72 105 148 196 246 305 370 443
#     4  12  28  48  74 103 148 185 238 314 380 456
#     4  12  26  45  75 107 143 192 248 303 375 453
#
# _framework density 25.463681999999999
#
# number of rings (size 3 to 8) (size 9 to 14) (size 15 to 20)
#    0.000    0.667    1.667    5.500    2.333    6.667 
#    0.000    7.500    0.000    0.000    0.000    0.000 
#    0.000    0.000    0.000    0.000    0.000    0.000 
#
# Total GULP energy -67163.697977 kJ/mol
# GULP energy per Si atom -5596.974831 kJ/mol
# Density = 2.540573 g / cm^3
# Si number density = 25.463682 Si / 1000 Ang^3
#
#
#
# Elastic Constant Matrix: (Units=GPa)
#
#
# Indices 1 2 3 4 5 6 
#
# 1 155.2392 43.8991 26.9256 27.2783 41.5429 14.7408
# 2 43.8991 139.7228 25.6297 8.2997 28.1849 22.8339
# 3 26.9256 25.6297 129.6589 4.2153 9.7565 6.4546
# 4 27.2783 8.2997 4.2153 41.3762 -1.6770 10.1744
# 5 41.5429 28.1849 9.7565 -1.6770 44.8320 12.1074
# 6 14.7408 22.8339 6.4546 10.1744 12.1074 56.8620
#
#
#
# Elastic Compliance Matrix: (Units=1/GPa)
#
#
# Indices 1 2 3 4 5 6 
#
# 1 0.010675 -0.000949 -0.001120 -0.007398 -0.009630 0.001115
# 2 -0.000949 0.008844 -0.001129 -0.000638 -0.003853 -0.002243
# 3 -0.001120 -0.001129 0.008170 0.000189 0.000037 -0.000226
# 4 -0.007398 -0.000638 0.000189 0.030900 0.009849 -0.005473
# 5 -0.009630 -0.003853 0.000037 0.009849 0.035434 -0.005268
# 6 0.001115 -0.002243 -0.000226 -0.005473 -0.005268 0.020325
#
#
# Mechanical properties :
#
#
# Convention : Reuss Voigt Hill
#
# Bulk Modulus (GPa) = 46.95959 68.61439 57.78699
# Shear Modulus (GPa) = 39.11112 50.49180 44.80146
#
# Velocity S-wave (km/s) = 3.92338 4.45780 4.19910
# Velocity P-wave (km/s) = 6.24546 7.31440 6.80096
#
# Compressibility (1/GPa) = 0.02129490
#
# Stress axis : x y z
#
# Youngs Moduli (GPa) = 93.67471 113.07226 122.39179
#
# Poissons Ratio (x) = 0.10729 0.13704
# Poissons Ratio (y) = 0.08889 0.13815
# Poissons Ratio (z) = 0.10489 0.12763
#
# Static dielectric constant tensor:
#      x y z
#    x 1.962170 0.045140 -0.095950 
#    y 0.045140 1.954680 -0.041210 
#    z -0.095950 -0.041210 2.122070 
# 
# From -- ./inp_files/322850.got.cif
#   From: 2010.05.17/outbox.cif.g08.bks.cpg/sg2_162_cif.got.tgz:322850.got - 2010.06.03 11:33:40.
