data_PCOD9042689
_publ_section_title
;
Structure prediction by ZEFSAII (Michael W. Deem and Ramdas Pophale) SiO2 
 PCOD9042689
Probable space group: P -1
;
_chemical_formula_sum "Si O2"
_cell_formula_units_Z 13
_cell_length_a 5.044290
_cell_length_b 15.728995
_cell_length_c 14.812642
_cell_angle_alpha 27.225972
_cell_angle_beta 110.904391
_cell_angle_gamma 108.894395
_cell_volume 502.231467
_symmetry_space_group_name_H-M "P -1"
_symmetry_group_IT_number 2
_symmetry_cell_setting 'triclinic'
loop_
_space_group_symop_operation_xyz
x,y,z
-x,-y,-z
loop_
_atom_site_type_symbol
_atom_site_label
_atom_site_fract_x
_atom_site_fract_y
_atom_site_fract_z
Si Si1 0.298731 0.400099 0.141772
Si Si2 0.657283 0.795361 0.123894
Si Si3 0.650746 0.658524 0.594814
Si Si4 0.500000 0.000000 0.500000
Si Si5 0.162535 0.814660 0.292594
Si Si6 0.037553 0.667960 0.131041
Si Si7 0.028326 0.985643 0.309798
O O1 0.403018 0.423781 0.235208
O O2 0.296855 0.182034 0.324842
O O3 0.500000 0.500000 0.000000
O O4 0.000000 0.500000 0.000000
O O5 0.331427 0.736586 0.149805
O O6 0.878766 0.741627 0.278977
O O7 0.780023 0.709848 0.126577
O O8 0.693942 0.019039 0.905881
O O9 0.394076 0.664191 0.487964
O O10 0.905657 0.541053 0.694267
O O11 0.752703 0.872676 0.416307
O O12 0.719004 0.062238 0.548035
O O13 0.081387 0.909112 0.288030
O O14 0.011918 0.796641 0.917698
#
# Coordination Sequence:
#
# PCOD9042689 Si02
#       7
#     2   2   2   1   2   2   2
#     4  12  29  50  74 111 149 193 254 316 372 446
#     4  10  24  45  72 112 146 198 237 303 365 440
#     4  12  26  46  74 105 147 194 242 311 366 442
#     4  12  26  50  80 106 146 206 252 312 392 448
#     4  10  23  44  74 102 154 187 248 300 367 433
#     4  11  26  45  75 108 151 191 246 300 367 441
#     4  11  25  47  70 107 143 195 249 307 367 445
#
# _framework density 25.884475999999999
#
# number of rings (size 3 to 8) (size 9 to 14) (size 15 to 20)
#    0.000    0.923    3.077    1.846    4.308    9.231 
#    0.000    0.000    0.000    0.000    0.000    0.000 
#    0.000    0.000    0.000    0.000    0.000    0.000 
#
# Total GULP energy -72670.350169 kJ/mol
# GULP energy per Si atom -5590.026936 kJ/mol
# Density = 2.582556 g / cm^3
# Si number density = 25.884476 Si / 1000 Ang^3
#
#
#
# Elastic Constant Matrix: (Units=GPa)
#
#
# Indices 1 2 3 4 5 6 
#
# 1 84.2042 11.9476 36.8281 3.4637 9.6188 -3.2940
# 2 11.9476 94.0121 25.1047 26.7040 5.0221 6.4698
# 3 36.8281 25.1047 145.3208 9.2924 27.0995 8.8101
# 4 3.4637 26.7040 9.2924 57.6831 0.3130 21.0527
# 5 9.6188 5.0221 27.0995 0.3130 47.3107 3.5395
# 6 -3.2940 6.4698 8.8101 21.0527 3.5395 40.1681
#
#
#
# Elastic Compliance Matrix: (Units=1/GPa)
#
#
# Indices 1 2 3 4 5 6 
#
# 1 0.013646 -0.000744 -0.003235 -0.000856 -0.001023 0.002487
# 2 -0.000744 0.012846 -0.001665 -0.006181 -0.000330 0.001504
# 3 -0.003235 -0.001665 0.008845 0.000170 -0.004109 -0.001664
# 4 -0.000856 -0.006181 0.000170 0.024653 0.001480 -0.012163
# 5 -0.001023 -0.000330 -0.004109 0.001480 0.023874 -0.002009
# 6 0.002487 0.001504 -0.001664 -0.012163 -0.002009 0.031774
#
#
# Mechanical properties :
#
#
# Convention : Reuss Voigt Hill
#
# Bulk Modulus (GPa) = 41.58145 52.36644 46.97395
# Shear Modulus (GPa) = 37.05318 45.67614 41.36466
#
# Velocity S-wave (km/s) = 3.78760 4.20529 4.00190
# Velocity P-wave (km/s) = 5.93523 6.62224 6.28812
#
# Compressibility (1/GPa) = 0.02404918
#
# Stress axis : x y z
#
# Youngs Moduli (GPa) = 73.28354 77.84541 113.05825
#
# Poissons Ratio (x) = 0.05789 0.36574
# Poissons Ratio (y) = 0.05450 0.18825
# Poissons Ratio (z) = 0.23707 0.12962
#
# Static dielectric constant tensor:
#      x y z
#    x 2.018580 0.010180 -0.044090 
#    y 0.010180 2.023240 -0.024500 
#    z -0.044090 -0.024500 2.055460 
# 
# From -- ./inp_files/287630.got.cif
#   From: 2010.05.17/outbox.cif.g08.bks.cpg/sg2_144_cif.got.tgz:287630.got - 2010.06.03 11:33:40.
