data_PCOD9042479
_publ_section_title
;
Structure prediction by ZEFSAII (Michael W. Deem and Ramdas Pophale) SiO2 
 PCOD9042479
Probable space group: P -1
;
_chemical_formula_sum "Si O2"
_cell_formula_units_Z 12
_cell_length_a 5.372855
_cell_length_b 7.490411
_cell_length_c 14.696489
_cell_angle_alpha 76.046959
_cell_angle_beta 113.793751
_cell_angle_gamma 115.536274
_cell_volume 486.699024
_symmetry_space_group_name_H-M "P -1"
_symmetry_group_IT_number 2
_symmetry_cell_setting 'triclinic'
loop_
_space_group_symop_operation_xyz
x,y,z
-x,-y,-z
loop_
_atom_site_type_symbol
_atom_site_label
_atom_site_fract_x
_atom_site_fract_y
_atom_site_fract_z
Si Si1 0.044972 0.968478 0.171559
Si Si2 0.727500 0.178941 0.453275
Si Si3 0.066420 0.373452 0.105604
Si Si4 0.638919 0.560708 0.413556
Si Si5 0.671676 0.527068 0.117601
Si Si6 0.337596 0.053373 0.706422
O O1 0.385913 0.000666 0.215889
O O2 0.867448 0.755092 0.130656
O O3 0.908870 0.970278 0.251511
O O4 0.987227 0.147756 0.092248
O O5 0.608765 0.352462 0.390141
O O6 0.500000 0.000000 0.500000
O O7 0.981832 0.701500 0.460740
O O8 0.795458 0.079950 0.385340
O O9 0.413834 0.460532 0.161254
O O10 0.875616 0.399920 0.157676
O O11 0.000000 0.500000 0.000000
O O12 0.500000 0.500000 0.500000
O O13 0.519947 0.713779 0.329765
O O14 0.500000 0.500000 0.000000
#
# Coordination Sequence:
#
# PCOD9042479 Si02
#       6
#     2   2   2   2   2   2
#     4  12  27  45  66 108 146 179 235 299 361 406
#     4  11  24  46  71 101 138 192 250 287 351 432
#     4  10  23  44  72  99 131 183 233 284 348 431
#     4  11  25  44  73 100 136 193 248 281 343 436
#     4  10  23  44  72 100 135 182 236 283 352 428
#     4  12  27  45  70 104 150 184 228 307 356 403
#
# _framework density 24.655895999999998
#
# number of rings (size 3 to 8) (size 9 to 14) (size 15 to 20)
#    0.000    1.000    1.667    3.500    4.667    9.333 
#    0.000    0.000    0.000    0.000    0.000    0.000 
#    0.000    0.000    0.000    0.000    0.000    0.000 
#
# Total GULP energy -67193.450387 kJ/mol
# GULP energy per Si atom -5599.454199 kJ/mol
# Density = 2.459978 g / cm^3
# Si number density = 24.655896 Si / 1000 Ang^3
#
#
#
# Elastic Constant Matrix: (Units=GPa)
#
#
# Indices 1 2 3 4 5 6 
#
# 1 155.5340 38.6600 17.3533 -9.4905 5.2604 -2.5000
# 2 38.6600 179.7284 25.6070 -12.6605 17.1715 -12.0731
# 3 17.3533 25.6070 57.6209 -6.0567 -1.3376 -10.9718
# 4 -9.4905 -12.6605 -6.0567 42.2684 -8.2428 7.4370
# 5 5.2604 17.1715 -1.3376 -8.2428 28.2610 -3.4795
# 6 -2.5000 -12.0731 -10.9718 7.4370 -3.4795 49.9376
#
#
#
# Elastic Compliance Matrix: (Units=1/GPa)
#
#
# Indices 1 2 3 4 5 6 
#
# 1 0.006968 -0.001199 -0.001559 0.000982 -0.000412 -0.000459
# 2 -0.001199 0.006607 -0.002480 0.000522 -0.003676 0.000659
# 3 -0.001559 -0.002480 0.019908 0.001839 0.003729 0.003682
# 4 0.000982 0.000522 0.001839 0.026135 0.006861 -0.002835
# 5 -0.000412 -0.003676 0.003729 0.006861 0.040079 0.001681
# 6 -0.000459 0.000659 0.003682 -0.002835 0.001681 0.021510
#
#
# Mechanical properties :
#
#
# Convention : Reuss Voigt Hill
#
# Bulk Modulus (GPa) = 43.46719 61.79156 52.62937
# Shear Modulus (GPa) = 35.88011 44.84426 40.36218
#
# Velocity S-wave (km/s) = 3.81889 4.26937 4.05040
# Velocity P-wave (km/s) = 6.09205 7.02989 6.57771
#
# Compressibility (1/GPa) = 0.02300586
#
# Stress axis : x y z
#
# Youngs Moduli (GPa) = 143.51428 151.34548 50.23183
#
# Poissons Ratio (x) = 0.18144 0.07833
# Poissons Ratio (y) = 0.17206 0.12459
# Poissons Ratio (z) = 0.22379 0.37539
#
# Static dielectric constant tensor:
#      x y z
#    x 1.994230 -0.015620 0.037760 
#    y -0.015620 1.920590 -0.063100 
#    z 0.037760 -0.063100 1.945260 
# 
# From -- ./inp_files/8776.got.cif
#   From: 2010.05.17/outbox.cif.g08.bks.cpg/sg2_5_cif.got.tgz:8776.got - 2010.06.03 11:33:40.
