data_PCOD9042119
_publ_section_title
;
Structure prediction by ZEFSAII (Michael W. Deem and Ramdas Pophale) SiO2 
 PCOD9042119
Probable space group: P -1
;
_chemical_formula_sum "Si O2"
_cell_formula_units_Z 14
_cell_length_a 10.283277
_cell_length_b 9.792684
_cell_length_c 7.229177
_cell_angle_alpha 91.186661
_cell_angle_beta 74.912426
_cell_angle_gamma 52.016967
_cell_volume 538.133086
_symmetry_space_group_name_H-M "P -1"
_symmetry_group_IT_number 2
_symmetry_cell_setting 'triclinic'
loop_
_space_group_symop_operation_xyz
x,y,z
-x,-y,-z
loop_
_atom_site_type_symbol
_atom_site_label
_atom_site_fract_x
_atom_site_fract_y
_atom_site_fract_z
Si Si1 0.236183 0.484117 0.867437
Si Si2 0.890305 0.771294 0.164534
Si Si3 0.045382 0.851177 0.836234
Si Si4 0.195140 0.421951 0.470099
Si Si5 0.421977 0.701237 0.062223
Si Si6 0.109168 0.773952 0.389211
Si Si7 0.531669 0.069938 0.172447
O O1 0.222141 0.655809 0.830706
O O2 0.205420 0.425779 0.687773
O O3 0.425560 0.328930 0.871743
O O4 0.075278 0.562839 0.071949
O O5 0.910382 0.820671 0.947601
O O6 0.679115 0.904825 0.244133
O O7 0.000000 0.000000 0.000000
O O8 0.057675 0.861021 0.613969
O O9 0.049311 0.169925 0.686182
O O10 0.213258 0.563968 0.389540
O O11 0.342690 0.224021 0.337421
O O12 0.000000 0.500000 0.500000
O O13 0.241303 0.789646 0.237358
O O14 0.500000 0.500000 0.000000
O O15 0.403944 0.817949 0.903822
O O16 0.500000 0.000000 0.000000
#
# Coordination Sequence:
#
# PCOD9042119 Si02
#       7
#     2   2   2   2   2   2   2
#     4   9  22  42  69 103 144 193 247 299 355 457
#     4  10  23  44  69 108 147 190 247 302 380 425
#     4   9  22  40  66 107 152 184 235 304 370 420
#     4  11  24  48  74 103 148 198 251 299 374 448
#     4  12  23  46  76 110 145 195 256 290 375 444
#     4  11  24  45  78 108 144 204 244 305 360 457
#     4  12  28  47  73 108 155 190 245 324 366 437
#
# _framework density 26.01587
#
# number of rings (size 3 to 8) (size 9 to 14) (size 15 to 20)
#    0.857    0.571    2.857    0.857    4.000    5.143 
#    2.571    4.286    0.000    0.000    0.000    0.000 
#    0.000    0.000    0.000    0.000    0.000    0.000 
#
# Total GULP energy -78155.577643 kJ/mol
# GULP energy per Si atom -5582.541260 kJ/mol
# Density = 2.595666 g / cm^3
# Si number density = 26.015870 Si / 1000 Ang^3
#
#
#
# Elastic Constant Matrix: (Units=GPa)
#
#
# Indices 1 2 3 4 5 6 
#
# 1 114.2847 58.9229 52.9371 21.1912 14.1164 -30.5179
# 2 58.9229 136.2920 59.2071 14.6578 -2.6756 -24.3783
# 3 52.9371 59.2071 169.6648 22.3517 20.5280 -10.3912
# 4 21.1912 14.6578 22.3517 55.6288 4.5039 -10.0197
# 5 14.1164 -2.6756 20.5280 4.5039 53.3385 -2.1158
# 6 -30.5179 -24.3783 -10.3912 -10.0197 -2.1158 55.1671
#
#
#
# Elastic Compliance Matrix: (Units=1/GPa)
#
#
# Indices 1 2 3 4 5 6 
#
# 1 0.013837 -0.004042 -0.001971 -0.002298 -0.002715 0.004976
# 2 -0.004042 0.010668 -0.002656 -0.000050 0.002714 0.002073
# 3 -0.001971 -0.002656 0.007900 -0.001731 -0.002553 -0.001188
# 4 -0.002298 -0.000050 -0.001731 0.019946 -0.000333 0.001990
# 5 -0.002715 0.002714 -0.002553 -0.000333 0.020611 -0.000054
# 6 0.004976 0.002073 -0.001188 0.001990 -0.000054 0.021931
#
#
# Mechanical properties :
#
#
# Convention : Reuss Voigt Hill
#
# Bulk Modulus (GPa) = 66.37205 84.70840 75.54022
# Shear Modulus (GPa) = 42.64230 49.43849 46.04040
#
# Velocity S-wave (km/s) = 4.05296 4.36400 4.21135
# Velocity P-wave (km/s) = 6.88981 7.61732 7.26268
#
# Compressibility (1/GPa) = 0.01506658
#
# Stress axis : x y z
#
# Youngs Moduli (GPa) = 72.26903 93.73695 126.58225
#
# Poissons Ratio (x) = 0.37891 0.24946
# Poissons Ratio (y) = 0.29213 0.33625
# Poissons Ratio (z) = 0.14242 0.24900
#
# Static dielectric constant tensor:
#      x y z
#    x 2.246490 0.102030 -0.137550 
#    y 0.102030 2.259560 -0.034260 
#    z -0.137550 -0.034260 2.083070 
# 
# From -- ./inp_files/258467.got.cif
#   From: 2010.05.17/outbox.cif.g08.bks.cpg/sg2_130_cif.got.tgz:258467.got - 2010.06.03 11:33:40.
