data_PCOD9042566
_publ_section_title
;
Structure prediction by ZEFSAII (Michael W. Deem and Ramdas Pophale) SiO2 
 PCOD9042566
Probable space group: P -1
;
_chemical_formula_sum "Si O2"
_cell_formula_units_Z 10
_cell_length_a 11.463209
_cell_length_b 8.542320
_cell_length_c 6.097622
_cell_angle_alpha 89.499371
_cell_angle_beta 122.375878
_cell_angle_gamma 54.462767
_cell_volume 363.161088
_symmetry_space_group_name_H-M "P -1"
_symmetry_group_IT_number 2
_symmetry_cell_setting 'triclinic'
loop_
_space_group_symop_operation_xyz
x,y,z
-x,-y,-z
loop_
_atom_site_type_symbol
_atom_site_label
_atom_site_fract_x
_atom_site_fract_y
_atom_site_fract_z
Si Si1 0.211495 0.403629 0.726565
Si Si2 0.671937 0.410793 0.916367
Si Si3 0.889806 0.439094 0.782590
Si Si4 0.279074 0.996159 0.022500
Si Si5 0.577532 0.119566 0.333658
O O1 0.000000 0.500000 0.500000
O O2 0.273788 0.351449 0.538076
O O3 0.219060 0.582721 0.780525
O O4 0.360483 0.223468 0.059413
O O5 0.677329 0.223973 0.935153
O O6 0.464944 0.659084 0.708005
O O7 0.785646 0.397048 0.828978
O O8 0.000000 0.500000 0.000000
O O9 0.057090 0.213183 0.832211
O O10 0.353546 0.976470 0.353045
O O11 0.318747 0.000181 0.793698
#
# Coordination Sequence:
#
# PCOD9042566 Si02
#       5
#     2   2   2   2   2
#     4  10  23  44  72  97 145 186 232 278 363 414
#     4  10  24  44  75  99 147 186 232 287 357 423
#     4  12  25  46  70 102 148 192 236 288 348 428
#     4  12  26  45  74 113 138 183 242 291 355 412
#     4  10  25  45  74 106 145 179 234 301 351 413
#
# _framework density 27.535989000000001
#
# number of rings (size 3 to 8) (size 9 to 14) (size 15 to 20)
#    1.200    0.000    2.000    3.000    5.600    0.800 
#    0.000   14.000    0.000    0.000    0.000    0.000 
#    0.000    0.000    0.000    0.000    0.000    0.000 
#
# Total GULP energy -55684.779632 kJ/mol
# GULP energy per Si atom -5568.477963 kJ/mol
# Density = 2.747332 g / cm^3
# Si number density = 27.535989 Si / 1000 Ang^3
#
#
#
# Elastic Constant Matrix: (Units=GPa)
#
#
# Indices 1 2 3 4 5 6 
#
# 1 126.4791 33.6786 69.3649 12.8655 -38.3301 -31.5728
# 2 33.6786 144.0803 41.1639 19.8266 -26.0617 -25.4949
# 3 69.3649 41.1639 271.3306 6.3208 -39.0286 1.3772
# 4 12.8655 19.8266 6.3208 37.6635 6.1412 -4.4153
# 5 -38.3301 -26.0617 -39.0286 6.1412 48.1820 -0.5974
# 6 -31.5728 -25.4949 1.3772 -4.4153 -0.5974 49.7706
#
#
#
# Elastic Compliance Matrix: (Units=1/GPa)
#
#
# Indices 1 2 3 4 5 6 
#
# 1 0.016053 0.002208 -0.002458 -0.007076 0.013011 0.010911
# 2 0.002208 0.009938 -0.000909 -0.006311 0.007274 0.006044
# 3 -0.002458 -0.000909 0.004645 0.000081 0.001278 -0.002131
# 4 -0.007076 -0.006311 0.000081 0.033882 -0.013356 -0.004878
# 5 0.013011 0.007274 0.001278 -0.013356 0.037917 0.011215
# 6 0.010911 0.006044 -0.002131 -0.004878 0.011215 0.029870
#
#
# Mechanical properties :
#
#
# Convention : Reuss Voigt Hill
#
# Bulk Modulus (GPa) = 35.31539 92.25609 63.78574
# Shear Modulus (GPa) = 34.70707 53.63541 44.17124
#
# Velocity S-wave (km/s) = 3.55410 4.41821 4.00950
# Velocity P-wave (km/s) = 5.44933 7.72036 6.68203
#
# Compressibility (1/GPa) = 0.02831627
#
# Stress axis : x y z
#
# Youngs Moduli (GPa) = 62.29401 100.62393 215.29995
#
# Poissons Ratio (x) = -0.22214 0.52918
# Poissons Ratio (y) = -0.13752 0.19579
# Poissons Ratio (z) = 0.15311 0.09151
#
# Static dielectric constant tensor:
#      x y z
#    x 2.294130 0.011930 -0.069320 
#    y 0.011930 2.238270 0.057960 
#    z -0.069320 0.057960 2.295820 
# 
# From -- ./inp_files/62367.got.cif
#   From: 2010.05.17/outbox.cif.g08.bks.cpg/sg2_32_cif.got.tgz:62367.got - 2010.06.03 11:33:40.
