data_PCOD9042910
_publ_section_title
;
Structure prediction by ZEFSAII (Michael W. Deem and Ramdas Pophale) SiO2 
 PCOD9042910
Probable space group: P -1
;
_chemical_formula_sum "Si O2"
_cell_formula_units_Z 16
_cell_length_a 17.498567
_cell_length_b 8.983192
_cell_length_c 11.516347
_cell_angle_alpha 39.755267
_cell_angle_beta 131.992350
_cell_angle_gamma 102.566389
_cell_volume 672.110488
_symmetry_space_group_name_H-M "P -1"
_symmetry_group_IT_number 2
_symmetry_cell_setting 'triclinic'
loop_
_space_group_symop_operation_xyz
x,y,z
-x,-y,-z
loop_
_atom_site_type_symbol
_atom_site_label
_atom_site_fract_x
_atom_site_fract_y
_atom_site_fract_z
Si Si1 0.918053 0.547514 0.737396
Si Si2 0.417835 0.604385 0.732578
Si Si3 0.855637 0.731142 0.168305
Si Si4 0.852337 0.118907 0.256746
Si Si5 0.489680 0.367041 0.690279
Si Si6 0.284472 0.293070 0.754460
Si Si7 0.803590 0.268215 0.867757
Si Si8 0.203291 0.308825 0.109884
O O1 0.851146 0.530793 0.563122
O O2 0.886617 0.385131 0.890845
O O3 0.843183 0.902565 0.456435
O O4 0.073228 0.380789 0.993810
O O5 0.487225 0.499254 0.735797
O O6 0.336604 0.477015 0.723007
O O7 0.322173 0.961744 0.432744
O O8 0.500000 0.500000 0.000000
O O9 0.743903 0.792893 0.101624
O O10 0.000000 0.500000 0.500000
O O11 0.847984 0.587777 0.133925
O O12 0.836598 0.032111 0.944471
O O13 0.832114 0.078825 0.126227
O O14 0.761199 0.477024 0.950198
O O15 0.000000 0.000000 0.500000
O O16 0.500000 0.500000 0.500000
O O17 0.346329 0.454370 0.474817
O O18 0.604212 0.014627 0.013281
#
# Coordination Sequence:
#
# PCOD9042910 Si02
#       8
#     2   2   2   2   2   2   2   2
#     4  11  23  44  77 107 139 196 256 308 375 460
#     4  12  29  50  72 116 153 197 259 322 386 445
#     4  12  22  43  75 111 148 187 248 325 382 449
#     4  10  23  45  66 107 150 189 243 308 387 452
#     4  12  24  48  76  99 145 207 258 298 370 468
#     4  12  24  46  74 108 145 197 252 309 368 463
#     4  12  24  43  76 103 142 200 260 300 370 468
#     4  11  24  46  69 106 158 190 241 320 395 437
#
# _framework density 23.805610000000001
#
# number of rings (size 3 to 8) (size 9 to 14) (size 15 to 20)
#    0.000    0.500    6.250    1.125    3.500    3.000 
#    6.750    1.250    0.000    0.000    0.000    0.000 
#    0.000    0.000    0.000    0.000    0.000    0.000 
#
# Total GULP energy -89303.187572 kJ/mol
# GULP energy per Si atom -5581.449223 kJ/mol
# Density = 2.375143 g / cm^3
# Si number density = 23.805610 Si / 1000 Ang^3
#
#
#
# Elastic Constant Matrix: (Units=GPa)
#
#
# Indices 1 2 3 4 5 6 
#
# 1 105.6458 37.1256 22.5448 -22.2551 -11.4291 5.8087
# 2 37.1256 115.8002 22.4014 -9.8749 -8.6856 -0.1785
# 3 22.5448 22.4014 97.8212 -19.9754 -3.4566 -11.2939
# 4 -22.2551 -9.8749 -19.9754 58.7977 -0.0504 -14.1255
# 5 -11.4291 -8.6856 -3.4566 -0.0504 36.3373 -5.9557
# 6 5.8087 -0.1785 -11.2939 -14.1255 -5.9557 33.8210
#
#
#
# Elastic Compliance Matrix: (Units=1/GPa)
#
#
# Indices 1 2 3 4 5 6 
#
# 1 0.011867 -0.003053 -0.001311 0.003396 0.002787 -0.000583
# 2 -0.003053 0.010012 -0.001475 0.000115 0.001353 0.000371
# 3 -0.001311 -0.001475 0.012805 0.005285 0.001605 0.006983
# 4 0.003396 0.000115 0.005285 0.022833 0.003487 0.011333
# 5 0.002787 0.001353 0.001605 0.003487 0.029992 0.006803
# 6 -0.000583 0.000371 0.006983 0.011333 0.006803 0.037933
#
#
# Mechanical properties :
#
#
# Convention : Reuss Voigt Hill
#
# Bulk Modulus (GPa) = 43.46842 53.71230 48.59036
# Shear Modulus (GPa) = 34.53288 41.60424 38.06856
#
# Velocity S-wave (km/s) = 3.81283 4.18504 4.00327
# Velocity P-wave (km/s) = 6.13864 6.77972 6.46713
#
# Compressibility (1/GPa) = 0.02300521
#
# Stress axis : x y z
#
# Youngs Moduli (GPa) = 84.26502 99.88368 78.09477
#
# Poissons Ratio (x) = 0.30497 0.10240
# Poissons Ratio (y) = 0.25728 0.11518
# Poissons Ratio (z) = 0.11049 0.14731
#
# Static dielectric constant tensor:
#      x y z
#    x 2.040040 -0.034650 -0.027800 
#    y -0.034650 1.919180 -0.004690 
#    z -0.027800 -0.004690 1.926800 
# 
# From -- ./inp_files/461808.got.cif
#   From: 2010.05.17/outbox.cif.g08.bks.cpg/sg2_231_cif.got.tgz:461808.got - 2010.06.03 11:33:40.
