data_PCOD9042447
_publ_section_title
;
Structure prediction by ZEFSAII (Michael W. Deem and Ramdas Pophale) SiO2 
 PCOD9042447
Probable space group: P -1
;
_chemical_formula_sum "Si O2"
_cell_formula_units_Z 16
_cell_length_a 20.559220
_cell_length_b 9.110483
_cell_length_c 11.033414
_cell_angle_alpha 72.157313
_cell_angle_beta 136.116212
_cell_angle_gamma 141.497685
_cell_volume 715.461441
_symmetry_space_group_name_H-M "P -1"
_symmetry_group_IT_number 2
_symmetry_cell_setting 'triclinic'
loop_
_space_group_symop_operation_xyz
x,y,z
-x,-y,-z
loop_
_atom_site_type_symbol
_atom_site_label
_atom_site_fract_x
_atom_site_fract_y
_atom_site_fract_z
Si Si1 0.840118 0.168340 0.202975
Si Si2 0.490323 0.633941 0.539260
Si Si3 0.546029 0.904667 0.017752
Si Si4 0.098526 0.161062 0.793274
Si Si5 0.174868 0.702793 0.111992
Si Si6 0.583257 0.579061 0.899183
Si Si7 0.170839 0.409480 0.563829
Si Si8 0.145349 0.325322 0.069055
O O1 0.041868 0.379688 0.419982
O O2 0.823704 0.220616 0.037447
O O3 0.746581 0.158413 0.172076
O O4 0.694335 0.823251 0.092022
O O5 0.500000 0.500000 0.500000
O O6 0.470990 0.537099 0.674649
O O7 0.331222 0.507539 0.302379
O O8 0.657999 0.984839 0.676307
O O9 0.384234 0.694370 0.755187
O O10 0.514424 0.708983 0.108574
O O11 0.500000 0.000000 0.000000
O O12 0.149780 0.303087 0.695670
O O13 0.254214 0.256222 0.007798
O O14 0.101084 0.282125 0.877199
O O15 0.922396 0.818221 0.610850
O O16 0.157815 0.498679 0.116572
O O17 0.000000 0.500000 0.000000
O O18 0.000000 0.000000 0.000000
#
# Coordination Sequence:
#
# PCOD9042447 Si02
#       8
#     2   2   2   2   2   2   2   2
#     4  10  23  44  71  92 137 184 226 291 350 423
#     4  11  22  44  73 100 138 191 236 295 363 422
#     4  11  24  41  67 106 138 173 232 294 355 430
#     4   9  19  40  68  96 133 176 230 285 339 424
#     4  11  27  49  67 103 146 188 244 300 356 431
#     4   9  20  41  68  94 134 174 229 280 350 427
#     4   9  21  42  69  96 135 182 226 280 352 425
#     4  12  26  42  70 103 144 184 243 299 360 428
#
# _framework density 22.363189999999999
#
# number of rings (size 3 to 8) (size 9 to 14) (size 15 to 20)
#    0.000    1.750    1.250    2.250    7.000    3.500 
#    6.750    0.000    0.000    0.000    0.000    0.000 
#    0.000    0.000    0.000    0.000    0.000    0.000 
#
# Total GULP energy -89155.337105 kJ/mol
# GULP energy per Si atom -5572.208569 kJ/mol
# Density = 2.231229 g / cm^3
# Si number density = 22.363190 Si / 1000 Ang^3
#
#
#
# Elastic Constant Matrix: (Units=GPa)
#
#
# Indices 1 2 3 4 5 6 
#
# 1 131.2296 41.8514 44.7048 6.8399 5.4261 -37.5808
# 2 41.8514 94.8832 27.2400 14.2466 -4.5070 -23.2637
# 3 44.7048 27.2400 116.7828 13.6418 -0.6696 -10.4714
# 4 6.8399 14.2466 13.6418 23.1060 -4.7535 -1.2483
# 5 5.4261 -4.5070 -0.6696 -4.7535 30.6161 -1.4799
# 6 -37.5808 -23.2637 -10.4714 -1.2483 -1.4799 34.8935
#
#
#
# Elastic Compliance Matrix: (Units=1/GPa)
#
#
# Indices 1 2 3 4 5 6 
#
# 1 0.012731 -0.001908 -0.003376 -0.000426 -0.002130 0.011321
# 2 -0.001908 0.014612 -0.001211 -0.006989 0.001723 0.007147
# 3 -0.003376 -0.001211 0.010542 -0.004584 -0.000131 -0.001449
# 4 -0.000426 -0.006989 -0.004584 0.051572 0.006743 -0.004363
# 5 -0.002130 0.001723 -0.000131 0.006743 0.034362 0.000514
# 6 0.011321 0.007147 -0.001449 -0.004363 0.000514 0.045047
#
#
# Mechanical properties :
#
#
# Convention : Reuss Voigt Hill
#
# Bulk Modulus (GPa) = 40.16669 63.38755 51.77712
# Shear Modulus (GPa) = 26.29446 32.99642 29.64544
#
# Velocity S-wave (km/s) = 3.43270 3.84536 3.64488
# Velocity P-wave (km/s) = 5.80615 6.93699 6.39661
#
# Compressibility (1/GPa) = 0.02489625
#
# Stress axis : x y z
#
# Youngs Moduli (GPa) = 78.54881 68.43740 94.85542
#
# Poissons Ratio (x) = 0.13057 0.32022
# Poissons Ratio (y) = 0.14986 0.11485
# Poissons Ratio (z) = 0.26517 0.08287
#
# Static dielectric constant tensor:
#      x y z
#    x 1.937170 -0.019790 0.017060 
#    y -0.019790 1.882510 0.028800 
#    z 0.017060 0.028800 1.857300 
# 
# From -- ./inp_files/469956.got.cif
#   From: 2010.05.17/outbox.cif.g08.bks.cpg/sg2_235_cif.got.tgz:469956.got - 2010.06.03 11:33:40.
