data_PCOD9042943
_publ_section_title
;
Structure prediction by ZEFSAII (Michael W. Deem and Ramdas Pophale) SiO2 
 PCOD9042943
Probable space group: P -1
;
_chemical_formula_sum "Si O2"
_cell_formula_units_Z 15
_cell_length_a 12.355207
_cell_length_b 7.992394
_cell_length_c 8.363024
_cell_angle_alpha 63.704394
_cell_angle_beta 84.921881
_cell_angle_gamma 57.704196
_cell_volume 613.757772
_symmetry_space_group_name_H-M "P -1"
_symmetry_group_IT_number 2
_symmetry_cell_setting 'triclinic'
loop_
_space_group_symop_operation_xyz
x,y,z
-x,-y,-z
loop_
_atom_site_type_symbol
_atom_site_label
_atom_site_fract_x
_atom_site_fract_y
_atom_site_fract_z
Si Si1 0.784037 0.937505 0.838246
Si Si2 0.499511 0.710870 0.343548
Si Si3 0.872355 0.189434 0.527353
Si Si4 0.159351 0.489698 0.112474
Si Si5 0.000000 0.000000 0.000000
Si Si6 0.247291 0.351155 0.508913
Si Si7 0.234959 0.981367 0.829379
Si Si8 0.666612 0.436813 0.172232
O O1 0.871904 0.691886 0.857234
O O2 0.643590 0.068682 0.715008
O O3 0.845380 0.084623 0.731848
O O4 0.752394 0.949255 0.023652
O O5 0.500000 0.500000 0.500000
O O6 0.612545 0.721312 0.409023
O O7 0.540658 0.646598 0.180501
O O8 0.860691 0.413200 0.491803
O O9 0.755039 0.282266 0.375998
O O10 0.000000 0.000000 0.500000
O O11 0.240719 0.401734 0.302677
O O12 0.250966 0.486330 0.964088
O O13 0.042639 0.740262 0.061876
O O14 0.892234 0.026814 0.133883
O O15 0.221833 0.161657 0.632199
O O16 0.347521 0.730596 0.866503
#
# Coordination Sequence:
#
# PCOD9042943 Si02
#       8
#     2   2   2   2   1   2   2   2
#     4  12  25  46  72 106 142 190 236 291 355 420
#     4  11  24  47  72 102 149 182 238 296 348 422
#     4  11  24  41  70 101 141 184 232 291 353 415
#     4  11  26  45  71 107 139 188 239 286 360 419
#     4  10  26  46  70  98 150 176 236 296 344 426
#     4  11  25  46  70 106 142 188 236 291 356 422
#     4  11  26  45  71 107 140 189 239 285 360 419
#     4  10  23  45  67 101 139 184 231 289 352 412
#
# _framework density 24.439610999999999
#
# number of rings (size 3 to 8) (size 9 to 14) (size 15 to 20)
#    0.000    1.067    2.667    4.000    9.333    4.267 
#    0.000    0.000    0.000    0.000    0.000    0.000 
#    0.000    0.000    0.000    0.000    0.000    0.000 
#
# Total GULP energy -83794.985850 kJ/mol
# GULP energy per Si atom -5586.332390 kJ/mol
# Density = 2.438399 g / cm^3
# Si number density = 24.439611 Si / 1000 Ang^3
#
#
#
# Elastic Constant Matrix: (Units=GPa)
#
#
# Indices 1 2 3 4 5 6 
#
# 1 54.0140 24.2341 6.5038 -14.9473 -0.1638 -1.4307
# 2 24.2341 118.6661 2.9446 -11.6964 3.5893 9.5870
# 3 6.5038 2.9446 92.6812 2.6216 -7.3434 -7.2819
# 4 -14.9473 -11.6964 2.6216 43.0882 2.6006 -5.3007
# 5 -0.1638 3.5893 -7.3434 2.6006 37.8965 -0.9010
# 6 -1.4307 9.5870 -7.2819 -5.3007 -0.9010 44.2511
#
#
#
# Elastic Compliance Matrix: (Units=1/GPa)
#
#
# Indices 1 2 3 4 5 6 
#
# 1 0.022525 -0.004034 -0.001500 0.007096 -0.000246 0.002200
# 2 -0.004034 0.009566 -0.000306 0.001018 -0.001104 -0.002154
# 3 -0.001500 -0.000306 0.011263 -0.001211 0.002330 0.001774
# 4 0.007096 0.001018 -0.001211 0.026505 -0.002049 0.002943
# 5 -0.000246 -0.001104 0.002330 -0.002049 0.027105 0.000921
# 6 0.002200 -0.002154 0.001774 0.002943 0.000921 0.023799
#
#
# Mechanical properties :
#
#
# Convention : Reuss Voigt Hill
#
# Bulk Modulus (GPa) = 31.57135 36.96960 34.27047
# Shear Modulus (GPa) = 34.96444 40.49241 37.72842
#
# Velocity S-wave (km/s) = 3.78649 4.07484 3.93331
# Velocity P-wave (km/s) = 5.66241 6.10728 5.88904
#
# Compressibility (1/GPa) = 0.03167429
#
# Stress axis : x y z
#
# Youngs Moduli (GPa) = 44.39445 104.53563 88.78701
#
# Poissons Ratio (x) = 0.42168 0.13317
# Poissons Ratio (y) = 0.17908 0.02720
# Poissons Ratio (z) = 0.06658 0.03202
#
# Static dielectric constant tensor:
#      x y z
#    x 1.815630 -0.170440 -0.136540 
#    y -0.170440 1.990520 -0.005710 
#    z -0.136540 -0.005710 1.814860 
# 
# From -- ./inp_files/227300.got.cif
#   From: 2010.05.17/outbox.cif.g08.bks.cpg/sg2_114_cif.got.tgz:227300.got - 2010.06.03 11:33:40.
