data_PCOD9042313
_publ_section_title
;
Structure prediction by ZEFSAII (Michael W. Deem and Ramdas Pophale) SiO2 
 PCOD9042313
Probable space group: P -1
;
_chemical_formula_sum "Si O2"
_cell_formula_units_Z 12
_cell_length_a 13.454199
_cell_length_b 16.301379
_cell_length_c 8.839978
_cell_angle_alpha 135.882413
_cell_angle_beta 35.010122
_cell_angle_gamma 155.192114
_cell_volume 464.071185
_symmetry_space_group_name_H-M "P -1"
_symmetry_group_IT_number 2
_symmetry_cell_setting 'triclinic'
loop_
_space_group_symop_operation_xyz
x,y,z
-x,-y,-z
loop_
_atom_site_type_symbol
_atom_site_label
_atom_site_fract_x
_atom_site_fract_y
_atom_site_fract_z
Si Si1 0.444784 0.610401 0.861217
Si Si2 0.400252 0.022682 0.511852
Si Si3 0.770689 0.662850 0.769925
Si Si4 0.534419 0.156683 0.008554
Si Si5 0.141496 0.214471 0.707511
Si Si6 0.419018 0.687428 0.539354
O O1 0.678409 0.711237 0.830397
O O2 0.344035 0.687872 0.065074
O O3 0.190181 0.378734 0.901508
O O4 0.620518 0.677858 0.577677
O O5 0.063346 0.859599 0.743227
O O6 0.500000 0.000000 0.500000
O O7 0.563625 0.229109 0.526664
O O8 0.405665 0.942334 0.249105
O O9 0.782106 0.538270 0.514071
O O10 0.500000 0.500000 0.000000
O O11 0.647089 0.262592 0.170126
O O12 0.183881 0.980045 0.198473
O O13 0.264311 0.195418 0.658645
#
# Coordination Sequence:
#
# PCOD9042313 Si02
#       6
#     2   2   2   2   2   2
#     4   9  19  37  66  97 125 168 218 261 321 383
#     4  12  29  43  63 100 137 175 213 267 335 386
#     4  11  26  45  68  93 134 177 219 265 323 395
#     4  11  22  40  70  99 131 164 216 278 323 380
#     4   9  18  37  68 100 125 161 217 273 317 380
#     4  10  23  44  70  95 129 175 220 265 325 389
#
# _framework density 25.858101000000001
#
# number of rings (size 3 to 8) (size 9 to 14) (size 15 to 20)
#    0.000    1.667    0.000    5.500    7.000    3.333 
#    0.000    0.000    0.000    0.000    0.000    0.000 
#    0.000    0.000    0.000    0.000    0.000    0.000 
#
# Total GULP energy -67140.866784 kJ/mol
# GULP energy per Si atom -5595.072232 kJ/mol
# Density = 2.579925 g / cm^3
# Si number density = 25.858101 Si / 1000 Ang^3
#
#
#
# Elastic Constant Matrix: (Units=GPa)
#
#
# Indices 1 2 3 4 5 6 
#
# 1 145.8857 12.2981 -8.1960 -12.4427 1.5161 -22.9528
# 2 12.2981 79.7717 -11.3199 5.2918 -3.5671 -7.8259
# 3 -8.1960 -11.3199 65.3841 12.2271 7.2417 -5.6285
# 4 -12.4427 5.2918 12.2271 26.3923 2.1619 -6.4458
# 5 1.5161 -3.5671 7.2417 2.1619 21.2234 4.3837
# 6 -22.9528 -7.8259 -5.6285 -6.4458 4.3837 44.0563
#
#
#
# Elastic Compliance Matrix: (Units=1/GPa)
#
#
# Indices 1 2 3 4 5 6 
#
# 1 0.008293 -0.001156 0.000575 0.005367 -0.002611 0.005234
# 2 -0.001156 0.013641 0.003002 -0.004453 0.001515 0.001402
# 3 0.000575 0.003002 0.018147 -0.007660 -0.005480 0.002576
# 4 0.005367 -0.004453 -0.007660 0.047345 -0.005088 0.008460
# 5 -0.002611 0.001515 -0.005480 -0.005088 0.051530 -0.007663
# 6 0.005234 0.001402 0.002576 0.008460 -0.007663 0.028003
#
#
# Mechanical properties :
#
#
# Convention : Reuss Voigt Hill
#
# Bulk Modulus (GPa) = 22.25988 30.73398 26.49693
# Shear Modulus (GPa) = 28.23419 38.21836 33.22627
#
# Velocity S-wave (km/s) = 3.30796 3.84865 3.58850
# Velocity P-wave (km/s) = 4.81843 5.62680 5.23824
#
# Compressibility (1/GPa) = 0.04492387
#
# Stress axis : x y z
#
# Youngs Moduli (GPa) = 120.58695 73.30995 55.10444
#
# Poissons Ratio (x) = 0.08476 -0.03171
# Poissons Ratio (y) = 0.13942 -0.16544
# Poissons Ratio (z) = -0.06938 -0.22010
#
# Static dielectric constant tensor:
#      x y z
#    x 2.062000 0.039590 0.048150 
#    y 0.039590 2.201940 0.167150 
#    z 0.048150 0.167150 2.192160 
# 
# From -- ./inp_files/187726.got.cif
#   From: 2010.05.17/outbox.cif.g08.bks.cpg/sg2_94_cif.got.tgz:187726.got - 2010.06.03 11:33:40.
