data_PCOD9042063
_publ_section_title
;
Structure prediction by ZEFSAII (Michael W. Deem and Ramdas Pophale) SiO2 
 PCOD9042063
Probable space group: P -1
;
_chemical_formula_sum "Si O2"
_cell_formula_units_Z 15
_cell_length_a 14.918108
_cell_length_b 12.072333
_cell_length_c 9.481663
_cell_angle_alpha 138.161876
_cell_angle_beta 44.996804
_cell_angle_gamma 148.910698
_cell_volume 576.195635
_symmetry_space_group_name_H-M "P -1"
_symmetry_group_IT_number 2
_symmetry_cell_setting 'triclinic'
loop_
_space_group_symop_operation_xyz
x,y,z
-x,-y,-z
loop_
_atom_site_type_symbol
_atom_site_label
_atom_site_fract_x
_atom_site_fract_y
_atom_site_fract_z
Si Si1 0.699117 0.720481 0.437740
Si Si2 0.000000 0.000000 0.500000
Si Si3 0.774818 0.643933 0.661259
Si Si4 0.288523 0.956102 0.088763
Si Si5 0.565930 0.829711 0.464657
Si Si6 0.721743 0.944745 0.109221
Si Si7 0.072972 0.386330 0.261310
Si Si8 0.311015 0.737270 0.087213
O O1 0.500000 0.500000 0.500000
O O2 0.855682 0.739757 0.315804
O O3 0.785927 0.936971 0.663264
O O4 0.678636 0.783991 0.368583
O O5 0.930889 0.848570 0.583977
O O6 0.637020 0.401002 0.503867
O O7 0.837455 0.612071 0.701869
O O8 0.672626 0.718962 0.891852
O O9 0.224519 0.745415 0.054857
O O10 0.265369 0.927364 0.920949
O O11 0.501040 0.168688 0.077821
O O12 0.590555 0.873676 0.312448
O O13 0.629291 0.048810 0.682964
O O14 0.910971 0.124205 0.143612
O O15 0.202539 0.530847 0.122340
O O16 0.000000 0.500000 0.500000
#
# Coordination Sequence:
#
# PCOD9042063 Si02
#       8
#     2   1   2   2   2   2   2   2
#     4  11  22  44  68 104 143 190 231 298 360 423
#     4  12  24  44  70 108 148 178 246 288 368 426
#     4  12  27  44  71 109 137 191 241 301 360 429
#     4  10  23  44  69 101 141 180 250 284 357 431
#     4  11  23  44  76  99 144 188 236 294 362 428
#     4  12  24  45  71 104 140 182 240 304 355 426
#     4  12  27  45  68 103 148 187 237 298 364 431
#     4  10  24  46  69 103 140 194 233 292 356 448
#
# _framework density 26.032824999999999
#
# number of rings (size 3 to 8) (size 9 to 14) (size 15 to 20)
#    0.000    0.800    4.000    2.400    3.733    3.733 
#    2.400    0.000    0.000    0.000    0.000    0.000 
#    0.000    0.000    0.000    0.000    0.000    0.000 
#
# Total GULP energy -83860.674536 kJ/mol
# GULP energy per Si atom -5590.711636 kJ/mol
# Density = 2.597357 g / cm^3
# Si number density = 26.032825 Si / 1000 Ang^3
#
#
#
# Elastic Constant Matrix: (Units=GPa)
#
#
# Indices 1 2 3 4 5 6 
#
# 1 160.2658 34.4444 30.7717 -12.7575 40.6684 -20.9352
# 2 34.4444 134.3786 13.3196 -31.0906 19.6642 -4.2705
# 3 30.7717 13.3196 107.4133 -20.6786 14.8634 -27.5774
# 4 -12.7575 -31.0906 -20.6786 46.2728 -8.9688 16.2295
# 5 40.6684 19.6642 14.8634 -8.9688 48.9149 -3.8388
# 6 -20.9352 -4.2705 -27.5774 16.2295 -3.8388 48.4169
#
#
#
# Elastic Compliance Matrix: (Units=1/GPa)
#
#
# Indices 1 2 3 4 5 6 
#
# 1 0.008605 -0.001383 -0.000884 -0.001231 -0.006320 0.003007
# 2 -0.001383 0.009443 0.000194 0.006402 -0.001684 -0.001934
# 3 -0.000884 0.000194 0.011698 0.002925 -0.001956 0.005162
# 4 -0.001231 0.006402 0.002925 0.030249 0.002460 -0.008246
# 5 -0.006320 -0.001684 -0.001956 0.002460 0.027211 -0.002662
# 6 0.003007 -0.001934 0.005162 -0.008246 -0.002662 0.027277
#
#
# Mechanical properties :
#
#
# Convention : Reuss Voigt Hill
#
# Bulk Modulus (GPa) = 39.06150 62.12543 50.59347
# Shear Modulus (GPa) = 39.31974 50.28906 44.80440
#
# Velocity S-wave (km/s) = 3.89059 4.39994 4.15308
# Velocity P-wave (km/s) = 5.93461 7.05186 6.51722
#
# Compressibility (1/GPa) = 0.02560066
#
# Stress axis : x y z
#
# Youngs Moduli (GPa) = 116.21245 105.89891 85.48323
#
# Poissons Ratio (x) = 0.14641 0.07559
# Poissons Ratio (y) = 0.16067 -0.01659
# Poissons Ratio (z) = 0.10277 -0.02055
#
# Static dielectric constant tensor:
#      x y z
#    x 2.192050 0.109670 -0.150100 
#    y 0.109670 2.075770 -0.033520 
#    z -0.150100 -0.033520 2.219220 
# 
# From -- ./inp_files/154730.got.cif
#   From: 2010.05.17/outbox.cif.g08.bks.cpg/sg2_78_cif.got.tgz:154730.got - 2010.06.03 11:33:40.
