data_PCOD9042620
_publ_section_title
;
Structure prediction by ZEFSAII (Michael W. Deem and Ramdas Pophale) SiO2 
 PCOD9042620
Probable space group: P -1
;
_chemical_formula_sum "Si O2"
_cell_formula_units_Z 15
_cell_length_a 14.234047
_cell_length_b 10.737984
_cell_length_c 15.380945
_cell_angle_alpha 30.823420
_cell_angle_beta 32.012267
_cell_angle_gamma 50.067789
_cell_volume 605.478063
_symmetry_space_group_name_H-M "P -1"
_symmetry_group_IT_number 2
_symmetry_cell_setting 'triclinic'
loop_
_space_group_symop_operation_xyz
x,y,z
-x,-y,-z
loop_
_atom_site_type_symbol
_atom_site_label
_atom_site_fract_x
_atom_site_fract_y
_atom_site_fract_z
Si Si1 0.783748 0.589135 0.236459
Si Si2 0.132086 0.037944 0.745447
Si Si3 0.179613 0.956848 0.434618
Si Si4 0.527230 0.342085 0.434462
Si Si5 0.289306 0.307199 0.288770
Si Si6 0.030488 0.490158 0.584650
Si Si7 0.500000 0.000000 0.500000
Si Si8 0.548454 0.242992 0.876750
O O1 0.811582 0.331827 0.410885
O O2 0.707931 0.505228 0.249507
O O3 0.634595 0.690895 0.345939
O O4 0.972334 0.820176 0.954608
O O5 0.257378 0.246323 0.452843
O O6 0.045962 0.216642 0.763688
O O7 0.279924 0.927634 0.738786
O O8 0.200677 0.034854 0.472543
O O9 0.000000 0.000000 0.500000
O O10 0.381122 0.156786 0.128548
O O11 0.476747 0.515001 0.296798
O O12 0.549086 0.112340 0.497428
O O13 0.148683 0.450228 0.274662
O O14 0.500000 0.500000 0.000000
O O15 0.233186 0.697191 0.312561
O O16 0.000000 0.500000 0.500000
O O17 0.500000 0.000000 0.000000
#
# Coordination Sequence:
#
# PCOD9042620 Si02
#       8
#     2   2   2   2   2   2   1   2
#     4  11  28  50  74 108 151 203 250 304 389 455
#     4  11  26  47  73 105 153 201 249 307 380 451
#     4  12  27  44  73 110 146 194 253 314 369 450
#     4  11  27  49  76 109 149 200 251 313 375 451
#     4  11  26  45  73 109 147 192 246 310 379 448
#     4  10  23  44  73 104 144 196 241 305 376 447
#     4  12  26  46  74 106 150 192 248 318 366 432
#     4  12  24  47  75 105 147 196 258 305 374 451
#
# _framework density 24.773814000000002
#
# number of rings (size 3 to 8) (size 9 to 14) (size 15 to 20)
#    0.000    0.800    2.667    3.200    7.467    4.800 
#    0.000    0.000    0.000    0.000    0.000    0.000 
#    0.000    0.000    0.000    0.000    0.000    0.000 
#
# Total GULP energy -83533.175187 kJ/mol
# GULP energy per Si atom -5568.878346 kJ/mol
# Density = 2.471743 g / cm^3
# Si number density = 24.773814 Si / 1000 Ang^3
#
#
#
# Elastic Constant Matrix: (Units=GPa)
#
#
# Indices 1 2 3 4 5 6 
#
# 1 64.3118 14.8335 41.7054 0.5033 -47.6651 5.3916
# 2 14.8335 119.7791 29.2489 5.0879 -32.8830 -1.0126
# 3 41.7054 29.2489 159.0158 13.0699 -54.7525 -11.2407
# 4 0.5033 5.0879 13.0699 24.3586 -3.5416 -13.7770
# 5 -47.6651 -32.8830 -54.7525 -3.5416 59.9186 6.0104
# 6 5.3916 -1.0126 -11.2407 -13.7770 6.0104 38.0142
#
#
#
# Elastic Compliance Matrix: (Units=1/GPa)
#
#
# Indices 1 2 3 4 5 6 
#
# 1 0.045366 0.005510 0.000463 -0.004450 0.040697 -0.014198
# 2 0.005510 0.010596 0.000249 -0.002653 0.010576 -0.003059
# 3 0.000463 0.000249 0.009534 -0.003915 0.008994 -0.000081
# 4 -0.004450 -0.002653 -0.003915 0.054147 -0.007399 0.020196
# 5 0.040697 0.010576 0.008994 -0.007399 0.064220 -0.015666
# 6 -0.014198 -0.003059 -0.000081 0.020196 -0.015666 0.038011
#
#
# Mechanical properties :
#
#
# Convention : Reuss Voigt Hill
#
# Bulk Modulus (GPa) = 12.83022 57.18693 35.00857
# Shear Modulus (GPa) = 21.23960 41.61287 31.42624
#
# Velocity S-wave (km/s) = 2.93122 4.10288 3.56550
# Velocity P-wave (km/s) = 4.07998 6.75119 5.57785
#
# Compressibility (1/GPa) = 0.07794099
#
# Stress axis : x y z
#
# Youngs Moduli (GPa) = 22.04313 94.37751 104.88365
#
# Poissons Ratio (x) = -0.52004 -0.04857
# Poissons Ratio (y) = -0.12146 -0.02614
# Poissons Ratio (z) = -0.01021 -0.02353
#
# Static dielectric constant tensor:
#      x y z
#    x 2.124870 0.214670 0.149310 
#    y 0.214670 2.685310 0.345080 
#    z 0.149310 0.345080 2.006350 
# 
# From -- ./inp_files/573555.got.cif
#   From: 2010.05.17/outbox.cif.g08.bks.cpg/sg2_287_cif.got.tgz:573555.got - 2010.06.03 11:33:40.
