data_PCOD9042853
_publ_section_title
;
Structure prediction by ZEFSAII (Michael W. Deem and Ramdas Pophale) SiO2 
 PCOD9042853
Probable space group: P -1
;
_chemical_formula_sum "Si O2"
_cell_formula_units_Z 15
_cell_length_a 4.979311
_cell_length_b 13.197856
_cell_length_c 10.967100
_cell_angle_alpha 117.048645
_cell_angle_beta 116.272050
_cell_angle_gamma 68.145931
_cell_volume 562.237531
_symmetry_space_group_name_H-M "P -1"
_symmetry_group_IT_number 2
_symmetry_cell_setting 'triclinic'
loop_
_space_group_symop_operation_xyz
x,y,z
-x,-y,-z
loop_
_atom_site_type_symbol
_atom_site_label
_atom_site_fract_x
_atom_site_fract_y
_atom_site_fract_z
Si Si1 0.447714 0.160997 0.708664
Si Si2 0.898970 0.636562 0.797470
Si Si3 0.760559 0.603715 0.338369
Si Si4 0.572971 0.805234 0.009325
Si Si5 0.500000 0.000000 0.000000
Si Si6 0.393078 0.908133 0.558247
Si Si7 0.958376 0.867472 0.806363
Si Si8 0.647422 0.332021 0.479828
O O1 0.265938 0.288712 0.700803
O O2 0.648892 0.125026 0.608554
O O3 0.295158 0.047500 0.626618
O O4 0.555657 0.190853 0.880399
O O5 0.762752 0.687016 0.927709
O O6 0.015503 0.739410 0.807891
O O7 0.608841 0.628331 0.651598
O O8 0.152716 0.518986 0.779454
O O9 0.485359 0.618029 0.387549
O O10 0.062666 0.620288 0.480042
O O11 0.757764 0.907081 0.090476
O O12 0.319218 0.875332 0.892734
O O13 0.727556 0.951046 0.893432
O O14 0.761470 0.880219 0.650800
O O15 0.295476 0.808203 0.566627
#
# Coordination Sequence:
#
# PCOD9042853 Si02
#       8
#     2   2   2   2   1   2   2   2
#     4  10  23  45  65 106 139 185 228 286 360 421
#     4  11  24  40  73  99 137 188 234 288 346 421
#     4  11  25  46  69 104 147 187 237 286 349 418
#     4  10  24  41  66 104 135 180 226 294 356 415
#     4   8  22  40  66  98 136 168 226 290 350 406
#     4   9  21  44  73  99 138 184 234 291 352 421
#     4   9  22  43  68 100 133 174 235 288 347 415
#     4  10  24  42  74 105 139 184 240 300 343 405
#
# _framework density 26.679113999999998
#
# number of rings (size 3 to 8) (size 9 to 14) (size 15 to 20)
#    0.800    1.333    0.000    0.800   11.200    3.200 
#   12.000    0.667    0.000    0.000    0.000    0.000 
#    0.000    0.000    0.000    0.000    0.000    0.000 
#
# Total GULP energy -83642.057994 kJ/mol
# GULP energy per Si atom -5576.137200 kJ/mol
# Density = 2.661839 g / cm^3
# Si number density = 26.679114 Si / 1000 Ang^3
#
#
#
# Elastic Constant Matrix: (Units=GPa)
#
#
# Indices 1 2 3 4 5 6 
#
# 1 110.7682 26.3835 32.0094 6.6367 -7.8025 -23.3155
# 2 26.3835 187.6688 42.5570 45.8908 -18.7084 -6.2393
# 3 32.0094 42.5570 111.9939 3.8152 -37.2512 -17.1317
# 4 6.6367 45.8908 3.8152 40.6474 -5.0981 -11.4680
# 5 -7.8025 -18.7084 -37.2512 -5.0981 35.4245 16.1017
# 6 -23.3155 -6.2393 -17.1317 -11.4680 16.1017 31.2358
#
#
#
# Elastic Compliance Matrix: (Units=1/GPa)
#
#
# Indices 1 2 3 4 5 6 
#
# 1 0.012196 -0.001956 -0.003279 0.002908 -0.006536 0.011351
# 2 -0.001956 0.008953 -0.002427 -0.011053 0.003206 -0.006714
# 3 -0.003279 -0.002427 0.015637 0.003449 0.015404 -0.001030
# 4 0.002908 -0.011053 0.003449 0.041156 -0.004385 0.019225
# 5 -0.006536 0.003206 0.015404 -0.004385 0.055986 -0.026260
# 6 0.011351 -0.006714 -0.001030 0.019225 -0.026260 0.059176
#
#
# Mechanical properties :
#
#
# Convention : Reuss Voigt Hill
#
# Bulk Modulus (GPa) = 46.59511 68.03675 57.31593
# Shear Modulus (GPa) = 23.19287 42.09361 32.64324
#
# Velocity S-wave (km/s) = 2.95163 3.97643 3.50172
# Velocity P-wave (km/s) = 5.39621 6.82934 6.15463
#
# Compressibility (1/GPa) = 0.02146148
#
# Stress axis : x y z
#
# Youngs Moduli (GPa) = 81.99354 111.69302 63.95026
#
# Poissons Ratio (x) = 0.21850 0.20970
# Poissons Ratio (y) = 0.16040 0.15521
# Poissons Ratio (z) = 0.26887 0.27108
#
# Static dielectric constant tensor:
#      x y z
#    x 2.162020 -0.012970 0.132400 
#    y -0.012970 2.132690 -0.017890 
#    z 0.132400 -0.017890 2.214260 
# 
# From -- ./inp_files/367092.got.cif
#   From: 2010.05.17/outbox.cif.g08.bks.cpg/sg2_184_cif.got.tgz:367092.got - 2010.06.03 11:33:40.
