data_PCOD9042570
_publ_section_title
;
Structure prediction by ZEFSAII (Michael W. Deem and Ramdas Pophale) SiO2 
 PCOD9042570
Probable space group: P -1
;
_chemical_formula_sum "Si O2"
_cell_formula_units_Z 16
_cell_length_a 16.883755
_cell_length_b 8.746047
_cell_length_c 11.464490
_cell_angle_alpha 56.141712
_cell_angle_beta 30.768059
_cell_angle_gamma 54.642804
_cell_volume 698.981672
_symmetry_space_group_name_H-M "P -1"
_symmetry_group_IT_number 2
_symmetry_cell_setting 'triclinic'
loop_
_space_group_symop_operation_xyz
x,y,z
-x,-y,-z
loop_
_atom_site_type_symbol
_atom_site_label
_atom_site_fract_x
_atom_site_fract_y
_atom_site_fract_z
Si Si1 0.764406 0.348089 0.650621
Si Si2 0.848347 0.698986 0.532561
Si Si3 0.538302 0.427572 0.713922
Si Si4 0.603934 0.081709 0.604743
Si Si5 0.434786 0.813671 0.643149
Si Si6 0.834178 0.509507 0.865718
Si Si7 0.035825 0.358008 0.122794
Si Si8 0.274022 0.970303 0.003871
O O1 0.791188 0.520525 0.623088
O O2 0.588577 0.389266 0.800005
O O3 0.875849 0.338121 0.400176
O O4 0.795315 0.150439 0.762114
O O5 0.853064 0.668460 0.678755
O O6 0.028605 0.671168 0.270062
O O7 0.729802 0.891393 0.562318
O O8 0.599336 0.244700 0.635917
O O9 0.577910 0.625146 0.541332
O O10 0.349196 0.488442 0.909309
O O11 0.645164 0.158074 0.394259
O O12 0.428417 0.036664 0.831891
O O13 0.500000 0.000000 0.500000
O O14 0.332610 0.828149 0.883566
O O15 0.872097 0.559363 0.926821
O O16 0.144583 0.151555 0.045695
O O17 0.000000 0.500000 0.000000
#
# Coordination Sequence:
#
# PCOD9042570 Si02
#       8
#     2   2   2   2   2   2   2   2
#     4  11  25  43  73 106 144 187 246 288 358 431
#     4  10  23  45  72 102 141 192 231 297 353 427
#     4  12  24  43  72 105 142 185 237 298 356 422
#     4  11  24  41  73 104 144 181 245 291 362 417
#     4  10  24  41  68  98 142 184 234 292 349 422
#     4  10  23  44  72  98 146 182 237 287 362 415
#     4  11  26  44  73 103 146 191 237 298 362 422
#     4  11  23  44  70 104 142 192 241 296 352 423
#
# _framework density 22.890443000000001
#
# number of rings (size 3 to 8) (size 9 to 14) (size 15 to 20)
#    0.000    1.250    1.250    3.750    8.750    3.500 
#    4.500    0.625    0.000    0.000    0.000    0.000 
#    0.000    0.000    0.000    0.000    0.000    0.000 
#
# Total GULP energy -89474.596670 kJ/mol
# GULP energy per Si atom -5592.162292 kJ/mol
# Density = 2.283834 g / cm^3
# Si number density = 22.890443 Si / 1000 Ang^3
#
#
#
# Elastic Constant Matrix: (Units=GPa)
#
#
# Indices 1 2 3 4 5 6 
#
# 1 135.0567 50.3757 24.8274 -1.8743 12.2553 -10.1000
# 2 50.3757 166.7874 14.3499 -1.0623 8.8492 -26.9893
# 3 24.8274 14.3499 58.6317 -3.0291 10.6473 -6.1965
# 4 -1.8743 -1.0623 -3.0291 23.9949 -7.6252 -0.2046
# 5 12.2553 8.8492 10.6473 -7.6252 36.5893 -7.3503
# 6 -10.1000 -26.9893 -6.1965 -0.2046 -7.3503 45.4338
#
#
#
# Elastic Compliance Matrix: (Units=1/GPa)
#
#
# Indices 1 2 3 4 5 6 
#
# 1 0.008974 -0.002387 -0.002941 -0.000302 -0.001655 -0.000093
# 2 -0.002387 0.007366 -0.000370 0.000095 -0.000095 0.003779
# 3 -0.002941 -0.000370 0.019304 0.000885 -0.004139 0.001093
# 4 -0.000302 0.000095 0.000885 0.044813 0.009532 0.001854
# 5 -0.001655 -0.000095 -0.004139 0.009532 0.031947 0.004222
# 6 -0.000093 0.003779 0.001093 0.001854 0.004222 0.025075
#
#
# Mechanical properties :
#
#
# Convention : Reuss Voigt Hill
#
# Bulk Modulus (GPa) = 41.24035 59.95353 50.59694
# Shear Modulus (GPa) = 31.85571 39.26511 35.56041
#
# Velocity S-wave (km/s) = 3.73454 4.14617 3.94573
# Velocity P-wave (km/s) = 6.05403 7.01209 6.55060
#
# Compressibility (1/GPa) = 0.02424810
#
# Stress axis : x y z
#
# Youngs Moduli (GPa) = 111.43140 135.76602 51.80146
#
# Poissons Ratio (x) = 0.32403 0.15234
# Poissons Ratio (y) = 0.26595 0.01919
# Poissons Ratio (z) = 0.32771 0.05030
#
# Static dielectric constant tensor:
#      x y z
#    x 1.873790 0.017500 -0.055900 
#    y 0.017500 1.892700 -0.096340 
#    z -0.055900 -0.096340 2.037010 
# 
# From -- ./inp_files/346325.got.cif
#   From: 2010.05.17/outbox.cif.g08.bks.cpg/sg2_174_cif.got.tgz:346325.got - 2010.06.03 11:33:40.
