data_PCOD9042627
_publ_section_title
;
Structure prediction by ZEFSAII (Michael W. Deem and Ramdas Pophale) SiO2 
 PCOD9042627
Probable space group: P -1
;
_chemical_formula_sum "Si O2"
_cell_formula_units_Z 16
_cell_length_a 5.615358
_cell_length_b 24.133946
_cell_length_c 11.096875
_cell_angle_alpha 148.928498
_cell_angle_beta 110.877436
_cell_angle_gamma 60.626370
_cell_volume 669.538693
_symmetry_space_group_name_H-M "P -1"
_symmetry_group_IT_number 2
_symmetry_cell_setting 'triclinic'
loop_
_space_group_symop_operation_xyz
x,y,z
-x,-y,-z
loop_
_atom_site_type_symbol
_atom_site_label
_atom_site_fract_x
_atom_site_fract_y
_atom_site_fract_z
Si Si1 0.122951 0.874032 0.844267
Si Si2 0.418781 0.401260 0.237374
Si Si3 0.462194 0.496788 0.171695
Si Si4 0.920767 0.684967 0.336803
Si Si5 0.802819 0.930051 0.365696
Si Si6 0.680947 0.689007 0.545073
Si Si7 0.962830 0.210158 0.074333
Si Si8 0.969559 0.699938 0.107861
O O1 0.444038 0.813500 0.757939
O O2 0.081683 0.865167 0.963630
O O3 0.992440 0.790673 0.600228
O O4 0.000000 0.000000 0.000000
O O5 0.500000 0.500000 0.500000
O O6 0.363991 0.452537 0.189412
O O7 0.681897 0.281224 0.084038
O O8 0.158665 0.361757 0.129981
O O9 0.587519 0.592942 0.406340
O O10 0.198212 0.568123 0.177086
O O11 0.719063 0.385287 0.967941
O O12 0.721177 0.668474 0.371541
O O13 0.821088 0.715571 0.240117
O O14 0.947017 0.823366 0.284312
O O15 0.500000 0.000000 0.500000
O O16 0.000000 0.000000 0.500000
O O17 0.806152 0.867540 0.121727
O O18 0.948014 0.694031 0.665916
#
# Coordination Sequence:
#
# PCOD9042627 Si02
#       8
#     2   2   2   2   2   2   2   2
#     4  10  24  43  75 103 138 191 250 318 378 449
#     4  12  25  42  72 110 149 197 253 305 388 462
#     4  11  23  43  70 104 145 192 246 311 382 460
#     4  10  24  45  66 108 146 191 254 308 383 458
#     4  12  30  51  75 111 154 206 259 321 386 461
#     4  10  23  44  73 105 144 192 240 323 375 456
#     4  11  25  46  72 104 149 188 255 309 381 456
#     4  12  27  45  74 105 151 202 247 319 388 456
#
# _framework density 23.89705
#
# number of rings (size 3 to 8) (size 9 to 14) (size 15 to 20)
#    0.000    1.000    1.250    4.875    7.000    8.000 
#    0.000    0.000    0.000    0.000    0.000    0.000 
#    0.000    0.000    0.000    0.000    0.000    0.000 
#
# Total GULP energy -89438.583092 kJ/mol
# GULP energy per Si atom -5589.911443 kJ/mol
# Density = 2.384266 g / cm^3
# Si number density = 23.897050 Si / 1000 Ang^3
#
#
#
# Elastic Constant Matrix: (Units=GPa)
#
#
# Indices 1 2 3 4 5 6 
#
# 1 105.7687 46.6432 54.0735 17.6739 -5.1057 4.3002
# 2 46.6432 130.7918 72.1922 36.0422 1.4193 17.4208
# 3 54.0735 72.1922 112.8722 17.3024 -5.4233 7.5509
# 4 17.6739 36.0422 17.3024 49.1539 -3.1950 0.1828
# 5 -5.1057 1.4193 -5.4233 -3.1950 54.6921 0.1490
# 6 4.3002 17.4208 7.5509 0.1828 0.1490 32.4506
#
#
#
# Elastic Compliance Matrix: (Units=1/GPa)
#
#
# Indices 1 2 3 4 5 6 
#
# 1 0.012963 -0.001369 -0.005034 -0.001844 0.000638 0.000196
# 2 -0.001369 0.015491 -0.007648 -0.008265 -0.001754 -0.006301
# 3 -0.005034 -0.007648 0.015865 0.001921 0.001411 0.001064
# 4 -0.001844 -0.008265 0.001921 0.026491 0.001769 0.004077
# 5 0.000638 -0.001754 0.001411 0.001769 0.018631 0.000433
# 6 0.000196 -0.006301 0.001064 0.004077 0.000433 0.033900
#
#
# Mechanical properties :
#
#
# Convention : Reuss Voigt Hill
#
# Bulk Modulus (GPa) = 61.66449 77.25005 69.45727
# Shear Modulus (GPa) = 31.87744 39.02756 35.45250
#
# Velocity S-wave (km/s) = 3.65629 4.04561 3.85587
# Velocity P-wave (km/s) = 6.60945 7.36336 6.99657
#
# Compressibility (1/GPa) = 0.01621679
#
# Stress axis : x y z
#
# Youngs Moduli (GPa) = 77.14196 64.55251 63.03120
#
# Poissons Ratio (x) = 0.08836 0.31732
# Poissons Ratio (y) = 0.10560 0.48207
# Poissons Ratio (z) = 0.38836 0.49370
#
# Static dielectric constant tensor:
#      x y z
#    x 1.968330 -0.004570 0.003820 
#    y -0.004570 1.859890 -0.055090 
#    z 0.003820 -0.055090 1.941990 
# 
# From -- ./inp_files/364038.got.cif
#   From: 2010.05.17/outbox.cif.g08.bks.cpg/sg2_183_cif.got.tgz:364038.got - 2010.06.03 11:33:40.
