data_PCOD9042724
_publ_section_title
;
Structure prediction by ZEFSAII (Michael W. Deem and Ramdas Pophale) SiO2 
 PCOD9042724
Probable space group: P -1
;
_chemical_formula_sum "Si O2"
_cell_formula_units_Z 16
_cell_length_a 5.178851
_cell_length_b 18.808642
_cell_length_c 11.371302
_cell_angle_alpha 134.771198
_cell_angle_beta 61.032130
_cell_angle_gamma 101.583246
_cell_volume 670.184564
_symmetry_space_group_name_H-M "P -1"
_symmetry_group_IT_number 2
_symmetry_cell_setting 'triclinic'
loop_
_space_group_symop_operation_xyz
x,y,z
-x,-y,-z
loop_
_atom_site_type_symbol
_atom_site_label
_atom_site_fract_x
_atom_site_fract_y
_atom_site_fract_z
Si Si1 0.163590 0.064103 0.121912
Si Si2 0.285089 0.563217 0.370637
Si Si3 0.830282 0.659154 0.374942
Si Si4 0.082596 0.168347 0.898058
Si Si5 0.697303 0.071855 0.436493
Si Si6 0.521542 0.772517 0.780987
Si Si7 0.024290 0.191224 0.671569
Si Si8 0.194722 0.352804 0.233600
O O1 0.220727 0.167167 0.171261
O O2 0.955143 0.090295 0.311664
O O3 0.500000 0.000000 0.000000
O O4 0.000000 0.000000 0.000000
O O5 0.624561 0.578538 0.298454
O O6 0.259569 0.446135 0.253068
O O7 0.085240 0.615424 0.364905
O O8 0.127085 0.613685 0.586623
O O9 0.586086 0.747578 0.601822
O O10 0.964265 0.709918 0.295255
O O11 0.798523 0.161178 0.033578
O O12 0.224685 0.252946 0.029607
O O13 0.968078 0.211297 0.845150
O O14 0.263461 0.050758 0.703631
O O15 0.631818 0.878603 0.485021
O O16 0.787715 0.129432 0.598512
O O17 0.578450 0.673068 0.735707
#
# Coordination Sequence:
#
# PCOD9042724 Si02
#       8
#     2   2   2   2   2   2   2   2
#     4  12  24  40  66 100 134 174 228 286 329 389
#     4  10  23  44  74  99 136 169 227 285 359 406
#     4  11  23  45  69 100 130 183 222 283 346 408
#     4  12  26  44  68 101 142 182 235 278 339 405
#     4  12  26  45  68  96 143 190 234 268 341 405
#     4  11  24  40  70  98 139 173 229 286 339 398
#     4  12  28  46  68  97 143 192 228 279 334 414
#     4  10  24  41  70 105 133 174 223 293 346 406
#
# _framework density 23.874023000000001
#
# number of rings (size 3 to 8) (size 9 to 14) (size 15 to 20)
#    0.000    0.750    3.750    3.000    7.000    1.500 
#    0.000    1.250    0.000    0.000    0.000    0.000 
#    0.000    0.000    0.000    0.000    0.000    0.000 
#
# Total GULP energy -89571.513043 kJ/mol
# GULP energy per Si atom -5598.219565 kJ/mol
# Density = 2.381968 g / cm^3
# Si number density = 23.874023 Si / 1000 Ang^3
#
#
#
# Elastic Constant Matrix: (Units=GPa)
#
#
# Indices 1 2 3 4 5 6 
#
# 1 111.3874 50.3632 8.8039 3.0382 19.4414 10.0246
# 2 50.3632 162.4869 28.8057 2.9396 15.4106 -2.1260
# 3 8.8039 28.8057 46.0255 -3.0493 14.5576 -0.2218
# 4 3.0382 2.9396 -3.0493 33.9604 2.5514 6.1270
# 5 19.4414 15.4106 14.5576 2.5514 30.8767 -6.3677
# 6 10.0246 -2.1260 -0.2218 6.1270 -6.3677 40.4267
#
#
#
# Elastic Compliance Matrix: (Units=1/GPa)
#
#
# Indices 1 2 3 4 5 6 
#
# 1 0.012177 -0.003521 0.002471 0.000875 -0.008096 -0.004599
# 2 -0.003521 0.008039 -0.004691 -0.001149 0.000836 0.001576
# 3 0.002471 -0.004691 0.028877 0.004470 -0.013935 -0.003573
# 4 0.000875 -0.001149 0.004470 0.031384 -0.005903 -0.005939
# 5 -0.008096 0.000836 -0.013935 -0.005903 0.046218 0.010150
# 6 -0.004599 0.001576 -0.003573 -0.005939 0.010150 0.028439
#
#
# Mechanical properties :
#
#
# Convention : Reuss Voigt Hill
#
# Bulk Modulus (GPa) = 26.58753 55.09393 40.84073
# Shear Modulus (GPa) = 27.90906 36.51457 32.21181
#
# Velocity S-wave (km/s) = 3.42279 3.91508 3.67719
# Velocity P-wave (km/s) = 5.17508 6.60032 5.93067
#
# Compressibility (1/GPa) = 0.03761161
#
# Stress axis : x y z
#
# Youngs Moduli (GPa) = 82.12021 124.38902 34.62958
#
# Poissons Ratio (x) = 0.43792 -0.08555
# Poissons Ratio (y) = 0.28911 0.16245
# Poissons Ratio (z) = -0.20288 0.58351
#
# Static dielectric constant tensor:
#      x y z
#    x 1.898450 0.017760 -0.039750 
#    y 0.017760 1.911210 0.044180 
#    z -0.039750 0.044180 1.913150 
# 
# From -- ./inp_files/369068.got.cif
#   From: 2010.05.17/outbox.cif.g08.bks.cpg/sg2_185_cif.got.tgz:369068.got - 2010.06.03 11:33:40.
