data_PCOD9042192
_publ_section_title
;
Structure prediction by ZEFSAII (Michael W. Deem and Ramdas Pophale) SiO2 
 PCOD9042192
Probable space group: P -1
;
_chemical_formula_sum "Si O2"
_cell_formula_units_Z 12
_cell_length_a 8.738503
_cell_length_b 8.935635
_cell_length_c 13.968937
_cell_angle_alpha 67.427231
_cell_angle_beta 58.280430
_cell_angle_gamma 31.982917
_cell_volume 486.748979
_symmetry_space_group_name_H-M "P -1"
_symmetry_group_IT_number 2
_symmetry_cell_setting 'triclinic'
loop_
_space_group_symop_operation_xyz
x,y,z
-x,-y,-z
loop_
_atom_site_type_symbol
_atom_site_label
_atom_site_fract_x
_atom_site_fract_y
_atom_site_fract_z
Si Si1 0.259927 0.852841 0.587278
Si Si2 0.603102 0.265536 0.641693
Si Si3 0.513156 0.155789 0.301888
Si Si4 0.023329 0.471149 0.748787
Si Si5 0.693135 0.690506 0.995897
Si Si6 0.302685 0.683779 0.927228
O O1 0.503234 0.525085 0.598454
O O2 0.272672 0.896030 0.461680
O O3 0.387431 0.892222 0.608757
O O4 0.901321 0.048156 0.669447
O O5 0.273084 0.414672 0.723562
O O6 0.569493 0.288032 0.201083
O O7 0.164756 0.357160 0.330965
O O8 0.769729 0.842346 0.253080
O O9 0.753360 0.645620 0.873462
O O10 0.660098 0.525638 0.078528
O O11 0.000000 0.500000 0.000000
O O12 0.500000 0.000000 0.000000
O O13 0.500000 0.500000 0.000000
O O14 0.000000 0.000000 0.000000
#
# Coordination Sequence:
#
# PCOD9042192 Si02
#       6
#     2   2   2   2   2   2
#     4  10  23  44  70 100 133 181 223 270 348 414
#     4  10  23  45  68  99 141 172 220 284 339 408
#     4  12  24  43  70 101 133 182 232 275 342 407
#     4  12  25  44  67 102 139 175 229 289 336 400
#     4  12  26  44  66  98 135 183 230 283 343 401
#     4  12  23  46  67  92 139 183 222 285 341 407
#
# _framework density 24.653365000000001
#
# number of rings (size 3 to 8) (size 9 to 14) (size 15 to 20)
#    0.000    0.667    3.333    4.000    2.333    1.333 
#    0.000    0.000    0.000    0.000    0.000    0.000 
#    0.000    0.000    0.000    0.000    0.000    0.000 
#
# Total GULP energy -66896.495259 kJ/mol
# GULP energy per Si atom -5574.707938 kJ/mol
# Density = 2.459725 g / cm^3
# Si number density = 24.653365 Si / 1000 Ang^3
#
#
#
# Elastic Constant Matrix: (Units=GPa)
#
#
# Indices 1 2 3 4 5 6 
#
# 1 112.2758 52.6574 9.1505 -3.8072 13.0842 -6.4627
# 2 52.6574 204.4305 -0.2173 6.4302 -0.3704 4.3062
# 3 9.1505 -0.2173 32.1192 6.7679 -1.4518 3.4266
# 4 -3.8072 6.4302 6.7679 24.1552 -1.8730 1.3493
# 5 13.0842 -0.3704 -1.4518 -1.8730 32.6567 -11.2322
# 6 -6.4627 4.3062 3.4266 1.3493 -11.2322 67.7496
#
#
#
# Elastic Compliance Matrix: (Units=1/GPa)
#
#
# Indices 1 2 3 4 5 6 
#
# 1 0.011348 -0.003058 -0.004245 0.003417 -0.004331 0.000705
# 2 -0.003058 0.005767 0.001503 -0.002328 0.001047 -0.000514
# 3 -0.004245 0.001503 0.034859 -0.010580 0.002073 -0.001709
# 4 0.003417 -0.002328 -0.010580 0.045573 0.000830 0.000239
# 5 -0.004331 0.001047 0.002073 0.000830 0.034255 0.005078
# 6 0.000705 -0.000514 -0.001709 0.000239 0.005078 0.015784
#
#
# Mechanical properties :
#
#
# Convention : Reuss Voigt Hill
#
# Bulk Modulus (GPa) = 24.76798 52.44521 38.60659
# Shear Modulus (GPa) = 28.96168 44.06127 36.51148
#
# Velocity S-wave (km/s) = 3.43119 4.23215 3.85254
# Velocity P-wave (km/s) = 5.07599 6.72315 5.95678
#
# Compressibility (1/GPa) = 0.04037471
#
# Stress axis : x y z
#
# Youngs Moduli (GPa) = 88.12242 173.40648 28.68725
#
# Poissons Ratio (x) = 0.53022 0.12176
# Poissons Ratio (y) = 0.26945 -0.04311
# Poissons Ratio (z) = 0.37404 -0.26061
#
# Static dielectric constant tensor:
#      x y z
#    x 1.834780 -0.197320 0.044420 
#    y -0.197320 1.726700 0.082690 
#    z 0.044420 0.082690 2.056790 
# 
# From -- ./inp_files/202352.got.cif
#   From: 2010.05.17/outbox.cif.g08.bks.cpg/sg2_102_cif.got.tgz:202352.got - 2010.06.03 11:33:40.
