data_PCOD9042330
_publ_section_title
;
Structure prediction by ZEFSAII (Michael W. Deem and Ramdas Pophale) SiO2 
 PCOD9042330
Probable space group: P -1
;
_chemical_formula_sum "Si O2"
_cell_formula_units_Z 12
_cell_length_a 7.141240
_cell_length_b 7.653867
_cell_length_c 11.004884
_cell_angle_alpha 101.668395
_cell_angle_beta 136.933362
_cell_angle_gamma 77.277083
_cell_volume 399.879664
_symmetry_space_group_name_H-M "P -1"
_symmetry_group_IT_number 2
_symmetry_cell_setting 'triclinic'
loop_
_space_group_symop_operation_xyz
x,y,z
-x,-y,-z
loop_
_atom_site_type_symbol
_atom_site_label
_atom_site_fract_x
_atom_site_fract_y
_atom_site_fract_z
Si Si1 0.650892 0.710303 0.825326
Si Si2 0.938660 0.682036 0.641474
Si Si3 0.053824 0.037855 0.883515
Si Si4 0.284722 0.677082 0.121104
Si Si5 0.631226 0.180939 0.542282
Si Si6 0.154511 0.281684 0.683133
O O1 0.576567 0.521628 0.811395
O O2 0.466988 0.805659 0.648472
O O3 0.972996 0.655374 0.928287
O O4 0.687055 0.849466 0.970800
O O5 0.619030 0.663543 0.517208
O O6 0.938919 0.719648 0.502396
O O7 0.042536 0.854279 0.781913
O O8 0.093992 0.489976 0.722626
O O9 0.783868 0.198137 0.771724
O O10 0.000000 0.000000 0.000000
O O11 0.515060 0.764805 0.167004
O O12 0.500000 0.000000 0.500000
O O13 0.966365 0.169985 0.661971
#
# Coordination Sequence:
#
# PCOD9042330 Si02
#       6
#     2   2   2   2   2   2
#     4   9  21  42  73  97 133 180 224 270 337 408
#     4  11  23  42  64 104 137 174 220 285 331 395
#     4  10  23  44  70  97 138 177 218 281 340 387
#     4   9  20  45  67  96 141 168 218 291 319 390
#     4  12  24  42  76  95 131 188 219 270 348 398
#     4  11  24  41  70 104 132 175 236 270 327 415
#
# _framework density 30.009025999999999
#
# number of rings (size 3 to 8) (size 9 to 14) (size 15 to 20)
#    1.000    0.667    1.667    3.000    2.333    1.333 
#    0.000    8.333    0.000    0.000    0.000    1.167 
#    0.000    0.000    0.000    0.000    0.000    0.000 
#
# Total GULP energy -67090.482732 kJ/mol
# GULP energy per Si atom -5590.873561 kJ/mol
# Density = 2.994072 g / cm^3
# Si number density = 30.009026 Si / 1000 Ang^3
#
#
#
# Elastic Constant Matrix: (Units=GPa)
#
#
# Indices 1 2 3 4 5 6 
#
# 1 223.7809 23.0900 10.1977 8.0500 36.2138 0.0744
# 2 23.0900 167.7276 22.0715 38.2383 -0.5997 19.0264
# 3 10.1977 22.0715 152.2252 12.9203 18.8364 -20.5105
# 4 8.0500 38.2383 12.9203 68.0170 -17.0629 -5.7608
# 5 36.2138 -0.5997 18.8364 -17.0629 36.2777 5.4769
# 6 0.0744 19.0264 -20.5105 -5.7608 5.4769 39.1151
#
#
#
# Elastic Compliance Matrix: (Units=1/GPa)
#
#
# Indices 1 2 3 4 5 6 
#
# 1 0.005815 -0.000612 0.001065 -0.002347 -0.007710 0.001579
# 2 -0.000612 0.007853 -0.001451 -0.004465 0.000189 -0.005264
# 3 0.001065 -0.001451 0.008648 -0.002351 -0.007582 0.005954
# 4 -0.002347 -0.004465 -0.002351 0.021448 0.013238 0.002249
# 5 -0.007710 0.000189 -0.007582 0.013238 0.046733 -0.008647
# 6 0.001579 -0.005264 0.005954 0.002249 -0.008647 0.032787
#
#
# Mechanical properties :
#
#
# Convention : Reuss Voigt Hill
#
# Bulk Modulus (GPa) = 49.21406 72.71690 60.96548
# Shear Modulus (GPa) = 37.86300 61.24025 49.55163
#
# Velocity S-wave (km/s) = 3.55592 4.52234 4.06793
# Velocity P-wave (km/s) = 5.77017 7.18005 6.51337
#
# Compressibility (1/GPa) = 0.02031940
#
# Stress axis : x y z
#
# Youngs Moduli (GPa) = 171.97238 127.33880 115.62927
#
# Poissons Ratio (x) = 0.07798 -0.12318
# Poissons Ratio (y) = 0.10532 0.16781
# Poissons Ratio (z) = -0.18320 0.18481
#
# Static dielectric constant tensor:
#      x y z
#    x 2.569520 0.065730 -0.456990 
#    y 0.065730 2.505200 -0.421910 
#    z -0.456990 -0.421910 3.448620 
# 
# From -- ./inp_files/512288.got.cif
#   From: 2010.05.17/outbox.cif.g08.bks.cpg/sg2_257_cif.got.tgz:512288.got - 2010.06.03 11:33:40.
