data_PCOD9042031
_publ_section_title
;
Structure prediction by ZEFSAII (Michael W. Deem and Ramdas Pophale) SiO2 
 PCOD9042031
Probable space group: P -1
;
_chemical_formula_sum "Si O2"
_cell_formula_units_Z 16
_cell_length_a 19.310986
_cell_length_b 12.696460
_cell_length_c 8.156509
_cell_angle_alpha 51.483089
_cell_angle_beta 103.024807
_cell_angle_gamma 144.576218
_cell_volume 710.127102
_symmetry_space_group_name_H-M "P -1"
_symmetry_group_IT_number 2
_symmetry_cell_setting 'triclinic'
loop_
_space_group_symop_operation_xyz
x,y,z
-x,-y,-z
loop_
_atom_site_type_symbol
_atom_site_label
_atom_site_fract_x
_atom_site_fract_y
_atom_site_fract_z
Si Si1 0.850864 0.430796 0.404124
Si Si2 0.167932 0.891766 0.215448
Si Si3 0.546973 0.233654 0.752793
Si Si4 0.133885 0.289103 0.681935
Si Si5 0.199566 0.972642 0.544620
Si Si6 0.506545 0.591707 0.245669
Si Si7 0.723591 0.187251 0.218007
Si Si8 0.961012 0.784252 0.636396
O O1 0.789994 0.466992 0.406587
O O2 0.752051 0.237719 0.378034
O O3 0.844655 0.289599 0.652534
O O4 0.036782 0.750948 0.181610
O O5 0.157058 0.889052 0.409970
O O6 0.339757 0.204764 0.952322
O O7 0.724906 0.548447 0.489640
O O8 0.505428 0.270629 0.839545
O O9 0.443226 0.096035 0.673137
O O10 0.500000 0.000000 0.000000
O O11 0.047607 0.221397 0.556998
O O12 0.000000 0.000000 0.000000
O O13 0.366537 0.315113 0.324041
O O14 0.197472 0.823018 0.774965
O O15 0.087036 0.887966 0.653104
O O16 0.500000 0.500000 0.500000
O O17 0.805314 0.458276 0.932945
O O18 0.000000 0.000000 0.500000
#
# Coordination Sequence:
#
# PCOD9042031 Si02
#       8
#     2   2   2   2   2   2   2   2
#     4  10  23  44  69 100 133 185 234 290 350 425
#     4  10  23  44  70  97 139 180 231 291 360 422
#     4  12  26  48  71 101 147 191 236 294 358 426
#     4  12  26  45  71 101 145 188 236 291 358 427
#     4  11  24  44  70 106 140 185 233 300 357 424
#     4  12  26  42  71 103 138 180 237 297 355 420
#     4  11  25  44  72 103 141 185 244 292 360 420
#     4  12  25  45  71 105 143 188 239 293 357 427
#
# _framework density 22.531178000000001
#
# number of rings (size 3 to 8) (size 9 to 14) (size 15 to 20)
#    0.000    0.750    3.750    3.000    3.500    0.500 
#    4.500    0.000    0.000    0.000    0.000    0.000 
#    0.000    0.000    0.000    0.000    0.000    0.000 
#
# Total GULP energy -89292.436676 kJ/mol
# GULP energy per Si atom -5580.777292 kJ/mol
# Density = 2.247990 g / cm^3
# Si number density = 22.531178 Si / 1000 Ang^3
#
#
#
# Elastic Constant Matrix: (Units=GPa)
#
#
# Indices 1 2 3 4 5 6 
#
# 1 90.1701 10.2565 7.4098 -3.3355 18.2743 -2.1155
# 2 10.2565 94.3074 -7.2194 -9.6377 3.9378 11.4298
# 3 7.4098 -7.2194 55.9864 -4.2114 2.5469 4.8992
# 4 -3.3355 -9.6377 -4.2114 33.4909 5.0530 2.5739
# 5 18.2743 3.9378 2.5469 5.0530 34.5206 -12.0076
# 6 -2.1155 11.4298 4.8992 2.5739 -12.0076 35.1631
#
#
#
# Elastic Compliance Matrix: (Units=1/GPa)
#
#
# Indices 1 2 3 4 5 6 
#
# 1 0.012829 -0.000768 -0.001162 0.002154 -0.007463 -0.001523
# 2 -0.000768 0.012323 0.002788 0.004911 -0.004078 -0.006192
# 3 -0.001162 0.002788 0.019290 0.004038 -0.003511 -0.005158
# 4 0.002154 0.004911 0.004038 0.034062 -0.009711 -0.007839
# 5 -0.007463 -0.004078 -0.003511 -0.009711 0.040611 0.015944
# 6 -0.001523 -0.006192 -0.005158 -0.007839 0.015944 0.037097
#
#
# Mechanical properties :
#
#
# Convention : Reuss Voigt Hill
#
# Bulk Modulus (GPa) = 21.66527 29.03975 25.35251
# Shear Modulus (GPa) = 29.43197 35.96939 32.70068
#
# Velocity S-wave (km/s) = 3.61817 3.99987 3.81379
# Velocity P-wave (km/s) = 5.20494 5.85223 5.53805
#
# Compressibility (1/GPa) = 0.04615683
#
# Stress axis : x y z
#
# Youngs Moduli (GPa) = 77.94560 81.14782 51.84130
#
# Poissons Ratio (x) = 0.06232 0.06025
# Poissons Ratio (y) = 0.05986 -0.14451
# Poissons Ratio (z) = 0.09059 -0.22620
#
# Static dielectric constant tensor:
#      x y z
#    x 1.785000 0.022970 -0.042950 
#    y 0.022970 1.875960 0.006210 
#    z -0.042950 0.006210 1.908910 
# 
# From -- ./inp_files/332911.got.cif
#   From: 2010.05.17/outbox.cif.g08.bks.cpg/sg2_167_cif.got.tgz:332911.got - 2010.06.03 11:33:40.
