data_PCOD9042184
_publ_section_title
;
Structure prediction by ZEFSAII (Michael W. Deem and Ramdas Pophale) SiO2 
 PCOD9042184
Probable space group: P -1
;
_chemical_formula_sum "Si O2"
_cell_formula_units_Z 14
_cell_length_a 15.429201
_cell_length_b 5.405719
_cell_length_c 7.213248
_cell_angle_alpha 70.840291
_cell_angle_beta 88.170777
_cell_angle_gamma 68.171622
_cell_volume 524.762512
_symmetry_space_group_name_H-M "P -1"
_symmetry_group_IT_number 2
_symmetry_cell_setting 'triclinic'
loop_
_space_group_symop_operation_xyz
x,y,z
-x,-y,-z
loop_
_atom_site_type_symbol
_atom_site_label
_atom_site_fract_x
_atom_site_fract_y
_atom_site_fract_z
Si Si1 0.778813 0.416751 0.309078
Si Si2 0.902204 0.861606 0.578020
Si Si3 0.154561 0.766105 0.062180
Si Si4 0.538526 0.834672 0.758694
Si Si5 0.965645 0.674438 0.199833
Si Si6 0.425274 0.449769 0.772812
Si Si7 0.730271 0.707162 0.592448
O O1 0.764641 0.390350 0.758591
O O2 0.745756 0.693890 0.372777
O O3 0.865604 0.195710 0.473398
O O4 0.812398 0.382732 0.103342
O O5 0.932908 0.749476 0.395058
O O6 0.807396 0.814300 0.643221
O O7 0.877957 0.894775 0.041027
O O8 0.989357 0.666353 0.744799
O O9 0.058570 0.738658 0.141529
O O10 0.486816 0.641315 0.723445
O O11 0.625032 0.845562 0.633096
O O12 0.528330 0.841025 0.273770
O O13 0.577017 0.672388 0.990450
O O14 0.318612 0.633516 0.675563
#
# Coordination Sequence:
#
# PCOD9042184 Si02
#       7
#     2   2   2   2   2   2   2
#     4  11  23  39  63  96 129 170 223 276 336 403
#     4   9  20  38  60  96 128 166 216 282 328 409
#     4   9  18  40  64  90 126 176 214 276 336 407
#     4  10  23  44  69  99 137 181 228 280 338 410
#     4   8  16  38  64  84 132 170 210 274 347 390
#     4  10  23  44  69  99 137 181 228 280 338 410
#     4  11  23  39  63  96 129 170 223 276 336 403
#
# _framework density 26.678739
#
# number of rings (size 3 to 8) (size 9 to 14) (size 15 to 20)
#    0.000    2.286    1.429    0.000    4.000    1.143 
#    0.000   32.857    0.000    0.000    0.000    0.000 
#    0.000    0.000    0.000    0.000    0.000    0.000 
#
# Total GULP energy -78266.794648 kJ/mol
# GULP energy per Si atom -5590.485332 kJ/mol
# Density = 2.661802 g / cm^3
# Si number density = 26.678739 Si / 1000 Ang^3
#
#
#
# Elastic Constant Matrix: (Units=GPa)
#
#
# Indices 1 2 3 4 5 6 
#
# 1 177.5349 62.1892 23.0255 12.3465 -22.4645 -8.6099
# 2 62.1892 129.6795 40.3367 -2.2021 -3.2930 -17.5759
# 3 23.0255 40.3367 104.2128 5.7048 -14.4949 -12.9690
# 4 12.3465 -2.2021 5.7048 41.2491 -13.5109 10.0302
# 5 -22.4645 -3.2930 -14.4949 -13.5109 41.1940 2.8417
# 6 -8.6099 -17.5759 -12.9690 10.0302 2.8417 30.4571
#
#
#
# Elastic Compliance Matrix: (Units=1/GPa)
#
#
# Indices 1 2 3 4 5 6 
#
# 1 0.007366 -0.003526 0.000325 -0.001420 0.003360 0.000340
# 2 -0.003526 0.010916 -0.003296 0.000342 -0.002375 0.004008
# 3 0.000325 -0.003296 0.011775 -0.001668 0.003272 0.003448
# 4 -0.001420 0.000342 -0.001668 0.031008 0.009666 -0.012028
# 5 0.003360 -0.002375 0.003272 0.009666 0.030589 -0.005064
# 6 0.000340 0.004008 0.003448 -0.012028 -0.005064 0.041144
#
#
# Mechanical properties :
#
#
# Convention : Reuss Voigt Hill
#
# Bulk Modulus (GPa) = 58.60920 73.61444 66.11182
# Shear Modulus (GPa) = 33.00733 41.63844 37.32288
#
# Velocity S-wave (km/s) = 3.52122 3.95490 3.74434
# Velocity P-wave (km/s) = 6.20872 6.96475 6.59758
#
# Compressibility (1/GPa) = 0.01706217
#
# Stress axis : x y z
#
# Youngs Moduli (GPa) = 135.75452 91.60468 84.92276
#
# Poissons Ratio (x) = 0.32303 -0.02758
# Poissons Ratio (y) = 0.47871 0.27994
# Poissons Ratio (z) = -0.04409 0.30197
#
# Static dielectric constant tensor:
#      x y z
#    x 1.997100 0.044940 -0.042240 
#    y 0.044940 2.161800 -0.076150 
#    z -0.042240 -0.076150 2.145650 
# 
# From -- ./inp_files/88811.got.cif
#   From: 2010.05.17/outbox.cif.g08.bks.cpg/sg2_45_cif.got.tgz:88811.got - 2010.06.03 11:33:40.
