data_PCOD9042572
_publ_section_title
;
Structure prediction by ZEFSAII (Michael W. Deem and Ramdas Pophale) SiO2 
 PCOD9042572
Probable space group: P -1
;
_chemical_formula_sum "Si O2"
_cell_formula_units_Z 13
_cell_length_a 11.787765
_cell_length_b 8.892834
_cell_length_c 14.442917
_cell_angle_alpha 140.378217
_cell_angle_beta 131.937980
_cell_angle_gamma 37.301425
_cell_volume 579.015231
_symmetry_space_group_name_H-M "P -1"
_symmetry_group_IT_number 2
_symmetry_cell_setting 'triclinic'
loop_
_space_group_symop_operation_xyz
x,y,z
-x,-y,-z
loop_
_atom_site_type_symbol
_atom_site_label
_atom_site_fract_x
_atom_site_fract_y
_atom_site_fract_z
Si Si1 0.000000 0.500000 0.000000
Si Si2 0.680402 0.944957 0.966903
Si Si3 0.271682 0.745869 0.594101
Si Si4 0.750978 0.693617 0.123352
Si Si5 0.721277 0.373935 0.671345
Si Si6 0.027652 0.754359 0.628007
Si Si7 0.833260 0.222965 0.083274
O O1 0.170914 0.133577 0.908929
O O2 0.907243 0.461254 0.026036
O O3 0.774685 0.591642 0.838513
O O4 0.460080 0.124530 0.948950
O O5 0.707017 0.105623 0.976025
O O6 0.497266 0.545059 0.641766
O O7 0.240193 0.671884 0.438871
O O8 0.168290 0.689779 0.589302
O O9 0.210914 0.075716 0.712037
O O10 0.739617 0.530095 0.126908
O O11 0.838622 0.073433 0.648384
O O12 0.099796 0.757191 0.770201
O O13 0.000000 0.500000 0.500000
O O14 0.000000 0.000000 0.000000
#
# Coordination Sequence:
#
# PCOD9042572 Si02
#       7
#     1   2   2   2   2   2   2
#     4  12  22  40  62  94 128 166 230 274 322 394
#     4  11  23  42  69  96 133 176 218 275 339 396
#     4  10  23  45  70  99 131 172 230 274 332 403
#     4  11  24  43  67  96 132 179 221 275 336 394
#     4  10  23  44  72  99 131 176 219 280 335 399
#     4  12  27  44  69 100 133 179 224 277 336 398
#     4  12  26  44  65  99 142 178 221 280 332 398
#
# _framework density 22.451912
#
# number of rings (size 3 to 8) (size 9 to 14) (size 15 to 20)
#    0.000    0.923    1.538    5.077    2.154    1.846 
#    2.769    0.000    0.000    0.000    0.000    0.000 
#    0.000    0.000    0.000    0.000    0.000    0.000 
#
# Total GULP energy -72500.967959 kJ/mol
# GULP energy per Si atom -5576.997535 kJ/mol
# Density = 2.240081 g / cm^3
# Si number density = 22.451912 Si / 1000 Ang^3
#
#
#
# Elastic Constant Matrix: (Units=GPa)
#
#
# Indices 1 2 3 4 5 6 
#
# 1 150.0605 72.1791 46.0125 15.0459 13.9956 15.9093
# 2 72.1791 160.4902 43.2739 2.6701 8.5791 20.6808
# 3 46.0125 43.2739 102.2503 17.8703 1.8226 23.4810
# 4 15.0459 2.6701 17.8703 30.2000 9.3858 2.0931
# 5 13.9956 8.5791 1.8226 9.3858 32.0380 2.0240
# 6 15.9093 20.6808 23.4810 2.0931 2.0240 59.6679
#
#
#
# Elastic Compliance Matrix: (Units=1/GPa)
#
#
# Indices 1 2 3 4 5 6 
#
# 1 0.009520 -0.003456 -0.002315 -0.002299 -0.002411 -0.000267
# 2 -0.003456 0.008581 -0.002267 0.002827 -0.001411 -0.001212
# 3 -0.002315 -0.002267 0.013966 -0.007669 0.003319 -0.003937
# 4 -0.002299 0.002827 -0.007669 0.042088 -0.011746 0.001573
# 5 -0.002411 -0.001411 0.003319 -0.011746 0.035958 -0.000982
# 6 -0.000267 -0.001212 -0.003937 0.001573 -0.000982 0.018778
#
#
# Mechanical properties :
#
#
# Convention : Reuss Voigt Hill
#
# Bulk Modulus (GPa) = 62.53483 81.74801 72.14142
# Shear Modulus (GPa) = 33.26737 41.13688 37.20213
#
# Velocity S-wave (km/s) = 3.85348 4.28509 4.07500
# Velocity P-wave (km/s) = 6.90741 7.80846 7.37171
#
# Compressibility (1/GPa) = 0.01599109
#
# Stress axis : x y z
#
# Youngs Moduli (GPa) = 105.04433 116.53786 71.59994
#
# Poissons Ratio (x) = 0.40271 0.16577
# Poissons Ratio (y) = 0.36299 0.16233
# Poissons Ratio (z) = 0.24321 0.26421
#
# Static dielectric constant tensor:
#      x y z
#    x 1.829020 0.151720 -0.108390 
#    y 0.151720 1.422730 0.527450 
#    z -0.108390 0.527450 1.293200 
# 
# From -- ./inp_files/263940.got.cif
#   From: 2010.05.17/outbox.cif.g08.bks.cpg/sg2_132_cif.got.tgz:263940.got - 2010.06.03 11:33:40.
