data_PCOD9042326
_publ_section_title
;
Structure prediction by ZEFSAII (Michael W. Deem and Ramdas Pophale) SiO2 
 PCOD9042326
Probable space group: P -1
;
_chemical_formula_sum "Si O2"
_cell_formula_units_Z 16
_cell_length_a 11.024231
_cell_length_b 15.923061
_cell_length_c 9.543074
_cell_angle_alpha 60.669285
_cell_angle_beta 62.669938
_cell_angle_gamma 114.486024
_cell_volume 732.204192
_symmetry_space_group_name_H-M "P -1"
_symmetry_group_IT_number 2
_symmetry_cell_setting 'triclinic'
loop_
_space_group_symop_operation_xyz
x,y,z
-x,-y,-z
loop_
_atom_site_type_symbol
_atom_site_label
_atom_site_fract_x
_atom_site_fract_y
_atom_site_fract_z
Si Si1 0.169342 0.245268 0.736802
Si Si2 0.933794 0.275673 0.301041
Si Si3 0.585930 0.566340 0.058080
Si Si4 0.728822 0.907570 0.076754
Si Si5 0.778590 0.337402 0.523922
Si Si6 0.547640 0.120217 0.106036
Si Si7 0.275738 0.139789 0.204304
Si Si8 0.972244 0.318254 0.918225
O O1 0.399870 0.405633 0.390648
O O2 0.224324 0.175517 0.837205
O O3 0.109276 0.297995 0.829548
O O4 0.934825 0.091365 0.888664
O O5 0.970096 0.385796 0.296899
O O6 0.678137 0.080358 0.641207
O O7 0.928741 0.302867 0.119242
O O8 0.147236 0.322698 0.162149
O O9 0.500000 0.500000 0.000000
O O10 0.589997 0.680764 0.002768
O O11 0.458138 0.786299 0.348181
O O12 0.736154 0.911284 0.902528
O O13 0.876528 0.501652 0.363901
O O14 0.701381 0.239360 0.788942
O O15 0.420275 0.143859 0.211732
O O16 0.723273 0.175985 0.080732
O O17 0.000000 0.000000 0.500000
#
# Coordination Sequence:
#
# PCOD9042326 Si02
#       8
#     2   2   2   2   2   2   2   2
#     4  11  24  43  69 100 136 175 231 280 342 407
#     4  12  26  46  68 103 142 181 226 284 344 405
#     4  12  27  42  70 103 137 180 231 281 338 407
#     4  10  23  44  70  97 131 183 222 281 342 406
#     4  11  25  45  70  96 141 183 228 280 342 408
#     4  11  25  43  73  98 135 185 228 281 342 406
#     4  11  22  44  66  98 134 174 226 279 339 399
#     4  12  26  45  71 104 138 181 228 285 342 411
#
# _framework density 21.851828000000001
#
# number of rings (size 3 to 8) (size 9 to 14) (size 15 to 20)
#    0.000    0.750    1.250    6.000    5.250    1.500 
#    2.250    0.000    0.000    0.000    0.000    0.000 
#    0.000    0.000    0.000    0.000    0.000    0.000 
#
# Total GULP energy -89542.771878 kJ/mol
# GULP energy per Si atom -5596.423242 kJ/mol
# Density = 2.180209 g / cm^3
# Si number density = 21.851828 Si / 1000 Ang^3
#
#
#
# Elastic Constant Matrix: (Units=GPa)
#
#
# Indices 1 2 3 4 5 6 
#
# 1 77.6548 6.1705 2.8704 6.6401 -11.5250 -4.2478
# 2 6.1705 49.5038 20.4176 6.6280 -0.3163 -10.1880
# 3 2.8704 20.4176 71.4056 -0.8297 7.9683 -7.1993
# 4 6.6401 6.6280 -0.8297 40.3740 -1.2879 -2.9959
# 5 -11.5250 -0.3163 7.9683 -1.2879 30.2527 4.2103
# 6 -4.2478 -10.1880 -7.1993 -2.9959 4.2103 42.7313
#
#
#
# Elastic Compliance Matrix: (Units=1/GPa)
#
#
# Indices 1 2 3 4 5 6 
#
# 1 0.013979 -0.001023 -0.000863 -0.001952 0.005413 0.000330
# 2 -0.001023 0.024444 -0.006658 -0.003637 0.000871 0.004264
# 3 -0.000863 -0.006658 0.016691 0.001548 -0.004970 0.001737
# 4 -0.001952 -0.003637 0.001548 0.025787 -0.000235 0.001031
# 5 0.005413 0.000871 -0.004970 -0.000235 0.036947 -0.003748
# 6 0.000330 0.004264 0.001737 0.001031 -0.003748 0.025186
#
#
# Mechanical properties :
#
#
# Convention : Reuss Voigt Hill
#
# Bulk Modulus (GPa) = 26.29742 28.60901 27.45321
# Shear Modulus (GPa) = 28.93580 33.94534 31.44057
#
# Velocity S-wave (km/s) = 3.64288 3.94564 3.79728
# Velocity P-wave (km/s) = 5.45478 5.82049 5.64060
#
# Compressibility (1/GPa) = 0.03802655
#
# Stress axis : x y z
#
# Youngs Moduli (GPa) = 71.53607 40.90978 59.91338
#
# Poissons Ratio (x) = 0.04184 0.05170
# Poissons Ratio (y) = 0.07316 0.39890
# Poissons Ratio (z) = 0.06173 0.27238
#
# Static dielectric constant tensor:
#      x y z
#    x 1.843790 -0.009610 -0.022560 
#    y -0.009610 1.793430 -0.015140 
#    z -0.022560 -0.015140 1.810940 
# 
# From -- ./inp_files/272413.got.cif
#   From: 2010.05.17/outbox.cif.g08.bks.cpg/sg2_137_cif.got.tgz:272413.got - 2010.06.03 11:33:40.
