data_PCOD9042012
_publ_section_title
;
Structure prediction by ZEFSAII (Michael W. Deem and Ramdas Pophale) SiO2 
 PCOD9042012
Probable space group: P -1
;
_chemical_formula_sum "Si O2"
_cell_formula_units_Z 16
_cell_length_a 11.835774
_cell_length_b 14.149735
_cell_length_c 14.161720
_cell_angle_alpha 148.982429
_cell_angle_beta 64.706820
_cell_angle_gamma 134.271460
_cell_volume 775.461362
_symmetry_space_group_name_H-M "P -1"
_symmetry_group_IT_number 2
_symmetry_cell_setting 'triclinic'
loop_
_space_group_symop_operation_xyz
x,y,z
-x,-y,-z
loop_
_atom_site_type_symbol
_atom_site_label
_atom_site_fract_x
_atom_site_fract_y
_atom_site_fract_z
Si Si1 0.406358 0.256705 0.081446
Si Si2 0.005504 0.995163 0.671669
Si Si3 0.683496 0.672387 0.024453
Si Si4 0.041737 0.440379 0.764212
Si Si5 0.329978 0.808869 0.826674
Si Si6 0.673013 0.613814 0.590529
Si Si7 0.244707 0.529634 0.933308
Si Si8 0.331546 0.752046 0.288250
O O1 0.331559 0.253122 0.007381
O O2 0.347552 0.329581 0.248846
O O3 0.619876 0.457068 0.162668
O O4 0.342360 0.987492 0.902444
O O5 0.954105 0.775389 0.433955
O O6 0.841794 0.868558 0.690360
O O7 0.092638 0.252639 0.803351
O O8 0.161049 0.080701 0.756848
O O9 0.721863 0.495423 0.855345
O O10 0.500000 0.500000 0.000000
O O11 0.158227 0.646128 0.815079
O O12 0.149288 0.577767 0.941409
O O13 0.841107 0.299676 0.704582
O O14 0.322028 0.601445 0.603375
O O15 0.500000 0.000000 0.000000
O O16 0.500000 0.500000 0.500000
O O17 0.365377 0.739389 0.154638
O O18 0.500000 0.000000 0.500000
#
# Coordination Sequence:
#
# PCOD9042012 Si02
#       8
#     2   2   2   2   2   2   2   2
#     4  12  24  44  73  96 143 182 231 282 352 411
#     4  10  23  44  68  98 140 174 231 289 345 414
#     4  11  23  46  67  94 138 184 226 284 351 408
#     4  11  23  43  68 105 134 177 235 290 344 413
#     4  11  23  44  68  99 144 179 228 294 345 410
#     4  11  24  44  69 102 138 184 230 285 352 411
#     4  11  23  43  72 103 132 185 228 292 357 397
#     4  11  25  42  67 100 138 180 227 288 351 411
#
# _framework density 20.632878999999999
#
# number of rings (size 3 to 8) (size 9 to 14) (size 15 to 20)
#    0.000    1.000    5.000    2.250    3.500    1.500 
#    2.250    1.250    0.000    0.000    0.000    0.000 
#    0.000    0.000    0.000    0.000    0.000    0.000 
#
# Total GULP energy -89387.160367 kJ/mol
# GULP energy per Si atom -5586.697523 kJ/mol
# Density = 2.058592 g / cm^3
# Si number density = 20.632879 Si / 1000 Ang^3
#
#
#
# Elastic Constant Matrix: (Units=GPa)
#
#
# Indices 1 2 3 4 5 6 
#
# 1 126.9175 53.8897 23.2252 -6.3651 9.4823 -22.3222
# 2 53.8897 147.8279 35.6245 -1.2093 -4.6549 -2.5389
# 3 23.2252 35.6245 69.7423 -1.0464 -3.0100 -8.6811
# 4 -6.3651 -1.2093 -1.0464 26.2083 6.4161 -0.1630
# 5 9.4823 -4.6549 -3.0100 6.4161 31.9296 6.8558
# 6 -22.3222 -2.5389 -8.6811 -0.1630 6.8558 47.4091
#
#
#
# Elastic Compliance Matrix: (Units=1/GPa)
#
#
# Indices 1 2 3 4 5 6 
#
# 1 0.011489 -0.003938 -0.001289 0.004110 -0.006194 0.005872
# 2 -0.003938 0.009091 -0.003530 -0.001421 0.002973 -0.002449
# 3 -0.001289 -0.003530 0.016881 -0.000035 0.001005 0.002150
# 4 0.004110 -0.001421 -0.000035 0.041696 -0.010566 0.003524
# 5 -0.006194 0.002973 0.001005 -0.010566 0.037536 -0.008038
# 6 0.005872 -0.002449 0.002150 0.003524 -0.008038 0.025295
#
#
# Mechanical properties :
#
#
# Convention : Reuss Voigt Hill
#
# Bulk Modulus (GPa) = 50.13341 63.32961 56.73151
# Shear Modulus (GPa) = 30.09308 36.55926 33.32617
#
# Velocity S-wave (km/s) = 3.82318 4.21395 4.02331
# Velocity P-wave (km/s) = 6.62114 7.37812 7.00986
#
# Compressibility (1/GPa) = 0.01994678
#
# Stress axis : x y z
#
# Youngs Moduli (GPa) = 87.04004 110.00041 59.23699
#
# Poissons Ratio (x) = 0.43320 0.07636
# Poissons Ratio (y) = 0.34278 0.20910
# Poissons Ratio (z) = 0.11220 0.38830
#
# Static dielectric constant tensor:
#      x y z
#    x 1.735830 0.019470 0.002860 
#    y 0.019470 1.745440 -0.046820 
#    z 0.002860 -0.046820 1.804000 
# 
# From -- ./inp_files/522616.got.cif
#   From: 2010.05.17/outbox.cif.g08.bks.cpg/sg2_262_cif.got.tgz:522616.got - 2010.06.03 11:33:40.
