data_PCOD9042474
_publ_section_title
;
Structure prediction by ZEFSAII (Michael W. Deem and Ramdas Pophale) SiO2 
 PCOD9042474
Probable space group: P -1
;
_chemical_formula_sum "Si O2"
_cell_formula_units_Z 16
_cell_length_a 8.385620
_cell_length_b 10.791856
_cell_length_c 12.421066
_cell_angle_alpha 53.432616
_cell_angle_beta 130.458973
_cell_angle_gamma 118.357281
_cell_volume 679.691937
_symmetry_space_group_name_H-M "P -1"
_symmetry_group_IT_number 2
_symmetry_cell_setting 'triclinic'
loop_
_space_group_symop_operation_xyz
x,y,z
-x,-y,-z
loop_
_atom_site_type_symbol
_atom_site_label
_atom_site_fract_x
_atom_site_fract_y
_atom_site_fract_z
Si Si1 0.647430 0.054799 0.715350
Si Si2 0.547535 0.607068 0.139924
Si Si3 0.163621 0.440728 0.515801
Si Si4 0.988813 0.914715 0.424924
Si Si5 0.005696 0.694287 0.183232
Si Si6 0.861417 0.621242 0.925042
Si Si7 0.603470 0.066736 0.118555
Si Si8 0.336482 0.133877 0.378138
O O1 0.528341 0.166464 0.528206
O O2 0.878720 0.143433 0.800526
O O3 0.517462 0.011355 0.789219
O O4 0.637208 0.898655 0.720011
O O5 0.627172 0.577520 0.312559
O O6 0.769251 0.645115 0.152872
O O7 0.376977 0.460769 0.107239
O O8 0.420108 0.752128 0.990014
O O9 0.079740 0.269126 0.520554
O O10 0.000000 0.500000 0.500000
O O11 0.153377 0.565848 0.351534
O O12 0.827252 0.006255 0.244246
O O13 0.000000 0.000000 0.500000
O O14 0.218510 0.965117 0.450254
O O15 0.980810 0.697710 0.042533
O O16 0.817497 0.739008 0.750865
O O17 0.000000 0.500000 0.000000
O O18 0.500000 0.000000 0.000000
#
# Coordination Sequence:
#
# PCOD9042474 Si02
#       8
#     2   2   2   2   2   2   2   2
#     4  11  26  46  73 104 135 188 233 293 349 420
#     4  11  24  47  68 100 137 186 229 282 355 421
#     4  10  23  44  71  99 137 187 234 283 349 428
#     4  12  25  45  74 107 140 189 237 295 356 416
#     4  11  26  45  72 100 138 182 237 285 348 420
#     4  12  28  43  67 102 141 182 225 293 346 413
#     4  12  26  44  72 105 143 182 234 293 356 420
#     4  11  25  48  71 101 143 181 239 285 353 426
#
# _framework density 23.540074000000001
#
# number of rings (size 3 to 8) (size 9 to 14) (size 15 to 20)
#    0.000    0.750    2.500    4.125    7.000    4.000 
#    0.000    1.875    0.000    0.000    0.000    0.000 
#    0.000    0.000    0.000    0.000    0.000    0.000 
#
# Total GULP energy -89381.297499 kJ/mol
# GULP energy per Si atom -5586.331094 kJ/mol
# Density = 2.348650 g / cm^3
# Si number density = 23.540074 Si / 1000 Ang^3
#
#
#
# Elastic Constant Matrix: (Units=GPa)
#
#
# Indices 1 2 3 4 5 6 
#
# 1 51.5569 17.7754 2.3759 13.7497 -1.0570 5.5711
# 2 17.7754 123.7560 52.1960 12.3274 10.4217 -0.8645
# 3 2.3759 52.1960 137.5065 10.9129 10.4329 -14.3348
# 4 13.7497 12.3274 10.9129 54.6402 -8.0365 5.9276
# 5 -1.0570 10.4217 10.4329 -8.0365 34.6704 4.9445
# 6 5.5711 -0.8645 -14.3348 5.9276 4.9445 35.6729
#
#
#
# Elastic Compliance Matrix: (Units=1/GPa)
#
#
# Indices 1 2 3 4 5 6 
#
# 1 0.021950 -0.003129 0.000871 -0.004631 0.000627 -0.002471
# 2 -0.003129 0.010375 -0.003635 -0.001152 -0.002358 -0.000202
# 3 0.000871 -0.003635 0.009480 -0.002184 -0.002860 0.004345
# 4 -0.004631 -0.001152 -0.002184 0.021634 0.006545 -0.004685
# 5 0.000627 -0.002358 -0.002860 0.006545 0.032941 -0.006958
# 6 -0.002471 -0.000202 0.004345 -0.004685 -0.006958 0.031902
#
#
# Mechanical properties :
#
#
# Convention : Reuss Voigt Hill
#
# Bulk Modulus (GPa) = 33.31182 50.83489 42.07336
# Shear Modulus (GPa) = 33.31692 41.02817 37.17255
#
# Velocity S-wave (km/s) = 3.76617 4.17934 3.97812
# Velocity P-wave (km/s) = 5.75272 6.70307 6.24600
#
# Compressibility (1/GPa) = 0.03001937
#
# Stress axis : x y z
#
# Youngs Moduli (GPa) = 45.55899 96.38737 105.48139
#
# Poissons Ratio (x) = 0.30156 -0.09185
# Poissons Ratio (y) = 0.14254 0.38340
# Poissons Ratio (z) = -0.03967 0.35035
#
# Static dielectric constant tensor:
#      x y z
#    x 1.908020 0.020840 -0.092410 
#    y 0.020840 1.921130 -0.019730 
#    z -0.092410 -0.019730 1.833750 
# 
# From -- ./inp_files/392392.got.cif
#   From: 2010.05.17/outbox.cif.g08.bks.cpg/sg2_197_cif.got.tgz:392392.got - 2010.06.03 11:33:40.
