data_PCOD9042888
_publ_section_title
;
Structure prediction by ZEFSAII (Michael W. Deem and Ramdas Pophale) SiO2 
 PCOD9042888
Probable space group: P -1
;
_chemical_formula_sum "Si O2"
_cell_formula_units_Z 14
_cell_length_a 16.093111
_cell_length_b 15.691245
_cell_length_c 9.418876
_cell_angle_alpha 35.158538
_cell_angle_beta 145.290606
_cell_angle_gamma 152.151549
_cell_volume 594.724996
_symmetry_space_group_name_H-M "P -1"
_symmetry_group_IT_number 2
_symmetry_cell_setting 'triclinic'
loop_
_space_group_symop_operation_xyz
x,y,z
-x,-y,-z
loop_
_atom_site_type_symbol
_atom_site_label
_atom_site_fract_x
_atom_site_fract_y
_atom_site_fract_z
Si Si1 0.786335 0.310745 0.478237
Si Si2 0.436344 0.293470 0.993147
Si Si3 0.706223 0.223461 0.794811
Si Si4 0.417212 0.280171 0.663744
Si Si5 0.277107 0.486165 0.431303
Si Si6 0.281038 0.993948 0.419226
Si Si7 0.886879 0.086513 0.414449
O O1 0.766724 0.219219 0.727326
O O2 0.000000 0.500000 0.500000
O O3 0.736173 0.166647 0.477445
O O4 0.643801 0.357564 0.222349
O O5 0.390076 0.208946 0.882930
O O6 0.417191 0.458779 0.740518
O O7 0.299823 0.135472 0.136099
O O8 0.805658 0.443388 0.677797
O O9 0.482665 0.113727 0.620913
O O10 0.760654 0.134364 0.103194
O O11 0.500000 0.500000 0.500000
O O12 0.598920 0.340665 0.746070
O O13 0.221959 0.128117 0.509394
O O14 0.103162 0.270596 0.424544
O O15 0.127380 0.920629 0.425717
#
# Coordination Sequence:
#
# PCOD9042888 Si02
#       7
#     2   2   2   2   2   2   2
#     4  11  24  41  66 100 132 177 227 274 335 401
#     4  10  24  45  66  92 142 170 223 278 336 396
#     4  11  23  43  69  97 137 177 225 279 329 400
#     4  10  23  45  65  99 136 177 218 276 339 395
#     4  11  25  43  69 104 131 180 226 273 343 391
#     4  11  23  43  68  96 132 180 222 277 340 388
#     4  12  24  42  73  99 136 177 229 276 327 407
#
# _framework density 23.540289999999999
#
# number of rings (size 3 to 8) (size 9 to 14) (size 15 to 20)
#    0.000    1.143    1.429    5.143    4.000    5.143 
#    5.143    0.000    0.000    0.000    0.000    0.000 
#    0.000    0.000    0.000    0.000    0.000    0.000 
#
# Total GULP energy -78223.799702 kJ/mol
# GULP energy per Si atom -5587.414264 kJ/mol
# Density = 2.348671 g / cm^3
# Si number density = 23.540290 Si / 1000 Ang^3
#
#
#
# Elastic Constant Matrix: (Units=GPa)
#
#
# Indices 1 2 3 4 5 6 
#
# 1 95.6287 27.1337 33.5368 -0.6258 -28.4477 -10.0179
# 2 27.1337 122.5401 10.1670 -6.0051 -3.4713 -5.9057
# 3 33.5368 10.1670 93.6354 -16.2860 -16.4866 -2.7960
# 4 -0.6258 -6.0051 -16.2860 18.3814 -6.7389 4.0589
# 5 -28.4477 -3.4713 -16.4866 -6.7389 34.4672 -7.5157
# 6 -10.0179 -5.9057 -2.7960 4.0589 -7.5157 34.7463
#
#
#
# Elastic Compliance Matrix: (Units=1/GPa)
#
#
# Indices 1 2 3 4 5 6 
#
# 1 0.017342 -0.002801 -0.003081 0.000562 0.014257 0.007294
# 2 -0.002801 0.008885 0.000461 0.002950 -0.000560 0.000274
# 3 -0.003081 0.000461 0.016399 0.017759 0.008898 0.000360
# 4 0.000562 0.002950 0.017759 0.080571 0.024571 -0.002005
# 5 0.014257 -0.000560 0.008898 0.024571 0.052675 0.013255
# 6 0.007294 0.000274 0.000360 -0.002005 0.013255 0.034060
#
#
# Mechanical properties :
#
#
# Convention : Reuss Voigt Hill
#
# Bulk Modulus (GPa) = 31.46322 50.38657 40.92490
# Shear Modulus (GPa) = 21.61066 33.58341 27.59704
#
# Velocity S-wave (km/s) = 3.03319 3.78118 3.42765
# Velocity P-wave (km/s) = 5.06573 6.36506 5.75220
#
# Compressibility (1/GPa) = 0.03178314
#
# Stress axis : x y z
#
# Youngs Moduli (GPa) = 57.66485 112.55550 60.97782
#
# Poissons Ratio (x) = 0.31530 0.18788
# Poissons Ratio (y) = 0.16154 -0.02813
# Poissons Ratio (z) = 0.17767 -0.05192
#
# Static dielectric constant tensor:
#      x y z
#    x 2.060730 -0.037370 0.000740 
#    y -0.037370 1.945680 -0.031210 
#    z 0.000740 -0.031210 1.886010 
# 
# From -- ./inp_files/261331.got.cif
#   From: 2010.05.17/outbox.cif.g08.bks.cpg/sg2_131_cif.got.tgz:261331.got - 2010.06.03 11:33:40.
