data_PCOD9042986
_publ_section_title
;
Structure prediction by ZEFSAII (Michael W. Deem and Ramdas Pophale) SiO2 
 PCOD9042986
Probable space group: P -1
;
_chemical_formula_sum "Si O2"
_cell_formula_units_Z 16
_cell_length_a 18.768736
_cell_length_b 10.007971
_cell_length_c 10.855679
_cell_angle_alpha 57.846462
_cell_angle_beta 128.788299
_cell_angle_gamma 156.432640
_cell_volume 629.689625
_symmetry_space_group_name_H-M "P -1"
_symmetry_group_IT_number 2
_symmetry_cell_setting 'triclinic'
loop_
_space_group_symop_operation_xyz
x,y,z
-x,-y,-z
loop_
_atom_site_type_symbol
_atom_site_label
_atom_site_fract_x
_atom_site_fract_y
_atom_site_fract_z
Si Si1 0.526360 0.264688 0.580545
Si Si2 0.774678 0.041500 0.938087
Si Si3 0.066019 0.842278 0.702928
Si Si4 0.112960 0.048060 0.254520
Si Si5 0.271421 0.356629 0.003633
Si Si6 0.709104 0.513400 0.416167
Si Si7 0.482714 0.076421 0.163416
Si Si8 0.900019 0.303893 0.663787
O O1 0.706445 0.660509 0.598983
O O2 0.535741 0.231092 0.463657
O O3 0.582300 0.201728 0.757675
O O4 0.303469 0.978308 0.491216
O O5 0.660292 0.014526 0.884457
O O6 0.854608 0.195649 0.812049
O O7 0.661634 0.703389 0.958784
O O8 0.921019 0.217177 0.120029
O O9 0.885677 0.687143 0.581339
O O10 0.033563 0.661679 0.650405
O O11 0.245231 0.233610 0.681008
O O12 0.018286 0.730258 0.292423
O O13 0.219644 0.245722 0.142817
O O14 0.936135 0.900827 0.151183
O O15 0.439141 0.740023 0.970932
O O16 0.665983 0.366839 0.312306
#
# Coordination Sequence:
#
# PCOD9042986 Si02
#       8
#     2   2   2   2   2   2   2   2
#     4  12  24  42  65  96 135 174 216 267 327 384
#     4  11  22  39  69 102 132 162 213 275 339 378
#     4  11  23  38  66  98 132 169 213 265 335 385
#     4  10  25  44  66  89 132 183 218 262 311 380
#     4  10  23  45  67  94 132 170 222 267 317 388
#     4  11  23  41  65 100 135 167 205 277 342 383
#     4  12  23  41  71  98 133 166 210 279 334 385
#     4  11  23  43  64  95 132 174 224 261 316 392
#
# _framework density 25.409341999999999
#
# number of rings (size 3 to 8) (size 9 to 14) (size 15 to 20)
#    0.000    1.000    3.750    3.000    1.750    3.500 
#    0.000    3.750    0.000    0.000    0.000    0.000 
#    0.000    0.000    0.000    0.000    0.000    0.000 
#
# Total GULP energy -89476.118978 kJ/mol
# GULP energy per Si atom -5592.257436 kJ/mol
# Density = 2.535151 g / cm^3
# Si number density = 25.409342 Si / 1000 Ang^3
#
#
#
# Elastic Constant Matrix: (Units=GPa)
#
#
# Indices 1 2 3 4 5 6 
#
# 1 69.5790 17.9418 33.0084 -7.1066 7.1298 -10.9368
# 2 17.9418 77.7156 2.6874 -17.7879 0.4455 -34.1007
# 3 33.0084 2.6874 91.3323 6.5200 13.9485 -2.8278
# 4 -7.1066 -17.7879 6.5200 36.3454 -1.8205 -4.9359
# 5 7.1298 0.4455 13.9485 -1.8205 33.5431 -9.5157
# 6 -10.9368 -34.1007 -2.8278 -4.9359 -9.5157 41.0808
#
#
#
# Elastic Compliance Matrix: (Units=1/GPa)
#
#
# Indices 1 2 3 4 5 6 
#
# 1 0.019261 -0.001028 -0.007237 0.005199 0.000492 0.004515
# 2 -0.001028 0.030880 -0.002639 0.019987 0.010505 0.030012
# 3 -0.007237 -0.002639 0.014930 -0.006440 -0.006508 -0.005371
# 4 0.005199 0.019987 -0.006440 0.043441 0.010831 0.025260
# 5 0.000492 0.010505 -0.006508 0.010831 0.038120 0.018534
# 6 0.004515 0.030012 -0.005371 0.025260 0.018534 0.057415
#
#
# Mechanical properties :
#
#
# Convention : Reuss Voigt Hill
#
# Bulk Modulus (GPa) = 23.11543 38.43358 30.77450
# Shear Modulus (GPa) = 20.80940 34.52648 27.66794
#
# Velocity S-wave (km/s) = 2.86486 3.69020 3.30341
# Velocity P-wave (km/s) = 4.47886 5.77195 5.16603
#
# Compressibility (1/GPa) = 0.04326114
#
# Stress axis : x y z
#
# Youngs Moduli (GPa) = 51.91848 32.38388 66.98033
#
# Poissons Ratio (x) = 0.03330 0.48476
# Poissons Ratio (y) = 0.05339 0.17675
# Poissons Ratio (z) = 0.37575 0.08546
#
# Static dielectric constant tensor:
#      x y z
#    x 1.956000 -0.010920 0.027590 
#    y -0.010920 2.079930 0.009170 
#    z 0.027590 0.009170 2.047850 
# 
# From -- ./inp_files/333817.got.cif
#   From: 2010.05.17/outbox.cif.g08.bks.cpg/sg2_167_cif.got.tgz:333817.got - 2010.06.03 11:33:40.
