data_PCOD9042841
_publ_section_title
;
Structure prediction by ZEFSAII (Michael W. Deem and Ramdas Pophale) SiO2 
 PCOD9042841
Probable space group: P -1
;
_chemical_formula_sum "Si O2"
_cell_formula_units_Z 14
_cell_length_a 12.154539
_cell_length_b 9.619401
_cell_length_c 14.726419
_cell_angle_alpha 114.910612
_cell_angle_beta 29.495041
_cell_angle_gamma 127.286173
_cell_volume 649.266273
_symmetry_space_group_name_H-M "P -1"
_symmetry_group_IT_number 2
_symmetry_cell_setting 'triclinic'
loop_
_space_group_symop_operation_xyz
x,y,z
-x,-y,-z
loop_
_atom_site_type_symbol
_atom_site_label
_atom_site_fract_x
_atom_site_fract_y
_atom_site_fract_z
Si Si1 0.110825 0.450640 0.525024
Si Si2 0.718722 0.711640 0.383307
Si Si3 0.233217 0.035195 0.908444
Si Si4 0.246727 0.171957 0.418241
Si Si5 0.538964 0.183712 0.557301
Si Si6 0.573541 0.389243 0.847831
Si Si7 0.830488 0.294102 0.026510
O O1 0.199193 0.333395 0.481727
O O2 0.187476 0.625261 0.580320
O O3 0.278685 0.501739 0.322818
O O4 0.797988 0.352214 0.710044
O O5 0.500000 0.500000 0.500000
O O6 0.732602 0.836861 0.490054
O O7 0.647661 0.774241 0.358091
O O8 0.993788 0.723416 0.180339
O O9 0.479456 0.139821 0.693635
O O10 0.304182 0.192132 0.973002
O O11 0.198931 0.851945 0.918332
O O12 0.000000 0.000000 0.000000
O O13 0.537190 0.233648 0.190721
O O14 0.000000 0.000000 0.500000
O O15 0.500000 0.000000 0.500000
O O16 0.500000 0.500000 0.000000
O O17 0.000000 0.500000 0.000000
#
# Coordination Sequence:
#
# PCOD9042841 Si02
#       7
#     2   2   2   2   2   2   2
#     4  10  23  45  64  99 141 174 230 289 333 420
#     4  12  24  46  69 103 138 183 241 281 339 433
#     4  11  24  43  68 105 135 169 240 289 332 417
#     4  12  27  46  70 101 145 185 230 291 358 407
#     4  11  23  41  71 100 135 180 228 290 347 400
#     4  10  24  43  70  97 136 182 227 279 352 409
#     4  12  25  44  76 102 141 187 233 288 351 416
#
# _framework density 21.562802999999999
#
# number of rings (size 3 to 8) (size 9 to 14) (size 15 to 20)
#    0.000    0.857    4.286    1.714    4.000    5.143 
#    0.000    0.000    0.000    0.000    0.000    0.000 
#    0.000    0.000    0.000    0.000    0.000    0.000 
#
# Total GULP energy -78061.162314 kJ/mol
# GULP energy per Si atom -5575.797308 kJ/mol
# Density = 2.151373 g / cm^3
# Si number density = 21.562803 Si / 1000 Ang^3
#
#
#
# Elastic Constant Matrix: (Units=GPa)
#
#
# Indices 1 2 3 4 5 6 
#
# 1 80.2473 48.8488 27.5680 -5.9171 -15.6054 0.3331
# 2 48.8488 150.7221 34.8080 -2.0812 -14.6067 10.0324
# 3 27.5680 34.8080 105.7830 2.9007 -18.6929 9.7343
# 4 -5.9171 -2.0812 2.9007 30.3961 7.0809 -1.5384
# 5 -15.6054 -14.6067 -18.6929 7.0809 41.1741 -2.4996
# 6 0.3331 10.0324 9.7343 -1.5384 -2.4996 50.4325
#
#
#
# Elastic Compliance Matrix: (Units=1/GPa)
#
#
# Indices 1 2 3 4 5 6 
#
# 1 0.016994 -0.004674 -0.002520 0.002539 0.003296 0.001545
# 2 -0.004674 0.008615 -0.001361 -0.000413 0.000653 -0.001400
# 3 -0.002520 -0.001361 0.011536 -0.002746 0.004161 -0.001817
# 4 0.002539 -0.000413 -0.002746 0.035186 -0.006400 0.001352
# 5 0.003296 0.000653 0.004161 -0.006400 0.028774 0.000276
# 6 0.001545 -0.001400 -0.001817 0.001352 0.000276 0.020502
#
#
# Mechanical properties :
#
#
# Convention : Reuss Voigt Hill
#
# Bulk Modulus (GPa) = 49.91536 62.13357 56.02447
# Shear Modulus (GPa) = 34.38869 39.43570 36.91220
#
# Velocity S-wave (km/s) = 3.99785 4.28118 4.14193
# Velocity P-wave (km/s) = 6.67154 7.30176 6.99375
#
# Compressibility (1/GPa) = 0.02003391
#
# Stress axis : x y z
#
# Youngs Moduli (GPa) = 58.84328 116.08075 86.68708
#
# Poissons Ratio (x) = 0.54258 0.21847
# Poissons Ratio (y) = 0.27504 0.11798
# Poissons Ratio (z) = 0.14830 0.15799
#
# Static dielectric constant tensor:
#      x y z
#    x 1.792120 0.033080 -0.029630 
#    y 0.033080 1.986890 -0.048840 
#    z -0.029630 -0.048840 1.776210 
# 
# From -- ./inp_files/465919.got.cif
#   From: 2010.05.17/outbox.cif.g08.bks.cpg/sg2_233_cif.got.tgz:465919.got - 2010.06.03 11:33:40.
