data_PCOD9042395
_publ_section_title
;
Structure prediction by ZEFSAII (Michael W. Deem and Ramdas Pophale) SiO2 
 PCOD9042395
Probable space group: P -1
;
_chemical_formula_sum "Si O2"
_cell_formula_units_Z 14
_cell_length_a 9.515636
_cell_length_b 11.500016
_cell_length_c 20.191762
_cell_angle_alpha 30.487554
_cell_angle_beta 137.795420
_cell_angle_gamma 117.454928
_cell_volume 643.191852
_symmetry_space_group_name_H-M "P -1"
_symmetry_group_IT_number 2
_symmetry_cell_setting 'triclinic'
loop_
_space_group_symop_operation_xyz
x,y,z
-x,-y,-z
loop_
_atom_site_type_symbol
_atom_site_label
_atom_site_fract_x
_atom_site_fract_y
_atom_site_fract_z
Si Si1 0.288523 0.824525 0.691997
Si Si2 0.063887 0.116004 0.028058
Si Si3 0.763447 0.797303 0.256898
Si Si4 0.451022 0.554654 0.241106
Si Si5 0.400977 0.187102 0.309012
Si Si6 0.468533 0.214024 0.066144
Si Si7 0.154318 0.931179 0.289558
O O1 0.412281 0.919291 0.634890
O O2 0.361657 0.850141 0.779091
O O3 0.391405 0.509949 0.870004
O O4 0.000000 0.000000 0.500000
O O5 0.223846 0.232039 0.999060
O O6 0.210495 0.914946 0.238928
O O7 0.804280 0.315906 0.872838
O O8 0.000000 0.000000 0.000000
O O9 0.575397 0.732568 0.186107
O O10 0.000000 0.500000 0.500000
O O11 0.899904 0.938716 0.203374
O O12 0.611953 0.978894 0.177977
O O13 0.401837 0.443263 0.211557
O O14 0.646078 0.317285 0.474742
O O15 0.500000 0.000000 0.500000
O O16 0.167467 0.179934 0.203429
#
# Coordination Sequence:
#
# PCOD9042395 Si02
#       7
#     2   2   2   2   2   2   2
#     4  11  27  46  73 105 145 189 237 304 360 423
#     4  12  25  44  67 102 140 183 236 294 352 432
#     4  10  23  47  70 102 142 189 234 292 353 430
#     4  10  24  43  70 101 139 185 240 285 364 423
#     4  10  23  44  71 103 135 185 241 287 358 428
#     4  11  26  47  70 107 146 185 243 292 366 426
#     4  10  24  44  70  98 140 185 235 297 349 419
#
# _framework density 21.766444
#
# number of rings (size 3 to 8) (size 9 to 14) (size 15 to 20)
#    0.000    1.429    2.857    0.000   12.000    4.000 
#    2.571    0.000    0.000    0.000    0.000    0.000 
#    0.000    0.000    0.000    0.000    0.000    0.000 
#
# Total GULP energy -78150.964354 kJ/mol
# GULP energy per Si atom -5582.211740 kJ/mol
# Density = 2.171690 g / cm^3
# Si number density = 21.766444 Si / 1000 Ang^3
#
#
#
# Elastic Constant Matrix: (Units=GPa)
#
#
# Indices 1 2 3 4 5 6 
#
# 1 128.8626 55.3597 21.9381 5.3083 -4.7476 13.3048
# 2 55.3597 184.2138 39.4550 14.1268 -0.4484 9.4283
# 3 21.9381 39.4550 74.7365 20.8632 2.7435 -1.1620
# 4 5.3083 14.1268 20.8632 33.3655 2.8180 8.3787
# 5 -4.7476 -0.4484 2.7435 2.8180 38.6087 1.8724
# 6 13.3048 9.4283 -1.1620 8.3787 1.8724 42.9943
#
#
#
# Elastic Compliance Matrix: (Units=1/GPa)
#
#
# Indices 1 2 3 4 5 6 
#
# 1 0.009386 -0.002356 -0.001970 0.001318 0.001304 -0.002755
# 2 -0.002356 0.006808 -0.002744 -0.000616 0.000064 -0.000721
# 3 -0.001970 -0.002744 0.018588 -0.011046 -0.000978 0.003909
# 4 0.001318 -0.000616 -0.011046 0.039098 -0.001520 -0.008124
# 5 0.001304 0.000064 -0.000978 -0.001520 0.026305 -0.001294
# 6 -0.002755 -0.000721 0.003909 -0.008124 -0.001294 0.026015
#
#
# Mechanical properties :
#
#
# Convention : Reuss Voigt Hill
#
# Bulk Modulus (GPa) = 48.44493 69.03539 58.74016
# Shear Modulus (GPa) = 33.96256 41.06437 37.51347
#
# Velocity S-wave (km/s) = 3.95437 4.34820 4.15595
# Velocity P-wave (km/s) = 6.56920 7.54947 7.07633
#
# Compressibility (1/GPa) = 0.02064199
#
# Stress axis : x y z
#
# Youngs Moduli (GPa) = 106.54475 146.87584 53.79850
#
# Poissons Ratio (x) = 0.34597 0.10599
# Poissons Ratio (y) = 0.25097 0.14765
# Poissons Ratio (z) = 0.20990 0.40309
#
# Static dielectric constant tensor:
#      x y z
#    x 1.565000 -0.200190 -0.044760 
#    y -0.200190 1.613090 -0.040870 
#    z -0.044760 -0.040870 1.804300 
# 
# From -- ./inp_files/259719.got.cif
#   From: 2010.05.17/outbox.cif.g08.bks.cpg/sg2_130_cif.got.tgz:259719.got - 2010.06.03 11:33:40.
