data_PCOD9042710
_publ_section_title
;
Structure prediction by ZEFSAII (Michael W. Deem and Ramdas Pophale) SiO2 
 PCOD9042710
Probable space group: P -1
;
_chemical_formula_sum "Si O2"
_cell_formula_units_Z 12
_cell_length_a 14.504121
_cell_length_b 15.003207
_cell_length_c 8.999537
_cell_angle_alpha 25.062321
_cell_angle_beta 53.591295
_cell_angle_gamma 39.247138
_cell_volume 480.367529
_symmetry_space_group_name_H-M "P -1"
_symmetry_group_IT_number 2
_symmetry_cell_setting 'triclinic'
loop_
_space_group_symop_operation_xyz
x,y,z
-x,-y,-z
loop_
_atom_site_type_symbol
_atom_site_label
_atom_site_fract_x
_atom_site_fract_y
_atom_site_fract_z
Si Si1 0.546592 0.444556 0.290158
Si Si2 0.670053 0.031907 0.087273
Si Si3 0.950864 0.983799 0.910552
Si Si4 0.152399 0.678787 0.906175
Si Si5 0.505318 0.105340 0.674617
Si Si6 0.840375 0.570126 0.008588
O O1 0.601094 0.241129 0.690032
O O2 0.426378 0.768596 0.978599
O O3 0.698821 0.362725 0.201881
O O4 0.471696 0.385994 0.329353
O O5 0.842371 0.914983 0.115141
O O6 0.620337 0.856472 0.365417
O O7 0.857399 0.307759 0.447489
O O8 0.100226 0.735094 0.041504
O O9 0.000000 0.000000 0.000000
O O10 0.168463 0.452821 0.126367
O O11 0.000000 0.000000 0.500000
O O12 0.680351 0.862787 0.797188
O O13 0.500000 0.000000 0.000000
O O14 0.000000 0.500000 0.000000
#
# Coordination Sequence:
#
# PCOD9042710 Si02
#       6
#     2   2   2   2   2   2
#     4  10  17  33  59  87 113 145 200 248 286 336
#     4  10  18  34  55  87 119 145 197 246 291 344
#     4  11  23  39  58  84 122 161 190 239 307 352
#     4  10  18  35  57  82 114 153 195 240 284 341
#     4  10  19  29  58  92 112 144 194 251 289 333
#     4  11  21  36  62  89 114 149 207 245 283 349
#
# _framework density 24.980872999999999
#
# number of rings (size 3 to 8) (size 9 to 14) (size 15 to 20)
#    0.000    1.667    5.000    4.000    2.333    0.000 
#    0.000    1.667    0.000    2.000    0.000    0.000 
#    0.000    0.000    0.000    0.000    0.000    0.000 
#
# Total GULP energy -67192.668855 kJ/mol
# GULP energy per Si atom -5599.389071 kJ/mol
# Density = 2.492402 g / cm^3
# Si number density = 24.980873 Si / 1000 Ang^3
#
#
#
# Elastic Constant Matrix: (Units=GPa)
#
#
# Indices 1 2 3 4 5 6 
#
# 1 246.1615 119.8681 40.7368 5.3119 -50.2488 22.1570
# 2 119.8681 232.9848 21.6653 0.1705 -16.1361 11.9242
# 3 40.7368 21.6653 69.2391 5.2057 -13.3748 4.5299
# 4 5.3119 0.1705 5.2057 31.5955 4.0391 -8.9826
# 5 -50.2488 -16.1361 -13.3748 4.0391 43.5299 6.5781
# 6 22.1570 11.9242 4.5299 -8.9826 6.5781 55.2709
#
#
#
# Elastic Compliance Matrix: (Units=1/GPa)
#
#
# Indices 1 2 3 4 5 6 
#
# 1 0.008048 -0.003199 -0.001582 -0.003289 0.008522 -0.003955
# 2 -0.003199 0.005827 -0.000386 0.000919 -0.001800 0.000420
# 3 -0.001582 -0.000386 0.016568 -0.003396 0.003683 -0.001631
# 4 -0.003289 0.000919 -0.003396 0.036310 -0.009136 0.008387
# 5 0.008522 -0.001800 0.003683 -0.009136 0.035487 -0.009038
# 6 -0.003955 0.000420 -0.001631 0.008387 -0.009038 0.022160
#
#
# Mechanical properties :
#
#
# Convention : Reuss Voigt Hill
#
# Bulk Modulus (GPa) = 49.72665 101.43619 75.58142
# Shear Modulus (GPa) = 35.35166 50.48693 42.91930
#
# Velocity S-wave (km/s) = 3.76593 4.50046 4.14948
# Velocity P-wave (km/s) = 6.23368 8.22795 7.29924
#
# Compressibility (1/GPa) = 0.02010994
#
# Stress axis : x y z
#
# Youngs Moduli (GPa) = 124.25060 171.62116 60.35864
#
# Poissons Ratio (x) = 0.54894 0.09550
# Poissons Ratio (y) = 0.39743 0.02328
# Poissons Ratio (z) = 0.19659 0.06618
#
# Static dielectric constant tensor:
#      x y z
#    x 1.946830 0.029010 0.099790 
#    y 0.029010 1.861440 -0.039710 
#    z 0.099790 -0.039710 2.113580 
# 
# From -- ./inp_files/278430.got.cif
#   From: 2010.05.17/outbox.cif.g08.bks.cpg/sg2_140_cif.got.tgz:278430.got - 2010.06.03 11:33:40.
