data_PCOD9042789
_publ_section_title
;
Structure prediction by ZEFSAII (Michael W. Deem and Ramdas Pophale) SiO2 
 PCOD9042789
Probable space group: P -1
;
_chemical_formula_sum "Si O2"
_cell_formula_units_Z 14
_cell_length_a 8.889126
_cell_length_b 7.617200
_cell_length_c 12.810271
_cell_angle_alpha 116.771670
_cell_angle_beta 65.854816
_cell_angle_gamma 74.314798
_cell_volume 586.413646
_symmetry_space_group_name_H-M "P -1"
_symmetry_group_IT_number 2
_symmetry_cell_setting 'triclinic'
loop_
_space_group_symop_operation_xyz
x,y,z
-x,-y,-z
loop_
_atom_site_type_symbol
_atom_site_label
_atom_site_fract_x
_atom_site_fract_y
_atom_site_fract_z
Si Si1 0.303529 0.075118 0.337972
Si Si2 0.860458 0.756169 0.787608
Si Si3 0.913625 0.146993 0.412310
Si Si4 0.439905 0.378979 0.401091
Si Si5 0.299034 0.424160 0.879394
Si Si6 0.030393 0.339553 0.782811
Si Si7 0.766065 0.120282 0.078942
O O1 0.489835 0.809068 0.216604
O O2 0.275009 0.186551 0.259599
O O3 0.340615 0.246793 0.439643
O O4 0.101650 0.086419 0.413433
O O5 0.955509 0.505660 0.747237
O O6 0.025175 0.793668 0.701024
O O7 0.749089 0.948947 0.960723
O O8 0.716023 0.394945 0.565382
O O9 0.899281 0.925484 0.338071
O O10 0.500000 0.500000 0.500000
O O11 0.638614 0.174013 0.232627
O O12 0.316899 0.629096 0.883205
O O13 0.193809 0.357025 0.804090
O O14 0.155063 0.541034 0.051590
O O15 0.000000 0.000000 0.000000
#
# Coordination Sequence:
#
# PCOD9042789 Si02
#       7
#     2   2   2   2   2   2   2
#     4  10  25  46  72 105 148 182 239 294 365 415
#     4  10  23  44  77 102 143 187 237 298 350 417
#     4  10  24  47  68 106 145 185 231 294 353 430
#     4  12  26  45  74 102 146 195 233 290 366 426
#     4  11  23  40  70 111 139 186 243 302 344 425
#     4  11  22  41  75 102 146 187 243 290 357 414
#     4  12  24  45  72 109 140 186 245 297 352 417
#
# _framework density 23.873930999999999
#
# number of rings (size 3 to 8) (size 9 to 14) (size 15 to 20)
#    0.857    0.286    2.857    3.000    2.000    5.714 
#    2.571    2.857    0.000    0.000    0.000    0.000 
#    0.000    0.000    0.000    0.000    0.000    0.000 
#
# Total GULP energy -78363.487931 kJ/mol
# GULP energy per Si atom -5597.391995 kJ/mol
# Density = 2.381959 g / cm^3
# Si number density = 23.873931 Si / 1000 Ang^3
#
#
#
# Elastic Constant Matrix: (Units=GPa)
#
#
# Indices 1 2 3 4 5 6 
#
# 1 69.0071 0.9191 28.3188 18.8958 -12.1685 -8.6104
# 2 0.9191 114.3829 10.1523 34.0701 -2.9687 -2.0456
# 3 28.3188 10.1523 107.2013 25.4226 -0.7635 5.4701
# 4 18.8958 34.0701 25.4226 48.9644 0.6947 3.0946
# 5 -12.1685 -2.9687 -0.7635 0.6947 37.8524 14.4172
# 6 -8.6104 -2.0456 5.4701 3.0946 14.4172 39.0912
#
#
#
# Elastic Compliance Matrix: (Units=1/GPa)
#
#
# Indices 1 2 3 4 5 6 
#
# 1 0.019464 0.002682 -0.003706 -0.007758 0.005139 0.003665
# 2 0.002682 0.011537 0.000358 -0.009355 0.001429 0.001358
# 3 -0.003706 0.000358 0.011478 -0.004650 -0.000083 -0.002005
# 4 -0.007758 -0.009355 -0.004650 0.032577 -0.002731 -0.003119
# 5 0.005139 0.001429 -0.000083 -0.002731 0.032209 -0.010444
# 6 0.003665 0.001358 -0.002005 -0.003119 -0.010444 0.030839
#
#
# Mechanical properties :
#
#
# Convention : Reuss Voigt Hill
#
# Bulk Modulus (GPa) = 24.30275 41.04132 32.67203
# Shear Modulus (GPa) = 32.64728 41.92832 37.28780
#
# Velocity S-wave (km/s) = 3.70197 4.19530 3.95633
# Velocity P-wave (km/s) = 5.33615 6.37930 5.88090
#
# Compressibility (1/GPa) = 0.04114761
#
# Stress axis : x y z
#
# Youngs Moduli (GPa) = 51.37563 86.67745 87.12315
#
# Poissons Ratio (x) = -0.23250 0.32292
# Poissons Ratio (y) = -0.13781 -0.03121
# Poissons Ratio (z) = 0.19042 -0.03105
#
# Static dielectric constant tensor:
#      x y z
#    x 1.973360 -0.000270 -0.057070 
#    y -0.000270 1.899540 -0.062880 
#    z -0.057070 -0.062880 1.931310 
# 
# From -- ./inp_files/495676.got.cif
#   From: 2010.05.17/outbox.cif.g08.bks.cpg/sg2_248_cif.got.tgz:495676.got - 2010.06.03 11:33:40.
