data_PCOD9042494
_publ_section_title
;
Structure prediction by ZEFSAII (Michael W. Deem and Ramdas Pophale) SiO2 
 PCOD9042494
Probable space group: P -1
;
_chemical_formula_sum "Si O2"
_cell_formula_units_Z 14
_cell_length_a 9.875400
_cell_length_b 9.531390
_cell_length_c 10.869740
_cell_angle_alpha 97.172850
_cell_angle_beta 53.344860
_cell_angle_gamma 125.062988
_cell_volume 633.700982
_symmetry_space_group_name_H-M "P -1"
_symmetry_group_IT_number 2
_symmetry_cell_setting 'triclinic'
loop_
_space_group_symop_operation_xyz
x,y,z
-x,-y,-z
loop_
_atom_site_type_symbol
_atom_site_label
_atom_site_fract_x
_atom_site_fract_y
_atom_site_fract_z
Si Si1 0.909910 0.255671 0.815646
Si Si2 0.778475 0.941256 0.669030
Si Si3 0.539302 0.467552 0.113944
Si Si4 0.359820 0.854162 0.814865
Si Si5 0.650379 0.650058 0.330307
Si Si6 0.000715 0.397935 0.195816
Si Si7 0.302580 0.995325 0.650000
O O1 0.965188 0.433975 0.739169
O O2 0.118285 0.306446 0.781083
O O3 0.840691 0.097843 0.744603
O O4 0.716081 0.181473 0.008430
O O5 0.644525 0.743885 0.780809
O O6 0.599355 0.919247 0.675272
O O7 0.000000 0.000000 0.500000
O O8 0.550827 0.576111 0.239264
O O9 0.500000 0.500000 0.000000
O O10 0.777870 0.525300 0.982139
O O11 0.322816 0.987262 0.787067
O O12 0.187981 0.672687 0.809827
O O13 0.500000 0.500000 0.500000
O O14 0.685202 0.833660 0.363430
O O15 0.910637 0.209615 0.292029
O O16 0.500000 0.000000 0.500000
#
# Coordination Sequence:
#
# PCOD9042494 Si02
#       7
#     2   2   2   2   2   2   2
#     4  12  23  42  77 102 145 197 253 296 375 451
#     4  12  28  44  70 112 154 196 245 319 380 438
#     4  12  28  46  73 110 156 192 255 315 372 442
#     4  10  23  44  72 101 144 190 250 299 375 440
#     4  12  26  46  76 110 148 201 252 305 378 451
#     4  10  23  44  73 106 139 197 251 304 367 451
#     4  10  25  40  73 106 146 189 251 310 366 439
#
# _framework density 22.092438000000001
#
# number of rings (size 3 to 8) (size 9 to 14) (size 15 to 20)
#    0.857    0.000    2.857    3.429    8.000    1.143 
#    0.000    0.000    0.000    5.143    0.000    0.000 
#    0.000    0.000    0.000    0.000    0.000    0.000 
#
# Total GULP energy -78130.173755 kJ/mol
# GULP energy per Si atom -5580.726697 kJ/mol
# Density = 2.204215 g / cm^3
# Si number density = 22.092438 Si / 1000 Ang^3
#
#
#
# Elastic Constant Matrix: (Units=GPa)
#
#
# Indices 1 2 3 4 5 6 
#
# 1 79.9769 23.1522 19.4579 -9.6479 -10.6513 7.2876
# 2 23.1522 193.6844 59.2389 -13.1556 -2.1500 -12.9072
# 3 19.4579 59.2389 96.0132 -17.3459 -23.8743 0.9937
# 4 -9.6479 -13.1556 -17.3459 39.8891 2.3430 8.9554
# 5 -10.6513 -2.1500 -23.8743 2.3430 43.2432 -3.2641
# 6 7.2876 -12.9072 0.9937 8.9554 -3.2641 42.5952
#
#
#
# Elastic Compliance Matrix: (Units=1/GPa)
#
#
# Indices 1 2 3 4 5 6 
#
# 1 0.014131 -0.001445 -0.000711 0.003225 0.002591 -0.003319
# 2 -0.001445 0.006851 -0.004638 -0.000496 -0.002371 0.002354
# 3 -0.000711 -0.004638 0.016479 0.005472 0.008230 -0.002188
# 4 0.003225 -0.000496 0.005472 0.029518 0.001670 -0.006908
# 5 0.002591 -0.002371 0.008230 0.001670 0.028133 0.000451
# 6 -0.003319 0.002354 -0.002188 -0.006908 0.000451 0.026296
#
#
# Mechanical properties :
#
#
# Convention : Reuss Voigt Hill
#
# Bulk Modulus (GPa) = 41.88763 63.70806 52.79785
# Shear Modulus (GPa) = 34.97641 43.00053 38.98847
#
# Velocity S-wave (km/s) = 3.98324 4.41658 4.20550
# Velocity P-wave (km/s) = 6.33690 7.40998 6.89435
#
# Compressibility (1/GPa) = 0.02387340
#
# Stress axis : x y z
#
# Youngs Moduli (GPa) = 70.76420 145.96148 60.68510
#
# Poissons Ratio (x) = 0.21093 0.04314
# Poissons Ratio (y) = 0.10226 0.28144
# Poissons Ratio (z) = 0.05031 0.67694
#
# Static dielectric constant tensor:
#      x y z
#    x 1.885930 -0.019640 0.062200 
#    y -0.019640 1.811580 -0.042810 
#    z 0.062200 -0.042810 1.858160 
# 
# From -- ./inp_files/417535.got.cif
#   From: 2010.05.17/outbox.cif.g08.bks.cpg/sg2_209_cif.got.tgz:417535.got - 2010.06.03 11:33:40.
