data_PCOD9042242
_publ_section_title
;
Structure prediction by ZEFSAII (Michael W. Deem and Ramdas Pophale) SiO2 
 PCOD9042242
Probable space group: P -1
;
_chemical_formula_sum "Si O2"
_cell_formula_units_Z 16
_cell_length_a 5.112223
_cell_length_b 24.861607
_cell_length_c 5.407653
_cell_angle_alpha 83.264823
_cell_angle_beta 89.186602
_cell_angle_gamma 64.889469
_cell_volume 617.567207
_symmetry_space_group_name_H-M "P -1"
_symmetry_group_IT_number 2
_symmetry_cell_setting 'triclinic'
loop_
_space_group_symop_operation_xyz
x,y,z
-x,-y,-z
loop_
_atom_site_type_symbol
_atom_site_label
_atom_site_fract_x
_atom_site_fract_y
_atom_site_fract_z
Si Si1 0.815953 0.245536 0.265608
Si Si2 0.583746 0.629007 0.569661
Si Si3 0.034688 0.879258 0.459485
Si Si4 0.093957 0.959532 0.771349
Si Si5 0.444497 0.121074 0.859355
Si Si6 0.687918 0.752236 0.008984
Si Si7 0.828301 0.501875 0.756160
Si Si8 0.108945 0.624645 0.289476
O O1 0.595784 0.310733 0.318457
O O2 0.642281 0.235580 0.039424
O O3 0.855909 0.191208 0.469743
O O4 0.129760 0.244634 0.233921
O O5 0.579919 0.569113 0.717735
O O6 0.907889 0.621639 0.523920
O O7 0.394384 0.634934 0.324089
O O8 0.761313 0.901542 0.271450
O O9 0.978607 0.910733 0.711602
O O10 0.289808 0.888914 0.318916
O O11 0.421203 0.915048 0.870733
O O12 0.000000 0.000000 0.500000
O O13 0.000000 0.000000 0.000000
O O14 0.305235 0.192357 0.869661
O O15 0.877356 0.684910 0.133894
O O16 0.000000 0.500000 0.500000
O O17 0.781018 0.441812 0.789154
O O18 0.000000 0.500000 0.000000
#
# Coordination Sequence:
#
# PCOD9042242 Si02
#       8
#     2   2   2   2   2   2   2   2
#     4  12  24  42  72 109 150 198 254 316 378 449
#     4  11  23  43  66 102 146 196 249 310 376 449
#     4  12  27  50  79 112 157 205 255 316 383 454
#     4  12  28  54  82 120 158 205 256 313 380 462
#     4  12  27  50  79 112 157 205 255 316 383 454
#     4  12  24  42  72 109 150 198 254 316 378 449
#     4  10  23  44  70 102 144 196 246 308 374 448
#     4  11  23  43  66 102 146 196 249 310 376 449
#
# _framework density 25.908109
#
# number of rings (size 3 to 8) (size 9 to 14) (size 15 to 20)
#    0.000    0.500    2.500    5.625    0.000    3.000 
#    0.000    5.625    0.000    0.000    0.000    0.000 
#    0.000    0.000    0.000    0.000    0.000    0.000 
#
# Total GULP energy -89404.342796 kJ/mol
# GULP energy per Si atom -5587.771425 kJ/mol
# Density = 2.584914 g / cm^3
# Si number density = 25.908109 Si / 1000 Ang^3
#
#
#
# Elastic Constant Matrix: (Units=GPa)
#
#
# Indices 1 2 3 4 5 6 
#
# 1 100.4325 13.8362 20.2289 18.4001 13.1345 -39.6235
# 2 13.8362 156.0748 37.2061 22.6406 4.2621 -49.0058
# 3 20.2289 37.2061 111.8903 14.9250 28.8909 -52.3582
# 4 18.4001 22.6406 14.9250 29.8044 -5.1807 78.4173
# 5 13.1345 4.2621 28.8909 -5.1807 50.1004 16.9202
# 6 -39.6235 -49.0058 -52.3582 78.4173 16.9202 -152.1864
#
#
#
# Elastic Compliance Matrix: (Units=1/GPa)
#
#
# Indices 1 2 3 4 5 6 
#
# 1 0.009941 -0.000886 -0.002095 -0.000069 -0.000755 -0.001702
# 2 -0.000886 0.006894 -0.002964 -0.000361 0.001646 -0.000973
# 3 -0.002095 -0.002964 0.010444 0.001848 -0.004477 -0.001639
# 4 -0.000069 -0.000361 0.001848 0.014636 -0.001813 0.006838
# 5 -0.000755 0.001646 -0.004477 -0.001813 0.021512 0.002664
# 6 -0.001702 -0.000973 -0.001639 0.006838 0.002664 -0.001431
#
#
# Mechanical properties :
#
#
# Convention : Reuss Voigt Hill
#
# Bulk Modulus (GPa) = 64.97830 56.77111 60.87470
# Shear Modulus (GPa) = 63.27749 5.35210 34.31480
#
# Velocity S-wave (km/s) = 4.94741 1.43885 3.64329
# Velocity P-wave (km/s) = 7.60069 4.97197 6.42226
#
# Compressibility (1/GPa) = 0.01538975
#
# Stress axis : x y z
#
# Youngs Moduli (GPa) = 100.59476 145.04485 95.74437
#
# Poissons Ratio (x) = 0.12845 0.20058
# Poissons Ratio (y) = 0.08909 0.28383
# Poissons Ratio (z) = 0.21074 0.42998
#
# Static dielectric constant tensor:
#      x y z
#    x 2.032210 0.001600 -0.021730 
#    y 0.001600 2.158530 0.000140 
#    z -0.021730 0.000140 2.118650 
# 
# From -- ./inp_files/13318.got.cif
#   From: 2010.05.17/outbox.cif.g08.bks.cpg/sg2_7_cif.got.tgz:13318.got - 2010.06.03 11:33:40.
