data_PCOD9042029
_publ_section_title
;
Structure prediction by ZEFSAII (Michael W. Deem and Ramdas Pophale) SiO2 
 PCOD9042029
Probable space group: P -1
;
_chemical_formula_sum "Si O2"
_cell_formula_units_Z 16
_cell_length_a 11.019743
_cell_length_b 11.411616
_cell_length_c 12.486630
_cell_angle_alpha 54.903914
_cell_angle_beta 134.114353
_cell_angle_gamma 91.800172
_cell_volume 717.934629
_symmetry_space_group_name_H-M "P -1"
_symmetry_group_IT_number 2
_symmetry_cell_setting 'triclinic'
loop_
_space_group_symop_operation_xyz
x,y,z
-x,-y,-z
loop_
_atom_site_type_symbol
_atom_site_label
_atom_site_fract_x
_atom_site_fract_y
_atom_site_fract_z
Si Si1 0.095390 0.780708 0.608028
Si Si2 0.561182 0.775288 0.397804
Si Si3 0.191667 0.429229 0.740842
Si Si4 0.877101 0.145233 0.946823
Si Si5 0.039248 0.092817 0.312208
Si Si6 0.312980 0.199474 0.327190
Si Si7 0.574952 0.040929 0.131294
Si Si8 0.007536 0.398838 0.845463
O O1 0.115605 0.779360 0.750231
O O2 0.180769 0.593539 0.699912
O O3 0.833696 0.925079 0.350281
O O4 0.178869 0.885500 0.553792
O O5 0.370400 0.773874 0.245263
O O6 0.576614 0.753208 0.546900
O O7 0.799359 0.608841 0.590943
O O8 0.520687 0.957527 0.236808
O O9 0.000000 0.500000 0.500000
O O10 0.144285 0.343549 0.852281
O O11 0.428056 0.260788 0.931318
O O12 0.916358 0.290224 0.869035
O O13 0.957472 0.081875 0.151816
O O14 0.000000 0.000000 0.000000
O O15 0.166339 0.169407 0.321871
O O16 0.500000 0.000000 0.500000
O O17 0.162957 0.351095 0.066145
O O18 0.500000 0.000000 0.000000
#
# Coordination Sequence:
#
# PCOD9042029 Si02
#       8
#     2   2   2   2   2   2   2   2
#     4  11  23  44  71  95 146 182 233 286 349 417
#     4  12  22  42  66  96 136 178 231 283 350 412
#     4  12  24  42  69 104 136 181 237 286 349 423
#     4  11  24  41  67 100 138 180 237 290 354 411
#     4  10  23  44  68  99 141 187 223 295 352 409
#     4  11  22  42  70  99 133 180 230 282 346 419
#     4  12  22  40  68 100 136 180 227 284 350 409
#     4  11  24  41  65 100 134 178 227 289 350 413
#
# _framework density 22.286152000000001
#
# number of rings (size 3 to 8) (size 9 to 14) (size 15 to 20)
#    0.000    0.750    3.750    4.500    1.750    1.000 
#    0.000    2.500    2.750    0.000    0.000    0.000 
#    0.000    0.000    0.000    0.000    0.000    0.000 
#
# Total GULP energy -89409.786958 kJ/mol
# GULP energy per Si atom -5588.111685 kJ/mol
# Density = 2.223543 g / cm^3
# Si number density = 22.286152 Si / 1000 Ang^3
#
#
#
# Elastic Constant Matrix: (Units=GPa)
#
#
# Indices 1 2 3 4 5 6 
#
# 1 48.2041 3.1705 21.8220 4.9535 -24.6038 -9.1802
# 2 3.1705 120.0969 50.5360 -2.6341 -2.8010 -24.1079
# 3 21.8220 50.5360 102.0981 0.3914 -5.6611 -14.9351
# 4 4.9535 -2.6341 0.3914 57.8754 -10.7636 -2.4165
# 5 -24.6038 -2.8010 -5.6611 -10.7636 34.9205 -3.5294
# 6 -9.1802 -24.1079 -14.9351 -2.4165 -3.5294 31.4601
#
#
#
# Elastic Compliance Matrix: (Units=1/GPa)
#
#
# Indices 1 2 3 4 5 6 
#
# 1 0.044099 0.006834 -0.008327 0.003523 0.033189 0.018146
# 2 0.006834 0.012838 -0.006034 0.001633 0.006360 0.009806
# 3 -0.008327 -0.006034 0.014204 -0.000489 -0.004283 -0.000829
# 4 0.003523 0.001633 -0.000489 0.018880 0.008806 0.004485
# 5 0.033189 0.006360 -0.004283 0.008806 0.056526 0.019543
# 6 0.018146 0.009806 -0.000829 0.004485 0.019543 0.046739
#
#
# Mechanical properties :
#
#
# Convention : Reuss Voigt Hill
#
# Bulk Modulus (GPa) = 17.82975 46.82844 32.32909
# Shear Modulus (GPa) = 22.02298 37.84259 29.93278
#
# Velocity S-wave (km/s) = 3.14696 4.12519 3.66882
# Velocity P-wave (km/s) = 4.60676 6.61419 5.69955
#
# Compressibility (1/GPa) = 0.05608603
#
# Stress axis : x y z
#
# Youngs Moduli (GPa) = 22.67638 77.89403 70.40177
#
# Poissons Ratio (x) = -0.53229 0.58622
# Poissons Ratio (y) = -0.15496 0.42481
# Poissons Ratio (z) = 0.18882 0.47002
#
# Static dielectric constant tensor:
#      x y z
#    x 1.597760 0.081140 -0.129850 
#    y 0.081140 1.817080 0.056040 
#    z -0.129850 0.056040 1.782850 
# 
# From -- ./inp_files/283298.got.cif
#   From: 2010.05.17/outbox.cif.g08.bks.cpg/sg2_142_cif.got.tgz:283298.got - 2010.06.03 11:33:40.
