data_PCOD9042188
_publ_section_title
;
Structure prediction by ZEFSAII (Michael W. Deem and Ramdas Pophale) SiO2 
 PCOD9042188
Probable space group: P -1
;
_chemical_formula_sum "Si O2"
_cell_formula_units_Z 16
_cell_length_a 14.984307
_cell_length_b 16.143084
_cell_length_c 5.487582
_cell_angle_alpha 122.347402
_cell_angle_beta 120.411900
_cell_angle_gamma 33.764646
_cell_volume 617.911961
_symmetry_space_group_name_H-M "P -1"
_symmetry_group_IT_number 2
_symmetry_cell_setting 'triclinic'
loop_
_space_group_symop_operation_xyz
x,y,z
-x,-y,-z
loop_
_atom_site_type_symbol
_atom_site_label
_atom_site_fract_x
_atom_site_fract_y
_atom_site_fract_z
Si Si1 0.947025 0.267387 0.058006
Si Si2 0.147217 0.297752 0.591485
Si Si3 0.859827 0.066395 0.233536
Si Si4 0.702379 0.343796 0.164874
Si Si5 0.781308 0.540316 0.024661
Si Si6 0.436030 0.384668 0.744169
Si Si7 0.678672 0.883348 0.951083
Si Si8 0.426685 0.826786 0.762253
O O1 0.785999 0.323661 0.001835
O O2 0.899055 0.358169 0.880855
O O3 0.012468 0.313628 0.373319
O O4 0.079532 0.085869 0.994782
O O5 0.110297 0.440859 0.786061
O O6 0.268448 0.203268 0.371222
O O7 0.214559 0.221524 0.831964
O O8 0.836787 0.175419 0.196612
O O9 0.683214 0.177836 0.282391
O O10 0.000000 0.000000 0.500000
O O11 0.639058 0.497516 0.402228
O O12 0.546827 0.387450 0.018580
O O13 0.695332 0.574252 0.214346
O O14 0.616663 0.691368 0.888439
O O15 0.560545 0.210510 0.561107
O O16 0.500000 0.000000 0.000000
O O17 0.670314 0.004038 0.068796
#
# Coordination Sequence:
#
# PCOD9042188 Si02
#       8
#     2   2   2   2   2   2   2   2
#     4  11  26  47  70 105 153 191 244 307 374 450
#     4  12  27  49  75 112 152 197 250 307 378 444
#     4  12  26  42  68 106 144 189 243 303 383 439
#     4  10  23  44  69  99 142 191 238 312 365 441
#     4  11  25  48  73 104 141 196 248 303 370 442
#     4  10  23  44  71 103 138 181 254 304 366 435
#     4  12  26  45  77 109 147 192 251 309 365 440
#     4  12  25  42  73 102 142 191 242 313 362 448
#
# _framework density 25.893656
#
# number of rings (size 3 to 8) (size 9 to 14) (size 15 to 20)
#    0.000    0.750    3.750    2.625    7.000    0.500 
#    2.250    1.250    0.000    0.000    0.000    0.000 
#    0.000    0.000    0.000    0.000    0.000    0.000 
#
# Total GULP energy -89072.109030 kJ/mol
# GULP energy per Si atom -5567.006814 kJ/mol
# Density = 2.583472 g / cm^3
# Si number density = 25.893656 Si / 1000 Ang^3
#
#
#
# Elastic Constant Matrix: (Units=GPa)
#
#
# Indices 1 2 3 4 5 6 
#
# 1 141.2200 29.5647 31.9998 -6.3241 10.9949 1.6455
# 2 29.5647 141.1640 32.3101 -2.2004 5.1328 41.4628
# 3 31.9998 32.3101 39.8679 -2.4816 7.3987 17.6670
# 4 -6.3241 -2.2004 -2.4816 44.3961 -4.4037 3.8704
# 5 10.9949 5.1328 7.3987 -4.4037 37.8730 9.5406
# 6 1.6455 41.4628 17.6670 3.8704 9.5406 55.6036
#
#
#
# Elastic Compliance Matrix: (Units=1/GPa)
#
#
# Indices 1 2 3 4 5 6 
#
# 1 0.009127 -0.001054 -0.007529 0.000371 -0.001797 0.003191
# 2 -0.001054 0.010252 -0.004872 0.000799 0.001571 -0.006391
# 3 -0.007529 -0.004872 0.039310 0.001349 -0.002590 -0.008283
# 4 0.000371 0.000799 0.001349 0.023269 0.003026 -0.003174
# 5 -0.001797 0.001571 -0.002590 0.003026 0.028949 -0.005473
# 6 0.003191 -0.006391 -0.008283 -0.003174 -0.005473 0.026448
#
#
# Mechanical properties :
#
#
# Convention : Reuss Voigt Hill
#
# Bulk Modulus (GPa) = 31.46808 56.66676 44.06742
# Shear Modulus (GPa) = 28.59438 42.79969 35.69704
#
# Velocity S-wave (km/s) = 3.32671 4.07000 3.71698
# Velocity P-wave (km/s) = 5.18991 6.63464 5.95624
#
# Compressibility (1/GPa) = 0.03177823
#
# Stress axis : x y z
#
# Youngs Moduli (GPa) = 109.56265 97.53722 25.43900
#
# Poissons Ratio (x) = 0.10285 0.19153
# Poissons Ratio (y) = 0.11553 0.12395
# Poissons Ratio (z) = 0.82488 0.47523
#
# Static dielectric constant tensor:
#      x y z
#    x 2.142180 -0.072920 -0.046770 
#    y -0.072920 2.276470 -0.018210 
#    z -0.046770 -0.018210 2.123390 
# 
# From -- ./inp_files/98630.got.cif
#   From: 2010.05.17/outbox.cif.g08.bks.cpg/sg2_50_cif.got.tgz:98630.got - 2010.06.03 11:33:40.
