data_PCOD9042200
_publ_section_title
;
Structure prediction by ZEFSAII (Michael W. Deem and Ramdas Pophale) SiO2 
 PCOD9042200
Probable space group: P -1
;
_chemical_formula_sum "Si O2"
_cell_formula_units_Z 10
_cell_length_a 5.494171
_cell_length_b 14.562422
_cell_length_c 9.559335
_cell_angle_alpha 127.744396
_cell_angle_beta 51.286115
_cell_angle_gamma 112.157934
_cell_volume 471.882350
_symmetry_space_group_name_H-M "P -1"
_symmetry_group_IT_number 2
_symmetry_cell_setting 'triclinic'
loop_
_space_group_symop_operation_xyz
x,y,z
-x,-y,-z
loop_
_atom_site_type_symbol
_atom_site_label
_atom_site_fract_x
_atom_site_fract_y
_atom_site_fract_z
Si Si1 0.282047 0.490980 0.282388
Si Si2 0.790934 0.929955 0.895012
Si Si3 0.374515 0.746071 0.029087
Si Si4 0.823501 0.603050 0.076198
Si Si5 0.789785 0.071564 0.524040
O O1 0.492145 0.603963 0.278306
O O2 0.000000 0.500000 0.500000
O O3 0.491610 0.382871 0.156403
O O4 0.191484 0.447354 0.120688
O O5 0.000788 0.899216 0.657620
O O6 0.612903 0.823298 0.929213
O O7 0.500000 0.000000 0.000000
O O8 0.000000 0.000000 0.000000
O O9 0.349591 0.812240 0.246912
O O10 0.008285 0.723100 0.109080
O O11 0.000000 0.500000 0.000000
O O12 0.500000 0.000000 0.500000
O O13 0.000000 0.000000 0.500000
#
# Coordination Sequence:
#
# PCOD9042200 Si02
#       5
#     2   2   2   2   2
#     4  10  23  44  70 100 137 172 232 288 343 419
#     4  12  25  45  68 103 141 184 238 285 337 420
#     4  11  25  41  71  98 138 184 229 278 362 403
#     4   9  22  43  66  97 136 172 230 282 345 417
#     4  12  25  46  70  99 144 186 232 290 341 412
#
# _framework density 21.191721999999999
#
# number of rings (size 3 to 8) (size 9 to 14) (size 15 to 20)
#    0.000    1.200    4.000    0.000    5.600    9.600 
#    0.000    0.000    0.000    0.000    0.000    0.000 
#    0.000    0.000    0.000    0.000    0.000    0.000 
#
# Total GULP energy -55684.164989 kJ/mol
# GULP energy per Si atom -5568.416499 kJ/mol
# Density = 2.114349 g / cm^3
# Si number density = 21.191722 Si / 1000 Ang^3
#
#
#
# Elastic Constant Matrix: (Units=GPa)
#
#
# Indices 1 2 3 4 5 6 
#
# 1 83.0910 48.9929 10.6743 -16.6730 -1.1174 29.7549
# 2 48.9929 169.4722 66.8186 -50.7671 -3.3063 50.5357
# 3 10.6743 66.8186 161.9844 -56.2218 -22.0146 25.2558
# 4 -16.6730 -50.7671 -56.2218 52.3812 -0.5865 -6.6898
# 5 -1.1174 -3.3063 -22.0146 -0.5865 25.6167 -0.1942
# 6 29.7549 50.5357 25.2558 -6.6898 -0.1942 40.9768
#
#
#
# Elastic Compliance Matrix: (Units=1/GPa)
#
#
# Indices 1 2 3 4 5 6 
#
# 1 0.018896 0.000174 0.005321 0.009968 0.005529 -0.015561
# 2 0.000174 0.014316 0.002121 0.014108 0.003874 -0.016767
# 3 0.005321 0.002121 0.015369 0.018764 0.014046 -0.012821
# 4 0.009968 0.014108 0.018764 0.052783 0.019381 -0.027494
# 5 0.005529 0.003874 0.014046 0.019381 0.052186 -0.014038
# 6 -0.015561 -0.016767 -0.012821 -0.027494 -0.014038 0.059729
#
#
# Mechanical properties :
#
#
# Convention : Reuss Voigt Hill
#
# Bulk Modulus (GPa) = 15.67125 74.16879 44.92002
# Shear Modulus (GPa) = 22.79777 42.99908 32.89842
#
# Velocity S-wave (km/s) = 3.28348 4.50939 3.94435
# Velocity P-wave (km/s) = 4.66755 7.88592 6.47972
#
# Compressibility (1/GPa) = 0.06381112
#
# Stress axis : x y z
#
# Youngs Moduli (GPa) = 52.92087 69.85152 65.06726
#
# Poissons Ratio (x) = -0.01214 -0.34620
# Poissons Ratio (y) = -0.00920 -0.13798
# Poissons Ratio (z) = -0.28158 -0.14813
#
# Static dielectric constant tensor:
#      x y z
#    x 1.878240 0.353790 -0.139650 
#    y 0.353790 1.553280 -0.124310 
#    z -0.139650 -0.124310 1.813360 
# 
# From -- ./inp_files/18211.got.cif
#   From: 2010.05.17/outbox.cif.g08.bks.cpg/sg2_10_cif.got.tgz:18211.got - 2010.06.03 11:33:40.
