data_PCOD9042186
_publ_section_title
;
Structure prediction by ZEFSAII (Michael W. Deem and Ramdas Pophale) SiO2 
 PCOD9042186
Probable space group: P -1
;
_chemical_formula_sum "Si O2"
_cell_formula_units_Z 14
_cell_length_a 9.575939
_cell_length_b 10.139493
_cell_length_c 7.531954
_cell_angle_alpha 116.822769
_cell_angle_beta 96.372140
_cell_angle_gamma 79.692264
_cell_volume 641.717539
_symmetry_space_group_name_H-M "P -1"
_symmetry_group_IT_number 2
_symmetry_cell_setting 'triclinic'
loop_
_space_group_symop_operation_xyz
x,y,z
-x,-y,-z
loop_
_atom_site_type_symbol
_atom_site_label
_atom_site_fract_x
_atom_site_fract_y
_atom_site_fract_z
Si Si1 0.625640 0.556207 0.669102
Si Si2 0.069124 0.062267 0.377086
Si Si3 0.633576 0.872779 0.395373
Si Si4 0.230072 0.865527 0.038661
Si Si5 0.400204 0.702676 0.289174
Si Si6 0.642229 0.887079 0.985700
Si Si7 0.195587 0.705671 0.584250
O O1 0.500000 0.500000 0.500000
O O2 0.612466 0.472318 0.805560
O O3 0.625271 0.729123 0.801096
O O4 0.771591 0.470616 0.554202
O O5 0.225861 0.100532 0.465765
O O6 0.962722 0.209525 0.401292
O O7 0.000000 0.000000 0.500000
O O8 0.086026 0.922680 0.158380
O O9 0.339472 0.789581 0.157554
O O10 0.562306 0.728282 0.350779
O O11 0.500000 0.000000 0.500000
O O12 0.666048 0.870646 0.189210
O O13 0.249938 0.021544 0.041999
O O14 0.241252 0.747858 0.810899
O O15 0.298645 0.763349 0.480811
O O16 0.500000 0.000000 0.000000
#
# Coordination Sequence:
#
# PCOD9042186 Si02
#       7
#     2   2   2   2   2   2   2
#     4  10  25  44  69  96 149 176 227 286 349 405
#     4  12  22  41  69 102 141 182 232 285 338 412
#     4  12  23  40  69 106 140 178 232 291 337 401
#     4  12  22  41  77  98 139 182 235 277 345 403
#     4  10  23  44  69  99 140 175 232 278 346 398
#     4  12  24  41  67 108 136 174 233 288 342 409
#     4  10  24  46  68 101 142 181 230 282 345 410
#
# _framework density 21.816448999999999
#
# number of rings (size 3 to 8) (size 9 to 14) (size 15 to 20)
#    0.857    0.000    4.286    3.000    4.000    0.571 
#    0.000    1.429    0.000    0.000    0.000    0.000 
#    0.000    0.000    0.000    0.000    0.000    0.000 
#
# Total GULP energy -78112.556339 kJ/mol
# GULP energy per Si atom -5579.468310 kJ/mol
# Density = 2.176679 g / cm^3
# Si number density = 21.816449 Si / 1000 Ang^3
#
#
#
# Elastic Constant Matrix: (Units=GPa)
#
#
# Indices 1 2 3 4 5 6 
#
# 1 68.5955 13.5643 15.2755 -9.4817 -1.6852 -10.6833
# 2 13.5643 99.9102 47.2517 23.6091 0.8438 -0.7955
# 3 15.2755 47.2517 131.3778 -5.1919 -4.9684 2.7684
# 4 -9.4817 23.6091 -5.1919 46.7665 3.2688 -1.9678
# 5 -1.6852 0.8438 -4.9684 3.2688 25.8047 -9.9575
# 6 -10.6833 -0.7955 2.7684 -1.9678 -9.9575 34.8650
#
#
#
# Elastic Compliance Matrix: (Units=1/GPa)
#
#
# Indices 1 2 3 4 5 6 
#
# 1 0.017114 -0.003176 -0.000671 0.005063 0.002897 0.006338
# 2 -0.003176 0.015096 -0.005427 -0.008838 -0.001006 -0.000984
# 3 -0.000671 -0.005427 0.009846 0.003579 0.001377 -0.000516
# 4 0.005063 -0.008838 0.003579 0.027454 -0.001304 0.002243
# 5 0.002897 -0.001006 0.001377 -0.001304 0.044581 0.013414
# 6 0.006338 -0.000984 -0.000516 0.002243 0.013414 0.034600
#
#
# Mechanical properties :
#
#
# Convention : Reuss Voigt Hill
#
# Bulk Modulus (GPa) = 42.54083 50.22960 46.38521
# Shear Modulus (GPa) = 28.55908 36.40670 32.48289
#
# Velocity S-wave (km/s) = 3.62202 4.08949 3.86284
# Velocity P-wave (km/s) = 6.08554 6.73590 6.41896
#
# Compressibility (1/GPa) = 0.02350683
#
# Stress axis : x y z
#
# Youngs Moduli (GPa) = 58.43199 66.24293 101.56561
#
# Poissons Ratio (x) = 0.21041 0.06819
# Poissons Ratio (y) = 0.18560 0.55117
# Poissons Ratio (z) = 0.03923 0.35948
#
# Static dielectric constant tensor:
#      x y z
#    x 2.045820 0.117460 -0.142890 
#    y 0.117460 1.929450 -0.085770 
#    z -0.142890 -0.085770 1.948710 
# 
# From -- ./inp_files/182490.got.cif
#   From: 2010.05.17/outbox.cif.g08.bks.cpg/sg2_92_cif.got.tgz:182490.got - 2010.06.03 11:33:40.
