data_PCOD9042616
_publ_section_title
;
Structure prediction by ZEFSAII (Michael W. Deem and Ramdas Pophale) SiO2 
 PCOD9042616
Probable space group: P -1
;
_chemical_formula_sum "Si O2"
_cell_formula_units_Z 16
_cell_length_a 7.881711
_cell_length_b 8.270907
_cell_length_c 23.577746
_cell_angle_alpha 31.710886
_cell_angle_beta 136.938467
_cell_angle_gamma 128.225033
_cell_volume 551.605483
_symmetry_space_group_name_H-M "P -1"
_symmetry_group_IT_number 2
_symmetry_cell_setting 'triclinic'
loop_
_space_group_symop_operation_xyz
x,y,z
-x,-y,-z
loop_
_atom_site_type_symbol
_atom_site_label
_atom_site_fract_x
_atom_site_fract_y
_atom_site_fract_z
Si Si1 0.843204 0.979197 0.397009
Si Si2 0.222863 0.924497 0.773583
Si Si3 0.829371 0.370177 0.839472
Si Si4 0.067356 0.129997 0.868791
Si Si5 0.780321 0.300012 0.596181
Si Si6 0.391300 0.731610 0.988201
Si Si7 0.683923 0.659999 0.611071
Si Si8 0.396191 0.313584 0.206340
O O1 0.712604 0.981337 0.302379
O O2 0.688925 0.255168 0.306068
O O3 0.130371 0.051024 0.434905
O O4 0.795363 0.655887 0.511503
O O5 0.407646 0.832991 0.896791
O O6 0.058588 0.612275 0.822846
O O7 0.046917 0.201603 0.667363
O O8 0.635767 0.554521 0.695738
O O9 0.713941 0.415088 0.860800
O O10 0.917895 0.081426 0.907052
O O11 0.877527 0.387595 0.722159
O O12 0.164341 0.923089 0.902728
O O13 0.340652 0.224744 0.930901
O O14 0.568004 0.301762 0.495326
O O15 0.706999 0.013397 0.702690
O O16 0.330277 0.398431 0.099658
#
# Coordination Sequence:
#
# PCOD9042616 Si02
#       8
#     2   2   2   2   2   2   2   2
#     4  11  23  46  71 110 145 192 242 299 368 428
#     4  10  23  44  73 104 140 197 240 297 368 422
#     4   8  20  41  66 101 138 187 235 293 369 420
#     4   9  21  45  68  99 143 193 242 291 372 426
#     4  11  25  45  72 110 144 191 243 300 367 436
#     4  11  22  43  71 105 147 186 249 299 352 456
#     4   9  21  48  70  99 148 188 240 299 354 441
#     4  11  23  41  69 107 143 189 240 294 365 423
#
# _framework density 29.006239000000001
#
# number of rings (size 3 to 8) (size 9 to 14) (size 15 to 20)
#    0.750    1.250    1.250    0.750    0.000   12.500 
#    9.000    0.000    0.000    0.000    0.000    0.000 
#    0.000    0.000    0.000    0.000    0.000    0.000 
#
# Total GULP energy -89386.707038 kJ/mol
# GULP energy per Si atom -5586.669190 kJ/mol
# Density = 2.894022 g / cm^3
# Si number density = 29.006239 Si / 1000 Ang^3
#
#
#
# Elastic Constant Matrix: (Units=GPa)
#
#
# Indices 1 2 3 4 5 6 
#
# 1 115.4394 24.2697 52.8598 -16.9762 -4.5935 -18.9913
# 2 24.2697 51.6470 18.3746 -8.3675 12.3278 -20.6815
# 3 52.8598 18.3746 155.8033 19.6077 -3.3476 -17.8946
# 4 -16.9762 -8.3675 19.6077 57.6985 -10.0430 16.6768
# 5 -4.5935 12.3278 -3.3476 -10.0430 63.8015 -5.8574
# 6 -18.9913 -20.6815 -17.8946 16.6768 -5.8574 39.6693
#
#
#
# Elastic Compliance Matrix: (Units=1/GPa)
#
#
# Indices 1 2 3 4 5 6 
#
# 1 0.012247 -0.003907 -0.004223 0.004785 0.002190 0.000233
# 2 -0.003907 0.027002 -0.000425 -0.001333 -0.004639 0.011891
# 3 -0.004223 -0.000425 0.009088 -0.005648 -0.000249 0.004194
# 4 0.004785 -0.001333 -0.005648 0.024076 0.003121 -0.010613
# 5 0.002190 -0.004639 -0.000249 0.003121 0.017182 -0.000258
# 6 0.000233 0.011891 0.004194 -0.010613 -0.000258 0.037835
#
#
# Mechanical properties :
#
#
# Convention : Reuss Voigt Hill
#
# Bulk Modulus (GPa) = 32.02242 57.09976 44.56109
# Shear Modulus (GPa) = 32.26874 47.39292 39.83083
#
# Velocity S-wave (km/s) = 3.33900 4.04652 3.70967
# Velocity P-wave (km/s) = 5.09205 6.44675 5.80903
#
# Compressibility (1/GPa) = 0.03122812
#
# Stress axis : x y z
#
# Youngs Moduli (GPa) = 81.65514 37.03400 110.03151
#
# Poissons Ratio (x) = 0.14468 0.46463
# Poissons Ratio (y) = 0.31900 0.04679
# Poissons Ratio (z) = 0.34480 0.01575
#
# Static dielectric constant tensor:
#      x y z
#    x 2.278160 -0.028380 -0.058910 
#    y -0.028380 2.370140 0.036090 
#    z -0.058910 0.036090 2.248790 
# 
# From -- ./inp_files/586618.got.cif
#   From: 2010.05.17/outbox.cif.g08.bks.cpg/sg2_294_cif.got.tgz:586618.got - 2010.06.03 11:33:40.
