data_PCOD9042675
_publ_section_title
;
Structure prediction by ZEFSAII (Michael W. Deem and Ramdas Pophale) SiO2 
 PCOD9042675
Probable space group: P -1
;
_chemical_formula_sum "Si O2"
_cell_formula_units_Z 13
_cell_length_a 8.864290
_cell_length_b 17.196699
_cell_length_c 6.249537
_cell_angle_alpha 129.666959
_cell_angle_beta 128.519056
_cell_angle_gamma 59.938581
_cell_volume 565.235996
_symmetry_space_group_name_H-M "P -1"
_symmetry_group_IT_number 2
_symmetry_cell_setting 'triclinic'
loop_
_space_group_symop_operation_xyz
x,y,z
-x,-y,-z
loop_
_atom_site_type_symbol
_atom_site_label
_atom_site_fract_x
_atom_site_fract_y
_atom_site_fract_z
Si Si1 0.319971 0.452989 0.672797
Si Si2 0.492392 0.769729 0.688753
Si Si3 0.927510 0.223868 0.855289
Si Si4 0.883645 0.937980 0.950962
Si Si5 0.791959 0.761651 0.254671
Si Si6 0.021623 0.594614 0.451574
Si Si7 0.500000 0.000000 0.000000
O O1 0.384804 0.332511 0.485568
O O2 0.221411 0.512679 0.481030
O O3 0.146738 0.464034 0.712064
O O4 0.500000 0.500000 0.000000
O O5 0.269042 0.762633 0.431948
O O6 0.568161 0.762071 0.988280
O O7 0.534996 0.874508 0.807240
O O8 0.104002 0.212791 0.825535
O O9 0.934606 0.319465 0.187356
O O10 0.960447 0.121302 0.847007
O O11 0.805214 0.851022 0.589976
O O12 0.698015 0.000601 0.020561
O O13 0.000000 0.000000 0.000000
O O14 0.923497 0.658257 0.276131
#
# Coordination Sequence:
#
# PCOD9042675 Si02
#       7
#     2   2   2   2   2   2   1
#     4  11  22  45  73 105 144 197 250 316 378 458
#     4  12  25  43  74 106 150 197 252 309 383 449
#     4  11  23  48  71 107 154 194 252 319 374 464
#     4  11  26  49  76 110 153 206 260 313 390 449
#     4  11  24  47  70 108 148 196 252 316 379 456
#     4  10  23  44  73  99 147 196 245 315 386 445
#     4  12  26  50  76 108 156 204 248 316 374 466
#
# _framework density 22.999244000000001
#
# number of rings (size 3 to 8) (size 9 to 14) (size 15 to 20)
#    0.000    0.923    4.615    1.846    2.154    3.692 
#    8.308    1.538    0.000    0.000    0.000    0.000 
#    0.000    0.000    0.000    0.000    0.000    0.000 
#
# Total GULP energy -72439.338131 kJ/mol
# GULP energy per Si atom -5572.256779 kJ/mol
# Density = 2.294690 g / cm^3
# Si number density = 22.999244 Si / 1000 Ang^3
#
#
#
# Elastic Constant Matrix: (Units=GPa)
#
#
# Indices 1 2 3 4 5 6 
#
# 1 92.4314 64.5284 23.4322 -11.3337 14.5677 -8.1329
# 2 64.5284 152.7592 65.0824 -1.6700 7.6676 5.8548
# 3 23.4322 65.0824 122.1676 -22.9553 25.9468 -11.2349
# 4 -11.3337 -1.6700 -22.9553 44.2038 -10.9107 2.7740
# 5 14.5677 7.6676 25.9468 -10.9107 32.4298 -0.9824
# 6 -8.1329 5.8548 -11.2349 2.7740 -0.9824 37.8924
#
#
#
# Elastic Compliance Matrix: (Units=1/GPa)
#
#
# Indices 1 2 3 4 5 6 
#
# 1 0.018867 -0.009796 0.004800 0.004510 -0.008287 0.006441
# 2 -0.009796 0.014126 -0.008341 -0.004421 0.006057 -0.006278
# 3 0.004800 -0.008341 0.015646 0.006064 -0.010473 0.006242
# 4 0.004510 -0.004421 0.006064 0.027523 0.003473 0.001524
# 5 -0.008287 0.006057 -0.010473 0.003473 0.042524 -0.004971
# 6 0.006441 -0.006278 0.006242 0.001524 -0.004971 0.030353
#
#
# Mechanical properties :
#
#
# Convention : Reuss Voigt Hill
#
# Bulk Modulus (GPa) = 45.52761 74.82714 60.17737
# Shear Modulus (GPa) = 27.31724 37.19286 32.25505
#
# Velocity S-wave (km/s) = 3.45011 4.02572 3.74898
# Velocity P-wave (km/s) = 5.97572 7.36300 6.70534
#
# Compressibility (1/GPa) = 0.02196469
#
# Stress axis : x y z
#
# Youngs Moduli (GPa) = 53.00308 70.79045 63.91398
#
# Poissons Ratio (x) = 0.69348 -0.30678
# Poissons Ratio (y) = 0.51923 0.53309
# Poissons Ratio (z) = -0.25441 0.59044
#
# Static dielectric constant tensor:
#      x y z
#    x 1.864060 0.009810 -0.002190 
#    y 0.009810 1.909700 -0.040630 
#    z -0.002190 -0.040630 1.904440 
# 
# From -- ./inp_files/49468.got.cif
#   From: 2010.05.17/outbox.cif.g08.bks.cpg/sg2_25_cif.got.tgz:49468.got - 2010.06.03 11:33:40.
