data_PCOD9042688
_publ_section_title
;
Structure prediction by ZEFSAII (Michael W. Deem and Ramdas Pophale) SiO2 
 PCOD9042688
Probable space group: P -1
;
_chemical_formula_sum "Si O2"
_cell_formula_units_Z 16
_cell_length_a 33.270998
_cell_length_b 11.551206
_cell_length_c 9.767829
_cell_angle_alpha 139.616233
_cell_angle_beta 155.078522
_cell_angle_gamma 25.170332
_cell_volume 635.198348
_symmetry_space_group_name_H-M "P -1"
_symmetry_group_IT_number 2
_symmetry_cell_setting 'triclinic'
loop_
_space_group_symop_operation_xyz
x,y,z
-x,-y,-z
loop_
_atom_site_type_symbol
_atom_site_label
_atom_site_fract_x
_atom_site_fract_y
_atom_site_fract_z
Si Si1 0.925841 0.510655 0.153116
Si Si2 0.800881 0.319944 0.300601
Si Si3 0.392215 0.040566 0.301272
Si Si4 0.689269 0.414769 0.746133
Si Si5 0.519369 0.160007 0.119084
Si Si6 0.047010 0.966231 0.960501
Si Si7 0.594667 0.215048 0.127519
Si Si8 0.853743 0.672169 0.795767
O O1 0.000000 0.500000 0.500000
O O2 0.890479 0.687104 0.074252
O O3 0.033184 0.201582 0.138688
O O4 0.757161 0.677935 0.823093
O O5 0.828219 0.494503 0.546703
O O6 0.927774 0.067210 0.571533
O O7 0.790861 0.285018 0.078930
O O8 0.633681 0.513119 0.015374
O O9 0.519895 0.752334 0.531904
O O10 0.500000 0.000000 0.500000
O O11 0.322318 0.011220 0.941601
O O12 0.674020 0.232777 0.492759
O O13 0.788033 0.345361 0.860548
O O14 0.522156 0.174440 0.973550
O O15 0.684101 0.988785 0.520790
O O16 0.500000 0.000000 0.000000
O O17 0.000000 0.000000 0.000000
O O18 0.500000 0.500000 0.000000
O O19 0.000000 0.500000 0.000000
#
# Coordination Sequence:
#
# PCOD9042688 Si02
#       8
#     2   2   2   2   2   2   2   2
#     4  11  25  46  67 103 141 182 245 298 360 435
#     4  10  24  43  71  99 139 190 247 290 368 443
#     4  11  25  41  78 104 138 190 252 295 361 441
#     4  11  24  46  70 106 145 189 244 303 372 439
#     4  10  23  44  74 102 147 189 248 302 370 437
#     4  11  25  44  68  99 146 187 230 299 370 434
#     4  10  25  43  72 108 152 181 240 310 379 422
#     4  10  24  41  69 102 144 187 242 308 363 426
#
# _framework density 25.188981999999999
#
# number of rings (size 3 to 8) (size 9 to 14) (size 15 to 20)
#    0.000    1.500    0.000    2.625   17.500    1.500 
#    2.250    0.000    0.000    0.000    0.000    0.000 
#    0.000    0.000    0.000    0.000    0.000    0.000 
#
# Total GULP energy -89219.208152 kJ/mol
# GULP energy per Si atom -5576.200510 kJ/mol
# Density = 2.513165 g / cm^3
# Si number density = 25.188982 Si / 1000 Ang^3
#
#
#
# Elastic Constant Matrix: (Units=GPa)
#
#
# Indices 1 2 3 4 5 6 
#
# 1 165.0338 17.1158 64.3177 -17.3545 -23.6887 -16.0115
# 2 17.1158 62.6781 36.7553 -11.5984 4.0136 -16.0021
# 3 64.3177 36.7553 156.7435 -10.5868 -19.3160 -10.0784
# 4 -17.3545 -11.5984 -10.5868 45.0853 -22.0951 4.6832
# 5 -23.6887 4.0136 -19.3160 -22.0951 47.2079 -0.2361
# 6 -16.0115 -16.0021 -10.0784 4.6832 -0.2361 36.8358
#
#
#
# Elastic Compliance Matrix: (Units=1/GPa)
#
#
# Indices 1 2 3 4 5 6 
#
# 1 0.008616 0.000316 -0.002345 0.005477 0.005913 0.002582
# 2 0.000316 0.021235 -0.004735 0.002507 -0.002372 0.007733
# 3 -0.002345 -0.004735 0.009001 0.001951 0.003818 -0.000837
# 4 0.005477 0.002507 0.001951 0.035113 0.019766 -0.000334
# 5 0.005913 -0.002372 0.003818 0.019766 0.035166 0.000297
# 6 0.002582 0.007733 -0.000837 -0.000334 0.000297 0.031445
#
#
# Mechanical properties :
#
#
# Convention : Reuss Voigt Hill
#
# Bulk Modulus (GPa) = 39.48756 68.98145 54.23450
# Shear Modulus (GPa) = 30.76105 43.57692 37.16899
#
# Velocity S-wave (km/s) = 3.49837 4.16384 3.84553
# Velocity P-wave (km/s) = 5.65939 7.11068 6.42614
#
# Compressibility (1/GPa) = 0.02532443
#
# Stress axis : x y z
#
# Youngs Moduli (GPa) = 116.06781 47.09232 111.10187
#
# Poissons Ratio (x) = -0.01490 0.26052
# Poissons Ratio (y) = -0.03673 0.52607
# Poissons Ratio (z) = 0.27216 0.22298
#
# Static dielectric constant tensor:
#      x y z
#    x 1.878300 -0.308810 -0.121990 
#    y -0.308810 1.315690 -0.143200 
#    z -0.121990 -0.143200 1.984240 
# 
# From -- ./inp_files/358631.got.cif
#   From: 2010.05.17/outbox.cif.g08.bks.cpg/sg2_180_cif.got.tgz:358631.got - 2010.06.03 11:33:40.
