data_PCOD9042921
_publ_section_title
;
Structure prediction by ZEFSAII (Michael W. Deem and Ramdas Pophale) SiO2 
 PCOD9042921
Probable space group: P -1
;
_chemical_formula_sum "Si O2"
_cell_formula_units_Z 16
_cell_length_a 12.118918
_cell_length_b 8.499992
_cell_length_c 9.308148
_cell_angle_alpha 66.915548
_cell_angle_beta 69.965789
_cell_angle_gamma 110.108663
_cell_volume 690.327935
_symmetry_space_group_name_H-M "P -1"
_symmetry_group_IT_number 2
_symmetry_cell_setting 'triclinic'
loop_
_space_group_symop_operation_xyz
x,y,z
-x,-y,-z
loop_
_atom_site_type_symbol
_atom_site_label
_atom_site_fract_x
_atom_site_fract_y
_atom_site_fract_z
Si Si1 0.949076 0.992151 0.251330
Si Si2 0.545439 0.854508 0.097827
Si Si3 0.663135 0.237256 0.543526
Si Si4 0.582626 0.361398 0.281209
Si Si5 0.223750 0.183081 0.902043
Si Si6 0.323682 0.496552 0.132164
Si Si7 0.894536 0.571308 0.519475
Si Si8 0.278294 0.091268 0.405281
O O1 0.850026 0.912059 0.182688
O O2 0.960714 0.808845 0.373226
O O3 0.866849 0.028797 0.398032
O O4 0.103096 0.166191 0.064594
O O5 0.478974 0.812417 0.300912
O O6 0.706277 0.928644 0.018322
O O7 0.460594 0.646904 0.115703
O O8 0.500000 0.000000 0.000000
O O9 0.644587 0.250151 0.378759
O O10 0.785740 0.447838 0.483059
O O11 0.695166 0.066584 0.626630
O O12 0.649401 0.579690 0.251142
O O13 0.413890 0.223898 0.401195
O O14 0.636760 0.410344 0.076217
O O15 0.196695 0.490443 0.271749
O O16 0.285582 0.265509 0.241225
O O17 0.000000 0.500000 0.500000
#
# Coordination Sequence:
#
# PCOD9042921 Si02
#       8
#     2   2   2   2   2   2   2   2
#     4  10  24  45  66  99 132 186 221 277 343 401
#     4  11  24  42  70 103 133 178 227 281 335 397
#     4  11  25  42  70 102 134 176 230 278 343 393
#     4  12  23  42  70 103 134 176 223 288 335 398
#     4  11  24  42  70  98 139 175 230 277 339 408
#     4  10  24  41  68  99 134 174 226 275 344 391
#     4  10  23  45  66  95 135 182 226 278 332 411
#     4  11  23  43  69  98 138 173 226 277 339 403
#
# _framework density 23.177389000000002
#
# number of rings (size 3 to 8) (size 9 to 14) (size 15 to 20)
#    0.000    1.250    2.500    2.250    5.250    3.000 
#    2.250    3.750    0.000    0.000    0.000    0.000 
#    0.000    0.000    0.000    0.000    0.000    0.000 
#
# Total GULP energy -89554.618463 kJ/mol
# GULP energy per Si atom -5597.163654 kJ/mol
# Density = 2.312464 g / cm^3
# Si number density = 23.177389 Si / 1000 Ang^3
#
#
#
# Elastic Constant Matrix: (Units=GPa)
#
#
# Indices 1 2 3 4 5 6 
#
# 1 107.7100 -1.4669 36.8844 19.0701 -0.5840 -15.9691
# 2 -1.4669 48.9485 0.5970 5.2551 0.1338 -10.5344
# 3 36.8844 0.5970 95.0374 25.3019 0.3620 -5.7741
# 4 19.0701 5.2551 25.3019 31.1926 0.6270 -3.5315
# 5 -0.5840 0.1338 0.3620 0.6270 44.0278 0.7360
# 6 -15.9691 -10.5344 -5.7741 -3.5315 0.7360 23.6546
#
#
#
# Elastic Compliance Matrix: (Units=1/GPa)
#
#
# Indices 1 2 3 4 5 6 
#
# 1 0.012401 0.002645 -0.003117 -0.004583 0.000112 0.008101
# 2 0.002645 0.023560 0.000857 -0.004948 -0.000170 0.011754
# 3 -0.003117 0.000857 0.014371 -0.009859 -0.000027 0.000314
# 4 -0.004583 -0.004948 -0.009859 0.043569 -0.000565 -0.001182
# 5 0.000112 -0.000170 -0.000027 -0.000565 0.022737 -0.000798
# 6 0.008101 0.011754 0.000314 -0.001182 -0.000798 0.052903
#
#
# Mechanical properties :
#
#
# Convention : Reuss Voigt Hill
#
# Bulk Modulus (GPa) = 19.56912 35.96944 27.76928
# Shear Modulus (GPa) = 26.91000 34.15375 30.53188
#
# Velocity S-wave (km/s) = 3.41111 3.84289 3.63342
# Velocity P-wave (km/s) = 4.89650 5.93661 5.44146
#
# Compressibility (1/GPa) = 0.05110091
#
# Stress axis : x y z
#
# Youngs Moduli (GPa) = 80.63922 42.44559 69.58607
#
# Poissons Ratio (x) = -0.11226 0.21693
# Poissons Ratio (y) = -0.21328 -0.05967
# Poissons Ratio (z) = 0.25139 -0.03639
#
# Static dielectric constant tensor:
#      x y z
#    x 1.870990 -0.009740 0.021260 
#    y -0.009740 1.874540 -0.018290 
#    z 0.021260 -0.018290 1.873030 
# 
# From -- ./inp_files/242949.got.cif
#   From: 2010.05.17/outbox.cif.g08.bks.cpg/sg2_122_cif.got.tgz:242949.got - 2010.06.03 11:33:40.
