data_PCOD9042664
_publ_section_title
;
Structure prediction by ZEFSAII (Michael W. Deem and Ramdas Pophale) SiO2 
 PCOD9042664
Probable space group: P -1
;
_chemical_formula_sum "Si O2"
_cell_formula_units_Z 16
_cell_length_a 8.195090
_cell_length_b 10.713389
_cell_length_c 8.607034
_cell_angle_alpha 101.062545
_cell_angle_beta 67.623363
_cell_angle_gamma 112.558198
_cell_volume 644.379032
_symmetry_space_group_name_H-M "P -1"
_symmetry_group_IT_number 2
_symmetry_cell_setting 'triclinic'
loop_
_space_group_symop_operation_xyz
x,y,z
-x,-y,-z
loop_
_atom_site_type_symbol
_atom_site_label
_atom_site_fract_x
_atom_site_fract_y
_atom_site_fract_z
Si Si1 0.645527 0.357460 0.120831
Si Si2 0.973464 0.982355 0.690659
Si Si3 0.686992 0.109685 0.887110
Si Si4 0.716600 0.565603 0.375946
Si Si5 0.625566 0.136096 0.569609
Si Si6 0.873227 0.358799 0.333698
Si Si7 0.228628 0.292857 0.137085
Si Si8 0.725214 0.802521 0.247427
O O1 0.739326 0.511777 0.179479
O O2 0.706309 0.300532 0.247661
O O3 0.440732 0.355385 0.140399
O O4 0.703364 0.262496 0.957687
O O5 0.172894 0.039517 0.716967
O O6 0.870162 0.072590 0.843527
O O7 0.000000 0.000000 0.500000
O O8 0.856099 0.831814 0.744670
O O9 0.669882 0.088441 0.706451
O O10 0.500000 0.000000 0.000000
O O11 0.500000 0.500000 0.500000
O O12 0.844356 0.501760 0.415547
O O13 0.772469 0.722688 0.358279
O O14 0.810271 0.240879 0.453191
O O15 0.495117 0.227324 0.666433
O O16 0.500000 0.000000 0.500000
O O17 0.083656 0.375609 0.209177
O O18 0.234364 0.236898 0.948568
#
# Coordination Sequence:
#
# PCOD9042664 Si02
#       8
#     2   2   2   2   2   2   2   2
#     4  10  23  44  73  96 144 183 235 290 353 414
#     4  12  27  42  70 109 144 181 240 297 360 428
#     4  12  22  43  66 104 145 181 231 293 360 420
#     4  10  24  47  74  97 140 194 236 294 353 426
#     4  12  23  40  68 102 137 186 227 285 361 423
#     4  10  24  45  69  98 143 182 235 286 356 414
#     4  12  24  46  70 109 137 182 235 299 353 428
#     4  12  24  45  72  99 144 186 236 292 358 419
#
# _framework density 24.830106000000001
#
# number of rings (size 3 to 8) (size 9 to 14) (size 15 to 20)
#    0.750    0.000    3.750    4.125    3.500    1.000 
#    0.000    0.625    0.000    0.000    0.000    0.000 
#    0.000    0.000    0.000    0.000    0.000    0.000 
#
# Total GULP energy -89200.865012 kJ/mol
# GULP energy per Si atom -5575.054063 kJ/mol
# Density = 2.477359 g / cm^3
# Si number density = 24.830106 Si / 1000 Ang^3
#
#
#
# Elastic Constant Matrix: (Units=GPa)
#
#
# Indices 1 2 3 4 5 6 
#
# 1 84.5506 -0.0536 17.7488 13.1959 -19.5547 -23.0913
# 2 -0.0536 39.1717 2.7835 3.0172 -0.3587 -14.5931
# 3 17.7488 2.7835 87.0819 1.1139 -2.8715 -10.1861
# 4 13.1959 3.0172 1.1139 37.0957 -15.5605 -1.1801
# 5 -19.5547 -0.3587 -2.8715 -15.5605 49.5463 19.9782
# 6 -23.0913 -14.5931 -10.1861 -1.1801 19.9782 31.7007
#
#
#
# Elastic Compliance Matrix: (Units=1/GPa)
#
#
# Indices 1 2 3 4 5 6 
#
# 1 0.017194 0.006569 -0.001833 -0.006853 -0.001815 0.015849
# 2 0.006569 0.036926 0.000610 -0.009366 -0.011755 0.029040
# 3 -0.001833 0.000610 0.012247 -0.000359 -0.001713 0.003947
# 4 -0.006853 -0.009366 -0.000359 0.036255 0.015882 -0.018078
# 5 -0.001815 -0.011755 -0.001713 0.015882 0.036157 -0.029480
# 6 0.015849 0.029040 0.003947 -0.018078 -0.029480 0.075632
#
#
# Mechanical properties :
#
#
# Convention : Reuss Voigt Hill
#
# Bulk Modulus (GPa) = 12.97684 27.97351 20.47518
# Shear Modulus (GPa) = 21.79540 36.35689 29.07615
#
# Velocity S-wave (km/s) = 2.96595 3.83067 3.42571
# Velocity P-wave (km/s) = 4.11907 5.55480 4.88992
#
# Compressibility (1/GPa) = 0.07706036
#
# Stress axis : x y z
#
# Youngs Moduli (GPa) = 58.15907 27.08084 81.65040
#
# Poissons Ratio (x) = -0.17790 0.14965
# Poissons Ratio (y) = -0.38206 -0.04978
# Poissons Ratio (z) = 0.10660 -0.01651
#
# Static dielectric constant tensor:
#      x y z
#    x 2.868430 -0.422910 -0.162500 
#    y -0.422910 2.168450 0.069340 
#    z -0.162500 0.069340 2.079950 
# 
# From -- ./inp_files/178767.got.cif
#   From: 2010.05.17/outbox.cif.g08.bks.cpg/sg2_90_cif.got.tgz:178767.got - 2010.06.03 11:33:40.
