data_PCOD9042947
_publ_section_title
;
Structure prediction by ZEFSAII (Michael W. Deem and Ramdas Pophale) SiO2 
 PCOD9042947
Probable space group: P -1
;
_chemical_formula_sum "Si O2"
_cell_formula_units_Z 16
_cell_length_a 6.340020
_cell_length_b 10.917278
_cell_length_c 16.443746
_cell_angle_alpha 54.445678
_cell_angle_beta 54.208574
_cell_angle_gamma 72.297860
_cell_volume 749.984972
_symmetry_space_group_name_H-M "P -1"
_symmetry_group_IT_number 2
_symmetry_cell_setting 'triclinic'
loop_
_space_group_symop_operation_xyz
x,y,z
-x,-y,-z
loop_
_atom_site_type_symbol
_atom_site_label
_atom_site_fract_x
_atom_site_fract_y
_atom_site_fract_z
Si Si1 0.345280 0.182492 0.542359
Si Si2 0.260078 0.383417 0.619157
Si Si3 0.094055 0.925442 0.591531
Si Si4 0.319854 0.981244 0.963166
Si Si5 0.310184 0.298351 0.822097
Si Si6 0.703559 0.652954 0.802917
Si Si7 0.747777 0.543975 0.656036
Si Si8 0.765314 0.321089 0.992590
O O1 0.302418 0.222399 0.630397
O O2 0.635869 0.143533 0.469041
O O3 0.299142 0.339975 0.448842
O O4 0.156877 0.053371 0.595390
O O5 0.500000 0.500000 0.500000
O O6 0.217743 0.362437 0.732645
O O7 0.008738 0.461474 0.614508
O O8 0.900495 0.795100 0.723014
O O9 0.000000 0.000000 0.500000
O O10 0.423340 0.137538 0.839134
O O11 0.352853 0.812591 0.988410
O O12 0.500000 0.000000 0.000000
O O13 0.000000 0.000000 0.000000
O O14 0.524213 0.414607 0.763122
O O15 0.069204 0.288767 0.942780
O O16 0.744212 0.635236 0.704994
O O17 0.757782 0.491302 0.893426
O O18 0.412727 0.686271 0.884282
#
# Coordination Sequence:
#
# PCOD9042947 Si02
#       8
#     2   2   2   2   2   2   2   2
#     4  11  25  41  67 104 137 186 233 280 370 422
#     4  12  25  42  68 104 141 181 236 292 360 436
#     4  11  24  45  68  97 143 179 230 296 347 431
#     4  10  23  45  70 101 142 186 241 301 360 425
#     4  11  24  42  72  99 144 181 234 298 358 436
#     4  11  22  42  72  94 140 181 237 286 358 424
#     4  12  23  42  71 101 139 184 233 298 356 436
#     4  10  23  45  67 102 135 189 235 293 355 431
#
# _framework density 21.333760000000002
#
# number of rings (size 3 to 8) (size 9 to 14) (size 15 to 20)
#    0.000    1.000    3.750    2.625    1.750    2.500 
#    0.000    2.500    0.000    0.000    0.000    0.000 
#    0.000    0.000    0.000    0.000    0.000    0.000 
#
# Total GULP energy -89149.045230 kJ/mol
# GULP energy per Si atom -5571.815327 kJ/mol
# Density = 2.128520 g / cm^3
# Si number density = 21.333760 Si / 1000 Ang^3
#
#
#
# Elastic Constant Matrix: (Units=GPa)
#
#
# Indices 1 2 3 4 5 6 
#
# 1 64.4948 30.3925 13.6423 -2.8724 -19.0224 -1.8546
# 2 30.3925 106.4850 45.9250 -6.4750 -30.0278 8.3858
# 3 13.6423 45.9250 66.0814 -7.0577 -24.3509 3.7804
# 4 -2.8724 -6.4750 -7.0577 45.0909 1.3282 4.1402
# 5 -19.0224 -30.0278 -24.3509 1.3282 34.3389 -10.6723
# 6 -1.8546 8.3858 3.7804 4.1402 -10.6723 26.9391
#
#
#
# Elastic Compliance Matrix: (Units=1/GPa)
#
#
# Indices 1 2 3 4 5 6 
#
# 1 0.020625 -0.004258 0.002644 0.000126 0.011751 0.007010
# 2 -0.004258 0.015666 -0.007964 0.000787 0.004979 -0.002201
# 3 0.002644 -0.007964 0.025091 0.002173 0.013501 0.004154
# 4 0.000126 0.000787 0.002173 0.023002 0.000163 -0.004012
# 5 0.011751 0.004979 0.013501 0.000163 0.055567 0.019353
# 6 0.007010 -0.002201 0.004154 -0.004012 0.019353 0.045989
#
#
# Mechanical properties :
#
#
# Convention : Reuss Voigt Hill
#
# Bulk Modulus (GPa) = 23.68161 46.33119 35.00640
# Shear Modulus (GPa) = 22.81308 31.08053 26.94681
#
# Velocity S-wave (km/s) = 3.27363 3.82104 3.55788
# Velocity P-wave (km/s) = 5.04118 6.42118 5.77257
#
# Compressibility (1/GPa) = 0.04222685
#
# Stress axis : x y z
#
# Youngs Moduli (GPa) = 48.48380 63.83248 39.85473
#
# Poissons Ratio (x) = 0.27177 -0.10536
# Poissons Ratio (y) = 0.20643 0.31740
# Poissons Ratio (z) = -0.12817 0.50835
#
# Static dielectric constant tensor:
#      x y z
#    x 1.841980 0.010680 0.010250 
#    y 0.010680 1.788760 -0.007800 
#    z 0.010250 -0.007800 1.760380 
# 
# From -- ./inp_files/485973.got.cif
#   From: 2010.05.17/outbox.cif.g08.bks.cpg/sg2_243_cif.got.tgz:485973.got - 2010.06.03 11:33:40.
