data_PCOD9042428
_publ_section_title
;
Structure prediction by ZEFSAII (Michael W. Deem and Ramdas Pophale) SiO2 
 PCOD9042428
Probable space group: P -1
;
_chemical_formula_sum "Si O2"
_cell_formula_units_Z 16
_cell_length_a 14.139486
_cell_length_b 8.682478
_cell_length_c 15.118422
_cell_angle_alpha 135.315635
_cell_angle_beta 141.676318
_cell_angle_gamma 72.513436
_cell_volume 653.415608
_symmetry_space_group_name_H-M "P -1"
_symmetry_group_IT_number 2
_symmetry_cell_setting 'triclinic'
loop_
_space_group_symop_operation_xyz
x,y,z
-x,-y,-z
loop_
_atom_site_type_symbol
_atom_site_label
_atom_site_fract_x
_atom_site_fract_y
_atom_site_fract_z
Si Si1 0.546785 0.642834 0.262326
Si Si2 0.521181 0.134213 0.976523
Si Si3 0.110859 0.908934 0.990946
Si Si4 0.370981 0.079634 0.396459
Si Si5 0.130229 0.265641 0.889094
Si Si6 0.717982 0.536389 0.738042
Si Si7 0.750310 0.140454 0.486998
Si Si8 0.100083 0.758178 0.741724
O O1 0.680748 0.810981 0.514021
O O2 0.597763 0.877089 0.327155
O O3 0.579155 0.434905 0.157983
O O4 0.330859 0.455949 0.063273
O O5 0.327962 0.951770 0.706115
O O6 0.686213 0.148174 0.051836
O O7 0.500000 0.000000 0.000000
O O8 0.210630 0.860703 0.123226
O O9 0.249147 0.186663 0.150918
O O10 0.014685 0.699824 0.754681
O O11 0.000000 0.000000 0.000000
O O12 0.509444 0.335589 0.541126
O O13 0.500000 0.000000 0.500000
O O14 0.952510 0.202714 0.678951
O O15 0.099537 0.987701 0.782688
O O16 0.151135 0.405145 0.056530
O O17 0.752179 0.390240 0.626506
O O18 0.000000 0.500000 0.500000
#
# Coordination Sequence:
#
# PCOD9042428 Si02
#       8
#     2   2   2   2   2   2   2   2
#     4  11  25  45  74 104 149 191 244 304 371 440
#     4  12  27  48  71 102 144 198 248 298 368 443
#     4  11  27  44  73 111 147 190 248 307 371 438
#     4  11  23  43  73 103 144 188 241 299 371 438
#     4  10  24  46  72 110 142 185 247 306 361 444
#     4  10  23  44  71 106 143 185 240 301 367 442
#     4  12  25  45  76 102 148 192 242 305 376 434
#     4  11  25  48  74 104 150 195 249 304 369 447
#
# _framework density 24.486713000000002
#
# number of rings (size 3 to 8) (size 9 to 14) (size 15 to 20)
#    0.000    1.000    2.500    2.625    7.000    2.500 
#    2.250    0.000    0.000    0.000    0.000    0.000 
#    0.000    0.000    0.000    0.000    0.000    0.000 
#
# Total GULP energy -89573.452243 kJ/mol
# GULP energy per Si atom -5598.340765 kJ/mol
# Density = 2.443098 g / cm^3
# Si number density = 24.486713 Si / 1000 Ang^3
#
#
#
# Elastic Constant Matrix: (Units=GPa)
#
#
# Indices 1 2 3 4 5 6 
#
# 1 109.2814 27.6486 40.2583 -8.7653 -30.1083 -5.6978
# 2 27.6486 80.7584 55.5650 -14.2125 -18.4265 -2.1687
# 3 40.2583 55.5650 121.0951 -20.3154 -30.2411 7.3624
# 4 -8.7653 -14.2125 -20.3154 58.5119 1.1802 -7.4749
# 5 -30.1083 -18.4265 -30.2411 1.1802 41.3576 6.4011
# 6 -5.6978 -2.1687 7.3624 -7.4749 6.4011 41.8541
#
#
#
# Elastic Compliance Matrix: (Units=1/GPa)
#
#
# Indices 1 2 3 4 5 6 
#
# 1 0.012088 -0.001261 -0.001629 0.000926 0.006868 0.000982
# 2 -0.001261 0.018830 -0.007662 0.001987 0.001459 0.002284
# 3 -0.001629 -0.007662 0.014581 0.002343 0.006579 -0.003771
# 4 0.000926 0.001987 0.002343 0.018841 0.002296 0.002830
# 5 0.006868 0.001459 0.006579 0.002296 0.035371 -0.005146
# 6 0.000982 0.002284 -0.003771 0.002830 -0.005146 0.026100
#
#
# Mechanical properties :
#
#
# Convention : Reuss Voigt Hill
#
# Bulk Modulus (GPa) = 40.99441 62.00874 51.50158
# Shear Modulus (GPa) = 32.24851 40.85557 36.55204
#
# Velocity S-wave (km/s) = 3.63296 4.08913 3.86778
# Velocity P-wave (km/s) = 5.86308 6.90457 6.40503
#
# Compressibility (1/GPa) = 0.02439357
#
# Stress axis : x y z
#
# Youngs Moduli (GPa) = 82.72921 53.10634 68.58425
#
# Poissons Ratio (x) = 0.06697 0.11173
# Poissons Ratio (y) = 0.10433 0.52551
# Poissons Ratio (z) = 0.13477 0.40692
#
# Static dielectric constant tensor:
#      x y z
#    x 1.991660 0.012890 -0.013970 
#    y 0.012890 1.957460 0.004630 
#    z -0.013970 0.004630 2.035890 
# 
# From -- ./inp_files/530168.got.cif
#   From: 2010.05.17/outbox.cif.g08.bks.cpg/sg2_266_cif.got.tgz:530168.got - 2010.06.03 11:33:40.
