data_PCOD9042886
_publ_section_title
;
Structure prediction by ZEFSAII (Michael W. Deem and Ramdas Pophale) SiO2 
 PCOD9042886
Probable space group: P -1
;
_chemical_formula_sum "Si O2"
_cell_formula_units_Z 12
_cell_length_a 7.083383
_cell_length_b 7.595226
_cell_length_c 11.651349
_cell_angle_alpha 76.647113
_cell_angle_beta 127.111601
_cell_angle_gamma 99.254215
_cell_volume 486.182055
_symmetry_space_group_name_H-M "P -1"
_symmetry_group_IT_number 2
_symmetry_cell_setting 'triclinic'
loop_
_space_group_symop_operation_xyz
x,y,z
-x,-y,-z
loop_
_atom_site_type_symbol
_atom_site_label
_atom_site_fract_x
_atom_site_fract_y
_atom_site_fract_z
Si Si1 0.277341 0.610327 0.159598
Si Si2 0.596329 0.300210 0.058733
Si Si3 0.433401 0.741934 0.699453
Si Si4 0.372155 0.130191 0.619866
Si Si5 0.916503 0.850428 0.082835
Si Si6 0.095352 0.914953 0.390892
O O1 0.288218 0.706285 0.023264
O O2 0.367602 0.406361 0.213306
O O3 0.468724 0.705005 0.302289
O O4 0.023361 0.657888 0.110327
O O5 0.364063 0.169121 0.998400
O O6 0.500000 0.500000 0.000000
O O7 0.712888 0.283108 0.230187
O O8 0.256732 0.754106 0.524791
O O9 0.524208 0.949177 0.709781
O O10 0.755276 0.902038 0.545475
O O11 0.150363 0.104129 0.627728
O O12 0.030219 0.895859 0.239753
O O13 0.000000 0.000000 0.000000
#
# Coordination Sequence:
#
# PCOD9042886 Si02
#       6
#     2   2   2   2   2   2
#     4  11  23  40  73  97 136 179 224 276 345 398
#     4  10  23  45  65  98 138 176 224 276 336 403
#     4   9  21  40  68  97 129 179 223 276 332 399
#     4   9  19  41  67  95 135 176 225 273 339 394
#     4  12  26  41  70 105 132 179 231 278 339 410
#     4   9  21  42  65  98 135 172 230 274 335 403
#
# _framework density 24.682113999999999
#
# number of rings (size 3 to 8) (size 9 to 14) (size 15 to 20)
#    1.000    1.000    1.667    1.000    2.333    6.000 
#    0.000    0.000    0.000    0.000    0.000    0.000 
#    0.000    0.000    0.000    0.000    0.000    0.000 
#
# Total GULP energy -66973.010859 kJ/mol
# GULP energy per Si atom -5581.084238 kJ/mol
# Density = 2.462594 g / cm^3
# Si number density = 24.682114 Si / 1000 Ang^3
#
#
#
# Elastic Constant Matrix: (Units=GPa)
#
#
# Indices 1 2 3 4 5 6 
#
# 1 90.8728 30.0248 18.6757 10.5230 -5.6832 -14.5322
# 2 30.0248 78.3850 30.9485 6.3277 17.3052 -13.5585
# 3 18.6757 30.9485 175.0348 29.8555 -12.3962 -1.5942
# 4 10.5230 6.3277 29.8555 37.8407 -11.9763 3.2964
# 5 -5.6832 17.3052 -12.3962 -11.9763 32.4845 4.0635
# 6 -14.5322 -13.5585 -1.5942 3.2964 4.0635 38.9424
#
#
#
# Elastic Compliance Matrix: (Units=1/GPa)
#
#
# Indices 1 2 3 4 5 6 
#
# 1 0.013805 -0.005711 0.000200 -0.001871 0.004486 0.002862
# 2 -0.005711 0.021737 -0.003452 -0.005287 -0.016783 0.007494
# 3 0.000200 -0.003452 0.007219 -0.004081 0.003228 -0.000823
# 4 -0.001871 -0.005287 -0.004081 0.036548 0.015332 -0.007400
# 5 0.004486 -0.016783 0.003228 0.015332 0.048697 -0.010416
# 6 0.002862 0.007494 -0.000823 -0.007400 -0.010416 0.031036
#
#
# Mechanical properties :
#
#
# Convention : Reuss Voigt Hill
#
# Bulk Modulus (GPa) = 40.26833 55.95451 48.11142
# Shear Modulus (GPa) = 26.99097 39.49642 33.24370
#
# Velocity S-wave (km/s) = 3.31046 4.00459 3.67396
# Velocity P-wave (km/s) = 5.56439 6.64091 6.12634
#
# Compressibility (1/GPa) = 0.02483341
#
# Stress axis : x y z
#
# Youngs Moduli (GPa) = 72.43627 46.00528 138.51467
#
# Poissons Ratio (x) = 0.26275 -0.02767
# Poissons Ratio (y) = 0.41370 0.47822
# Poissons Ratio (z) = -0.01447 0.15883
#
# Static dielectric constant tensor:
#      x y z
#    x 1.982160 -0.003450 -0.006270 
#    y -0.003450 1.967790 0.022610 
#    z -0.006270 0.022610 2.012540 
# 
# From -- ./inp_files/359348.got.cif
#   From: 2010.05.17/outbox.cif.g08.bks.cpg/sg2_180_cif.got.tgz:359348.got - 2010.06.03 11:33:40.
