data_PCOD9042431
_publ_section_title
;
Structure prediction by ZEFSAII (Michael W. Deem and Ramdas Pophale) SiO2 
 PCOD9042431
Probable space group: P -1
;
_chemical_formula_sum "Si O2"
_cell_formula_units_Z 12
_cell_length_a 5.165141
_cell_length_b 13.808056
_cell_length_c 10.784818
_cell_angle_alpha 42.320000
_cell_angle_beta 96.010850
_cell_angle_gamma 104.681952
_cell_volume 496.902612
_symmetry_space_group_name_H-M "P -1"
_symmetry_group_IT_number 2
_symmetry_cell_setting 'triclinic'
loop_
_space_group_symop_operation_xyz
x,y,z
-x,-y,-z
loop_
_atom_site_type_symbol
_atom_site_label
_atom_site_fract_x
_atom_site_fract_y
_atom_site_fract_z
Si Si1 0.850354 0.389626 0.989223
Si Si2 0.758874 0.047177 0.380194
Si Si3 0.018225 0.176528 0.779916
Si Si4 0.596160 0.716973 0.100163
Si Si5 0.581301 0.975349 0.177177
Si Si6 0.860750 0.518011 0.605633
O O1 0.863083 0.222799 0.183225
O O2 0.523530 0.354211 0.971485
O O3 0.970786 0.465268 0.791215
O O4 0.000000 0.500000 0.000000
O O5 0.500000 0.000000 0.500000
O O6 0.670645 0.953523 0.340146
O O7 0.000000 0.000000 0.500000
O O8 0.109181 0.233384 0.870881
O O9 0.183091 0.056561 0.865477
O O10 0.131170 0.309642 0.560520
O O11 0.701040 0.131680 0.779569
O O12 0.435963 0.591447 0.304274
O O13 0.482064 0.862903 0.969836
O O14 0.000000 0.500000 0.500000
#
# Coordination Sequence:
#
# PCOD9042431 Si02
#       6
#     2   2   2   2   2   2
#     4   9  23  46  72 105 146 194 246 297 363 439
#     4  11  25  48  73 103 147 196 245 303 361 434
#     4  12  23  43  73 106 141 188 237 294 372 429
#     4   9  22  42  65 102 145 182 236 299 356 424
#     4  11  25  42  70 107 141 188 243 301 358 431
#     4  10  23  44  71 106 149 190 241 299 366 428
#
# _framework density 24.149601000000001
#
# number of rings (size 3 to 8) (size 9 to 14) (size 15 to 20)
#    1.000    0.667    0.000    3.500    4.667    1.333 
#    6.000    0.833    0.000    0.000    0.000    0.000 
#    0.000    0.000    0.000    0.000    0.000    0.000 
#
# Total GULP energy -66904.978864 kJ/mol
# GULP energy per Si atom -5575.414905 kJ/mol
# Density = 2.409464 g / cm^3
# Si number density = 24.149601 Si / 1000 Ang^3
#
#
#
# Elastic Constant Matrix: (Units=GPa)
#
#
# Indices 1 2 3 4 5 6 
#
# 1 139.4733 80.2125 31.8588 17.8616 8.0235 44.2767
# 2 80.2125 209.9036 52.7549 35.3284 6.3435 44.5180
# 3 31.8588 52.7549 123.6798 12.3022 24.2628 33.7132
# 4 17.8616 35.3284 12.3022 57.4289 9.5803 -0.8402
# 5 8.0235 6.3435 24.2628 9.5803 38.7458 5.2760
# 6 44.2767 44.5180 33.7132 -0.8402 5.2760 46.3243
#
#
#
# Elastic Compliance Matrix: (Units=1/GPa)
#
#
# Indices 1 2 3 4 5 6 
#
# 1 0.011651 -0.002197 0.000968 -0.002501 -0.000721 -0.009692
# 2 -0.002197 0.007492 -0.001372 -0.003973 0.001664 -0.004363
# 3 0.000968 -0.001372 0.011758 -0.001076 -0.006052 -0.007495
# 4 -0.002501 -0.003973 -0.001076 0.021751 -0.004613 0.007912
# 5 -0.000721 0.001664 -0.006052 -0.004613 0.030627 -0.000077
# 6 -0.009692 -0.004363 -0.007495 0.007912 -0.000077 0.040651
#
#
# Mechanical properties :
#
#
# Convention : Reuss Voigt Hill
#
# Bulk Modulus (GPa) = 38.91003 89.18991 64.04997
# Shear Modulus (GPa) = 36.31115 49.04850 42.67982
#
# Velocity S-wave (km/s) = 3.88182 4.51158 4.20850
# Velocity P-wave (km/s) = 6.01984 8.00947 7.08484
#
# Compressibility (1/GPa) = 0.02570032
#
# Stress axis : x y z
#
# Youngs Moduli (GPa) = 85.82957 133.46930 85.04557
#
# Poissons Ratio (x) = 0.29328 -0.08235
# Poissons Ratio (y) = 0.18860 0.11665
# Poissons Ratio (z) = -0.08310 0.18307
#
# Static dielectric constant tensor:
#      x y z
#    x 1.975910 -0.030420 0.015690 
#    y -0.030420 2.035500 -0.042680 
#    z 0.015690 -0.042680 2.049570 
# 
# From -- ./inp_files/366037.got.cif
#   From: 2010.05.17/outbox.cif.g08.bks.cpg/sg2_184_cif.got.tgz:366037.got - 2010.06.03 11:33:40.
