data_PCOD9042288
_publ_section_title
;
Structure prediction by ZEFSAII (Michael W. Deem and Ramdas Pophale) SiO2 
 PCOD9042288
Probable space group: P -1
;
_chemical_formula_sum "Si O2"
_cell_formula_units_Z 15
_cell_length_a 26.004952
_cell_length_b 5.556887
_cell_length_c 23.332464
_cell_angle_alpha 105.207961
_cell_angle_beta 10.508426
_cell_angle_gamma 103.356076
_cell_volume 586.411569
_symmetry_space_group_name_H-M "P -1"
_symmetry_group_IT_number 2
_symmetry_cell_setting 'triclinic'
loop_
_space_group_symop_operation_xyz
x,y,z
-x,-y,-z
loop_
_atom_site_type_symbol
_atom_site_label
_atom_site_fract_x
_atom_site_fract_y
_atom_site_fract_z
Si Si1 0.500000 0.000000 0.500000
Si Si2 0.964716 0.328979 0.679037
Si Si3 0.262487 0.292647 0.954078
Si Si4 0.372688 0.636358 0.539715
Si Si5 0.342656 0.256302 0.156690
Si Si6 0.127761 0.656461 0.956353
Si Si7 0.774769 0.039443 0.440053
Si Si8 0.482387 0.015531 0.162531
O O1 0.636251 0.067968 0.418395
O O2 0.763744 0.123346 0.185698
O O3 0.059858 0.339789 0.509287
O O4 0.866306 0.577880 0.838603
O O5 0.233002 0.178415 0.409362
O O6 0.698236 0.183687 0.962345
O O7 0.461142 0.437626 0.706090
O O8 0.499726 0.067369 0.702691
O O9 0.001126 0.233864 0.198324
O O10 0.597145 0.537282 0.337776
O O11 0.089443 0.513377 0.843594
O O12 0.500000 0.500000 0.000000
O O13 0.337102 0.176937 0.091544
O O14 0.500000 0.000000 0.000000
O O15 0.968095 0.780245 0.195488
O O16 0.668159 0.084892 0.624493
#
# Coordination Sequence:
#
# PCOD9042288 Si02
#       8
#     1   2   2   2   2   2   2   2
#     4  12  28  50  76 108 142 182 246 286 370 434
#     4  11  23  43  68 104 145 191 241 299 362 431
#     4  12  24  44  71 104 144 190 239 297 358 432
#     4  12  27  48  74 106 144 188 234 298 366 437
#     4  10  23  44  70 106 148 196 246 310 374 446
#     4  12  27  48  74 106 144 188 234 298 366 437
#     4  12  24  44  71 104 144 190 239 297 358 432
#     4  11  23  43  68 104 145 191 241 299 362 431
#
# _framework density 25.579305000000002
#
# number of rings (size 3 to 8) (size 9 to 14) (size 15 to 20)
#    0.000    0.533    1.333    6.800    0.000    3.200 
#    0.000    6.000    0.000    0.000    0.000    0.000 
#    0.000    0.000    0.000    0.000    0.000    0.000 
#
# Total GULP energy -83673.321238 kJ/mol
# GULP energy per Si atom -5578.221416 kJ/mol
# Density = 2.552109 g / cm^3
# Si number density = 25.579305 Si / 1000 Ang^3
#
#
#
# Elastic Constant Matrix: (Units=GPa)
#
#
# Indices 1 2 3 4 5 6 
#
# 1 104.9609 27.6782 29.5541 11.3667 7.8177 4.8459
# 2 27.6782 94.1117 17.3406 -28.4716 -24.5463 18.3170
# 3 29.5541 17.3406 182.4174 -38.4966 16.1594 8.0397
# 4 11.3667 -28.4716 -38.4966 62.2389 8.8778 -4.5976
# 5 7.8177 -24.5463 16.1594 8.8778 74.5541 -0.0838
# 6 4.8459 18.3170 8.0397 -4.5976 -0.0838 47.8616
#
#
#
# Elastic Compliance Matrix: (Units=1/GPa)
#
#
# Indices 1 2 3 4 5 6 
#
# 1 0.012576 -0.005737 -0.002679 -0.006253 -0.001882 0.000768
# 2 -0.005737 0.016983 0.000839 0.008230 0.005025 -0.005260
# 3 -0.002679 0.000839 0.007174 0.005492 -0.001653 -0.000730
# 4 -0.006253 0.008230 0.005492 0.024394 -0.000731 -0.001097
# 5 -0.001882 0.005025 -0.001653 -0.000731 0.015708 -0.001498
# 6 0.000768 -0.005260 -0.000730 -0.001097 -0.001498 0.022843
#
#
# Mechanical properties :
#
#
# Convention : Reuss Voigt Hill
#
# Bulk Modulus (GPa) = 46.34398 58.95954 52.65176
# Shear Modulus (GPa) = 40.97451 57.39206 49.18329
#
# Velocity S-wave (km/s) = 4.00667 4.74190 4.38970
# Velocity P-wave (km/s) = 6.28980 7.28564 6.80596
#
# Compressibility (1/GPa) = 0.02157777
#
# Stress axis : x y z
#
# Youngs Moduli (GPa) = 79.51356 58.88330 139.39544
#
# Poissons Ratio (x) = 0.33782 0.37345
# Poissons Ratio (y) = 0.45618 -0.11690
# Poissons Ratio (z) = 0.21302 -0.04938
#
# Static dielectric constant tensor:
#      x y z
#    x 2.062000 -0.017500 0.072270 
#    y -0.017500 1.948030 -0.029260 
#    z 0.072270 -0.029260 1.988020 
# 
# From -- ./inp_files/614302.got.cif
#   From: 2010.05.17/outbox.cif.g08.bks.cpg/sg2_308_cif.got.tgz:614302.got - 2010.06.03 11:33:40.
