data_PCOD9042612
_publ_section_title
;
Structure prediction by ZEFSAII (Michael W. Deem and Ramdas Pophale) SiO2 
 PCOD9042612
Probable space group: P -1
;
_chemical_formula_sum "Si O2"
_cell_formula_units_Z 12
_cell_length_a 15.736214
_cell_length_b 19.443695
_cell_length_c 7.342059
_cell_angle_alpha 128.644564
_cell_angle_beta 118.362266
_cell_angle_gamma 17.251844
_cell_volume 443.233940
_symmetry_space_group_name_H-M "P -1"
_symmetry_group_IT_number 2
_symmetry_cell_setting 'triclinic'
loop_
_space_group_symop_operation_xyz
x,y,z
-x,-y,-z
loop_
_atom_site_type_symbol
_atom_site_label
_atom_site_fract_x
_atom_site_fract_y
_atom_site_fract_z
Si Si1 0.613632 0.113321 0.335266
Si Si2 0.441001 0.445674 0.569266
Si Si3 0.603314 0.327974 0.118367
Si Si4 0.278321 0.965837 0.301009
Si Si5 0.817956 0.640850 0.239727
Si Si6 0.856627 0.742529 0.743765
O O1 0.652549 0.179171 0.415641
O O2 0.230185 0.435574 0.541741
O O3 0.822803 0.911618 0.398481
O O4 0.694027 0.973849 0.031076
O O5 0.478521 0.423491 0.353963
O O6 0.535045 0.461032 0.760405
O O7 0.044645 0.767926 0.714150
O O8 0.561037 0.270828 0.886905
O O9 0.000000 0.000000 0.000000
O O10 0.543688 0.802247 0.221084
O O11 0.102314 0.352800 0.191746
O O12 0.692003 0.831589 0.558405
O O13 0.000000 0.500000 0.000000
#
# Coordination Sequence:
#
# PCOD9042612 Si02
#       6
#     2   2   2   2   2   2
#     4  11  26  46  73 106 153 195 235 311 370 430
#     4  10  23  44  73 103 146 189 239 303 377 430
#     4   9  21  44  70 106 141 183 245 307 354 455
#     4  10  24  44  73 107 144 190 258 296 362 454
#     4  10  24  48  77 106 148 202 246 305 372 432
#     4  10  26  48  69 112 154 187 257 309 354 449
#
# _framework density 27.073737000000001
#
# number of rings (size 3 to 8) (size 9 to 14) (size 15 to 20)
#    0.000    2.000    0.000    0.000   11.667    6.667 
#    0.000   15.000    0.000    0.000    0.000    0.000 
#    0.000    0.000    0.000    0.000    0.000    0.000 
#
# Total GULP energy -67249.248066 kJ/mol
# GULP energy per Si atom -5604.104005 kJ/mol
# Density = 2.701212 g / cm^3
# Si number density = 27.073737 Si / 1000 Ang^3
#
#
#
# Elastic Constant Matrix: (Units=GPa)
#
#
# Indices 1 2 3 4 5 6 
#
# 1 209.9470 47.3573 106.0212 -17.7406 9.8014 -14.2610
# 2 47.3573 75.7144 36.0005 -13.0118 -13.4633 -31.9709
# 3 106.0212 36.0005 199.4473 -13.0450 6.5554 -4.8498
# 4 -17.7406 -13.0118 -13.0450 41.3086 -0.0050 -10.6151
# 5 9.8014 -13.4633 6.5554 -0.0050 62.8764 -6.4287
# 6 -14.2610 -31.9709 -4.8498 -10.6151 -6.4287 45.0218
#
#
#
# Elastic Compliance Matrix: (Units=1/GPa)
#
#
# Indices 1 2 3 4 5 6 
#
# 1 0.007218 -0.003287 -0.003138 0.000977 -0.001540 -0.000376
# 2 -0.003287 0.032058 -0.002786 0.014576 0.010361 0.026340
# 3 -0.003138 -0.002786 0.007120 -0.000622 -0.001106 -0.002510
# 4 0.000977 0.014576 -0.000622 0.033988 0.005012 0.019322
# 5 -0.001540 0.010361 -0.001106 0.005012 0.019575 0.010728
# 6 -0.000376 0.026340 -0.002510 0.019322 0.010728 0.046614
#
#
# Mechanical properties :
#
#
# Convention : Reuss Voigt Hill
#
# Bulk Modulus (GPa) = 35.74899 95.98519 65.86709
# Shear Modulus (GPa) = 28.68284 49.55667 39.11975
#
# Velocity S-wave (km/s) = 3.25843 4.28300 3.80535
# Velocity P-wave (km/s) = 5.23349 7.74525 6.60978
#
# Compressibility (1/GPa) = 0.02797282
#
# Stress axis : x y z
#
# Youngs Moduli (GPa) = 138.53484 31.19390 140.45731
#
# Poissons Ratio (x) = 0.10254 0.44081
# Poissons Ratio (y) = 0.45540 0.39127
# Poissons Ratio (z) = 0.43478 0.08690
#
# Static dielectric constant tensor:
#      x y z
#    x 2.121650 0.078740 0.086870 
#    y 0.078740 2.242600 0.070990 
#    z 0.086870 0.070990 2.156020 
# 
# From -- ./inp_files/318501.got.cif
#   From: 2010.05.17/outbox.cif.g08.bks.cpg/sg2_160_cif.got.tgz:318501.got - 2010.06.03 11:33:40.
