data_PCOD9042452
_publ_section_title
;
Structure prediction by ZEFSAII (Michael W. Deem and Ramdas Pophale) SiO2 
 PCOD9042452
Probable space group: P -1
;
_chemical_formula_sum "Si O2"
_cell_formula_units_Z 16
_cell_length_a 15.858408
_cell_length_b 8.467460
_cell_length_c 9.890821
_cell_angle_alpha 94.693400
_cell_angle_beta 145.314602
_cell_angle_gamma 78.571345
_cell_volume 732.946312
_symmetry_space_group_name_H-M "P -1"
_symmetry_group_IT_number 2
_symmetry_cell_setting 'triclinic'
loop_
_space_group_symop_operation_xyz
x,y,z
-x,-y,-z
loop_
_atom_site_type_symbol
_atom_site_label
_atom_site_fract_x
_atom_site_fract_y
_atom_site_fract_z
Si Si1 0.735088 0.737242 0.438524
Si Si2 0.090935 0.085199 0.800438
Si Si3 0.777039 0.008439 0.314212
Si Si4 0.308777 0.558832 0.100056
Si Si5 0.576509 0.336567 0.010257
Si Si6 0.717663 0.910007 0.687858
Si Si7 0.999418 0.530431 0.340842
Si Si8 0.516470 0.244923 0.460422
O O1 0.566552 0.718533 0.247607
O O2 0.796315 0.807162 0.658207
O O3 0.844554 0.569909 0.524023
O O4 0.723695 0.866216 0.311439
O O5 0.031196 0.278494 0.714257
O O6 0.948628 0.003848 0.588413
O O7 0.210313 0.022451 0.832583
O O8 0.168770 0.054726 0.045798
O O9 0.670616 0.186413 0.210501
O O10 0.315578 0.626554 0.963451
O O11 0.423652 0.381221 0.247774
O O12 0.374008 0.671208 0.298676
O O13 0.140806 0.537388 0.907820
O O14 0.500000 0.500000 0.000000
O O15 0.606969 0.813038 0.611616
O O16 0.615127 0.081377 0.513309
O O17 0.000000 0.500000 0.500000
#
# Coordination Sequence:
#
# PCOD9042452 Si02
#       8
#     2   2   2   2   2   2   2   2
#     4  12  27  44  69 106 142 176 230 291 343 400
#     4  11  24  46  73  97 136 188 231 279 340 418
#     4  11  26  45  71 101 137 183 235 277 344 415
#     4  11  23  44  71  98 130 187 227 273 336 423
#     4  12  26  43  70 103 141 175 228 290 339 408
#     4  11  24  44  70 103 138 179 227 293 338 407
#     4  12  24  45  69  99 138 185 226 276 346 412
#     4  10  23  44  71  95 136 182 227 273 349 407
#
# _framework density 21.829702000000001
#
# number of rings (size 3 to 8) (size 9 to 14) (size 15 to 20)
#    0.000    0.750    3.750    3.375    7.000    1.000 
#    0.000    0.000    0.000    0.000    0.000    0.000 
#    0.000    0.000    0.000    0.000    0.000    0.000 
#
# Total GULP energy -89583.084772 kJ/mol
# GULP energy per Si atom -5598.942798 kJ/mol
# Density = 2.178002 g / cm^3
# Si number density = 21.829702 Si / 1000 Ang^3
#
#
#
# Elastic Constant Matrix: (Units=GPa)
#
#
# Indices 1 2 3 4 5 6 
#
# 1 32.8656 9.5475 -5.8461 -0.4152 1.7177 -12.6281
# 2 9.5475 98.2776 -4.8142 -26.1700 -2.5605 -2.9437
# 3 -5.8461 -4.8142 64.8070 5.5301 -1.5124 -5.5694
# 4 -0.4152 -26.1700 5.5301 37.4414 2.0372 -1.0685
# 5 1.7177 -2.5605 -1.5124 2.0372 26.3962 6.0281
# 6 -12.6281 -2.9437 -5.5694 -1.0685 6.0281 34.4938
#
#
#
# Elastic Compliance Matrix: (Units=1/GPa)
#
#
# Indices 1 2 3 4 5 6 
#
# 1 0.038592 -0.003781 0.004576 -0.002121 -0.005998 0.015527
# 2 -0.003781 0.012942 -0.000141 0.008974 0.000840 -0.000171
# 3 0.004576 -0.000141 0.016395 -0.002338 -0.000166 0.004267
# 4 -0.002121 0.008974 -0.002338 0.033436 -0.001931 0.000985
# 5 -0.005998 0.000840 -0.000166 -0.001931 0.040622 -0.009310
# 6 0.015527 -0.000171 0.004267 0.000985 -0.009310 0.037007
#
#
# Mechanical properties :
#
#
# Convention : Reuss Voigt Hill
#
# Bulk Modulus (GPa) = 14.44300 21.52497 17.98398
# Shear Modulus (GPa) = 24.90477 32.80382 28.85430
#
# Velocity S-wave (km/s) = 3.38134 3.88069 3.63959
# Velocity P-wave (km/s) = 4.67709 5.47371 5.09100
#
# Compressibility (1/GPa) = 0.06923771
#
# Stress axis : x y z
#
# Youngs Moduli (GPa) = 25.91210 77.26672 60.99383
#
# Poissons Ratio (x) = 0.29215 -0.27910
# Poissons Ratio (y) = 0.09797 0.00857
# Poissons Ratio (z) = -0.11857 0.01086
#
# Static dielectric constant tensor:
#      x y z
#    x 1.754910 0.014470 0.007390 
#    y 0.014470 1.789600 0.017200 
#    z 0.007390 0.017200 1.799570 
# 
# From -- ./inp_files/223200.got.cif
#   From: 2010.05.17/outbox.cif.g08.bks.cpg/sg2_112_cif.got.tgz:223200.got - 2010.06.03 11:33:40.
