data_PCOD9042251
_publ_section_title
;
Structure prediction by ZEFSAII (Michael W. Deem and Ramdas Pophale) SiO2 
 PCOD9042251
Probable space group: P -1
;
_chemical_formula_sum "Si O2"
_cell_formula_units_Z 14
_cell_length_a 18.055290
_cell_length_b 15.463521
_cell_length_c 5.714862
_cell_angle_alpha 124.737228
_cell_angle_beta 48.641198
_cell_angle_gamma 149.829647
_cell_volume 601.886996
_symmetry_space_group_name_H-M "P -1"
_symmetry_group_IT_number 2
_symmetry_cell_setting 'triclinic'
loop_
_space_group_symop_operation_xyz
x,y,z
-x,-y,-z
loop_
_atom_site_type_symbol
_atom_site_label
_atom_site_fract_x
_atom_site_fract_y
_atom_site_fract_z
Si Si1 0.866862 0.370498 0.779076
Si Si2 0.378781 0.522526 0.700495
Si Si3 0.046597 0.711414 0.151834
Si Si4 0.391751 0.011745 0.710178
Si Si5 0.904815 0.822098 0.527910
Si Si6 0.468736 0.816505 0.822210
Si Si7 0.363019 0.385374 0.913595
O O1 0.897380 0.284287 0.706017
O O2 0.000000 0.500000 0.500000
O O3 0.674015 0.217094 0.907101
O O4 0.911496 0.509296 0.063282
O O5 0.236760 0.332509 0.594021
O O6 0.372714 0.626782 0.749067
O O7 0.352862 0.492016 0.983768
O O8 0.560180 0.631768 0.452793
O O9 0.994053 0.788458 0.356904
O O10 0.201297 0.828521 0.838524
O O11 0.444613 0.104469 0.490811
O O12 0.500000 0.000000 0.500000
O O13 0.428159 0.099804 0.021361
O O14 0.809501 0.786560 0.895218
O O15 0.000000 0.000000 0.500000
O O16 0.500000 0.500000 0.000000
#
# Coordination Sequence:
#
# PCOD9042251 Si02
#       7
#     2   2   2   2   2   2   2
#     4  11  25  44  73 104 143 198 239 308 367 443
#     4  10  23  44  70 103 131 192 247 296 357 449
#     4  11  26  44  69 106 148 187 249 301 374 435
#     4  12  27  48  71 110 151 192 247 304 367 435
#     4  11  25  43  69 102 144 187 235 311 367 433
#     4  12  27  45  80 104 148 198 246 300 369 444
#     4   9  22  43  69  92 141 177 245 295 355 436
#
# _framework density 23.260179999999998
#
# number of rings (size 3 to 8) (size 9 to 14) (size 15 to 20)
#    0.000    1.143    2.857    1.286   12.000    2.857 
#    0.000    0.000    0.000    0.000    0.000    0.000 
#    0.000    0.000    0.000    0.000    0.000    0.000 
#
# Total GULP energy -78059.551922 kJ/mol
# GULP energy per Si atom -5575.682280 kJ/mol
# Density = 2.320724 g / cm^3
# Si number density = 23.260180 Si / 1000 Ang^3
#
#
#
# Elastic Constant Matrix: (Units=GPa)
#
#
# Indices 1 2 3 4 5 6 
#
# 1 161.5945 60.4572 49.8253 -19.3828 1.5469 -30.4154
# 2 60.4572 121.7113 33.2945 -12.3158 8.1873 -15.9614
# 3 49.8253 33.2945 76.8108 -33.1682 10.1706 -11.8296
# 4 -19.3828 -12.3158 -33.1682 44.9758 -4.7111 7.3712
# 5 1.5469 8.1873 10.1706 -4.7111 51.3486 -5.0512
# 6 -30.4154 -15.9614 -11.8296 7.3712 -5.0512 46.0608
#
#
#
# Elastic Compliance Matrix: (Units=1/GPa)
#
#
# Indices 1 2 3 4 5 6 
#
# 1 0.009472 -0.003036 -0.004691 -0.000755 0.001480 0.004281
# 2 -0.003036 0.010568 -0.002575 -0.000582 -0.001041 0.000975
# 3 -0.004691 -0.002575 0.023779 0.014596 -0.002871 -0.000533
# 4 -0.000755 -0.000582 0.014596 0.032878 0.000024 -0.002211
# 5 0.001480 -0.001041 -0.002871 0.000024 0.020375 0.002109
# 6 0.004281 0.000975 -0.000533 -0.002211 0.002109 0.025323
#
#
# Mechanical properties :
#
#
# Convention : Reuss Voigt Hill
#
# Bulk Modulus (GPa) = 43.07594 71.91895 57.49745
# Shear Modulus (GPa) = 33.17087 42.91301 38.04194
#
# Velocity S-wave (km/s) = 3.78044 4.29990 4.04851
# Velocity P-wave (km/s) = 6.13311 7.45914 6.82839
#
# Compressibility (1/GPa) = 0.02321481
#
# Stress axis : x y z
#
# Youngs Moduli (GPa) = 105.57983 94.62931 42.05457
#
# Poissons Ratio (x) = 0.28731 0.19727
# Poissons Ratio (y) = 0.32056 0.10827
# Poissons Ratio (z) = 0.49524 0.24363
#
# Static dielectric constant tensor:
#      x y z
#    x 2.019740 0.026810 0.039110 
#    y 0.026810 1.927880 0.054010 
#    z 0.039110 0.054010 2.016260 
# 
# From -- ./inp_files/111020.got.cif
#   From: 2010.05.17/outbox.cif.g08.bks.cpg/sg2_56_cif.got.tgz:111020.got - 2010.06.03 11:33:40.
