data_PCOD9042648
_publ_section_title
;
Structure prediction by ZEFSAII (Michael W. Deem and Ramdas Pophale) SiO2 
 PCOD9042648
Probable space group: P -1
;
_chemical_formula_sum "Si O2"
_cell_formula_units_Z 14
_cell_length_a 9.233148
_cell_length_b 12.435235
_cell_length_c 9.617899
_cell_angle_alpha 143.701088
_cell_angle_beta 114.926456
_cell_angle_gamma 56.738656
_cell_volume 546.169430
_symmetry_space_group_name_H-M "P -1"
_symmetry_group_IT_number 2
_symmetry_cell_setting 'triclinic'
loop_
_space_group_symop_operation_xyz
x,y,z
-x,-y,-z
loop_
_atom_site_type_symbol
_atom_site_label
_atom_site_fract_x
_atom_site_fract_y
_atom_site_fract_z
Si Si1 0.694879 0.620493 0.452563
Si Si2 0.670856 0.148086 0.574330
Si Si3 0.135463 0.825966 0.578682
Si Si4 0.237457 0.114760 0.434084
Si Si5 0.705931 0.887521 0.973142
Si Si6 0.421304 0.705731 0.009524
Si Si7 0.191488 0.422551 0.074125
O O1 0.492922 0.760653 0.496046
O O2 0.779566 0.674457 0.406089
O O3 0.764847 0.712258 0.701005
O O4 0.683456 0.408626 0.229533
O O5 0.827925 0.138176 0.530860
O O6 0.678428 0.949244 0.446545
O O7 0.628976 0.286780 0.838966
O O8 0.189070 0.592494 0.358938
O O9 0.939758 0.908894 0.634953
O O10 0.224793 0.938880 0.824627
O O11 0.345792 0.939806 0.190493
O O12 0.774595 0.773212 0.026943
O O13 0.500000 0.000000 0.000000
O O14 0.627564 0.610676 0.968263
O O15 0.000000 0.500000 0.000000
#
# Coordination Sequence:
#
# PCOD9042648 Si02
#       7
#     2   2   2   2   2   2   2
#     4  12  23  47  73 104 149 203 253 307 379 460
#     4  10  23  44  73 109 149 199 255 317 369 450
#     4  12  27  48  73 118 154 193 266 322 372 455
#     4  10  27  41  79 107 153 202 255 311 388 443
#     4  12  28  49  78 111 160 207 253 312 392 461
#     4  10  25  45  77 108 154 199 260 310 382 452
#     4  12  30  47  81 120 151 201 263 321 383 450
#
# _framework density 25.633071000000001
#
# number of rings (size 3 to 8) (size 9 to 14) (size 15 to 20)
#    0.857    0.000    2.857    2.143    6.000    5.143 
#    0.000    1.429    0.000    0.000    0.000    0.000 
#    0.000    0.000    0.000    0.000    0.000    0.000 
#
# Total GULP energy -78169.397180 kJ/mol
# GULP energy per Si atom -5583.528370 kJ/mol
# Density = 2.557473 g / cm^3
# Si number density = 25.633071 Si / 1000 Ang^3
#
#
#
# Elastic Constant Matrix: (Units=GPa)
#
#
# Indices 1 2 3 4 5 6 
#
# 1 133.7449 14.9122 29.1883 4.0753 10.1280 -22.3333
# 2 14.9122 66.4167 13.6462 14.2474 2.3425 3.6503
# 3 29.1883 13.6462 188.5120 -5.1961 21.4417 -6.7412
# 4 4.0753 14.2474 -5.1961 28.4785 11.0588 3.7697
# 5 10.1280 2.3425 21.4417 11.0588 43.1168 1.2342
# 6 -22.3333 3.6503 -6.7412 3.7697 1.2342 35.4365
#
#
#
# Elastic Compliance Matrix: (Units=1/GPa)
#
#
# Indices 1 2 3 4 5 6 
#
# 1 0.009001 -0.001971 -0.000880 -0.000622 -0.001577 0.005829
# 2 -0.001971 0.017988 -0.001688 -0.009831 0.002917 -0.002472
# 3 -0.000880 -0.001688 0.006089 0.003416 -0.003621 0.000540
# 4 -0.000622 -0.009831 0.003416 0.046121 -0.012757 -0.003191
# 5 -0.001577 0.002917 -0.003621 -0.012757 0.028524 -0.001619
# 6 0.005829 -0.002472 0.000540 -0.003191 -0.001619 0.032646
#
#
# Mechanical properties :
#
#
# Convention : Reuss Voigt Hill
#
# Bulk Modulus (GPa) = 41.67132 56.01855 48.84494
# Shear Modulus (GPa) = 31.75693 43.46816 37.61254
#
# Velocity S-wave (km/s) = 3.52363 4.12246 3.83475
# Velocity P-wave (km/s) = 5.73121 6.67540 6.22124
#
# Compressibility (1/GPa) = 0.02399732
#
# Stress axis : x y z
#
# Youngs Moduli (GPa) = 111.10442 55.59348 164.24366
#
# Poissons Ratio (x) = 0.10960 0.14457
# Poissons Ratio (y) = 0.21903 0.27726
# Poissons Ratio (z) = 0.09780 0.09385
#
# Static dielectric constant tensor:
#      x y z
#    x 2.022130 -0.006520 -0.038650 
#    y -0.006520 2.170130 0.032970 
#    z -0.038650 0.032970 2.081620 
# 
# From -- ./inp_files/397991.got.cif
#   From: 2010.05.17/outbox.cif.g08.bks.cpg/sg2_199_cif.got.tgz:397991.got - 2010.06.03 11:33:40.
