data_PCOD9042128
_publ_section_title
;
Structure prediction by ZEFSAII (Michael W. Deem and Ramdas Pophale) SiO2 
 PCOD9042128
Probable space group: P -1
;
_chemical_formula_sum "Si O2"
_cell_formula_units_Z 16
_cell_length_a 7.626277
_cell_length_b 8.628650
_cell_length_c 16.604931
_cell_angle_alpha 135.979028
_cell_angle_beta 127.952652
_cell_angle_gamma 50.887801
_cell_volume 562.162385
_symmetry_space_group_name_H-M "P -1"
_symmetry_group_IT_number 2
_symmetry_cell_setting 'triclinic'
loop_
_space_group_symop_operation_xyz
x,y,z
-x,-y,-z
loop_
_atom_site_type_symbol
_atom_site_label
_atom_site_fract_x
_atom_site_fract_y
_atom_site_fract_z
Si Si1 0.992648 0.916224 0.354255
Si Si2 0.736948 0.803179 0.526665
Si Si3 0.720769 0.809323 0.712435
Si Si4 0.780679 0.576674 0.229078
Si Si5 0.452281 0.496070 0.355094
Si Si6 0.855655 0.849866 0.108599
Si Si7 0.823756 0.204968 0.969445
Si Si8 0.502481 0.657808 0.856080
O O1 0.238104 0.740728 0.396048
O O2 0.807584 0.831103 0.320296
O O3 0.949390 0.844411 0.223120
O O4 0.048280 0.158525 0.447894
O O5 0.751983 0.849724 0.643000
O O6 0.683482 0.557836 0.420240
O O7 0.500000 0.000000 0.500000
O O8 0.529415 0.686720 0.636734
O O9 0.967608 0.608006 0.736066
O O10 0.665194 0.055919 0.836590
O O11 0.571147 0.563530 0.221935
O O12 0.739784 0.441550 0.086939
O O13 0.374634 0.385150 0.212025
O O14 0.051128 0.743132 0.055795
O O15 0.733348 0.120524 0.145472
O O16 0.651001 0.738598 0.994356
O O17 0.000000 0.000000 0.000000
#
# Coordination Sequence:
#
# PCOD9042128 Si02
#       8
#     2   2   2   2   2   2   2   2
#     4  10  21  41  58  85 116 161 197 240 290 350
#     4  10  20  39  61  88 114 151 205 256 278 336
#     4  10  18  37  61  86 115 156 200 237 292 352
#     4  10  21  35  60  87 125 156 195 232 296 365
#     4  10  23  37  63  88 117 151 203 245 293 342
#     4  11  21  36  60  82 125 154 193 244 297 344
#     4  10  17  33  58  87 113 159 191 232 282 362
#     4  11  22  37  56  91 124 153 193 246 292 351
#
# _framework density 28.46153
#
# number of rings (size 3 to 8) (size 9 to 14) (size 15 to 20)
#    0.000    1.750    3.750    2.625    1.750    2.500 
#    0.000    5.625    0.000    0.000    0.000    0.000 
#    0.000    0.000    0.000    0.000    0.000    0.000 
#
# Total GULP energy -89644.262877 kJ/mol
# GULP energy per Si atom -5602.766430 kJ/mol
# Density = 2.839675 g / cm^3
# Si number density = 28.461530 Si / 1000 Ang^3
#
#
#
# Elastic Constant Matrix: (Units=GPa)
#
#
# Indices 1 2 3 4 5 6 
#
# 1 98.0553 41.5406 39.8100 7.4183 28.1574 49.5819
# 2 41.5406 171.7236 41.2638 -5.1244 19.5682 15.8139
# 3 39.8100 41.2638 139.1491 -3.1341 10.9330 19.6048
# 4 7.4183 -5.1244 -3.1341 36.6012 17.5875 8.5065
# 5 28.1574 19.5682 10.9330 17.5875 54.2923 13.2539
# 6 49.5819 15.8139 19.6048 8.5065 13.2539 52.6636
#
#
#
# Elastic Compliance Matrix: (Units=1/GPa)
#
#
# Indices 1 2 3 4 5 6 
#
# 1 0.024102 -0.002480 -0.002798 0.002465 -0.007075 -0.019523
# 2 -0.002480 0.006918 -0.001274 0.002037 -0.001821 0.000861
# 3 -0.002798 -0.001274 0.008444 0.001238 -0.000118 -0.000297
# 4 0.002465 0.002037 0.001238 0.034326 -0.011933 -0.005935
# 5 -0.007075 -0.001821 -0.000118 -0.011933 0.025990 0.002639
# 6 -0.019523 0.000861 -0.000297 -0.005935 0.002639 0.037515
#
#
# Mechanical properties :
#
#
# Convention : Reuss Voigt Hill
#
# Bulk Modulus (GPa) = 37.93788 72.68410 55.31099
# Shear Modulus (GPa) = 31.40954 47.79900 39.60427
#
# Velocity S-wave (km/s) = 3.32562 4.10252 3.73433
# Velocity P-wave (km/s) = 5.30140 6.93066 6.17004
#
# Compressibility (1/GPa) = 0.02635888
#
# Stress axis : x y z
#
# Youngs Moduli (GPa) = 41.49018 144.54005 118.42865
#
# Poissons Ratio (x) = 0.35852 0.33136
# Poissons Ratio (y) = 0.10291 0.15093
# Poissons Ratio (z) = 0.11609 0.18421
#
# Static dielectric constant tensor:
#      x y z
#    x 2.208230 -0.008430 0.048010 
#    y -0.008430 2.181200 -0.017210 
#    z 0.048010 -0.017210 2.216060 
# 
# From -- ./inp_files/187895.got.cif
#   From: 2010.05.17/outbox.cif.g08.bks.cpg/sg2_94_cif.got.tgz:187895.got - 2010.06.03 11:33:40.
