data_PCOD9042354
_publ_section_title
;
Structure prediction by ZEFSAII (Michael W. Deem and Ramdas Pophale) SiO2 
 PCOD9042354
Probable space group: P -1
;
_chemical_formula_sum "Si O2"
_cell_formula_units_Z 14
_cell_length_a 8.441726
_cell_length_b 8.031188
_cell_length_c 20.026884
_cell_angle_alpha 145.230452
_cell_angle_beta 49.634118
_cell_angle_gamma 126.840105
_cell_volume 582.784902
_symmetry_space_group_name_H-M "P -1"
_symmetry_group_IT_number 2
_symmetry_cell_setting 'triclinic'
loop_
_space_group_symop_operation_xyz
x,y,z
-x,-y,-z
loop_
_atom_site_type_symbol
_atom_site_label
_atom_site_fract_x
_atom_site_fract_y
_atom_site_fract_z
Si Si1 0.723139 0.149275 0.331071
Si Si2 0.362677 0.763504 0.821314
Si Si3 0.373726 0.954866 0.261893
Si Si4 0.369316 0.170357 0.541241
Si Si5 0.102459 0.434179 0.880669
Si Si6 0.260942 0.392459 0.056411
Si Si7 0.020107 0.332061 0.511882
O O1 0.532073 0.232899 0.456192
O O2 0.908102 0.424759 0.371054
O O3 0.603738 0.028334 0.256786
O O4 0.834398 0.888898 0.245250
O O5 0.315933 0.468695 0.689708
O O6 0.319131 0.639392 0.866727
O O7 0.586611 0.925614 0.786270
O O8 0.234550 0.041067 0.948153
O O9 0.280206 0.612625 0.186752
O O10 0.212456 0.152809 0.396570
O O11 0.500000 0.000000 0.500000
O O12 0.173567 0.915937 0.497833
O O13 0.925586 0.498732 0.898082
O O14 0.000000 0.500000 0.000000
O O15 0.500000 0.500000 0.000000
O O16 0.000000 0.500000 0.500000
#
# Coordination Sequence:
#
# PCOD9042354 Si02
#       7
#     2   2   2   2   2   2   2
#     4  12  26  47  71 110 151 183 247 304 353 444
#     4  11  22  44  75  99 145 187 236 299 359 429
#     4  11  24  46  70 108 150 188 241 300 361 435
#     4  12  23  44  74 111 144 191 238 296 371 432
#     4  12  25  46  71 102 143 192 246 301 361 432
#     4  10  23  44  70  99 140 192 238 294 363 426
#     4  12  23  42  74 105 147 196 234 295 369 426
#
# _framework density 24.022586
#
# number of rings (size 3 to 8) (size 9 to 14) (size 15 to 20)
#    0.000    0.571    4.286    4.286    0.000    1.714 
#    5.143    3.571    0.000    0.000    0.000    0.000 
#    0.000    0.000    0.000    0.000    0.000    0.000 
#
# Total GULP energy -78057.585824 kJ/mol
# GULP energy per Si atom -5575.541845 kJ/mol
# Density = 2.396791 g / cm^3
# Si number density = 24.022586 Si / 1000 Ang^3
#
#
#
# Elastic Constant Matrix: (Units=GPa)
#
#
# Indices 1 2 3 4 5 6 
#
# 1 73.6619 14.4662 40.2735 31.3670 -7.9348 13.7558
# 2 14.4662 119.4606 62.3286 17.4266 6.7444 15.5219
# 3 40.2735 62.3286 176.6719 49.9566 -11.3631 0.4890
# 4 31.3670 17.4266 49.9566 43.1144 -1.1921 6.8810
# 5 -7.9348 6.7444 -11.3631 -1.1921 41.5976 -0.5590
# 6 13.7558 15.5219 0.4890 6.8810 -0.5590 26.9345
#
#
#
# Elastic Compliance Matrix: (Units=1/GPa)
#
#
# Indices 1 2 3 4 5 6 
#
# 1 0.021556 0.000833 -0.001249 -0.013203 0.003149 -0.008028
# 2 0.000833 0.011804 -0.004959 0.001492 -0.003169 -0.007585
# 3 -0.001249 -0.004959 0.010880 -0.010570 0.003316 0.006067
# 4 -0.013203 0.001492 -0.010570 0.045210 -0.004427 -0.005566
# 5 0.003149 -0.003169 0.003316 -0.004427 0.025958 0.001827
# 6 -0.008028 -0.007585 0.006067 -0.005566 0.001827 0.046948
#
#
# Mechanical properties :
#
#
# Convention : Reuss Voigt Hill
#
# Bulk Modulus (GPa) = 29.86099 67.10343 48.48221
# Shear Modulus (GPa) = 27.13431 39.17772 33.15601
#
# Velocity S-wave (km/s) = 3.36450 4.04278 3.71914
# Velocity P-wave (km/s) = 5.24886 7.05594 6.21839
#
# Compressibility (1/GPa) = 0.03348851
#
# Stress axis : x y z
#
# Youngs Moduli (GPa) = 46.39180 84.71540 91.91423
#
# Poissons Ratio (x) = -0.07056 0.11484
# Poissons Ratio (y) = -0.03864 0.45579
# Poissons Ratio (z) = 0.05797 0.42010
#
# Static dielectric constant tensor:
#      x y z
#    x 2.040540 -0.008070 0.108230 
#    y -0.008070 2.030240 0.012060 
#    z 0.108230 0.012060 2.080980 
# 
# From -- ./inp_files/606515.got.cif
#   From: 2010.05.17/outbox.cif.g08.bks.cpg/sg2_304_cif.got.tgz:606515.got - 2010.06.03 11:33:40.
