data_PCOD9042966
_publ_section_title
;
Structure prediction by ZEFSAII (Michael W. Deem and Ramdas Pophale) SiO2 
 PCOD9042966
Probable space group: P -1
;
_chemical_formula_sum "Si O2"
_cell_formula_units_Z 16
_cell_length_a 25.942836
_cell_length_b 28.598322
_cell_length_c 5.716831
_cell_angle_alpha 58.379174
_cell_angle_beta 121.849593
_cell_angle_gamma 169.445854
_cell_volume 659.494459
_symmetry_space_group_name_H-M "P -1"
_symmetry_group_IT_number 2
_symmetry_cell_setting 'triclinic'
loop_
_space_group_symop_operation_xyz
x,y,z
-x,-y,-z
loop_
_atom_site_type_symbol
_atom_site_label
_atom_site_fract_x
_atom_site_fract_y
_atom_site_fract_z
Si Si1 0.201563 0.591604 0.201946
Si Si2 0.958204 0.883532 0.534301
Si Si3 0.648359 0.920782 0.687055
Si Si4 0.365489 0.191428 0.359305
Si Si5 0.662629 0.014007 0.837370
Si Si6 0.612151 0.682366 0.193982
Si Si7 0.097067 0.391474 0.248998
Si Si8 0.634696 0.101744 0.305823
O O1 0.368401 0.697079 0.486093
O O2 0.053359 0.417349 0.131724
O O3 0.962343 0.409695 0.256236
O O4 0.437524 0.829874 0.985378
O O5 0.819364 0.815679 0.268796
O O6 0.687778 0.611722 0.700415
O O7 0.094632 0.963005 0.466864
O O8 0.205591 0.125243 0.667776
O O9 0.688415 0.894471 0.770738
O O10 0.608138 0.905173 0.894252
O O11 0.896386 0.176255 0.495218
O O12 0.602516 0.369946 0.608722
O O13 0.451276 0.327356 0.122501
O O14 0.634829 0.035575 0.516451
O O15 0.973849 0.281385 0.983203
O O16 0.500000 0.000000 0.500000
O O17 0.500000 0.000000 0.000000
#
# Coordination Sequence:
#
# PCOD9042966 Si02
#       8
#     2   2   2   2   2   2   2   2
#     4  10  24  47  71 100 143 192 232 303 382 447
#     4  10  24  46  70 107 149 203 253 324 386 457
#     4  10  24  43  69 104 139 191 240 304 385 461
#     4  11  25  43  70 110 143 189 254 310 385 458
#     4  11  25  47  75  99 150 190 244 303 392 461
#     4  10  24  45  73 103 151 200 259 317 389 458
#     4  10  23  45  67 104 144 189 238 306 381 462
#     4  12  28  48  77 111 145 194 256 313 376 468
#
# _framework density 24.261008
#
# number of rings (size 3 to 8) (size 9 to 14) (size 15 to 20)
#    0.000    1.500    1.250    1.125    8.750    5.000 
#    0.000    3.750    0.000    0.000    0.000    0.000 
#    0.000    0.000    0.000    0.000    0.000    0.000 
#
# Total GULP energy -89330.606119 kJ/mol
# GULP energy per Si atom -5583.162882 kJ/mol
# Density = 2.420579 g / cm^3
# Si number density = 24.261008 Si / 1000 Ang^3
#
#
#
# Elastic Constant Matrix: (Units=GPa)
#
#
# Indices 1 2 3 4 5 6 
#
# 1 1480.8734 -739.1001 141.8654 -524.6478 51.2333 -743.7295
# 2 -739.1001 541.3485 -17.3760 295.9744 -31.3469 456.9122
# 3 141.8654 -17.3760 144.2390 -47.0215 25.5897 -46.0671
# 4 -524.6478 295.9744 -47.0215 245.1895 -27.3038 299.5289
# 5 51.2333 -31.3469 25.5897 -27.3038 41.1664 -35.2189
# 6 -743.7295 456.9122 -46.0671 299.5289 -35.2189 473.8357
#
#
#
# Elastic Compliance Matrix: (Units=1/GPa)
#
#
# Indices 1 2 3 4 5 6 
#
# 1 0.004463 0.001289 -0.002356 0.003636 0.002211 0.003399
# 2 0.001289 0.011081 -0.003083 -0.001056 0.001018 -0.008220
# 3 -0.002356 -0.003083 0.009916 0.000765 -0.005640 -0.000663
# 4 0.003636 -0.001056 0.000765 0.022097 0.002903 -0.006954
# 5 0.002211 0.001018 -0.005640 0.002903 0.029727 0.002314
# 6 0.003399 -0.008220 -0.000663 -0.006954 0.002314 0.019875
#
#
# Mechanical properties :
#
#
# Convention : Reuss Voigt Hill
#
# Bulk Modulus (GPa) = 58.26782 104.13773 81.20278
# Shear Modulus (GPa) = 44.97214 337.44311 191.20762
#
# Velocity S-wave (km/s) = 4.31011 11.80638 8.88728
# Velocity P-wave (km/s) = 6.98846 15.12849 11.78367
#
# Compressibility (1/GPa) = 0.01716213
#
# Stress axis : x y z
#
# Youngs Moduli (GPa) = 224.06286 90.24076 100.84223
#
# Poissons Ratio (x) = -0.11630 0.23755
# Poissons Ratio (y) = -0.28876 0.31085
# Poissons Ratio (z) = 0.52781 0.27817
#
# Static dielectric constant tensor:
#      x y z
#    x 2.001070 -0.057220 -0.056510 
#    y -0.057220 1.972450 -0.017790 
#    z -0.056510 -0.017790 1.944110 
# 
# From -- ./inp_files/12914.got.cif
#   From: 2010.05.17/outbox.cif.g08.bks.cpg/sg2_7_cif.got.tgz:12914.got - 2010.06.03 11:33:40.
