data_PCOD9042180
_publ_section_title
;
Structure prediction by ZEFSAII (Michael W. Deem and Ramdas Pophale) SiO2 
 PCOD9042180
Probable space group: P -1
;
_chemical_formula_sum "Si O2"
_cell_formula_units_Z 13
_cell_length_a 9.089261
_cell_length_b 7.484508
_cell_length_c 11.494287
_cell_angle_alpha 140.426626
_cell_angle_beta 102.982454
_cell_angle_gamma 81.005148
_cell_volume 485.236392
_symmetry_space_group_name_H-M "P -1"
_symmetry_group_IT_number 2
_symmetry_cell_setting 'triclinic'
loop_
_space_group_symop_operation_xyz
x,y,z
-x,-y,-z
loop_
_atom_site_type_symbol
_atom_site_label
_atom_site_fract_x
_atom_site_fract_y
_atom_site_fract_z
Si Si1 0.735458 0.101834 0.835446
Si Si2 0.500000 0.500000 0.500000
Si Si3 0.580319 0.699788 0.872553
Si Si4 0.166707 0.382424 0.731880
Si Si5 0.458511 0.150892 0.688347
Si Si6 0.881344 0.453632 0.849703
Si Si7 0.173854 0.440110 0.491874
O O1 0.559818 0.010635 0.737372
O O2 0.778284 0.213167 0.770064
O O3 0.827519 0.828155 0.728284
O O4 0.780989 0.325720 0.051153
O O5 0.555184 0.546450 0.668739
O O6 0.323612 0.598631 0.555138
O O7 0.509356 0.481995 0.847294
O O8 0.762732 0.698390 0.928011
O O9 0.500000 0.000000 0.000000
O O10 0.281906 0.157404 0.690341
O O11 0.206187 0.382455 0.604490
O O12 0.989057 0.354466 0.715463
O O13 0.500000 0.000000 0.500000
O O14 0.000000 0.500000 0.000000
O O15 0.000000 0.500000 0.500000
#
# Coordination Sequence:
#
# PCOD9042180 Si02
#       7
#     2   1   2   2   2   2   2
#     4  10  23  44  69  99 135 179 237 291 354 434
#     4  12  26  46  66 106 144 188 242 294 352 440
#     4  11  25  46  72 101 143 188 237 294 364 432
#     4  11  22  44  69  97 135 183 232 292 355 424
#     4  11  21  46  68 100 136 177 235 293 357 425
#     4   9  22  46  69 106 135 181 241 295 359 433
#     4  12  27  46  67 103 143 190 238 294 362 425
#
# _framework density 26.791069
#
# number of rings (size 3 to 8) (size 9 to 14) (size 15 to 20)
#    0.000    1.231    3.077    1.385    2.154    3.692 
#   13.846    0.000    0.000    0.000    0.000    0.000 
#    0.000    0.000    0.000    0.000    0.000    0.000 
#
# Total GULP energy -72418.010499 kJ/mol
# GULP energy per Si atom -5570.616192 kJ/mol
# Density = 2.673009 g / cm^3
# Si number density = 26.791069 Si / 1000 Ang^3
#
#
#
# Elastic Constant Matrix: (Units=GPa)
#
#
# Indices 1 2 3 4 5 6 
#
# 1 212.0432 58.0403 21.5149 16.4486 -31.8166 -39.7421
# 2 58.0403 94.8373 21.8273 5.9304 -20.0666 -22.4163
# 3 21.5149 21.8273 118.2611 -3.4441 -4.0368 -11.4342
# 4 16.4486 5.9304 -3.4441 40.9219 -13.0086 -15.0627
# 5 -31.8166 -20.0666 -4.0368 -13.0086 39.2095 -8.0073
# 6 -39.7421 -22.4163 -11.4342 -15.0627 -8.0073 62.3434
#
#
#
# Elastic Compliance Matrix: (Units=1/GPa)
#
#
# Indices 1 2 3 4 5 6 
#
# 1 0.006960 -0.001883 -0.000221 0.001118 0.006005 0.004761
# 2 -0.001883 0.014918 -0.001488 0.003167 0.008169 0.005705
# 3 -0.000221 -0.001488 0.009011 0.001943 0.000952 0.001568
# 4 0.001118 0.003167 0.001943 0.033452 0.016357 0.012391
# 5 0.006005 0.008169 0.000952 0.016357 0.043446 0.016472
# 6 0.004761 0.005705 0.001568 0.012391 0.016472 0.026523
#
#
# Mechanical properties :
#
#
# Convention : Reuss Voigt Hill
#
# Bulk Modulus (GPa) = 42.18357 69.76739 55.97548
# Shear Modulus (GPa) = 33.46760 50.07890 41.77325
#
# Velocity S-wave (km/s) = 3.53825 4.32816 3.95298
# Velocity P-wave (km/s) = 5.69841 7.14669 6.46324
#
# Compressibility (1/GPa) = 0.02370591
#
# Stress axis : x y z
#
# Youngs Moduli (GPa) = 143.66938 67.03166 110.97000
#
# Poissons Ratio (x) = 0.12622 0.02452
# Poissons Ratio (y) = 0.27053 0.16515
# Poissons Ratio (z) = 0.03174 0.09976
#
# Static dielectric constant tensor:
#      x y z
#    x 2.330600 -0.002440 0.041590 
#    y -0.002440 2.371800 -0.005150 
#    z 0.041590 -0.005150 1.965570 
# 
# From -- ./inp_files/237368.got.cif
#   From: 2010.05.17/outbox.cif.g08.bks.cpg/sg2_119_cif.got.tgz:237368.got - 2010.06.03 11:33:40.
