data_PCOD9042896
_publ_section_title
;
Structure prediction by ZEFSAII (Michael W. Deem and Ramdas Pophale) SiO2 
 PCOD9042896
Probable space group: P -1
;
_chemical_formula_sum "Si O2"
_cell_formula_units_Z 14
_cell_length_a 12.326555
_cell_length_b 5.013638
_cell_length_c 12.074721
_cell_angle_alpha 91.632988
_cell_angle_beta 101.995173
_cell_angle_gamma 50.522842
_cell_volume 558.087816
_symmetry_space_group_name_H-M "P -1"
_symmetry_group_IT_number 2
_symmetry_cell_setting 'triclinic'
loop_
_space_group_symop_operation_xyz
x,y,z
-x,-y,-z
loop_
_atom_site_type_symbol
_atom_site_label
_atom_site_fract_x
_atom_site_fract_y
_atom_site_fract_z
Si Si1 0.912469 0.709293 0.680042
Si Si2 0.733209 0.486783 0.596659
Si Si3 0.341280 0.650503 0.781216
Si Si4 0.514242 0.865590 0.744857
Si Si5 0.355983 0.385245 0.004017
Si Si6 0.956517 0.324514 0.063949
Si Si7 0.129600 0.664198 0.593792
O O1 0.849409 0.512103 0.675812
O O2 0.960282 0.762386 0.805736
O O3 0.052241 0.527459 0.628444
O O4 0.788128 0.097597 0.610700
O O5 0.588352 0.733342 0.639918
O O6 0.741854 0.564173 0.471378
O O7 0.381499 0.869246 0.738606
O O8 0.343982 0.643777 0.915599
O O9 0.193365 0.753156 0.704396
O O10 0.463390 0.244226 0.765642
O O11 0.628597 0.589635 0.861244
O O12 0.214624 0.430430 0.950997
O O13 0.500000 0.000000 0.000000
O O14 0.000000 0.500000 0.000000
O O15 0.000000 0.000000 0.000000
O O16 0.000000 0.000000 0.500000
#
# Coordination Sequence:
#
# PCOD9042896 Si02
#       7
#     2   2   2   2   2   2   2
#     4  11  22  43  65  97 132 175 222 274 332 400
#     4  11  24  42  68  97 135 172 224 278 334 391
#     4  11  24  43  67  95 130 177 224 268 336 407
#     4  11  24  41  66  97 135 171 219 274 335 402
#     4  10  23  45  66 100 138 185 222 277 345 420
#     4  12  25  41  69 102 138 178 228 283 343 404
#     4  10  24  45  69  96 130 178 228 278 330 393
#
# _framework density 25.085657000000001
#
# number of rings (size 3 to 8) (size 9 to 14) (size 15 to 20)
#    0.000    1.143    1.429    4.286    0.000   11.429 
#    0.000    0.000    0.000    0.000    0.000    0.000 
#    0.000    0.000    0.000    0.000    0.000    0.000 
#
# Total GULP energy -78418.199183 kJ/mol
# GULP energy per Si atom -5601.299942 kJ/mol
# Density = 2.502856 g / cm^3
# Si number density = 25.085657 Si / 1000 Ang^3
#
#
#
# Elastic Constant Matrix: (Units=GPa)
#
#
# Indices 1 2 3 4 5 6 
#
# 1 115.4416 24.2895 3.9974 -1.0288 -19.2519 7.7053
# 2 24.2895 81.4351 12.8789 3.7918 -16.8485 6.1957
# 3 3.9974 12.8789 99.6919 2.0825 -7.1438 1.2335
# 4 -1.0288 3.7918 2.0825 24.4623 -7.4851 5.2504
# 5 -19.2519 -16.8485 -7.1438 -7.4851 56.5088 4.9505
# 6 7.7053 6.1957 1.2335 5.2504 4.9505 39.9506
#
#
#
# Elastic Compliance Matrix: (Units=1/GPa)
#
#
# Indices 1 2 3 4 5 6 
#
# 1 0.009827 -0.002220 0.000103 0.002204 0.003187 -0.002239
# 2 -0.002220 0.014047 -0.001447 -0.000692 0.003335 -0.002028
# 3 0.000103 -0.001447 0.010286 -0.000342 0.000874 -0.000176
# 4 0.002204 -0.000692 -0.000342 0.044783 0.007053 -0.007067
# 5 0.003187 0.003335 0.000874 0.007053 0.021234 -0.004717
# 6 -0.002239 -0.002028 -0.000176 -0.007067 -0.004717 0.027296
#
#
# Mechanical properties :
#
#
# Convention : Reuss Voigt Hill
#
# Bulk Modulus (GPa) = 36.99530 42.10003 39.54766
# Shear Modulus (GPa) = 34.81606 41.21118 38.01362
#
# Velocity S-wave (km/s) = 3.72948 4.05757 3.89698
# Velocity P-wave (km/s) = 5.77278 6.22662 6.00399
#
# Compressibility (1/GPa) = 0.02703046
#
# Stress axis : x y z
#
# Youngs Moduli (GPa) = 101.76550 71.18814 97.22247
#
# Poissons Ratio (x) = 0.15805 -0.01000
# Poissons Ratio (y) = 0.22594 0.14070
# Poissons Ratio (z) = -0.01046 0.10302
#
# Static dielectric constant tensor:
#      x y z
#    x 1.876670 -0.132020 -0.143030 
#    y -0.132020 1.783280 -0.327870 
#    z -0.143030 -0.327870 1.522870 
# 
# From -- ./inp_files/27607.got.cif
#   From: 2010.05.17/outbox.cif.g08.bks.cpg/sg2_14_cif.got.tgz:27607.got - 2010.06.03 11:33:40.
