data_PCOD9042061
_publ_section_title
;
Structure prediction by ZEFSAII (Michael W. Deem and Ramdas Pophale) SiO2 
 PCOD9042061
Probable space group: P -1
;
_chemical_formula_sum "Si O2"
_cell_formula_units_Z 14
_cell_length_a 15.069585
_cell_length_b 15.112370
_cell_length_c 5.195982
_cell_angle_alpha 68.937950
_cell_angle_beta 107.170198
_cell_angle_gamma 150.914358
_cell_volume 536.336698
_symmetry_space_group_name_H-M "P -1"
_symmetry_group_IT_number 2
_symmetry_cell_setting 'triclinic'
loop_
_space_group_symop_operation_xyz
x,y,z
-x,-y,-z
loop_
_atom_site_type_symbol
_atom_site_label
_atom_site_fract_x
_atom_site_fract_y
_atom_site_fract_z
Si Si1 0.355135 0.893958 0.700301
Si Si2 0.570473 0.255024 0.677861
Si Si3 0.159490 0.107702 0.832490
Si Si4 0.976139 0.663991 0.459428
Si Si5 0.886497 0.750399 0.684275
Si Si6 0.925877 0.489285 0.194394
Si Si7 0.472450 0.655793 0.960269
O O1 0.279802 0.719358 0.818356
O O2 0.174351 0.798228 0.576419
O O3 0.500000 0.000000 0.500000
O O4 0.467216 0.063171 0.802524
O O5 0.791059 0.447587 0.627076
O O6 0.511787 0.265494 0.856660
O O7 0.520309 0.272048 0.360846
O O8 0.182703 0.211144 0.535371
O O9 0.350989 0.256187 0.978106
O O10 0.071585 0.937850 0.799918
O O11 0.000000 0.000000 0.000000
O O12 0.940095 0.731008 0.505347
O O13 0.968573 0.633293 0.174395
O O14 0.721461 0.567555 0.916897
O O15 0.000000 0.500000 0.500000
O O16 0.000000 0.500000 0.000000
#
# Coordination Sequence:
#
# PCOD9042061 Si02
#       7
#     2   2   2   2   2   2   2
#     4  11  23  45  74 106 144 192 240 304 360 429
#     4  11  26  45  73 109 142 197 244 300 358 430
#     4  11  26  45  75 111 147 188 247 296 373 438
#     4  10  23  46  71 103 149 184 248 295 369 420
#     4  10  25  47  73 106 145 198 235 308 363 434
#     4  10  23  44  69 101 140 188 233 295 356 420
#     4  11  27  47  75 106 150 190 246 292 366 438
#
# _framework density 26.103006000000001
#
# number of rings (size 3 to 8) (size 9 to 14) (size 15 to 20)
#    0.000    1.429    1.429    1.286   10.000    7.429 
#    0.000    3.571    0.000    0.000    0.000    0.000 
#    0.000    0.000    0.000    0.000    0.000    0.000 
#
# Total GULP energy -78124.527765 kJ/mol
# GULP energy per Si atom -5580.323412 kJ/mol
# Density = 2.604359 g / cm^3
# Si number density = 26.103006 Si / 1000 Ang^3
#
#
#
# Elastic Constant Matrix: (Units=GPa)
#
#
# Indices 1 2 3 4 5 6 
#
# 1 129.4552 55.8514 30.3066 6.8810 -14.4810 10.7214
# 2 55.8514 145.3647 18.4674 18.6738 -5.8770 -18.7432
# 3 30.3066 18.4674 117.3466 8.5166 -9.2284 -8.2454
# 4 6.8810 18.6738 8.5166 35.0599 -4.5695 -0.3510
# 5 -14.4810 -5.8770 -9.2284 -4.5695 48.3356 5.5698
# 6 10.7214 -18.7432 -8.2454 -0.3510 5.5698 68.7109
#
#
#
# Elastic Compliance Matrix: (Units=1/GPa)
#
#
# Indices 1 2 3 4 5 6 
#
# 1 0.010578 -0.004235 -0.002157 0.001025 0.002717 -0.003279
# 2 -0.004235 0.009437 0.000082 -0.004298 -0.000892 0.003295
# 3 -0.002157 0.000082 0.009358 -0.001772 0.000821 0.001406
# 4 0.001025 -0.004298 -0.001772 0.031364 0.002595 -0.001595
# 5 0.002717 -0.000892 0.000821 0.002595 0.022066 -0.002344
# 6 -0.003279 0.003295 0.001406 -0.001595 -0.002344 0.016315
#
#
# Mechanical properties :
#
#
# Convention : Reuss Voigt Hill
#
# Bulk Modulus (GPa) = 59.68839 66.82416 63.25628
# Shear Modulus (GPa) = 42.61820 49.59068 46.10444
#
# Velocity S-wave (km/s) = 4.04504 4.36341 4.20724
# Velocity P-wave (km/s) = 6.68825 7.14433 6.92005
#
# Compressibility (1/GPa) = 0.01675368
#
# Stress axis : x y z
#
# Youngs Moduli (GPa) = 94.53899 105.96698 106.86231
#
# Poissons Ratio (x) = 0.44875 0.23045
# Poissons Ratio (y) = 0.40035 -0.00876
# Poissons Ratio (z) = 0.20388 -0.00868
#
# Static dielectric constant tensor:
#      x y z
#    x 2.076340 -0.121210 0.122770 
#    y -0.121210 1.751710 0.422500 
#    z 0.122770 0.422500 1.774940 
# 
# From -- ./inp_files/97770.got.cif
#   From: 2010.05.17/outbox.cif.g08.bks.cpg/sg2_49_cif.got.tgz:97770.got - 2010.06.03 11:33:40.
