data_PCOD9042948
_publ_section_title
;
Structure prediction by ZEFSAII (Michael W. Deem and Ramdas Pophale) SiO2 
 PCOD9042948
Probable space group: P -1
;
_chemical_formula_sum "Si O2"
_cell_formula_units_Z 16
_cell_length_a 11.219104
_cell_length_b 11.974093
_cell_length_c 11.406988
_cell_angle_alpha 77.358075
_cell_angle_beta 118.413727
_cell_angle_gamma 50.491269
_cell_volume 665.192935
_symmetry_space_group_name_H-M "P -1"
_symmetry_group_IT_number 2
_symmetry_cell_setting 'triclinic'
loop_
_space_group_symop_operation_xyz
x,y,z
-x,-y,-z
loop_
_atom_site_type_symbol
_atom_site_label
_atom_site_fract_x
_atom_site_fract_y
_atom_site_fract_z
Si Si1 0.362385 0.241941 0.355117
Si Si2 0.411631 0.845089 0.301671
Si Si3 0.097719 0.290768 0.027931
Si Si4 0.648080 0.346681 0.268846
Si Si5 0.224305 0.001398 0.580693
Si Si6 0.480498 0.117498 0.055967
Si Si7 0.751094 0.251541 0.614260
Si Si8 0.618804 0.224825 0.944023
O O1 0.382045 0.230267 0.506855
O O2 0.187139 0.272814 0.200799
O O3 0.636547 0.044055 0.456268
O O4 0.212001 0.467558 0.195326
O O5 0.296723 0.842102 0.343096
O O6 0.489325 0.719688 0.251293
O O7 0.188818 0.096504 0.100590
O O8 0.245854 0.258803 0.005557
O O9 0.626335 0.227066 0.259245
O O10 0.716760 0.294328 0.451051
O O11 0.429980 0.605750 0.087197
O O12 0.919929 0.191777 0.370250
O O13 0.264233 0.055169 0.698364
O O14 0.461019 0.249750 0.945543
O O15 0.500000 0.000000 0.000000
O O16 0.500000 0.500000 0.500000
O O17 0.065896 0.040488 0.841031
#
# Coordination Sequence:
#
# PCOD9042948 Si02
#       8
#     2   2   2   2   2   2   2   2
#     4  10  23  45  67 102 137 184 231 287 338 401
#     4  12  24  40  73 101 134 182 226 281 352 413
#     4  10  24  45  70  99 141 181 234 285 335 412
#     4  11  24  47  68 104 139 183 231 285 354 408
#     4  10  23  46  71  96 146 180 225 299 337 409
#     4  11  23  47  69  99 142 182 234 285 344 412
#     4  12  26  44  69 104 142 174 227 293 345 412
#     4  12  27  44  71 107 135 186 229 280 358 417
#
# _framework density 24.053172
#
# number of rings (size 3 to 8) (size 9 to 14) (size 15 to 20)
#    0.000    1.000    5.000    0.750    3.500    1.500 
#   11.250    1.250    0.000    0.000    0.000    0.000 
#    0.000    0.000    0.000    0.000    0.000    0.000 
#
# Total GULP energy -89376.643691 kJ/mol
# GULP energy per Si atom -5586.040231 kJ/mol
# Density = 2.399843 g / cm^3
# Si number density = 24.053172 Si / 1000 Ang^3
#
#
#
# Elastic Constant Matrix: (Units=GPa)
#
#
# Indices 1 2 3 4 5 6 
#
# 1 72.9343 13.7153 38.7556 -10.6950 -13.7587 -2.0053
# 2 13.7153 124.2523 47.5118 11.5132 -0.4265 15.9821
# 3 38.7556 47.5118 79.0158 3.5269 -5.6514 0.0867
# 4 -10.6950 11.5132 3.5269 48.8091 -0.1636 -4.2392
# 5 -13.7587 -0.4265 -5.6514 -0.1636 25.4821 -6.7990
# 6 -2.0053 15.9821 0.0867 -4.2392 -6.7990 31.9474
#
#
#
# Elastic Compliance Matrix: (Units=1/GPa)
#
#
# Indices 1 2 3 4 5 6 
#
# 1 0.022399 0.000619 -0.010852 0.005950 0.010864 0.004227
# 2 0.000619 0.012041 -0.007630 -0.002769 -0.003036 -0.006978
# 3 -0.010852 -0.007630 0.022634 -0.001975 -0.000244 0.002760
# 4 0.005950 -0.002769 -0.001975 0.023103 0.004416 0.005770
# 5 0.010864 -0.003036 -0.000244 0.004416 0.048532 0.013116
# 6 0.004227 -0.006978 0.002760 0.005770 0.013116 0.038607
#
#
# Mechanical properties :
#
#
# Convention : Reuss Voigt Hill
#
# Bulk Modulus (GPa) = 46.84032 52.90753 49.87392
# Shear Modulus (GPa) = 23.79175 32.99571 28.39373
#
# Velocity S-wave (km/s) = 3.14846 3.70778 3.43950
# Velocity P-wave (km/s) = 5.72127 6.35405 6.04595
#
# Compressibility (1/GPa) = 0.02134913
#
# Stress axis : x y z
#
# Youngs Moduli (GPa) = 44.64479 83.04984 44.18174
#
# Poissons Ratio (x) = -0.05144 0.47946
# Poissons Ratio (y) = -0.02765 0.33710
# Poissons Ratio (z) = 0.48448 0.63365
#
# Static dielectric constant tensor:
#      x y z
#    x 1.909100 0.029210 0.015450 
#    y 0.029210 1.976570 0.004280 
#    z 0.015450 0.004280 1.969500 
# 
# From -- ./inp_files/427837.got.cif
#   From: 2010.05.17/outbox.cif.g08.bks.cpg/sg2_214_cif.got.tgz:427837.got - 2010.06.03 11:33:40.
