data_PCOD9042649
_publ_section_title
;
Structure prediction by ZEFSAII (Michael W. Deem and Ramdas Pophale) SiO2 
 PCOD9042649
Probable space group: P -1
;
_chemical_formula_sum "Si O2"
_cell_formula_units_Z 14
_cell_length_a 11.813367
_cell_length_b 5.026481
_cell_length_c 11.702943
_cell_angle_alpha 105.706573
_cell_angle_beta 121.196068
_cell_angle_gamma 60.674253
_cell_volume 518.119834
_symmetry_space_group_name_H-M "P -1"
_symmetry_group_IT_number 2
_symmetry_cell_setting 'triclinic'
loop_
_space_group_symop_operation_xyz
x,y,z
-x,-y,-z
loop_
_atom_site_type_symbol
_atom_site_label
_atom_site_fract_x
_atom_site_fract_y
_atom_site_fract_z
Si Si1 0.000000 0.000000 0.500000
Si Si2 0.764631 0.879619 0.707112
Si Si3 0.500000 0.000000 0.000000
Si Si4 0.215896 0.122832 0.750360
Si Si5 0.811227 0.344330 0.044384
Si Si6 0.734440 0.641488 0.432547
Si Si7 0.056297 0.737151 0.144984
Si Si8 0.462374 0.687579 0.176713
O O1 0.909586 0.992480 0.333920
O O2 0.886401 0.356326 0.500152
O O3 0.690972 0.824199 0.549126
O O4 0.880441 0.564621 0.783147
O O5 0.853412 0.074864 0.745354
O O6 0.651030 0.061136 0.767609
O O7 0.641852 0.068981 0.124236
O O8 0.498550 0.849993 0.108676
O O9 0.169181 0.452286 0.822838
O O10 0.238048 0.159504 0.630227
O O11 0.887583 0.361281 0.967660
O O12 0.635775 0.485409 0.941608
O O13 0.888557 0.986290 0.074519
O O14 0.609345 0.544400 0.311879
#
# Coordination Sequence:
#
# PCOD9042649 Si02
#       8
#     1   2   1   2   2   2   2   2
#     4  12  28  46  72 102 152 206 252 308 380 452
#     4  11  24  48  75 111 154 201 253 319 380 470
#     4  10  24  44  76 108 144 190 250 318 382 452
#     4  11  26  45  71 109 144 198 253 315 382 451
#     4  10  23  44  73 109 152 192 255 323 382 461
#     4  11  27  45  70 106 150 201 258 308 385 460
#     4  10  24  44  77 112 149 198 254 313 398 449
#     4  10  24  47  75 110 148 196 254 319 389 453
#
# _framework density 27.020776999999999
#
# number of rings (size 3 to 8) (size 9 to 14) (size 15 to 20)
#    0.000    1.429    0.000    2.571    8.000    7.429 
#    2.571    3.571    0.000    0.000    0.000    0.000 
#    0.000    0.000    0.000    0.000    0.000    0.000 
#
# Total GULP energy -78135.588509 kJ/mol
# GULP energy per Si atom -5581.113465 kJ/mol
# Density = 2.695928 g / cm^3
# Si number density = 27.020777 Si / 1000 Ang^3
#
#
#
# Elastic Constant Matrix: (Units=GPa)
#
#
# Indices 1 2 3 4 5 6 
#
# 1 99.6608 14.2645 41.6303 -4.6597 -8.4900 -18.4101
# 2 14.2645 55.9075 29.7718 3.6041 10.0754 -5.6064
# 3 41.6303 29.7718 216.7018 17.2793 0.9488 -4.7673
# 4 -4.6597 3.6041 17.2793 59.7082 -11.1024 16.9799
# 5 -8.4900 10.0754 0.9488 -11.1024 32.3559 1.3778
# 6 -18.4101 -5.6064 -4.7673 16.9799 1.3778 39.9740
#
#
#
# Elastic Compliance Matrix: (Units=1/GPa)
#
#
# Indices 1 2 3 4 5 6 
#
# 1 0.012522 -0.002507 -0.002083 0.001272 0.004373 0.004476
# 2 -0.002507 0.021799 -0.002121 -0.003499 -0.008730 0.003437
# 3 -0.002083 -0.002121 0.005455 -0.001787 -0.000667 0.000176
# 4 0.001272 -0.003499 -0.001787 0.022142 0.009493 -0.009851
# 5 0.004373 -0.008730 -0.000667 0.009493 0.038247 -0.004641
# 6 0.004476 0.003437 0.000176 -0.009851 -0.004641 0.031925
#
#
# Mechanical properties :
#
#
# Convention : Reuss Voigt Hill
#
# Bulk Modulus (GPa) = 37.94278 60.40035 49.17157
# Shear Modulus (GPa) = 32.40504 45.51452 38.95978
#
# Velocity S-wave (km/s) = 3.46680 4.10863 3.80128
# Velocity P-wave (km/s) = 5.48612 6.70146 6.12401
#
# Compressibility (1/GPa) = 0.02635547
#
# Stress axis : x y z
#
# Youngs Moduli (GPa) = 79.86012 45.87355 183.30128
#
# Poissons Ratio (x) = 0.11499 0.38186
# Poissons Ratio (y) = 0.20019 0.38869
# Poissons Ratio (z) = 0.16637 0.09728
#
# Static dielectric constant tensor:
#      x y z
#    x 2.278750 0.051630 0.063270 
#    y 0.051630 1.982460 0.154390 
#    z 0.063270 0.154390 2.008840 
# 
# From -- ./inp_files/442188.got.cif
#   From: 2010.05.17/outbox.cif.g08.bks.cpg/sg2_222_cif.got.tgz:442188.got - 2010.06.03 11:33:40.
