data_PCOD9042787
_publ_section_title
;
Structure prediction by ZEFSAII (Michael W. Deem and Ramdas Pophale) SiO2 
 PCOD9042787
Probable space group: P -1
;
_chemical_formula_sum "Si O2"
_cell_formula_units_Z 16
_cell_length_a 5.588668
_cell_length_b 14.750551
_cell_length_c 9.128537
_cell_angle_alpha 80.831608
_cell_angle_beta 85.345363
_cell_angle_gamma 84.845182
_cell_volume 738.189585
_symmetry_space_group_name_H-M "P -1"
_symmetry_group_IT_number 2
_symmetry_cell_setting 'triclinic'
loop_
_space_group_symop_operation_xyz
x,y,z
-x,-y,-z
loop_
_atom_site_type_symbol
_atom_site_label
_atom_site_fract_x
_atom_site_fract_y
_atom_site_fract_z
Si Si1 0.134375 0.238588 0.200927
Si Si2 0.300138 0.461426 0.623506
Si Si3 0.412438 0.712341 0.284949
Si Si4 0.581653 0.892164 0.355905
Si Si5 0.335393 0.770717 0.947868
Si Si6 0.801110 0.955388 0.618271
Si Si7 0.260873 0.984790 0.919070
Si Si8 0.035326 0.642066 0.552573
O O1 0.391500 0.259557 0.112354
O O2 0.130366 0.128342 0.255060
O O3 0.892768 0.267949 0.112580
O O4 0.099388 0.287690 0.347372
O O5 0.500000 0.500000 0.500000
O O6 0.434458 0.383537 0.736757
O O7 0.157512 0.554833 0.661540
O O8 0.133169 0.405290 0.541623
O O9 0.567814 0.789143 0.329437
O O10 0.223867 0.690590 0.427454
O O11 0.310270 0.752534 0.127109
O O12 0.635292 0.906603 0.519632
O O13 0.337040 0.956267 0.323606
O O14 0.760054 0.943602 0.232302
O O15 0.310756 0.879983 0.893510
O O16 0.000000 0.000000 0.500000
O O17 0.500000 0.000000 0.000000
O O18 0.000000 0.000000 0.000000
#
# Coordination Sequence:
#
# PCOD9042787 Si02
#       8
#     2   2   2   2   2   2   2   2
#     4  12  27  46  69 101 146 187 227 289 358 413
#     4   9  21  43  75 105 132 167 239 293 342 415
#     4  11  24  42  71 102 136 181 236 290 341 423
#     4  11  24  40  64 100 131 181 240 286 340 400
#     4  12  28  45  66 105 149 186 231 287 352 416
#     4  11  24  40  64  95 134 183 238 296 335 409
#     4  12  25  43  65  92 137 191 235 279 339 398
#     4  10  23  44  77 101 132 182 232 288 353 417
#
# _framework density 21.67465
#
# number of rings (size 3 to 8) (size 9 to 14) (size 15 to 20)
#    0.000    1.000    2.500    3.000   10.500    1.000 
#    0.000    1.250    0.000    0.000    0.000    0.000 
#    0.000    0.000    0.000    0.000    0.000    0.000 
#
# Total GULP energy -89342.324337 kJ/mol
# GULP energy per Si atom -5583.895271 kJ/mol
# Density = 2.162532 g / cm^3
# Si number density = 21.674650 Si / 1000 Ang^3
#
#
#
# Elastic Constant Matrix: (Units=GPa)
#
#
# Indices 1 2 3 4 5 6 
#
# 1 100.6150 19.4291 34.2126 5.0191 -9.8254 -11.5814
# 2 19.4291 88.1380 21.2235 -13.6763 -14.3291 -9.0045
# 3 34.2126 21.2235 82.1583 -1.7085 -5.6147 2.6395
# 4 5.0191 -13.6763 -1.7085 28.5360 -5.5725 -8.0642
# 5 -9.8254 -14.3291 -5.6147 -5.5725 41.3259 8.6810
# 6 -11.5814 -9.0045 2.6395 -8.0642 8.6810 17.3292
#
#
#
# Elastic Compliance Matrix: (Units=1/GPa)
#
#
# Indices 1 2 3 4 5 6 
#
# 1 0.013011 -0.000650 -0.005532 -0.000369 0.000190 0.008933
# 2 -0.000650 0.016090 -0.003754 0.011763 0.003985 0.011976
# 3 -0.005532 -0.003754 0.015796 -0.002404 0.001265 -0.009806
# 4 -0.000369 0.011763 -0.002404 0.049066 0.004666 0.026728
# 5 0.000190 0.003985 0.001265 0.004666 0.028553 -0.010127
# 6 0.008933 0.011976 -0.009806 0.026728 -0.010127 0.088903
#
#
# Mechanical properties :
#
#
# Convention : Reuss Voigt Hill
#
# Bulk Modulus (GPa) = 39.95798 46.73797 43.34797
# Shear Modulus (GPa) = 20.86534 30.50795 25.68664
#
# Velocity S-wave (km/s) = 3.10604 3.75579 3.44626
# Velocity P-wave (km/s) = 5.59810 6.35753 5.98986
#
# Compressibility (1/GPa) = 0.02502629
#
# Stress axis : x y z
#
# Youngs Moduli (GPa) = 76.86065 62.15217 63.30601
#
# Poissons Ratio (x) = 0.04039 0.35019
# Poissons Ratio (y) = 0.04994 0.23762
# Poissons Ratio (z) = 0.42517 0.23329
#
# Static dielectric constant tensor:
#      x y z
#    x 1.661810 -0.142980 0.014200 
#    y -0.142980 1.712510 -0.030980 
#    z 0.014200 -0.030980 1.810330 
# 
# From -- ./inp_files/43269.got.cif
#   From: 2010.05.17/outbox.cif.g08.bks.cpg/sg2_22_cif.got.tgz:43269.got - 2010.06.03 11:33:40.
