data_PCOD9042105
_publ_section_title
;
Structure prediction by ZEFSAII (Michael W. Deem and Ramdas Pophale) SiO2 
 PCOD9042105
Probable space group: P -1
;
_chemical_formula_sum "Si O2"
_cell_formula_units_Z 12
_cell_length_a 5.330046
_cell_length_b 9.497237
_cell_length_c 18.081974
_cell_angle_alpha 50.311222
_cell_angle_beta 47.924117
_cell_angle_gamma 78.652440
_cell_volume 478.080583
_symmetry_space_group_name_H-M "P -1"
_symmetry_group_IT_number 2
_symmetry_cell_setting 'triclinic'
loop_
_space_group_symop_operation_xyz
x,y,z
-x,-y,-z
loop_
_atom_site_type_symbol
_atom_site_label
_atom_site_fract_x
_atom_site_fract_y
_atom_site_fract_z
Si Si1 0.405132 0.402222 0.131068
Si Si2 0.840848 0.090224 0.846291
Si Si3 0.659537 0.118006 0.544968
Si Si4 0.460704 0.986253 0.234669
Si Si5 0.742514 0.473518 0.320547
Si Si6 0.490555 0.311750 0.288489
O O1 0.664328 0.449558 0.137525
O O2 0.066648 0.452159 0.212110
O O3 0.376422 0.180165 0.197885
O O4 0.500000 0.500000 0.000000
O O5 0.689425 0.081448 0.795558
O O6 0.110023 0.976870 0.849148
O O7 0.091315 0.320023 0.740161
O O8 0.500000 0.000000 0.000000
O O9 0.707659 0.144366 0.614496
O O10 0.539523 0.282581 0.477208
O O11 0.052314 0.182427 0.405111
O O12 0.410636 0.882926 0.656484
O O13 0.475129 0.450278 0.312527
#
# Coordination Sequence:
#
# PCOD9042105 Si02
#       6
#     2   2   2   2   2   2
#     4  10  23  44  69 105 136 186 248 294 344 428
#     4  12  29  51  70 102 154 195 235 294 368 425
#     4   9  21  41  70 107 142 181 240 297 362 421
#     4  11  27  48  75 104 144 193 238 302 357 426
#     4  11  24  42  76 103 145 191 238 295 361 432
#     4   9  20  40  69 106 146 180 232 307 364 410
#
# _framework density 25.100370000000002
#
# number of rings (size 3 to 8) (size 9 to 14) (size 15 to 20)
#    0.000    1.667    0.000    3.000   11.667    2.000 
#    3.000    0.000    0.000    0.000    0.000    0.000 
#    0.000    0.000    0.000    0.000    0.000    0.000 
#
# Total GULP energy -66864.550253 kJ/mol
# GULP energy per Si atom -5572.045854 kJ/mol
# Density = 2.504324 g / cm^3
# Si number density = 25.100370 Si / 1000 Ang^3
#
#
#
# Elastic Constant Matrix: (Units=GPa)
#
#
# Indices 1 2 3 4 5 6 
#
# 1 102.6459 35.7912 43.9852 16.3078 20.3707 20.6430
# 2 35.7912 82.8731 25.7763 20.2215 10.6981 17.2957
# 3 43.9852 25.7763 105.9472 32.5177 42.5035 6.2203
# 4 16.3078 20.2215 32.5177 31.9191 4.1526 -1.6010
# 5 20.3707 10.6981 42.5035 4.1526 43.3889 29.1462
# 6 20.6430 17.2957 6.2203 -1.6010 29.1462 59.4262
#
#
#
# Elastic Compliance Matrix: (Units=1/GPa)
#
#
# Indices 1 2 3 4 5 6 
#
# 1 0.013858 -0.003710 -0.006555 0.001164 0.004094 -0.005024
# 2 -0.003710 0.016653 -0.000307 -0.008833 0.001954 -0.004722
# 3 -0.006555 -0.000307 0.036667 -0.027308 -0.042756 0.018763
# 4 0.001164 -0.008833 -0.027308 0.060298 0.027060 -0.006622
# 5 0.004094 0.001954 -0.042756 0.027060 0.086168 -0.039048
# 6 -0.005024 -0.004722 0.018763 -0.006622 -0.039048 0.036956
#
#
# Mechanical properties :
#
#
# Convention : Reuss Voigt Hill
#
# Bulk Modulus (GPa) = 21.72286 55.84130 38.78208
# Shear Modulus (GPa) = 17.41619 39.34106 28.37863
#
# Velocity S-wave (km/s) = 2.63698 3.96327 3.36610
# Velocity P-wave (km/s) = 4.23613 6.57563 5.53099
#
# Compressibility (1/GPa) = 0.04603445
#
# Stress axis : x y z
#
# Youngs Moduli (GPa) = 72.16069 60.04948 27.27224
#
# Poissons Ratio (x) = 0.22278 0.17877
# Poissons Ratio (y) = 0.26771 0.00837
# Poissons Ratio (z) = 0.47302 0.01843
#
# Static dielectric constant tensor:
#      x y z
#    x 2.833790 0.066210 -0.017420 
#    y 0.066210 2.044150 0.020320 
#    z -0.017420 0.020320 2.004690 
# 
# From -- ./inp_files/52715.got.cif
#   From: 2010.05.17/outbox.cif.g08.bks.cpg/sg2_27_cif.got.tgz:52715.got - 2010.06.03 11:33:40.
