data_PCOD9042148
_publ_section_title
;
Structure prediction by ZEFSAII (Michael W. Deem and Ramdas Pophale) SiO2 
 PCOD9042148
Probable space group: P -1
;
_chemical_formula_sum "Si O2"
_cell_formula_units_Z 16
_cell_length_a 14.822867
_cell_length_b 11.387885
_cell_length_c 14.427287
_cell_angle_alpha 47.421358
_cell_angle_beta 138.013208
_cell_angle_gamma 155.335025
_cell_volume 679.855526
_symmetry_space_group_name_H-M "P -1"
_symmetry_group_IT_number 2
_symmetry_cell_setting 'triclinic'
loop_
_space_group_symop_operation_xyz
x,y,z
-x,-y,-z
loop_
_atom_site_type_symbol
_atom_site_label
_atom_site_fract_x
_atom_site_fract_y
_atom_site_fract_z
Si Si1 0.653444 0.291180 0.414619
Si Si2 0.915939 0.249140 0.029090
Si Si3 0.528344 0.011343 0.745963
Si Si4 0.330535 0.136700 0.622255
Si Si5 0.285203 0.201522 0.194894
Si Si6 0.866523 0.623604 0.069252
Si Si7 0.189936 0.233012 0.302482
Si Si8 0.991295 0.565903 0.682540
O O1 0.523754 0.331800 0.313195
O O2 0.900299 0.523603 0.533281
O O3 0.500000 0.000000 0.500000
O O4 0.637132 0.239465 0.321174
O O5 0.982022 0.161428 0.188313
O O6 0.071086 0.357767 0.998822
O O7 0.000000 0.500000 0.000000
O O8 0.648969 0.016683 0.913415
O O9 0.434204 0.089225 0.667591
O O10 0.765177 0.294466 0.715277
O O11 0.215929 0.152034 0.456947
O O12 0.552401 0.428163 0.688786
O O13 0.127267 0.848556 0.678248
O O14 0.173022 0.114890 0.257905
O O15 0.310584 0.399544 0.060563
O O16 0.098831 0.921126 0.139722
O O17 0.836100 0.419382 0.198353
#
# Coordination Sequence:
#
# PCOD9042148 Si02
#       8
#     2   2   2   2   2   2   2   2
#     4  10  17  33  58  87 115 152 190 235 296 343
#     4  10  17  35  62  83 112 156 193 236 296 352
#     4  10  20  38  62  87 117 156 193 243 294 353
#     4  11  23  40  58  88 123 152 201 245 288 353
#     4  10  17  35  59  84 119 155 193 241 292 350
#     4   9  19  33  59  90 112 151 200 238 292 350
#     4  10  22  36  58  86 119 161 191 242 303 340
#     4  10  21  38  61  91 114 155 202 238 293 352
#
# _framework density 23.534412
#
# number of rings (size 3 to 8) (size 9 to 14) (size 15 to 20)
#    0.000    2.000    5.000    1.500    0.000    0.500 
#    0.000   12.500    0.000    1.500    0.000    0.000 
#    0.000    0.000    0.000    0.000    0.000    0.000 
#
# Total GULP energy -89354.925396 kJ/mol
# GULP energy per Si atom -5584.682837 kJ/mol
# Density = 2.348085 g / cm^3
# Si number density = 23.534412 Si / 1000 Ang^3
#
#
#
# Elastic Constant Matrix: (Units=GPa)
#
#
# Indices 1 2 3 4 5 6 
#
# 1 101.8159 2.7630 41.0441 5.9011 9.7339 -21.9636
# 2 2.7630 63.0028 23.8183 -2.9376 2.6833 -19.5944
# 3 41.0441 23.8183 197.5357 9.6533 39.6301 -8.9873
# 4 5.9011 -2.9376 9.6533 21.5161 -8.7085 5.6635
# 5 9.7339 2.6833 39.6301 -8.7085 38.6197 3.9324
# 6 -21.9636 -19.5944 -8.9873 5.6635 3.9324 26.4591
#
#
#
# Elastic Compliance Matrix: (Units=1/GPa)
#
#
# Indices 1 2 3 4 5 6 
#
# 1 0.016210 0.006115 -0.000738 -0.012561 -0.008798 0.021730
# 2 0.006115 0.023688 -0.001642 -0.006252 -0.005376 0.024198
# 3 -0.000738 -0.001642 0.008207 -0.009205 -0.010657 0.004513
# 4 -0.012561 -0.006252 -0.009205 0.077743 0.034647 -0.039973
# 5 -0.008798 -0.005376 -0.010657 0.034647 0.050266 -0.029791
# 6 0.021730 0.024198 0.004513 -0.039973 -0.029791 0.088269
#
#
# Mechanical properties :
#
#
# Convention : Reuss Voigt Hill
#
# Bulk Modulus (GPa) = 17.99333 55.28947 36.64140
# Shear Modulus (GPa) = 18.15295 36.96760 27.56028
#
# Velocity S-wave (km/s) = 2.78031 3.96762 3.42579
# Velocity P-wave (km/s) = 4.23898 6.67333 5.59027
#
# Compressibility (1/GPa) = 0.05557615
#
# Stress axis : x y z
#
# Youngs Moduli (GPa) = 61.69076 42.21530 121.84961
#
# Poissons Ratio (x) = -0.25816 0.08990
# Poissons Ratio (y) = -0.37726 0.20006
# Poissons Ratio (z) = 0.04552 0.06931
#
# Static dielectric constant tensor:
#      x y z
#    x 1.913420 0.091660 -0.030090 
#    y 0.091660 1.954150 -0.033240 
#    z -0.030090 -0.033240 1.946220 
# 
# From -- ./inp_files/422783.got.cif
#   From: 2010.05.17/outbox.cif.g08.bks.cpg/sg2_212_cif.got.tgz:422783.got - 2010.06.03 11:33:40.
