data_PCOD9042839
_publ_section_title
;
Structure prediction by ZEFSAII (Michael W. Deem and Ramdas Pophale) SiO2 
 PCOD9042839
Probable space group: P -1
;
_chemical_formula_sum "Si O2"
_cell_formula_units_Z 16
_cell_length_a 12.766026
_cell_length_b 9.314626
_cell_length_c 18.915429
_cell_angle_alpha 41.974396
_cell_angle_beta 27.855124
_cell_angle_gamma 54.208877
_cell_volume 683.699675
_symmetry_space_group_name_H-M "P -1"
_symmetry_group_IT_number 2
_symmetry_cell_setting 'triclinic'
loop_
_space_group_symop_operation_xyz
x,y,z
-x,-y,-z
loop_
_atom_site_type_symbol
_atom_site_label
_atom_site_fract_x
_atom_site_fract_y
_atom_site_fract_z
Si Si1 0.878512 0.761233 0.633342
Si Si2 0.394569 0.273762 0.522443
Si Si3 0.997139 0.767053 0.123333
Si Si4 0.573053 0.186432 0.041992
Si Si5 0.169798 0.854201 0.734527
Si Si6 0.172329 0.523574 0.985636
Si Si7 0.680162 0.499843 0.729897
Si Si8 0.320402 0.678147 0.356516
O O1 0.636935 0.717549 0.834832
O O2 0.819305 0.728455 0.597646
O O3 0.089636 0.639392 0.556861
O O4 0.000000 0.000000 0.500000
O O5 0.613440 0.168086 0.434753
O O6 0.471102 0.514632 0.354793
O O7 0.251238 0.291682 0.670384
O O8 0.215035 0.106600 0.639250
O O9 0.027028 0.590659 0.111630
O O10 0.216164 0.796524 0.035178
O O11 0.000000 0.000000 0.000000
O O12 0.458805 0.930647 0.185364
O O13 0.665333 0.323494 0.866602
O O14 0.938731 0.725063 0.882515
O O15 0.178299 0.704962 0.854165
O O16 0.426999 0.533998 0.855141
O O17 0.752472 0.405724 0.648361
#
# Coordination Sequence:
#
# PCOD9042839 Si02
#       8
#     2   2   2   2   2   2   2   2
#     4  10  23  45  64  96 142 178 224 289 348 406
#     4  11  24  44  70  99 145 179 233 296 346 408
#     4  12  26  44  71 103 136 189 230 288 350 425
#     4  11  26  46  69  99 145 181 236 288 346 418
#     4  10  24  48  68 103 142 184 230 298 344 413
#     4  11  24  45  74 101 140 184 236 281 354 419
#     4  12  23  45  72 102 136 189 233 281 348 419
#     4  11  25  44  69 104 136 185 233 292 351 409
#
# _framework density 23.402087000000002
#
# number of rings (size 3 to 8) (size 9 to 14) (size 15 to 20)
#    0.000    1.000    3.750    1.875    5.250    0.500 
#    6.750    0.000    0.000    0.000    0.000    0.000 
#    0.000    0.000    0.000    0.000    0.000    0.000 
#
# Total GULP energy -89445.000094 kJ/mol
# GULP energy per Si atom -5590.312506 kJ/mol
# Density = 2.334882 g / cm^3
# Si number density = 23.402087 Si / 1000 Ang^3
#
#
#
# Elastic Constant Matrix: (Units=GPa)
#
#
# Indices 1 2 3 4 5 6 
#
# 1 62.4597 5.7888 15.0500 -6.7700 -1.5321 2.6089
# 2 5.7888 101.3508 31.2919 3.2400 9.5173 19.6546
# 3 15.0500 31.2919 82.0627 8.6364 4.8805 17.7241
# 4 -6.7700 3.2400 8.6364 51.1011 12.4646 -7.8385
# 5 -1.5321 9.5173 4.8805 12.4646 37.5085 -4.9082
# 6 2.6089 19.6546 17.7241 -7.8385 -4.9082 30.5509
#
#
#
# Elastic Compliance Matrix: (Units=1/GPa)
#
#
# Indices 1 2 3 4 5 6 
#
# 1 0.017223 -0.000308 -0.003784 0.003099 0.000479 0.001794
# 2 -0.000308 0.012500 -0.002923 -0.000554 -0.003540 -0.007031
# 3 -0.003784 -0.002923 0.016342 -0.004069 -0.001304 -0.008531
# 4 0.003099 -0.000554 -0.004069 0.023305 -0.005970 0.007473
# 5 0.000479 -0.003540 -0.001304 -0.005970 0.030566 0.006372
# 6 0.001794 -0.007031 -0.008531 0.007473 0.006372 0.044993
#
#
# Mechanical properties :
#
#
# Convention : Reuss Voigt Hill
#
# Bulk Modulus (GPa) = 31.21263 38.90386 35.05825
# Shear Modulus (GPa) = 29.47486 36.74825 33.11155
#
# Velocity S-wave (km/s) = 3.55279 3.96700 3.76559
# Velocity P-wave (km/s) = 5.49511 6.13538 5.82405
#
# Compressibility (1/GPa) = 0.03203831
#
# Stress axis : x y z
#
# Youngs Moduli (GPa) = 58.06114 79.99804 61.19044
#
# Poissons Ratio (x) = 0.02460 0.23152
# Poissons Ratio (y) = 0.01786 0.17884
# Poissons Ratio (z) = 0.21968 0.23381
#
# Static dielectric constant tensor:
#      x y z
#    x 1.881410 0.015070 -0.001680 
#    y 0.015070 1.867360 0.012560 
#    z -0.001680 0.012560 1.906280 
# 
# From -- ./inp_files/566498.got.cif
#   From: 2010.05.17/outbox.cif.g08.bks.cpg/sg2_284_cif.got.tgz:566498.got - 2010.06.03 11:33:40.
