data_PCOD9042525
_publ_section_title
;
Structure prediction by ZEFSAII (Michael W. Deem and Ramdas Pophale) SiO2 
 PCOD9042525
Probable space group: P -1
;
_chemical_formula_sum "Si O2"
_cell_formula_units_Z 15
_cell_length_a 9.445459
_cell_length_b 11.507110
_cell_length_c 10.893031
_cell_angle_alpha 38.196978
_cell_angle_beta 131.351084
_cell_angle_gamma 126.773765
_cell_volume 541.478798
_symmetry_space_group_name_H-M "P -1"
_symmetry_group_IT_number 2
_symmetry_cell_setting 'triclinic'
loop_
_space_group_symop_operation_xyz
x,y,z
-x,-y,-z
loop_
_atom_site_type_symbol
_atom_site_label
_atom_site_fract_x
_atom_site_fract_y
_atom_site_fract_z
Si Si1 0.522936 0.712296 0.283236
Si Si2 0.841201 0.433955 0.133961
Si Si3 0.883984 0.206874 0.103847
Si Si4 0.996811 0.689981 0.264608
Si Si5 0.061391 0.873107 0.392067
Si Si6 0.582606 0.148800 0.653514
Si Si7 0.500000 0.000000 0.500000
Si Si8 0.407873 0.292217 0.958945
O O1 0.500000 0.500000 0.500000
O O2 0.563315 0.827110 0.341047
O O3 0.620317 0.707303 0.207437
O O4 0.327926 0.781245 0.073467
O O5 0.938764 0.337229 0.380685
O O6 0.887765 0.290275 0.172353
O O7 0.956757 0.642083 0.000010
O O8 0.612285 0.412433 0.012139
O O9 0.931295 0.998322 0.284839
O O10 0.003592 0.860176 0.227751
O O11 0.203499 0.750600 0.269745
O O12 0.000000 0.500000 0.500000
O O13 0.779075 0.665650 0.113003
O O14 0.279334 0.973847 0.440694
O O15 0.552187 0.202742 0.450799
O O16 0.574597 0.922963 0.810731
#
# Coordination Sequence:
#
# PCOD9042525 Si02
#       8
#     2   2   2   2   2   2   1   2
#     4  11  25  44  73 106 145 185 242 305 364 429
#     4  10  23  44  72 104 146 180 236 296 362 429
#     4  10  24  44  71 108 139 187 235 294 367 428
#     4  11  26  44  70 101 143 191 244 293 364 427
#     4  11  23  46  71  98 144 188 238 291 357 432
#     4  11  23  45  71 100 145 187 242 296 361 433
#     4  10  24  44  68 102 134 196 240 282 356 432
#     4  11  23  46  70 109 138 189 246 298 361 432
#
# _framework density 27.701916000000001
#
# number of rings (size 3 to 8) (size 9 to 14) (size 15 to 20)
#    0.000    1.333    1.333    2.800    3.733    7.467 
#    0.000    1.333    0.000    0.000    0.000    0.000 
#    0.000    0.000    0.000    0.000    0.000    0.000 
#
# Total GULP energy -83738.216338 kJ/mol
# GULP energy per Si atom -5582.547756 kJ/mol
# Density = 2.763887 g / cm^3
# Si number density = 27.701916 Si / 1000 Ang^3
#
#
#
# Elastic Constant Matrix: (Units=GPa)
#
#
# Indices 1 2 3 4 5 6 
#
# 1 160.1552 25.6062 21.0269 17.8204 12.8489 -0.9074
# 2 25.6062 94.8127 -0.6153 23.3906 3.2907 -9.5328
# 3 21.0269 -0.6153 105.8232 -13.7426 19.7922 3.0289
# 4 17.8204 23.3906 -13.7426 33.2269 -6.5381 -8.1355
# 5 12.8489 3.2907 19.7922 -6.5381 28.4973 -1.1585
# 6 -0.9074 -9.5328 3.0289 -8.1355 -1.1585 53.7219
#
#
#
# Elastic Compliance Matrix: (Units=1/GPa)
#
#
# Indices 1 2 3 4 5 6 
#
# 1 0.007362 -0.000756 -0.001446 -0.004858 -0.003372 -0.000737
# 2 -0.000756 0.013290 -0.000470 -0.009527 -0.003018 0.000864
# 3 -0.001446 -0.000470 0.011502 0.004589 -0.006238 -0.000196
# 4 -0.004858 -0.009527 0.004589 0.044591 0.010535 0.004949
# 5 -0.003372 -0.003018 -0.006238 0.010535 0.043803 0.002299
# 6 -0.000737 0.000864 -0.000196 0.004949 0.002299 0.019565
#
#
# Mechanical properties :
#
#
# Convention : Reuss Voigt Hill
#
# Bulk Modulus (GPa) = 37.30004 50.31409 43.80706
# Shear Modulus (GPa) = 32.38461 44.07412 38.22936
#
# Velocity S-wave (km/s) = 3.42283 3.99308 3.71890
# Velocity P-wave (km/s) = 5.39583 6.28185 5.85563
#
# Compressibility (1/GPa) = 0.02680963
#
# Stress axis : x y z
#
# Youngs Moduli (GPa) = 135.83985 75.24327 86.93763
#
# Poissons Ratio (x) = 0.05689 0.12574
# Poissons Ratio (y) = 0.10271 0.04086
# Poissons Ratio (z) = 0.19646 0.03536
#
# Static dielectric constant tensor:
#      x y z
#    x 1.930120 0.249000 0.233390 
#    y 0.249000 1.850240 -0.238010 
#    z 0.233390 -0.238010 1.760830 
# 
# From -- ./inp_files/391906.got.cif
#   From: 2010.05.17/outbox.cif.g08.bks.cpg/sg2_196_cif.got.tgz:391906.got - 2010.06.03 11:33:40.
