data_PCOD9042095
_publ_section_title
;
Structure prediction by ZEFSAII (Michael W. Deem and Ramdas Pophale) SiO2 
 PCOD9042095
Probable space group: P -1
;
_chemical_formula_sum "Si O2"
_cell_formula_units_Z 16
_cell_length_a 9.333027
_cell_length_b 11.319449
_cell_length_c 14.035470
_cell_angle_alpha 117.617629
_cell_angle_beta 55.971878
_cell_angle_gamma 73.616385
_cell_volume 735.501380
_symmetry_space_group_name_H-M "P -1"
_symmetry_group_IT_number 2
_symmetry_cell_setting 'triclinic'
loop_
_space_group_symop_operation_xyz
x,y,z
-x,-y,-z
loop_
_atom_site_type_symbol
_atom_site_label
_atom_site_fract_x
_atom_site_fract_y
_atom_site_fract_z
Si Si1 0.417164 0.359162 0.565795
Si Si2 0.193100 0.499814 0.312869
Si Si3 0.995818 0.935371 0.707474
Si Si4 0.913973 0.408591 0.039591
Si Si5 0.085722 0.620144 0.620757
Si Si6 0.638794 0.372731 0.997570
Si Si7 0.457907 0.010634 0.632822
Si Si8 0.872133 0.932197 0.548681
O O1 0.693870 0.233737 0.462848
O O2 0.325395 0.484504 0.551657
O O3 0.428042 0.199356 0.468863
O O4 0.202935 0.507231 0.781082
O O5 0.173292 0.547051 0.450467
O O6 0.084617 0.413589 0.305953
O O7 0.045047 0.701676 0.385979
O O8 0.473102 0.360735 0.114558
O O9 0.946896 0.842905 0.766222
O O10 0.851653 0.955455 0.677696
O O11 0.903810 0.140142 0.806218
O O12 0.696616 0.467097 0.076138
O O13 0.173896 0.176290 0.844039
O O14 0.000000 0.500000 0.000000
O O15 0.500000 0.500000 0.000000
O O16 0.613066 0.044503 0.634145
O O17 0.500000 0.000000 0.500000
O O18 0.000000 0.000000 0.500000
#
# Coordination Sequence:
#
# PCOD9042095 Si02
#       8
#     2   2   2   2   2   2   2   2
#     4  12  24  49  72 102 150 187 241 302 360 427
#     4  10  23  44  69 104 141 186 245 293 354 433
#     4  11  25  45  71 103 141 190 238 298 363 423
#     4  12  28  44  68 109 144 187 242 295 361 441
#     4  10  23  46  74  98 140 198 238 296 359 427
#     4  12  28  45  70 108 148 184 243 305 362 432
#     4  12  25  43  70 103 147 188 240 297 363 431
#     4  11  23  40  68 100 137 187 232 294 362 420
#
# _framework density 21.753868000000001
#
# number of rings (size 3 to 8) (size 9 to 14) (size 15 to 20)
#    0.000    0.750    3.750    3.375    7.000    0.500 
#    2.250    1.250    0.000    0.000    0.000    0.000 
#    0.000    0.000    0.000    0.000    0.000    0.000 
#
# Total GULP energy -89193.849473 kJ/mol
# GULP energy per Si atom -5574.615592 kJ/mol
# Density = 2.170436 g / cm^3
# Si number density = 21.753868 Si / 1000 Ang^3
#
#
#
# Elastic Constant Matrix: (Units=GPa)
#
#
# Indices 1 2 3 4 5 6 
#
# 1 153.7184 45.6645 31.8015 -2.5762 -14.2390 5.4274
# 2 45.6645 132.5923 31.5643 18.3341 -4.7980 8.1569
# 3 31.8015 31.5643 85.8415 0.6411 -2.5547 -7.7740
# 4 -2.5762 18.3341 0.6411 32.5452 12.0950 -1.6257
# 5 -14.2390 -4.7980 -2.5547 12.0950 27.8587 5.4337
# 6 5.4274 8.1569 -7.7740 -1.6257 5.4337 38.3798
#
#
#
# Elastic Compliance Matrix: (Units=1/GPa)
#
#
# Indices 1 2 3 4 5 6 
#
# 1 0.007980 -0.002026 -0.002255 0.000363 0.003689 -0.001662
# 2 -0.002026 0.010488 -0.003235 -0.007894 0.004600 -0.003583
# 3 -0.002255 -0.003235 0.013973 0.002445 -0.002322 0.004269
# 4 0.000363 -0.007894 0.002445 0.043353 -0.021127 0.006949
# 5 0.003689 0.004600 -0.002322 -0.021127 0.049457 -0.009867
# 6 -0.001662 -0.003583 0.004269 0.006949 -0.009867 0.029608
#
#
# Mechanical properties :
#
#
# Convention : Reuss Voigt Hill
#
# Bulk Modulus (GPa) = 57.43604 65.57920 61.50762
# Shear Modulus (GPa) = 28.45860 37.29820 32.87840
#
# Velocity S-wave (km/s) = 3.62084 4.14521 3.89187
# Velocity P-wave (km/s) = 6.62877 7.28847 6.96644
#
# Compressibility (1/GPa) = 0.01741067
#
# Stress axis : x y z
#
# Youngs Moduli (GPa) = 125.30869 95.34607 71.56505
#
# Poissons Ratio (x) = 0.19319 0.16137
# Poissons Ratio (y) = 0.25389 0.23148
# Poissons Ratio (z) = 0.28255 0.30840
#
# Static dielectric constant tensor:
#      x y z
#    x 1.791930 -0.013060 -0.042780 
#    y -0.013060 1.788360 0.051460 
#    z -0.042780 0.051460 1.928200 
# 
# From -- ./inp_files/500666.got.cif
#   From: 2010.05.17/outbox.cif.g08.bks.cpg/sg2_251_cif.got.tgz:500666.got - 2010.06.03 11:33:40.
