data_PCOD9042461
_publ_section_title
;
Structure prediction by ZEFSAII (Michael W. Deem and Ramdas Pophale) SiO2 
 PCOD9042461
Probable space group: P -1
;
_chemical_formula_sum "Si O2"
_cell_formula_units_Z 16
_cell_length_a 20.678129
_cell_length_b 8.971172
_cell_length_c 8.740248
_cell_angle_alpha 114.142880
_cell_angle_beta 31.966367
_cell_angle_gamma 116.220181
_cell_volume 768.067947
_symmetry_space_group_name_H-M "P -1"
_symmetry_group_IT_number 2
_symmetry_cell_setting 'triclinic'
loop_
_space_group_symop_operation_xyz
x,y,z
-x,-y,-z
loop_
_atom_site_type_symbol
_atom_site_label
_atom_site_fract_x
_atom_site_fract_y
_atom_site_fract_z
Si Si1 0.930135 0.012989 0.307069
Si Si2 0.136484 0.483380 0.756088
Si Si3 0.249241 0.402229 0.183494
Si Si4 0.757019 0.758598 0.378124
Si Si5 0.827345 0.930525 0.986577
Si Si6 0.874854 0.361623 0.670948
Si Si7 0.278546 0.763991 0.767837
Si Si8 0.473289 0.537125 0.247093
O O1 0.908725 0.196758 0.460420
O O2 0.796582 0.891745 0.492445
O O3 0.028734 0.979882 0.226201
O O4 0.000000 0.000000 0.000000
O O5 0.198281 0.410311 0.459547
O O6 0.148980 0.367643 0.828170
O O7 0.210961 0.666337 0.716992
O O8 0.000000 0.500000 0.000000
O O9 0.211502 0.552103 0.227712
O O10 0.183417 0.229239 0.167007
O O11 0.397862 0.429019 0.906580
O O12 0.777027 0.855201 0.219804
O O13 0.625225 0.631372 0.583449
O O14 0.740457 0.049028 0.140835
O O15 0.000000 0.500000 0.500000
O O16 0.800658 0.305024 0.952350
O O17 0.407411 0.695944 0.476619
O O18 0.500000 0.500000 0.000000
#
# Coordination Sequence:
#
# PCOD9042461 Si02
#       8
#     2   2   2   2   2   2   2   2
#     4  10  24  41  71 102 146 176 234 292 357 419
#     4  11  23  39  71 101 134 186 234 286 361 417
#     4  12  25  43  74 101 141 188 236 291 354 415
#     4  10  23  44  71  97 141 186 229 287 350 416
#     4  11  25  44  68 108 141 180 234 296 363 405
#     4  12  26  45  70 110 143 180 236 291 360 424
#     4  11  26  44  68  99 145 185 233 293 341 421
#     4  11  24  48  72 100 141 189 247 282 341 428
#
# _framework density 20.831489999999999
#
# number of rings (size 3 to 8) (size 9 to 14) (size 15 to 20)
#    0.000    1.000    3.750    3.000   12.250    3.000 
#    0.000    2.500    0.000    0.000    0.000    0.000 
#    0.000    0.000    0.000    0.000    0.000    0.000 
#
# Total GULP energy -89332.139805 kJ/mol
# GULP energy per Si atom -5583.258738 kJ/mol
# Density = 2.078408 g / cm^3
# Si number density = 20.831490 Si / 1000 Ang^3
#
#
#
# Elastic Constant Matrix: (Units=GPa)
#
#
# Indices 1 2 3 4 5 6 
#
# 1 91.7008 28.8616 54.8450 -1.7066 -15.1615 -6.2985
# 2 28.8616 98.2332 41.4152 23.2143 5.1798 -10.7034
# 3 54.8450 41.4152 112.5380 16.6885 -12.5937 -13.3847
# 4 -1.7066 23.2143 16.6885 40.2475 2.2573 5.1159
# 5 -15.1615 5.1798 -12.5937 2.2573 49.8473 -0.4081
# 6 -6.2985 -10.7034 -13.3847 5.1159 -0.4081 46.1180
#
#
#
# Elastic Compliance Matrix: (Units=1/GPa)
#
#
# Indices 1 2 3 4 5 6 
#
# 1 0.017237 -0.003522 -0.007774 0.005969 0.003364 -0.001352
# 2 -0.003522 0.014558 -0.002447 -0.007757 -0.002826 0.003023
# 3 -0.007774 -0.002447 0.015044 -0.005697 0.001976 0.003386
# 4 0.005969 -0.007757 -0.005697 0.032753 -0.000352 -0.006275
# 5 0.003364 -0.002826 0.001976 -0.000352 0.021898 0.000610
# 6 -0.001352 0.003023 0.003386 -0.006275 0.000610 0.023885
#
#
# Mechanical properties :
#
#
# Convention : Reuss Voigt Hill
#
# Bulk Modulus (GPa) = 51.67371 61.41284 56.54327
# Shear Modulus (GPa) = 31.38462 39.06590 35.22526
#
# Velocity S-wave (km/s) = 3.88570 4.33520 4.11659
# Velocity P-wave (km/s) = 6.70753 7.38941 7.05671
#
# Compressibility (1/GPa) = 0.01935220
#
# Stress axis : x y z
#
# Youngs Moduli (GPa) = 58.01318 68.69004 66.47227
#
# Poissons Ratio (x) = 0.24194 0.51675
# Poissons Ratio (y) = 0.20434 0.16269
# Poissons Ratio (z) = 0.45099 0.16811
#
# Static dielectric constant tensor:
#      x y z
#    x 1.776430 -0.008960 0.014670 
#    y -0.008960 1.799790 -0.026450 
#    z 0.014670 -0.026450 1.779150 
# 
# From -- ./inp_files/237162.got.cif
#   From: 2010.05.17/outbox.cif.g08.bks.cpg/sg2_119_cif.got.tgz:237162.got - 2010.06.03 11:33:40.
