data_PCOD9042046
_publ_section_title
;
Structure prediction by ZEFSAII (Michael W. Deem and Ramdas Pophale) SiO2 
 PCOD9042046
Probable space group: P -1
;
_chemical_formula_sum "Si O2"
_cell_formula_units_Z 10
_cell_length_a 4.887865
_cell_length_b 15.411933
_cell_length_c 6.995257
_cell_angle_alpha 84.635997
_cell_angle_beta 46.424108
_cell_angle_gamma 97.613633
_cell_volume 365.651669
_symmetry_space_group_name_H-M "P -1"
_symmetry_group_IT_number 2
_symmetry_cell_setting 'triclinic'
loop_
_space_group_symop_operation_xyz
x,y,z
-x,-y,-z
loop_
_atom_site_type_symbol
_atom_site_label
_atom_site_fract_x
_atom_site_fract_y
_atom_site_fract_z
Si Si1 0.030279 0.984798 0.763483
Si Si2 0.496235 0.383388 0.853031
Si Si3 0.581093 0.584924 0.680606
Si Si4 0.009478 0.852475 0.505820
Si Si5 0.462633 0.268398 0.573812
O O1 0.837451 0.888453 0.771922
O O2 0.500000 0.000000 0.500000
O O3 0.878444 0.057717 0.699672
O O4 0.000000 0.000000 0.000000
O O5 0.424689 0.476666 0.792164
O O6 0.269930 0.298286 0.850641
O O7 0.961565 0.392344 0.602629
O O8 0.433989 0.376350 0.109188
O O9 0.357397 0.631588 0.627221
O O10 0.763290 0.781208 0.489909
O O11 0.317482 0.802610 0.444582
#
# Coordination Sequence:
#
# PCOD9042046 Si02
#       5
#     2   2   2   2   2
#     4  11  26  52  75 103 143 184 230 286 355 425
#     4  10  23  44  69 100 141 190 236 285 347 410
#     4  10  23  44  69 100 141 190 236 285 347 410
#     4  11  26  46  75 108 138 186 231 290 352 425
#     4  12  23  47  70 108 144 180 238 291 351 406
#
# _framework density 27.348434000000001
#
# number of rings (size 3 to 8) (size 9 to 14) (size 15 to 20)
#    0.000    1.200    4.000    0.600    0.000    8.000 
#    0.000    6.000    0.000    0.000    0.000    0.000 
#    0.000    0.000    0.000    0.000    0.000    0.000 
#
# Total GULP energy -56026.338902 kJ/mol
# GULP energy per Si atom -5602.633890 kJ/mol
# Density = 2.728619 g / cm^3
# Si number density = 27.348434 Si / 1000 Ang^3
#
#
#
# Elastic Constant Matrix: (Units=GPa)
#
#
# Indices 1 2 3 4 5 6 
#
# 1 127.6115 50.6117 57.0814 12.3476 42.3118 -20.1391
# 2 50.6117 202.5871 84.5371 20.7422 45.5089 -33.5661
# 3 57.0814 84.5371 203.5835 38.4982 38.8847 -13.5780
# 4 12.3476 20.7422 38.4982 63.6792 9.6874 27.3126
# 5 42.3118 45.5089 38.8847 9.6874 59.0760 -1.5872
# 6 -20.1391 -33.5661 -13.5780 27.3126 -1.5872 69.4964
#
#
#
# Elastic Compliance Matrix: (Units=1/GPa)
#
#
# Indices 1 2 3 4 5 6 
#
# 1 0.011492 0.000063 -0.001280 -0.002015 -0.007007 0.003743
# 2 0.000063 0.007510 -0.001511 -0.002756 -0.004268 0.004336
# 3 -0.001280 -0.001511 0.007163 -0.004100 -0.001912 0.001867
# 4 -0.002015 -0.002756 -0.004100 0.024444 0.001926 -0.012279
# 5 -0.007007 -0.004268 -0.001912 0.001926 0.026052 -0.004627
# 6 0.003743 0.004336 0.001867 -0.012279 -0.004627 0.022653
#
#
# Mechanical properties :
#
#
# Convention : Reuss Voigt Hill
#
# Bulk Modulus (GPa) = 48.28316 102.02695 75.15506
# Shear Modulus (GPa) = 44.77392 61.22046 52.99719
#
# Velocity S-wave (km/s) = 4.05058 4.73645 4.40688
# Velocity P-wave (km/s) = 6.29042 8.20361 7.30988
#
# Compressibility (1/GPa) = 0.02071116
#
# Stress axis : x y z
#
# Youngs Moduli (GPa) = 87.01432 133.15489 139.60258
#
# Poissons Ratio (x) = -0.00842 0.17864
# Poissons Ratio (y) = -0.00550 0.21091
# Poissons Ratio (z) = 0.11135 0.20117
#
# Static dielectric constant tensor:
#      x y z
#    x 2.193450 0.099510 -0.120980 
#    y 0.099510 2.118880 -0.015660 
#    z -0.120980 -0.015660 2.186850 
# 
# From -- ./inp_files/3993.got.cif
#   From: 2010.05.17/outbox.cif.g08.bks.cpg/sg2_2_cif.got.tgz:3993.got - 2010.06.03 11:33:40.
