data_PCOD9042791
_publ_section_title
;
Structure prediction by ZEFSAII (Michael W. Deem and Ramdas Pophale) SiO2 
 PCOD9042791
Probable space group: P -1
;
_chemical_formula_sum "Si O2"
_cell_formula_units_Z 14
_cell_length_a 11.500169
_cell_length_b 13.328821
_cell_length_c 5.815070
_cell_angle_alpha 92.490258
_cell_angle_beta 76.171330
_cell_angle_gamma 136.581677
_cell_volume 583.464956
_symmetry_space_group_name_H-M "P -1"
_symmetry_group_IT_number 2
_symmetry_cell_setting 'triclinic'
loop_
_space_group_symop_operation_xyz
x,y,z
-x,-y,-z
loop_
_atom_site_type_symbol
_atom_site_label
_atom_site_fract_x
_atom_site_fract_y
_atom_site_fract_z
Si Si1 0.866835 0.874763 0.237197
Si Si2 0.484980 0.580715 0.334855
Si Si3 0.776268 0.452919 0.271967
Si Si4 0.898676 0.090065 0.514515
Si Si5 0.832306 0.386384 0.799098
Si Si6 0.599678 0.069046 0.709829
Si Si7 0.169397 0.384667 0.142943
O O1 0.684688 0.730822 0.189653
O O2 0.967628 0.853265 0.336212
O O3 0.825947 0.939591 0.440883
O O4 0.000000 0.000000 0.000000
O O5 0.500000 0.500000 0.500000
O O6 0.388214 0.617936 0.499784
O O7 0.353098 0.469023 0.182534
O O8 0.974991 0.543697 0.258336
O O9 0.734449 0.341751 0.088499
O O10 0.808642 0.576942 0.129044
O O11 0.743358 0.068970 0.650072
O O12 0.015158 0.215972 0.274411
O O13 0.708976 0.242270 0.684247
O O14 0.131738 0.474757 0.263117
O O15 0.500000 0.000000 0.500000
O O16 0.500000 0.000000 0.000000
#
# Coordination Sequence:
#
# PCOD9042791 Si02
#       7
#     2   2   2   2   2   2   2
#     4  11  29  49  73 102 158 205 261 328 401 467
#     4  12  25  42  73 112 144 199 269 314 383 470
#     4   9  23  44  76 110 152 189 259 331 384 469
#     4  11  27  49  73 108 148 208 261 324 409 468
#     4   9  23  47  74 113 148 201 256 326 404 462
#     4  12  31  48  79 117 164 211 267 328 412 494
#     4  10  23  44  77 106 147 194 254 324 386 466
#
# _framework density 23.994586000000002
#
# number of rings (size 3 to 8) (size 9 to 14) (size 15 to 20)
#    0.857    0.571    1.429    0.857   10.000    5.143 
#    0.000    0.000    0.000    0.000    0.000    0.000 
#    0.000    0.000    0.000    0.000    0.000    0.000 
#
# Total GULP energy -78216.232202 kJ/mol
# GULP energy per Si atom -5586.873729 kJ/mol
# Density = 2.393997 g / cm^3
# Si number density = 23.994586 Si / 1000 Ang^3
#
#
#
# Elastic Constant Matrix: (Units=GPa)
#
#
# Indices 1 2 3 4 5 6 
#
# 1 168.3143 43.1465 37.8468 3.3933 -12.1568 8.0054
# 2 43.1465 123.3584 25.3143 21.6288 -7.6584 11.4164
# 3 37.8468 25.3143 78.3613 0.7134 -25.9746 6.6273
# 4 3.3933 21.6288 0.7134 51.3247 -4.0233 -8.6231
# 5 -12.1568 -7.6584 -25.9746 -4.0233 47.2459 -3.0196
# 6 8.0054 11.4164 6.6273 -8.6231 -3.0196 29.5021
#
#
#
# Elastic Compliance Matrix: (Units=1/GPa)
#
#
# Indices 1 2 3 4 5 6 
#
# 1 0.007069 -0.001915 -0.002764 0.000298 -0.000016 -0.000471
# 2 -0.001915 0.010522 -0.002296 -0.005111 -0.000779 -0.004610
# 3 -0.002764 -0.002296 0.017820 0.001413 0.008767 -0.001054
# 4 0.000298 -0.005111 0.001413 0.023250 0.002557 0.008637
# 5 -0.000016 -0.000779 0.008767 0.002557 0.026186 0.001764
# 6 -0.000471 -0.004610 -0.001054 0.008637 0.001764 0.038749
#
#
# Mechanical properties :
#
#
# Convention : Reuss Voigt Hill
#
# Bulk Modulus (GPa) = 46.59479 64.73881 55.66680
# Shear Modulus (GPa) = 34.55456 43.19631 38.87543
#
# Velocity S-wave (km/s) = 3.79898 4.24754 4.02951
# Velocity P-wave (km/s) = 6.22126 7.14805 6.70070
#
# Compressibility (1/GPa) = 0.02146163
#
# Stress axis : x y z
#
# Youngs Moduli (GPa) = 141.46652 95.04083 56.11633
#
# Poissons Ratio (x) = 0.18199 0.15508
# Poissons Ratio (y) = 0.27089 0.12885
# Poissons Ratio (z) = 0.39095 0.21822
#
# Static dielectric constant tensor:
#      x y z
#    x 1.911830 -0.028320 0.063060 
#    y -0.028320 1.901640 0.050230 
#    z 0.063060 0.050230 2.111140 
# 
# From -- ./inp_files/78102.got.cif
#   From: 2010.05.17/outbox.cif.g08.bks.cpg/sg2_40_cif.got.tgz:78102.got - 2010.06.03 11:33:40.
