data_PCOD9042194
_publ_section_title
;
Structure prediction by ZEFSAII (Michael W. Deem and Ramdas Pophale) SiO2 
 PCOD9042194
Probable space group: P -1
;
_chemical_formula_sum "Si O2"
_cell_formula_units_Z 14
_cell_length_a 11.334640
_cell_length_b 12.733748
_cell_length_c 15.221788
_cell_angle_alpha 161.711361
_cell_angle_beta 127.857086
_cell_angle_gamma 51.427203
_cell_volume 536.896870
_symmetry_space_group_name_H-M "P -1"
_symmetry_group_IT_number 2
_symmetry_cell_setting 'triclinic'
loop_
_space_group_symop_operation_xyz
x,y,z
-x,-y,-z
loop_
_atom_site_type_symbol
_atom_site_label
_atom_site_fract_x
_atom_site_fract_y
_atom_site_fract_z
Si Si1 0.214626 0.016131 0.450504
Si Si2 0.330719 0.607970 0.870652
Si Si3 0.983493 0.412046 0.080975
Si Si4 0.588067 0.945661 0.265395
Si Si5 0.944768 0.900486 0.802042
Si Si6 0.712202 0.865798 0.076541
Si Si7 0.608141 0.387596 0.300734
O O1 0.344197 0.945652 0.527070
O O2 0.150263 0.703549 0.130272
O O3 0.272125 0.266933 0.604653
O O4 0.075937 0.247093 0.622677
O O5 0.507298 0.616730 0.979677
O O6 0.229485 0.908374 0.118944
O O7 0.000000 0.000000 0.000000
O O8 0.013916 0.107163 0.922947
O O9 0.138474 0.396950 0.087395
O O10 0.705396 0.939479 0.235015
O O11 0.445960 0.223311 0.390349
O O12 0.317779 0.644554 0.787773
O O13 0.000000 0.500000 0.500000
O O14 0.701424 0.193530 0.268851
O O15 0.554166 0.738088 0.882771
#
# Coordination Sequence:
#
# PCOD9042194 Si02
#       7
#     2   2   2   2   2   2   2
#     4  11  27  46  69 104 138 183 231 279 344 412
#     4  10  24  42  67 104 132 178 228 284 349 400
#     4  11  26  44  69 100 142 182 225 286 342 407
#     4  11  25  43  71  95 137 184 233 283 335 408
#     4  11  23  41  67 101 137 175 222 278 344 409
#     4  10  24  44  67 101 135 179 237 281 347 400
#     4  10  23  44  70 100 134 179 232 290 340 405
#
# _framework density 26.075773000000002
#
# number of rings (size 3 to 8) (size 9 to 14) (size 15 to 20)
#    0.000    1.429    0.000    3.429   14.000    1.714 
#    0.000    0.000    0.000    0.000    0.000    0.000 
#    0.000    0.000    0.000    0.000    0.000    0.000 
#
# Total GULP energy -78430.224687 kJ/mol
# GULP energy per Si atom -5602.158906 kJ/mol
# Density = 2.601642 g / cm^3
# Si number density = 26.075773 Si / 1000 Ang^3
#
#
#
# Elastic Constant Matrix: (Units=GPa)
#
#
# Indices 1 2 3 4 5 6 
#
# 1 176.7376 36.7044 27.3905 0.8281 -12.2467 0.7820
# 2 36.7044 96.4344 17.0817 1.1856 1.3309 16.5240
# 3 27.3905 17.0817 70.8419 0.9054 -21.5986 12.9715
# 4 0.8281 1.1856 0.9054 48.0610 -2.7796 -2.1303
# 5 -12.2467 1.3309 -21.5986 -2.7796 28.7504 -4.6270
# 6 0.7820 16.5240 12.9715 -2.1303 -4.6270 40.7844
#
#
#
# Elastic Compliance Matrix: (Units=1/GPa)
#
#
# Indices 1 2 3 4 5 6 
#
# 1 0.006563 -0.002520 -0.001634 0.000167 0.001966 0.001647
# 2 -0.002520 0.012672 -0.002534 -0.000690 -0.004405 -0.004816
# 3 -0.001634 -0.002534 0.020360 0.000357 0.014141 -0.003795
# 4 0.000167 -0.000690 0.000357 0.021037 0.002656 0.001563
# 5 0.001966 -0.004405 0.014141 0.002656 0.047144 0.002737
# 6 0.001647 -0.004816 -0.003795 0.001563 0.002737 0.028038
#
#
# Mechanical properties :
#
#
# Convention : Reuss Voigt Hill
#
# Bulk Modulus (GPa) = 38.13929 56.26302 47.20115
# Shear Modulus (GPa) = 31.65976 41.04164 36.35070
#
# Velocity S-wave (km/s) = 3.48824 3.97159 3.73774
# Velocity P-wave (km/s) = 5.55714 6.53108 6.06370
#
# Compressibility (1/GPa) = 0.02621968
#
# Stress axis : x y z
#
# Youngs Moduli (GPa) = 152.37398 78.91381 49.11522
#
# Poissons Ratio (x) = 0.19884 0.08027
# Poissons Ratio (y) = 0.38394 0.12445
# Poissons Ratio (z) = 0.24902 0.19995
#
# Static dielectric constant tensor:
#      x y z
#    x 2.033380 -0.042990 0.044070 
#    y -0.042990 2.042690 0.047970 
#    z 0.044070 0.047970 2.083240 
# 
# From -- ./inp_files/569893.got.cif
#   From: 2010.05.17/outbox.cif.g08.bks.cpg/sg2_285_cif.got.tgz:569893.got - 2010.06.03 11:33:40.
