data_PCOD9042777
_publ_section_title
;
Structure prediction by ZEFSAII (Michael W. Deem and Ramdas Pophale) SiO2 
 PCOD9042777
Probable space group: P -1
;
_chemical_formula_sum "Si O2"
_cell_formula_units_Z 12
_cell_length_a 12.074518
_cell_length_b 9.544977
_cell_length_c 7.044191
_cell_angle_alpha 82.948989
_cell_angle_beta 110.396801
_cell_angle_gamma 143.146949
_cell_volume 438.436220
_symmetry_space_group_name_H-M "P -1"
_symmetry_group_IT_number 2
_symmetry_cell_setting 'triclinic'
loop_
_space_group_symop_operation_xyz
x,y,z
-x,-y,-z
loop_
_atom_site_type_symbol
_atom_site_label
_atom_site_fract_x
_atom_site_fract_y
_atom_site_fract_z
Si Si1 0.340692 0.567200 0.051594
Si Si2 0.193332 0.308659 0.364716
Si Si3 0.233498 0.759205 0.058403
Si Si4 0.779396 0.331761 0.337577
Si Si5 0.543200 0.864082 0.566969
Si Si6 0.777858 0.959109 0.362110
O O1 0.211179 0.334579 0.141663
O O2 0.338218 0.707595 0.162060
O O3 0.572092 0.739991 0.149466
O O4 0.242869 0.536241 0.806833
O O5 0.402478 0.586093 0.515462
O O6 0.986724 0.185214 0.332849
O O7 0.187648 0.149896 0.478239
O O8 0.314548 0.967023 0.191765
O O9 0.277761 0.820693 0.852378
O O10 0.000000 0.500000 0.000000
O O11 0.636286 0.200632 0.456734
O O12 0.000000 0.500000 0.500000
O O13 0.710227 0.002206 0.478821
#
# Coordination Sequence:
#
# PCOD9042777 Si02
#       6
#     2   2   2   2   2   2
#     4   9  22  42  69 105 150 188 236 299 358 435
#     4  10  23  45  73 109 148 187 246 307 362 431
#     4  10  25  43  66 110 152 187 241 292 361 448
#     4  10  25  44  69 106 148 195 240 293 360 438
#     4  11  23  44  73 109 148 194 234 297 371 439
#     4  10  23  44  76 109 142 193 247 302 366 432
#
# _framework density 27.369999
#
# number of rings (size 3 to 8) (size 9 to 14) (size 15 to 20)
#    1.000    1.000    0.000    2.500    7.000    5.333 
#    0.000    4.167    0.000    9.000    0.000    0.000 
#    0.000    0.333    0.000    0.000    0.000    0.000 
#
# Total GULP energy -67060.916165 kJ/mol
# GULP energy per Si atom -5588.409680 kJ/mol
# Density = 2.730770 g / cm^3
# Si number density = 27.369999 Si / 1000 Ang^3
#
#
#
# Elastic Constant Matrix: (Units=GPa)
#
#
# Indices 1 2 3 4 5 6 
#
# 1 90.9987 38.0391 29.2195 -3.0250 12.5796 31.7616
# 2 38.0391 186.6824 57.1126 -11.4736 7.6811 60.0934
# 3 29.2195 57.1126 142.3036 -25.6189 13.6218 26.1411
# 4 -3.0250 -11.4736 -25.6189 51.6352 8.8515 -0.5383
# 5 12.5796 7.6811 13.6218 8.8515 49.3393 4.2738
# 6 31.7616 60.0934 26.1411 -0.5383 4.2738 50.4518
#
#
#
# Elastic Compliance Matrix: (Units=1/GPa)
#
#
# Indices 1 2 3 4 5 6 
#
# 1 0.014714 0.000365 -0.001123 0.000786 -0.002871 -0.008865
# 2 0.000365 0.009175 -0.001610 0.001224 -0.000406 -0.010276
# 3 -0.001123 -0.001610 0.009362 0.004667 -0.002716 -0.001946
# 4 0.000786 0.001224 0.004667 0.022899 -0.005470 -0.003662
# 5 -0.002871 -0.000406 -0.002716 -0.005470 0.022645 0.001722
# 6 -0.008865 -0.010276 -0.001946 -0.003662 0.001722 0.038465
#
#
# Mechanical properties :
#
#
# Convention : Reuss Voigt Hill
#
# Bulk Modulus (GPa) = 35.06963 74.30303 54.68633
# Shear Modulus (GPa) = 38.02237 49.99281 44.00759
#
# Velocity S-wave (km/s) = 3.73124 4.27846 4.01418
# Velocity P-wave (km/s) = 5.60391 7.18425 6.44272
#
# Compressibility (1/GPa) = 0.02851470
#
# Stress axis : x y z
#
# Youngs Moduli (GPa) = 67.96110 108.99443 106.81855
#
# Poissons Ratio (x) = -0.03984 0.11998
# Poissons Ratio (y) = -0.02484 0.17201
# Poissons Ratio (z) = 0.07633 0.17552
#
# Static dielectric constant tensor:
#      x y z
#    x 2.213680 -0.165560 0.068360 
#    y -0.165560 2.231410 -0.096900 
#    z 0.068360 -0.096900 2.328730 
# 
# From -- ./inp_files/302901.got.cif
#   From: 2010.05.17/outbox.cif.g08.bks.cpg/sg2_152_cif.got.tgz:302901.got - 2010.06.03 11:33:40.
