data_PCOD9042268
_publ_section_title
;
Structure prediction by ZEFSAII (Michael W. Deem and Ramdas Pophale) SiO2 
 PCOD9042268
Probable space group: P -1
;
_chemical_formula_sum "Si O2"
_cell_formula_units_Z 16
_cell_length_a 8.219720
_cell_length_b 24.084812
_cell_length_c 9.307785
_cell_angle_alpha 27.396064
_cell_angle_beta 120.670251
_cell_angle_gamma 128.594537
_cell_volume 657.766506
_symmetry_space_group_name_H-M "P -1"
_symmetry_group_IT_number 2
_symmetry_cell_setting 'triclinic'
loop_
_space_group_symop_operation_xyz
x,y,z
-x,-y,-z
loop_
_atom_site_type_symbol
_atom_site_label
_atom_site_fract_x
_atom_site_fract_y
_atom_site_fract_z
Si Si1 0.280164 0.174246 0.523224
Si Si2 0.074260 0.300806 0.566233
Si Si3 0.804887 0.467280 0.699374
Si Si4 0.930417 0.938611 0.762072
Si Si5 0.387753 0.876546 0.351852
Si Si6 0.521224 0.719212 0.348735
Si Si7 0.451815 0.816213 0.818220
Si Si8 0.191203 0.427709 0.855460
O O1 0.445643 0.185274 0.450627
O O2 0.394006 0.182802 0.705162
O O3 0.227139 0.299689 0.201835
O O4 0.076558 0.036107 0.725910
O O5 0.138683 0.444788 0.334168
O O6 0.271278 0.293105 0.590695
O O7 0.847648 0.229766 0.551563
O O8 0.045130 0.197598 0.917876
O O9 0.806427 0.550286 0.366305
O O10 0.977619 0.413265 0.865669
O O11 0.591452 0.332326 0.918707
O O12 0.693131 0.911490 0.734419
O O13 0.000000 0.000000 0.500000
O O14 0.377707 0.887909 0.495798
O O15 0.500000 0.000000 0.000000
O O16 0.365694 0.568776 0.668291
O O17 0.391490 0.770509 0.063021
#
# Coordination Sequence:
#
# PCOD9042268 Si02
#       8
#     2   2   2   2   2   2   2   2
#     4  12  24  43  73  95 144 184 232 281 348 413
#     4  11  24  40  70 100 140 174 234 283 341 400
#     4  10  23  44  71 103 144 177 232 292 338 413
#     4  11  21  42  68 100 131 184 232 277 345 409
#     4  12  25  46  69  99 138 181 230 286 339 416
#     4  10  25  43  68 107 139 181 228 288 348 410
#     4  10  24  43  69 100 136 178 237 280 344 405
#     4  10  23  44  70 104 141 187 226 280 360 401
#
# _framework density 24.324741
#
# number of rings (size 3 to 8) (size 9 to 14) (size 15 to 20)
#    0.000    1.250    2.500    1.875    5.250    5.000 
#    0.000    1.250    0.000    0.000    0.000    0.000 
#    0.000    0.000    0.000    0.000    0.000    0.000 
#
# Total GULP energy -89289.178474 kJ/mol
# GULP energy per Si atom -5580.573655 kJ/mol
# Density = 2.426938 g / cm^3
# Si number density = 24.324741 Si / 1000 Ang^3
#
#
#
# Elastic Constant Matrix: (Units=GPa)
#
#
# Indices 1 2 3 4 5 6 
#
# 1 53.9034 23.7569 3.0325 -1.0507 -3.9205 2.1830
# 2 23.7569 147.6088 21.6305 -13.5817 -6.5218 9.3874
# 3 3.0325 21.6305 94.3301 8.3465 1.6803 -17.3827
# 4 -1.0507 -13.5817 8.3465 29.0044 5.9554 -0.1995
# 5 -3.9205 -6.5218 1.6803 5.9554 21.3106 -0.9133
# 6 2.1830 9.3874 -17.3827 -0.1995 -0.9133 29.6740
#
#
#
# Elastic Compliance Matrix: (Units=1/GPa)
#
#
# Indices 1 2 3 4 5 6 
#
# 1 0.020184 -0.003242 0.000112 -0.001459 0.003107 -0.000308
# 2 -0.003242 0.008452 -0.003011 0.004516 0.000788 -0.004144
# 3 0.000112 -0.003011 0.013356 -0.005161 -0.000138 0.008729
# 4 -0.001459 0.004516 -0.005161 0.040017 -0.009850 -0.004379
# 5 0.003107 0.000788 -0.000138 -0.009850 0.050541 0.000931
# 6 -0.000308 -0.004144 0.008729 -0.004379 0.000931 0.040146
#
#
# Mechanical properties :
#
#
# Convention : Reuss Voigt Hill
#
# Bulk Modulus (GPa) = 33.66106 43.63137 38.64622
# Shear Modulus (GPa) = 25.65654 32.49263 29.07458
#
# Velocity S-wave (km/s) = 3.25122 3.65880 3.46102
# Velocity P-wave (km/s) = 5.28792 5.98541 5.64744
#
# Compressibility (1/GPa) = 0.02970792
#
# Stress axis : x y z
#
# Youngs Moduli (GPa) = 49.54317 118.31933 74.87494
#
# Poissons Ratio (x) = 0.38363 -0.00836
# Poissons Ratio (y) = 0.16064 0.22546
# Poissons Ratio (z) = -0.00553 0.35628
#
# Static dielectric constant tensor:
#      x y z
#    x 1.928770 0.018350 -0.024290 
#    y 0.018350 1.987620 0.024710 
#    z -0.024290 0.024710 2.041190 
# 
# From -- ./inp_files/225858.got.cif
#   From: 2010.05.17/outbox.cif.g08.bks.cpg/sg2_113_cif.got.tgz:225858.got - 2010.06.03 11:33:40.
