data_PCOD9042306
_publ_section_title
;
Structure prediction by ZEFSAII (Michael W. Deem and Ramdas Pophale) SiO2 
 PCOD9042306
Probable space group: P -1
;
_chemical_formula_sum "Si O2"
_cell_formula_units_Z 14
_cell_length_a 20.812852
_cell_length_b 8.886633
_cell_length_c 9.287980
_cell_angle_alpha 133.095644
_cell_angle_beta 148.754363
_cell_angle_gamma 50.859273
_cell_volume 645.621820
_symmetry_space_group_name_H-M "P -1"
_symmetry_group_IT_number 2
_symmetry_cell_setting 'triclinic'
loop_
_space_group_symop_operation_xyz
x,y,z
-x,-y,-z
loop_
_atom_site_type_symbol
_atom_site_label
_atom_site_fract_x
_atom_site_fract_y
_atom_site_fract_z
Si Si1 0.878058 0.468859 0.155131
Si Si2 0.511862 0.051195 0.275885
Si Si3 0.223866 0.051917 0.146024
Si Si4 0.961445 0.635578 0.872470
Si Si5 0.684658 0.700513 0.762168
Si Si6 0.491260 0.646985 0.797463
Si Si7 0.759751 0.388999 0.165051
O O1 0.794203 0.371946 0.049381
O O2 0.000000 0.500000 0.500000
O O3 0.928458 0.361418 0.032324
O O4 0.792682 0.675719 0.073162
O O5 0.425913 0.121835 0.292287
O O6 0.493869 0.245428 0.258425
O O7 0.656506 0.003878 0.560493
O O8 0.472498 0.843818 0.995492
O O9 0.099050 0.135572 0.046406
O O10 0.255720 0.242933 0.234985
O O11 0.217271 0.851150 0.902163
O O12 0.852675 0.525626 0.512506
O O13 0.000000 0.500000 0.000000
O O14 0.622276 0.488447 0.501766
O O15 0.618664 0.498122 0.980425
#
# Coordination Sequence:
#
# PCOD9042306 Si02
#       7
#     2   2   2   2   2   2   2
#     4  10  23  44  70  91 131 178 217 273 320 387
#     4  11  23  40  64 100 130 170 219 265 337 390
#     4  12  25  40  69  97 133 176 218 270 335 393
#     4  11  24  47  66  94 136 173 223 275 322 389
#     4  12  23  42  64 100 134 169 217 273 332 387
#     4  11  23  39  69  96 133 170 213 277 328 393
#     4  11  23  44  69  98 132 175 219 272 331 387
#
# _framework density 21.684521
#
# number of rings (size 3 to 8) (size 9 to 14) (size 15 to 20)
#    0.000    0.857    5.714    1.714    0.000    2.857 
#    0.000    0.000    0.000    0.000    0.000    0.000 
#    0.000    0.000    0.000    0.000    0.000    0.000 
#
# Total GULP energy -78216.932935 kJ/mol
# GULP energy per Si atom -5586.923781 kJ/mol
# Density = 2.163517 g / cm^3
# Si number density = 21.684521 Si / 1000 Ang^3
#
#
#
# Elastic Constant Matrix: (Units=GPa)
#
#
# Indices 1 2 3 4 5 6 
#
# 1 77.2055 19.8774 -0.3018 1.7472 1.0003 -6.2779
# 2 19.8774 99.7106 26.0764 -4.2287 3.9959 -13.2181
# 3 -0.3018 26.0764 61.7188 -8.9040 -2.3345 8.9188
# 4 1.7472 -4.2287 -8.9040 40.5172 1.1824 4.9094
# 5 1.0003 3.9959 -2.3345 1.1824 19.2092 -5.5546
# 6 -6.2779 -13.2181 8.9188 4.9094 -5.5546 23.0934
#
#
#
# Elastic Compliance Matrix: (Units=1/GPa)
#
#
# Indices 1 2 3 4 5 6 
#
# 1 0.013858 -0.002732 0.000772 -0.001008 0.000661 0.002279
# 2 -0.002732 0.013884 -0.007577 -0.001324 -0.000617 0.010264
# 3 0.000772 -0.007577 0.022254 0.005766 -0.000159 -0.013986
# 4 -0.001008 -0.001324 0.005766 0.027151 -0.003497 -0.009872
# 5 0.000661 -0.000617 -0.000159 -0.003497 0.056458 0.014211
# 6 0.002279 0.010264 -0.013986 -0.009872 0.014211 0.060715
#
#
# Mechanical properties :
#
#
# Convention : Reuss Voigt Hill
#
# Bulk Modulus (GPa) = 32.33755 36.65988 34.49872
# Shear Modulus (GPa) = 22.35112 29.42948 25.89030
#
# Velocity S-wave (km/s) = 3.21400 3.68797 3.45911
# Velocity P-wave (km/s) = 5.35893 5.92263 5.64782
#
# Compressibility (1/GPa) = 0.03092380
#
# Stress axis : x y z
#
# Youngs Moduli (GPa) = 72.15859 72.02342 44.93478
#
# Poissons Ratio (x) = 0.19675 -0.03470
# Poissons Ratio (y) = 0.19712 0.34047
# Poissons Ratio (z) = -0.05572 0.54573
#
# Static dielectric constant tensor:
#      x y z
#    x 1.794090 0.003580 -0.024050 
#    y 0.003580 1.817810 0.004450 
#    z -0.024050 0.004450 1.781120 
# 
# From -- ./inp_files/171856.got.cif
#   From: 2010.05.17/outbox.cif.g08.bks.cpg/sg2_86_cif.got.tgz:171856.got - 2010.06.03 11:33:40.
