data_PCOD9042822
_publ_section_title
;
Structure prediction by ZEFSAII (Michael W. Deem and Ramdas Pophale) SiO2 
 PCOD9042822
Probable space group: P -1
;
_chemical_formula_sum "Si O2"
_cell_formula_units_Z 12
_cell_length_a 11.313359
_cell_length_b 14.489670
_cell_length_c 7.308766
_cell_angle_alpha 59.205054
_cell_angle_beta 121.804626
_cell_angle_gamma 148.960853
_cell_volume 520.000099
_symmetry_space_group_name_H-M "P -1"
_symmetry_group_IT_number 2
_symmetry_cell_setting 'triclinic'
loop_
_space_group_symop_operation_xyz
x,y,z
-x,-y,-z
loop_
_atom_site_type_symbol
_atom_site_label
_atom_site_fract_x
_atom_site_fract_y
_atom_site_fract_z
Si Si1 0.357189 0.206470 0.541126
Si Si2 0.878272 0.516225 0.630560
Si Si3 0.910107 0.866180 0.294023
Si Si4 0.088474 0.429057 0.990043
Si Si5 0.411832 0.150819 0.018098
Si Si6 0.082575 0.789112 0.258807
O O1 0.614412 0.380402 0.494516
O O2 0.262924 0.244673 0.556059
O O3 0.384871 0.129618 0.796383
O O4 0.158528 0.055173 0.389128
O O5 0.902586 0.406224 0.811585
O O6 0.061832 0.664970 0.476260
O O7 0.929431 0.606709 0.773794
O O8 0.787214 0.885030 0.060533
O O9 0.943376 0.782755 0.285017
O O10 0.045195 0.305062 0.943949
O O11 0.338796 0.642222 0.949729
O O12 0.336203 0.995694 0.213392
#
# Coordination Sequence:
#
# PCOD9042822 Si02
#       6
#     2   2   2   2   2   2
#     4   8  19  42  65  84 137 162 198 262 306 367
#     4  10  23  45  63  91 124 171 205 260 309 358
#     4   9  20  40  64  94 127 163 206 252 316 370
#     4  10  24  46  62  90 133 157 214 259 303 374
#     4   9  21  43  60  94 129 161 199 262 310 363
#     4  12  24  37  70  97 118 169 211 250 318 367
#
# _framework density 23.076917999999999
#
# number of rings (size 3 to 8) (size 9 to 14) (size 15 to 20)
#    1.000    1.333    0.000    1.000    4.667    2.000 
#    6.000    2.500    0.000    0.000    0.000    0.000 
#    0.000    0.000    0.000    0.000    0.000    0.000 
#
# Total GULP energy -66949.646612 kJ/mol
# GULP energy per Si atom -5579.137218 kJ/mol
# Density = 2.302439 g / cm^3
# Si number density = 23.076918 Si / 1000 Ang^3
#
#
#
# Elastic Constant Matrix: (Units=GPa)
#
#
# Indices 1 2 3 4 5 6 
#
# 1 71.3323 28.7567 18.3589 28.5269 -18.9679 -12.2908
# 2 28.7567 84.8506 13.4257 9.3619 -16.8663 12.1252
# 3 18.3589 13.4257 35.6027 -4.2927 -12.7460 4.0998
# 4 28.5269 9.3619 -4.2927 39.3560 4.0582 -6.5622
# 5 -18.9679 -16.8663 -12.7460 4.0582 26.8228 4.2569
# 6 -12.2908 12.1252 4.0998 -6.5622 4.2569 26.5630
#
#
#
# Elastic Compliance Matrix: (Units=1/GPa)
#
#
# Indices 1 2 3 4 5 6 
#
# 1 0.039140 -0.005754 -0.016353 -0.028481 0.018493 0.013261
# 2 -0.005754 0.017907 0.001069 -0.003284 0.010334 -0.013469
# 3 -0.016353 0.001069 0.042542 0.013124 0.009382 -0.012882
# 4 -0.028481 -0.003284 0.013124 0.051229 -0.024168 0.002824
# 5 0.018493 0.010334 0.009382 -0.024168 0.067250 -0.014356
# 6 0.013261 -0.013469 -0.012882 0.002824 -0.014356 0.054917
#
#
# Mechanical properties :
#
#
# Convention : Reuss Voigt Hill
#
# Bulk Modulus (GPa) = 17.38750 34.76313 26.07532
# Shear Modulus (GPa) = 14.95964 27.29801 21.12883
#
# Velocity S-wave (km/s) = 2.54884 3.44308 3.02914
# Velocity P-wave (km/s) = 4.02654 5.55906 4.85367
#
# Compressibility (1/GPa) = 0.05751257
#
# Stress axis : x y z
#
# Youngs Moduli (GPa) = 25.54955 55.84255 23.50610
#
# Poissons Ratio (x) = 0.32131 0.38440
# Poissons Ratio (y) = 0.14701 -0.02512
# Poissons Ratio (z) = 0.41782 -0.05968
#
# Static dielectric constant tensor:
#      x y z
#    x 1.903600 -0.014690 -0.015600 
#    y -0.014690 1.863180 -0.052510 
#    z -0.015600 -0.052510 1.926890 
# 
# From -- ./inp_files/177126.got.cif
#   From: 2010.05.17/outbox.cif.g08.bks.cpg/sg2_89_cif.got.tgz:177126.got - 2010.06.03 11:33:40.
