data_PCOD9042404
_publ_section_title
;
Structure prediction by ZEFSAII (Michael W. Deem and Ramdas Pophale) SiO2 
 PCOD9042404
Probable space group: P -1
;
_chemical_formula_sum "Si O2"
_cell_formula_units_Z 12
_cell_length_a 5.019343
_cell_length_b 17.552671
_cell_length_c 9.762639
_cell_angle_alpha 123.821098
_cell_angle_beta 46.548677
_cell_angle_gamma 125.924499
_cell_volume 488.194371
_symmetry_space_group_name_H-M "P -1"
_symmetry_group_IT_number 2
_symmetry_cell_setting 'triclinic'
loop_
_space_group_symop_operation_xyz
x,y,z
-x,-y,-z
loop_
_atom_site_type_symbol
_atom_site_label
_atom_site_fract_x
_atom_site_fract_y
_atom_site_fract_z
Si Si1 0.568784 0.587731 0.466052
Si Si2 0.484265 0.779452 0.679992
Si Si3 0.436426 0.728979 0.339651
Si Si4 0.293237 0.442589 0.885988
Si Si5 0.566925 0.933947 0.032746
Si Si6 0.343597 0.894622 0.380601
O O1 0.500000 0.500000 0.500000
O O2 0.393696 0.669342 0.649970
O O3 0.416026 0.543172 0.329363
O O4 0.033670 0.649289 0.348197
O O5 0.312124 0.763479 0.567157
O O6 0.919049 0.841636 0.539104
O O7 0.458046 0.835382 0.883930
O O8 0.753971 0.673018 0.186596
O O9 0.557586 0.820072 0.283062
O O10 0.500000 0.500000 0.000000
O O11 0.000000 0.500000 0.000000
O O12 0.346365 0.910432 0.232815
O O13 0.500000 0.000000 0.000000
O O14 0.000000 0.000000 0.000000
O O15 0.500000 0.000000 0.500000
#
# Coordination Sequence:
#
# PCOD9042404 Si02
#       6
#     2   2   2   2   2   2
#     4  10  23  45  70 102 140 190 235 301 365 426
#     4  10  24  44  69 103 147 187 243 295 362 433
#     4  10  23  44  71 103 147 192 245 296 368 435
#     4  11  22  43  70 100 138 183 239 296 353 431
#     4  12  27  45  72 109 143 190 245 297 363 436
#     4  11  23  44  74 101 147 194 238 300 365 430
#
# _framework density 24.580373000000002
#
# number of rings (size 3 to 8) (size 9 to 14) (size 15 to 20)
#    0.000    1.333    3.333    1.000    4.667    5.333 
#    0.000    0.000    0.000    0.000    0.000    0.000 
#    0.000    0.000    0.000    0.000    0.000    0.000 
#
# Total GULP energy -66804.308968 kJ/mol
# GULP energy per Si atom -5567.025747 kJ/mol
# Density = 2.452443 g / cm^3
# Si number density = 24.580373 Si / 1000 Ang^3
#
#
#
# Elastic Constant Matrix: (Units=GPa)
#
#
# Indices 1 2 3 4 5 6 
#
# 1 121.6516 44.2533 38.4400 0.7917 33.9127 -27.0829
# 2 44.2533 190.3622 71.4466 3.3949 27.1573 -42.3401
# 3 38.4400 71.4466 188.7142 19.0002 59.6142 -16.1152
# 4 0.7917 3.3949 19.0002 38.9532 4.8201 1.1948
# 5 33.9127 27.1573 59.6142 4.8201 48.2490 -5.3367
# 6 -27.0829 -42.3401 -16.1152 1.1948 -5.3367 47.2119
#
#
#
# Elastic Compliance Matrix: (Units=1/GPa)
#
#
# Indices 1 2 3 4 5 6 
#
# 1 0.011752 -0.000669 0.001006 0.000216 -0.008538 0.005514
# 2 -0.000669 0.007503 -0.002061 0.000271 -0.000618 0.005565
# 3 0.001006 -0.002061 0.009846 -0.003274 -0.011285 0.000896
# 4 0.000216 0.000271 -0.003274 0.027173 0.000878 -0.001339
# 5 -0.008538 -0.000618 -0.011285 0.000878 0.040404 -0.004759
# 6 0.005514 0.005565 0.000896 -0.001339 -0.004759 0.029137
#
#
# Mechanical properties :
#
#
# Convention : Reuss Voigt Hill
#
# Bulk Modulus (GPa) = 38.98312 89.88978 64.43645
# Shear Modulus (GPa) = 36.28034 49.98869 43.13451
#
# Velocity S-wave (km/s) = 3.84603 4.51453 4.19362
# Velocity P-wave (km/s) = 5.96795 7.98898 7.05125
#
# Compressibility (1/GPa) = 0.02565213
#
# Stress axis : x y z
#
# Youngs Moduli (GPa) = 85.09146 133.27291 101.56590
#
# Poissons Ratio (x) = 0.08912 -0.10213
# Poissons Ratio (y) = 0.05690 0.20937
# Poissons Ratio (z) = -0.08556 0.27473
#
# Static dielectric constant tensor:
#      x y z
#    x 2.178890 -0.036940 0.014450 
#    y -0.036940 2.483930 0.300030 
#    z 0.014450 0.300030 2.139160 
# 
# From -- ./inp_files/134554.got.cif
#   From: 2010.05.17/outbox.cif.g08.bks.cpg/sg2_68_cif.got.tgz:134554.got - 2010.06.03 11:33:40.
