data_PCOD9042799
_publ_section_title
;
Structure prediction by ZEFSAII (Michael W. Deem and Ramdas Pophale) SiO2 
 PCOD9042799
Probable space group: P -1
;
_chemical_formula_sum "Si O2"
_cell_formula_units_Z 12
_cell_length_a 9.247957
_cell_length_b 9.600770
_cell_length_c 15.325499
_cell_angle_alpha 146.998937
_cell_angle_beta 57.002558
_cell_angle_gamma 130.107027
_cell_volume 566.808354
_symmetry_space_group_name_H-M "P -1"
_symmetry_group_IT_number 2
_symmetry_cell_setting 'triclinic'
loop_
_space_group_symop_operation_xyz
x,y,z
-x,-y,-z
loop_
_atom_site_type_symbol
_atom_site_label
_atom_site_fract_x
_atom_site_fract_y
_atom_site_fract_z
Si Si1 0.014165 0.632466 0.721504
Si Si2 0.325280 0.421646 0.448124
Si Si3 0.488461 0.350595 0.016788
Si Si4 0.602394 0.326753 0.631527
Si Si5 0.867203 0.097832 0.012987
Si Si6 0.182885 0.797222 0.106122
O O1 0.821509 0.412358 0.628081
O O2 0.188948 0.572847 0.600084
O O3 0.011839 0.629593 0.826926
O O4 0.992076 0.922676 0.858106
O O5 0.500000 0.500000 0.500000
O O6 0.408829 0.545582 0.391279
O O7 0.196761 0.086810 0.299283
O O8 0.487856 0.550855 0.200799
O O9 0.500000 0.500000 0.000000
O O10 0.661615 0.267718 0.928148
O O11 0.295739 0.080495 0.958659
O O12 0.500000 0.000000 0.500000
O O13 0.771388 0.128359 0.972021
O O14 0.000000 0.500000 0.000000
#
# Coordination Sequence:
#
# PCOD9042799 Si02
#       6
#     2   2   2   2   2   2
#     4  10  23  44  77  94 143 179 241 284 368 410
#     4  12  27  47  71 106 146 190 234 297 357 425
#     4  11  26  45  72  98 144 186 236 289 355 425
#     4  11  27  44  71 105 138 185 238 291 359 422
#     4  10  23  46  75 101 136 191 237 295 357 422
#     4  12  28  44  72 106 142 188 245 294 354 419
#
# _framework density 21.171178999999999
#
# number of rings (size 3 to 8) (size 9 to 14) (size 15 to 20)
#    0.000    1.000    3.333    2.000   16.333    0.000 
#    0.000    1.667    0.000    0.000    0.000    0.000 
#    0.000    0.000    0.000    0.000    0.000    0.000 
#
# Total GULP energy -66976.350862 kJ/mol
# GULP energy per Si atom -5581.362572 kJ/mol
# Density = 2.112299 g / cm^3
# Si number density = 21.171179 Si / 1000 Ang^3
#
#
#
# Elastic Constant Matrix: (Units=GPa)
#
#
# Indices 1 2 3 4 5 6 
#
# 1 109.8792 50.7965 55.4904 7.9453 13.2647 -30.4527
# 2 50.7965 107.7166 63.8488 2.0186 3.5370 -19.1927
# 3 55.4904 63.8488 110.8038 -10.5931 1.5578 -8.3303
# 4 7.9453 2.0186 -10.5931 29.2553 5.5033 12.5342
# 5 13.2647 3.5370 1.5578 5.5033 43.9042 2.6945
# 6 -30.4527 -19.1927 -8.3303 12.5342 2.6945 33.3777
#
#
#
# Elastic Compliance Matrix: (Units=1/GPa)
#
#
# Indices 1 2 3 4 5 6 
#
# 1 0.027347 0.002662 -0.015137 -0.025966 -0.006710 0.032996
# 2 0.002662 0.017735 -0.011611 -0.012081 -0.001188 0.014362
# 3 -0.015137 -0.011611 0.023680 0.022923 0.003234 -0.023447
# 4 -0.025966 -0.012081 0.022923 0.072356 0.002143 -0.052261
# 5 -0.006710 -0.001188 0.003234 0.002143 0.025058 -0.008825
# 6 0.032996 0.014362 -0.023447 -0.052261 -0.008825 0.082809
#
#
# Mechanical properties :
#
#
# Convention : Reuss Voigt Hill
#
# Bulk Modulus (GPa) = 48.56754 74.29677 61.43215
# Shear Modulus (GPa) = 16.44633 31.85838 24.15235
#
# Velocity S-wave (km/s) = 2.79018 3.88338 3.38126
# Velocity P-wave (km/s) = 5.77671 7.43486 6.65761
#
# Compressibility (1/GPa) = 0.02058988
#
# Stress axis : x y z
#
# Youngs Moduli (GPa) = 36.56728 56.38556 42.23039
#
# Poissons Ratio (x) = -0.15012 0.63923
# Poissons Ratio (y) = -0.09735 0.49035
# Poissons Ratio (z) = 0.55351 0.65471
#
# Static dielectric constant tensor:
#      x y z
#    x 1.981570 0.063480 0.191780 
#    y 0.063480 1.787590 0.050400 
#    z 0.191780 0.050400 1.890260 
# 
# From -- ./inp_files/495952.got.cif
#   From: 2010.05.17/outbox.cif.g08.bks.cpg/sg2_248_cif.got.tgz:495952.got - 2010.06.03 11:33:40.
