data_PCOD9042732
_publ_section_title
;
Structure prediction by ZEFSAII (Michael W. Deem and Ramdas Pophale) SiO2 
 PCOD9042732
Probable space group: P -1
;
_chemical_formula_sum "Si O2"
_cell_formula_units_Z 14
_cell_length_a 11.462588
_cell_length_b 8.683668
_cell_length_c 14.385107
_cell_angle_alpha 55.800208
_cell_angle_beta 147.426951
_cell_angle_gamma 115.102350
_cell_volume 633.635658
_symmetry_space_group_name_H-M "P -1"
_symmetry_group_IT_number 2
_symmetry_cell_setting 'triclinic'
loop_
_space_group_symop_operation_xyz
x,y,z
-x,-y,-z
loop_
_atom_site_type_symbol
_atom_site_label
_atom_site_fract_x
_atom_site_fract_y
_atom_site_fract_z
Si Si1 0.415648 0.890578 0.622126
Si Si2 0.565628 0.207819 0.959201
Si Si3 0.792409 0.790572 0.759389
Si Si4 0.220637 0.530691 0.690276
Si Si5 0.549437 0.800435 0.327059
Si Si6 0.957464 0.373184 0.259709
Si Si7 0.175471 0.608062 0.184940
O O1 0.615776 0.832987 0.707389
O O2 0.306311 0.710408 0.639432
O O3 0.257706 0.047169 0.405897
O O4 0.484533 0.989484 0.729086
O O5 0.397506 0.354140 0.851975
O O6 0.532263 0.241718 0.815743
O O7 0.804397 0.250038 0.138912
O O8 0.500000 0.000000 0.000000
O O9 0.774886 0.586377 0.772239
O O10 0.030067 0.764854 0.974041
O O11 0.166429 0.567887 0.748921
O O12 0.000000 0.500000 0.500000
O O13 0.400697 0.687815 0.333064
O O14 0.806837 0.737662 0.523031
O O15 0.022740 0.551137 0.185302
#
# Coordination Sequence:
#
# PCOD9042732 Si02
#       7
#     2   2   2   2   2   2   2
#     4  11  25  44  70 109 147 188 244 292 363 426
#     4  12  28  49  76 107 143 191 243 298 364 430
#     4  10  23  44  75 102 148 189 239 304 345 434
#     4  12  27  47  74 105 144 192 239 298 364 429
#     4  12  26  44  75 110 144 193 237 300 360 428
#     4  12  26  47  75 107 152 187 239 304 351 432
#     4  11  23  45  72 108 141 192 246 288 366 414
#
# _framework density 22.094715999999998
#
# number of rings (size 3 to 8) (size 9 to 14) (size 15 to 20)
#    0.000    0.571    2.857    5.143    2.000    4.000 
#    0.000    0.000    0.000    0.000    0.000    0.000 
#    0.000    0.000    0.000    0.000    0.000    0.000 
#
# Total GULP energy -78366.614901 kJ/mol
# GULP energy per Si atom -5597.615350 kJ/mol
# Density = 2.204443 g / cm^3
# Si number density = 22.094716 Si / 1000 Ang^3
#
#
#
# Elastic Constant Matrix: (Units=GPa)
#
#
# Indices 1 2 3 4 5 6 
#
# 1 148.8186 59.1735 65.3950 2.2212 12.0794 -9.8253
# 2 59.1735 142.3671 62.1550 6.3632 14.0919 15.4197
# 3 65.3950 62.1550 126.6110 13.5347 14.6639 -0.8876
# 4 2.2212 6.3632 13.5347 45.0542 -6.2243 4.4546
# 5 12.0794 14.0919 14.6639 -6.2243 30.7049 10.3619
# 6 -9.8253 15.4197 -0.8876 4.4546 10.3619 31.1501
#
#
#
# Elastic Compliance Matrix: (Units=1/GPa)
#
#
# Indices 1 2 3 4 5 6 
#
# 1 0.009956 -0.003012 -0.003300 -0.000002 -0.002805 0.005471
# 2 -0.003012 0.010565 -0.003780 0.000495 0.000437 -0.006504
# 3 -0.003300 -0.003780 0.012485 -0.004067 -0.004900 0.003397
# 4 -0.000002 0.000495 -0.004067 0.025320 0.009228 -0.007052
# 5 -0.002805 0.000437 -0.004900 0.009228 0.043420 -0.017004
# 6 0.005471 -0.006504 0.003397 -0.007052 -0.017004 0.043809
#
#
# Mechanical properties :
#
#
# Convention : Reuss Voigt Hill
#
# Bulk Modulus (GPa) = 77.99451 87.91595 82.95523
# Shear Modulus (GPa) = 29.40922 36.78673 33.09797
#
# Velocity S-wave (km/s) = 3.65232 4.08481 3.87460
# Velocity P-wave (km/s) = 7.29127 7.88191 7.59233
#
# Compressibility (1/GPa) = 0.01282141
#
# Stress axis : x y z
#
# Youngs Moduli (GPa) = 100.43700 94.64780 80.09897
#
# Poissons Ratio (x) = 0.28510 0.26435
# Poissons Ratio (y) = 0.30254 0.30277
# Poissons Ratio (z) = 0.33147 0.35777
#
# Static dielectric constant tensor:
#      x y z
#    x 1.841240 0.020730 -0.037250 
#    y 0.020730 1.774400 0.001890 
#    z -0.037250 0.001890 1.842130 
# 
# From -- ./inp_files/515144.got.cif
#   From: 2010.05.17/outbox.cif.g08.bks.cpg/sg2_258_cif.got.tgz:515144.got - 2010.06.03 11:33:40.
