data_PCOD9042725
_publ_section_title
;
Structure prediction by ZEFSAII (Michael W. Deem and Ramdas Pophale) SiO2 
 PCOD9042725
Probable space group: P -1
;
_chemical_formula_sum "Si O2"
_cell_formula_units_Z 16
_cell_length_a 5.872527
_cell_length_b 11.719076
_cell_length_c 26.151954
_cell_angle_alpha 150.444340
_cell_angle_beta 61.484976
_cell_angle_gamma 128.186400
_cell_volume 689.283622
_symmetry_space_group_name_H-M "P -1"
_symmetry_group_IT_number 2
_symmetry_cell_setting 'triclinic'
loop_
_space_group_symop_operation_xyz
x,y,z
-x,-y,-z
loop_
_atom_site_type_symbol
_atom_site_label
_atom_site_fract_x
_atom_site_fract_y
_atom_site_fract_z
Si Si1 0.258919 0.263427 0.467379
Si Si2 0.386869 0.687996 0.111860
Si Si3 0.481024 0.256019 0.082021
Si Si4 0.795289 0.422109 0.541956
Si Si5 0.006618 0.833304 0.761083
Si Si6 0.024029 0.675562 0.237837
Si Si7 0.328001 0.868021 0.084866
Si Si8 0.976089 0.341898 0.204586
O O1 0.500000 0.500000 0.500000
O O2 0.455718 0.278606 0.502808
O O3 0.960910 0.296844 0.511039
O O4 0.157647 0.984822 0.342778
O O5 0.193953 0.586536 0.143632
O O6 0.227550 0.743144 0.102475
O O7 0.500000 0.500000 0.000000
O O8 0.653268 0.971320 0.208175
O O9 0.158126 0.216966 0.108306
O O10 0.688220 0.509048 0.191723
O O11 0.605571 0.302553 0.029470
O O12 0.500000 0.000000 0.000000
O O13 0.848080 0.682180 0.668411
O O14 0.000000 0.500000 0.500000
O O15 0.946935 0.626892 0.732065
O O16 0.892367 0.030653 0.871238
O O17 0.040350 0.590240 0.260473
O O18 0.637369 0.129625 0.157671
#
# Coordination Sequence:
#
# PCOD9042725 Si02
#       8
#     2   2   2   2   2   2   2   2
#     4  10  24  46  70 106 138 187 239 303 369 431
#     4  11  25  40  63 106 147 180 234 294 366 432
#     4  12  23  42  68 103 139 191 236 280 355 432
#     4  10  23  44  74  99 139 182 243 295 367 430
#     4  11  24  43  72 100 137 190 234 301 363 431
#     4  12  26  42  73 102 143 186 240 298 362 438
#     4  11  24  42  68  99 145 187 233 291 356 436
#     4  11  24  43  69  98 145 186 242 281 361 427
#
# _framework density 23.212506999999999
#
# number of rings (size 3 to 8) (size 9 to 14) (size 15 to 20)
#    0.000    1.000    2.500    3.375   10.500    3.000 
#    0.000    1.250    0.000    0.000    0.000    0.000 
#    0.000    0.000    0.000    0.000    0.000    0.000 
#
# Total GULP energy -89347.634978 kJ/mol
# GULP energy per Si atom -5584.227186 kJ/mol
# Density = 2.315967 g / cm^3
# Si number density = 23.212507 Si / 1000 Ang^3
#
#
#
# Elastic Constant Matrix: (Units=GPa)
#
#
# Indices 1 2 3 4 5 6 
#
# 1 100.2227 16.5084 14.6490 0.4736 4.3925 4.3802
# 2 16.5084 94.8564 11.9719 -0.1229 5.5747 -5.2456
# 3 14.6490 11.9719 96.6623 9.1696 17.1539 -1.5119
# 4 0.4736 -0.1229 9.1696 33.3684 -2.1358 1.4887
# 5 4.3925 5.5747 17.1539 -2.1358 36.2451 -2.1815
# 6 4.3802 -5.2456 -1.5119 1.4887 -2.1815 31.5563
#
#
#
# Elastic Compliance Matrix: (Units=1/GPa)
#
#
# Indices 1 2 3 4 5 6 
#
# 1 0.010564 -0.001743 -0.001357 0.000270 -0.000466 -0.001866
# 2 -0.001743 0.011128 -0.000935 0.000175 -0.000929 0.001974
# 3 -0.001357 -0.000935 0.012008 -0.003658 -0.005566 0.000396
# 4 0.000270 0.000175 -0.003658 0.031253 0.003428 -0.001421
# 5 -0.000466 -0.000929 -0.005566 0.003428 0.030722 0.001606
# 6 -0.001866 0.001974 0.000396 -0.001421 0.001606 0.032474
#
#
# Mechanical properties :
#
#
# Convention : Reuss Voigt Hill
#
# Bulk Modulus (GPa) = 39.01745 42.00001 40.50873
# Shear Modulus (GPa) = 34.53961 36.80809 35.67385
#
# Velocity S-wave (km/s) = 3.86161 3.98641 3.92450
# Velocity P-wave (km/s) = 6.06036 6.27069 6.16642
#
# Compressibility (1/GPa) = 0.02562956
#
# Stress axis : x y z
#
# Youngs Moduli (GPa) = 94.66189 89.86724 83.27928
#
# Poissons Ratio (x) = 0.15661 0.11302
# Poissons Ratio (y) = 0.16496 0.07787
# Poissons Ratio (z) = 0.12847 0.08403
#
# Static dielectric constant tensor:
#      x y z
#    x 1.958530 -0.039390 0.014510 
#    y -0.039390 1.852980 0.012210 
#    z 0.014510 0.012210 1.841820 
# 
# From -- ./inp_files/72377.got.cif
#   From: 2010.05.17/outbox.cif.g08.bks.cpg/sg2_37_cif.got.tgz:72377.got - 2010.06.03 11:33:40.
