data_PCOD9042534
_publ_section_title
;
Structure prediction by ZEFSAII (Michael W. Deem and Ramdas Pophale) SiO2 
 PCOD9042534
Probable space group: P -1
;
_chemical_formula_sum "Si O2"
_cell_formula_units_Z 12
_cell_length_a 9.309853
_cell_length_b 17.185520
_cell_length_c 12.922997
_cell_angle_alpha 156.060749
_cell_angle_beta 36.685344
_cell_angle_gamma 137.337158
_cell_volume 501.192593
_symmetry_space_group_name_H-M "P -1"
_symmetry_group_IT_number 2
_symmetry_cell_setting 'triclinic'
loop_
_space_group_symop_operation_xyz
x,y,z
-x,-y,-z
loop_
_atom_site_type_symbol
_atom_site_label
_atom_site_fract_x
_atom_site_fract_y
_atom_site_fract_z
Si Si1 0.147783 0.870589 0.020253
Si Si2 0.279761 0.041878 0.364255
Si Si3 0.791166 0.894587 0.928426
Si Si4 0.222783 0.439322 0.110035
Si Si5 0.193418 0.486131 0.960878
Si Si6 0.699928 0.520600 0.648609
O O1 0.276186 0.686240 0.670830
O O2 0.143946 0.042946 0.150161
O O3 0.884001 0.780010 0.091351
O O4 0.289123 0.943658 0.126979
O O5 0.287518 0.269412 0.642782
O O6 0.519185 0.970351 0.196164
O O7 0.000000 0.000000 0.500000
O O8 0.791167 0.677663 0.704523
O O9 0.000000 0.000000 0.000000
O O10 0.105827 0.523012 0.173203
O O11 0.500000 0.500000 0.000000
O O12 0.191824 0.494758 0.316189
O O13 0.431813 0.596573 0.922409
O O14 0.000000 0.500000 0.000000
#
# Coordination Sequence:
#
# PCOD9042534 Si02
#       6
#     2   2   2   2   2   2
#     4  12  25  48  75 106 157 195 249 322 366 453
#     4  12  26  50  73 110 156 195 255 312 374 455
#     4  12  27  47  77 116 149 199 255 307 380 456
#     4  10  23  44  72 105 146 195 246 308 368 442
#     4  11  24  48  76 108 148 201 252 309 379 449
#     4  11  25  47  74 105 154 196 250 309 382 440
#
# _framework density 23.942889999999998
#
# number of rings (size 3 to 8) (size 9 to 14) (size 15 to 20)
#    0.000    0.667    5.000    2.000    0.000    2.000 
#    0.000    3.333    0.000    0.000    0.000    0.000 
#    0.000    0.000    0.000    0.000    0.000    0.000 
#
# Total GULP energy -66908.023303 kJ/mol
# GULP energy per Si atom -5575.668609 kJ/mol
# Density = 2.388840 g / cm^3
# Si number density = 23.942890 Si / 1000 Ang^3
#
#
#
# Elastic Constant Matrix: (Units=GPa)
#
#
# Indices 1 2 3 4 5 6 
#
# 1 175.1718 46.5733 63.3478 -19.7354 -10.5324 -22.2256
# 2 46.5733 195.7422 50.8482 -15.5416 -4.8591 -17.4840
# 3 63.3478 50.8482 100.3604 -2.5059 0.2136 -20.9373
# 4 -19.7354 -15.5416 -2.5059 36.3908 -3.7253 -6.2475
# 5 -10.5324 -4.8591 0.2136 -3.7253 55.9429 -5.5634
# 6 -22.2256 -17.4840 -20.9373 -6.2475 -5.5634 40.3529
#
#
#
# Elastic Compliance Matrix: (Units=1/GPa)
#
#
# Indices 1 2 3 4 5 6 
#
# 1 0.008498 -0.000092 -0.004482 0.005081 0.002287 0.003417
# 2 -0.000092 0.006230 -0.002646 0.002837 0.000906 0.001840
# 3 -0.004482 -0.002646 0.014848 -0.002003 -0.000900 0.003655
# 4 0.005081 0.002837 -0.002003 0.033247 0.004293 0.008728
# 5 0.002287 0.000906 -0.000900 0.004293 0.019120 0.004486
# 6 0.003417 0.001840 0.003655 0.008728 0.004486 0.031327
#
#
# Mechanical properties :
#
#
# Convention : Reuss Voigt Hill
#
# Bulk Modulus (GPa) = 66.06814 88.09035 77.07925
# Shear Modulus (GPa) = 37.66369 47.23765 42.45067
#
# Velocity S-wave (km/s) = 3.97049 4.44659 4.21527
# Velocity P-wave (km/s) = 6.97665 7.95202 7.48025
#
# Compressibility (1/GPa) = 0.01513589
#
# Stress axis : x y z
#
# Youngs Moduli (GPa) = 117.68071 160.51305 67.34897
#
# Poissons Ratio (x) = 0.01478 0.30187
# Poissons Ratio (y) = 0.01084 0.17818
# Poissons Ratio (z) = 0.52747 0.42465
#
# Static dielectric constant tensor:
#      x y z
#    x 1.998740 0.104880 -0.065560 
#    y 0.104880 1.944140 0.043400 
#    z -0.065560 0.043400 2.139220 
# 
# From -- ./inp_files/233436.got.cif
#   From: 2010.05.17/outbox.cif.g08.bks.cpg/sg2_117_cif.got.tgz:233436.got - 2010.06.03 11:33:40.
