data_PCOD9042287
_publ_section_title
;
Structure prediction by ZEFSAII (Michael W. Deem and Ramdas Pophale) SiO2 
 PCOD9042287
Probable space group: P -1
;
_chemical_formula_sum "Si O2"
_cell_formula_units_Z 12
_cell_length_a 8.976758
_cell_length_b 5.150673
_cell_length_c 22.250393
_cell_angle_alpha 91.367498
_cell_angle_beta 148.739008
_cell_angle_gamma 78.930258
_cell_volume 503.675029
_symmetry_space_group_name_H-M "P -1"
_symmetry_group_IT_number 2
_symmetry_cell_setting 'triclinic'
loop_
_space_group_symop_operation_xyz
x,y,z
-x,-y,-z
loop_
_atom_site_type_symbol
_atom_site_label
_atom_site_fract_x
_atom_site_fract_y
_atom_site_fract_z
Si Si1 0.132157 0.708647 0.079146
Si Si2 0.722505 0.064500 0.029445
Si Si3 0.133495 0.180283 0.757084
Si Si4 0.246790 0.115889 0.556172
Si Si5 0.083141 0.256042 0.247718
Si Si6 0.195208 0.424018 0.661056
O O1 0.491919 0.554883 0.205856
O O2 0.992141 0.800578 0.097498
O O3 0.000000 0.500000 0.000000
O O4 0.000000 0.000000 0.000000
O O5 0.875997 0.263794 0.116696
O O6 0.481347 0.157336 0.892847
O O7 0.500000 0.000000 0.000000
O O8 0.098987 0.231316 0.674272
O O9 0.950200 0.453997 0.732240
O O10 0.038846 0.928059 0.748488
O O11 0.291522 0.301740 0.627431
O O12 0.087079 0.302995 0.445941
O O13 0.567475 0.897493 0.648955
O O14 0.000000 0.000000 0.500000
#
# Coordination Sequence:
#
# PCOD9042287 Si02
#       6
#     2   2   2   2   2   2
#     4  12  27  44  75 109 143 186 238 298 364 427
#     4  10  23  44  70 106 147 184 233 291 362 427
#     4  11  26  44  74 104 145 186 241 296 363 424
#     4  11  28  48  76 100 146 196 246 301 353 429
#     4  11  26  47  71 106 143 194 236 294 358 432
#     4  11  27  48  71 108 144 191 247 299 359 431
#
# _framework density 23.824884999999998
#
# number of rings (size 3 to 8) (size 9 to 14) (size 15 to 20)
#    0.000    1.000    3.333    0.500   14.000    4.000 
#    0.000    0.000    0.000    0.000    0.000    0.000 
#    0.000    0.000    0.000    0.000    0.000    0.000 
#
# Total GULP energy -67100.677793 kJ/mol
# GULP energy per Si atom -5591.723149 kJ/mol
# Density = 2.377066 g / cm^3
# Si number density = 23.824885 Si / 1000 Ang^3
#
#
#
# Elastic Constant Matrix: (Units=GPa)
#
#
# Indices 1 2 3 4 5 6 
#
# 1 80.4849 -8.6070 20.5249 -7.5560 -1.9013 -2.3775
# 2 -8.6070 65.3726 -0.9754 7.6775 -2.4099 0.8168
# 3 20.5249 -0.9754 109.7644 -5.6858 12.9537 15.1286
# 4 -7.5560 7.6775 -5.6858 30.4497 -8.0052 5.3648
# 5 -1.9013 -2.4099 12.9537 -8.0052 43.2418 -13.9839
# 6 -2.3775 0.8168 15.1286 5.3648 -13.9839 38.9487
#
#
#
# Elastic Compliance Matrix: (Units=1/GPa)
#
#
# Indices 1 2 3 4 5 6 
#
# 1 0.013807 0.001523 -0.003163 0.002766 0.003041 0.002750
# 2 0.001523 0.015938 -0.000507 -0.003687 0.000650 0.000697
# 3 -0.003163 -0.000507 0.011339 0.001195 -0.005520 -0.006733
# 4 0.002766 -0.003687 0.001195 0.036657 0.005250 -0.003382
# 5 0.003041 0.000650 -0.005520 0.005250 0.029909 0.012331
# 6 0.002750 0.000697 -0.006733 -0.003382 0.012331 0.033337
#
#
# Mechanical properties :
#
#
# Convention : Reuss Voigt Hill
#
# Bulk Modulus (GPa) = 27.18040 30.83412 29.00726
# Shear Modulus (GPa) = 31.73740 38.84000 35.28870
#
# Velocity S-wave (km/s) = 3.65377 4.04199 3.85277
# Velocity P-wave (km/s) = 5.40678 5.89522 5.65627
#
# Compressibility (1/GPa) = 0.03679122
#
# Stress axis : x y z
#
# Youngs Moduli (GPa) = 72.42719 62.74221 88.19319
#
# Poissons Ratio (x) = -0.09559 0.27894
# Poissons Ratio (y) = -0.11034 0.04471
# Poissons Ratio (z) = 0.22908 0.03181
#
# Static dielectric constant tensor:
#      x y z
#    x 1.961210 -0.001560 -0.081520 
#    y -0.001560 1.912050 0.009560 
#    z -0.081520 0.009560 2.001070 
# 
# From -- ./inp_files/25430.got.cif
#   From: 2010.05.17/outbox.cif.g08.bks.cpg/sg2_13_cif.got.tgz:25430.got - 2010.06.03 11:33:40.
