data_PCOD9042410
_publ_section_title
;
Structure prediction by ZEFSAII (Michael W. Deem and Ramdas Pophale) SiO2 
 PCOD9042410
Probable space group: P -1
;
_chemical_formula_sum "Si O2"
_cell_formula_units_Z 13
_cell_length_a 14.148286
_cell_length_b 14.391876
_cell_length_c 12.013585
_cell_angle_alpha 148.983912
_cell_angle_beta 150.793910
_cell_angle_gamma 30.227071
_cell_volume 545.726247
_symmetry_space_group_name_H-M "P -1"
_symmetry_group_IT_number 2
_symmetry_cell_setting 'triclinic'
loop_
_space_group_symop_operation_xyz
x,y,z
-x,-y,-z
loop_
_atom_site_type_symbol
_atom_site_label
_atom_site_fract_x
_atom_site_fract_y
_atom_site_fract_z
Si Si1 0.660912 0.406817 0.214537
Si Si2 0.868711 0.864905 0.491135
Si Si3 0.764880 0.780356 0.728020
Si Si4 0.231304 0.516230 0.027937
Si Si5 0.518460 0.123166 0.249400
Si Si6 0.253152 0.938706 0.201208
Si Si7 0.500000 0.500000 0.500000
O O1 0.724099 0.589213 0.455393
O O2 0.872267 0.233120 0.320442
O O3 0.442526 0.475532 0.130434
O O4 0.638172 0.293280 0.964736
O O5 0.812595 0.679345 0.225102
O O6 0.732943 0.993368 0.590470
O O7 0.768226 0.014796 0.438203
O O8 0.628257 0.878141 0.799490
O O9 0.707359 0.927698 0.714623
O O10 0.017513 0.695765 0.936638
O O11 0.295243 0.537468 0.241100
O O12 0.444147 0.349717 0.365971
O O13 0.500000 0.000000 0.000000
O O14 0.000000 0.000000 0.000000
#
# Coordination Sequence:
#
# PCOD9042410 Si02
#       7
#     2   2   2   2   2   2   1
#     4  10  23  44  71 104 142 183 229 284 349 417
#     4  10  24  47  70 102 146 180 235 294 345 414
#     4  11  26  46  74 105 145 182 232 293 349 420
#     4  11  24  45  71 103 143 184 236 285 347 418
#     4  12  26  48  72 104 138 185 240 291 349 412
#     4  10  24  45  73 107 141 186 232 285 355 418
#     4  12  26  44  72 102 136 188 240 284 354 412
#
# _framework density 23.821467999999999
#
# number of rings (size 3 to 8) (size 9 to 14) (size 15 to 20)
#    0.000    1.231    3.077    0.923    4.308    9.846 
#    0.000    7.692    0.000    0.000    0.000    0.000 
#    0.000    0.000    0.000    0.000    0.000    0.000 
#
# Total GULP energy -72523.370654 kJ/mol
# GULP energy per Si atom -5578.720820 kJ/mol
# Density = 2.376725 g / cm^3
# Si number density = 23.821468 Si / 1000 Ang^3
#
#
#
# Elastic Constant Matrix: (Units=GPa)
#
#
# Indices 1 2 3 4 5 6 
#
# 1 84.3484 51.0267 21.9864 -17.4984 -2.5075 8.7111
# 2 51.0267 114.8478 47.3182 -21.2028 -8.2718 -2.1844
# 3 21.9864 47.3182 109.9907 -37.3116 -26.0790 4.6079
# 4 -17.4984 -21.2028 -37.3116 43.4211 -0.8577 6.1830
# 5 -2.5075 -8.2718 -26.0790 -0.8577 47.4302 -7.2609
# 6 8.7111 -2.1844 4.6079 6.1830 -7.2609 37.3141
#
#
#
# Elastic Compliance Matrix: (Units=1/GPa)
#
#
# Indices 1 2 3 4 5 6 
#
# 1 0.017893 -0.007802 0.002038 0.005990 -0.000089 -0.005895
# 2 -0.007802 0.014112 -0.005094 -0.001122 -0.000250 0.003414
# 3 0.002038 -0.005094 0.018069 0.014561 0.008852 -0.003696
# 4 0.005990 -0.001122 0.014561 0.038727 0.007572 -0.008206
# 5 -0.000089 -0.000250 0.008852 0.007572 0.026469 0.002809
# 6 -0.005895 0.003414 -0.003696 -0.008206 0.002809 0.030738
#
#
# Mechanical properties :
#
#
# Convention : Reuss Voigt Hill
#
# Bulk Modulus (GPa) = 35.26477 61.09438 48.17957
# Shear Modulus (GPa) = 28.21990 38.22343 33.22167
#
# Velocity S-wave (km/s) = 3.44560 4.01007 3.73850
# Velocity P-wave (km/s) = 5.53764 6.86610 6.23734
#
# Compressibility (1/GPa) = 0.02835691
#
# Stress axis : x y z
#
# Youngs Moduli (GPa) = 55.88731 70.85950 55.34251
#
# Poissons Ratio (x) = 0.55285 -0.11276
# Poissons Ratio (y) = 0.43604 0.28194
# Poissons Ratio (z) = -0.11387 0.36099
#
# Static dielectric constant tensor:
#      x y z
#    x 1.853490 -0.009820 -0.057660 
#    y -0.009820 1.966940 0.016940 
#    z -0.057660 0.016940 2.100190 
# 
# From -- ./inp_files/455320.got.cif
#   From: 2010.05.17/outbox.cif.g08.bks.cpg/sg2_228_cif.got.tgz:455320.got - 2010.06.03 11:33:40.
