data_PCOD9042124
_publ_section_title
;
Structure prediction by ZEFSAII (Michael W. Deem and Ramdas Pophale) SiO2 
 PCOD9042124
Probable space group: P -1
;
_chemical_formula_sum "Si O2"
_cell_formula_units_Z 14
_cell_length_a 6.567581
_cell_length_b 21.042841
_cell_length_c 5.329505
_cell_angle_alpha 76.827694
_cell_angle_beta 85.333360
_cell_angle_gamma 106.947705
_cell_volume 677.325537
_symmetry_space_group_name_H-M "P -1"
_symmetry_group_IT_number 2
_symmetry_cell_setting 'triclinic'
loop_
_space_group_symop_operation_xyz
x,y,z
-x,-y,-z
loop_
_atom_site_type_symbol
_atom_site_label
_atom_site_fract_x
_atom_site_fract_y
_atom_site_fract_z
Si Si1 0.141806 0.000000 0.235430
Si Si2 0.766524 0.766525 0.733474
Si Si3 0.219648 0.854946 0.402766
Si Si4 0.246163 0.364503 0.904386
Si Si5 0.517155 0.635497 0.633385
Si Si6 0.509759 0.145055 0.112652
Si Si7 0.876078 0.500000 0.263194
O O1 0.351288 0.067384 0.158912
O O2 0.216525 0.932618 0.293680
O O3 0.000000 0.000000 0.500000
O O4 0.000000 0.000000 0.000000
O O5 0.562067 0.713865 0.651768
O O6 0.655667 0.811052 0.871192
O O7 0.966434 0.811054 0.506706
O O8 0.865664 0.713865 0.920495
O O9 0.350770 0.850771 0.649231
O O10 0.334779 0.834780 0.165222
O O11 0.355359 0.355356 0.644648
O O12 0.156255 0.425740 0.799993
O O13 0.393529 0.393529 0.106475
O O14 0.304774 0.574261 0.651469
O O15 0.000000 0.500000 0.500000
O O16 0.000000 0.500000 0.000000
#
# Coordination Sequence:
#
# PCOD9042124 Si02
#       7
#     2   2   2   2   2   2   2
#     4  12  24  46  80  99 143 192 238 297 356 410
#     4  10  28  46  74  98 156 188 230 290 370 422
#     4  12  27  46  74 108 144 185 245 293 355 421
#     4  10  23  44  69  92 134 183 229 271 362 412
#     4  10  23  44  69  92 134 183 229 271 362 412
#     4  12  27  46  74 108 144 185 245 293 355 421
#     4  12  24  42  70 104 132 172 238 301 337 410
#
# _framework density 20.669529000000001
#
# number of rings (size 3 to 8) (size 9 to 14) (size 15 to 20)
#    0.857    0.000    1.429    5.143    4.000    1.143 
#    0.000    0.000    0.000    0.000    0.000    0.000 
#    0.000    0.000    0.000    0.000    0.000    0.000 
#
# Total GULP energy -77954.784610 kJ/mol
# GULP energy per Si atom -5568.198901 kJ/mol
# Density = 2.062248 g / cm^3
# Si number density = 20.669529 Si / 1000 Ang^3
#
#
#
# Elastic Constant Matrix: (Units=GPa)
#
#
# Indices 1 2 3 4 5 6 
#
# 1 74.6314 57.9234 47.5374 -2.6858 4.7785 11.7843
# 2 57.9234 166.4835 53.1751 -16.3687 -14.6895 -4.6358
# 3 47.5374 53.1751 157.0877 13.4980 3.1113 -3.4570
# 4 -2.6858 -16.3687 13.4980 38.0257 1.4237 8.0001
# 5 4.7785 -14.6895 3.1113 1.4237 59.9528 -11.9964
# 6 11.7843 -4.6358 -3.4570 8.0001 -11.9964 96.5604
#
#
#
# Elastic Compliance Matrix: (Units=1/GPa)
#
#
# Indices 1 2 3 4 5 6 
#
# 1 0.022427 -0.006641 -0.004659 0.001333 -0.003970 -0.003826
# 2 -0.006641 0.009499 -0.001565 0.003789 0.003104 0.001282
# 3 -0.004659 -0.001565 0.008705 -0.004329 -0.000131 0.001147
# 4 0.001333 0.003789 -0.004329 0.030127 -0.000200 -0.002657
# 5 -0.003970 0.003104 -0.000131 -0.000200 0.018354 0.002926
# 6 -0.003826 0.001282 0.001147 -0.002657 0.002926 0.011509
#
#
# Mechanical properties :
#
#
# Convention : Reuss Voigt Hill
#
# Bulk Modulus (GPa) = 67.10254 79.49717 73.29985
# Shear Modulus (GPa) = 38.07564 54.87890 46.47727
#
# Velocity S-wave (km/s) = 4.29664 5.15832 4.74707
# Velocity P-wave (km/s) = 7.55975 8.60362 8.09852
#
# Compressibility (1/GPa) = 0.01490257
#
# Stress axis : x y z
#
# Youngs Moduli (GPa) = 44.58899 105.27412 114.87208
#
# Poissons Ratio (x) = 0.69908 0.53519
# Poissons Ratio (y) = 0.29610 0.17975
# Poissons Ratio (z) = 0.20774 0.16473
#
# Static dielectric constant tensor:
#      x y z
#    x 1.777190 -0.008890 0.004200 
#    y -0.008890 1.605910 0.025860 
#    z 0.004200 0.025860 1.692710 
# 
# From -- ./inp_files/7506.got.cif
#   From: 2010.05.17/outbox.cif.g08.bks.cpg/sg2_4_cif.got.tgz:7506.got - 2010.06.03 11:33:40.
