data_PCOD9042807
_publ_section_title
;
Structure prediction by ZEFSAII (Michael W. Deem and Ramdas Pophale) SiO2 
 PCOD9042807
Probable space group: P -1
;
_chemical_formula_sum "Si O2"
_cell_formula_units_Z 10
_cell_length_a 8.470107
_cell_length_b 9.329587
_cell_length_c 10.605125
_cell_angle_alpha 108.067685
_cell_angle_beta 83.358334
_cell_angle_gamma 146.700693
_cell_volume 420.539121
_symmetry_space_group_name_H-M "P -1"
_symmetry_group_IT_number 2
_symmetry_cell_setting 'triclinic'
loop_
_space_group_symop_operation_xyz
x,y,z
-x,-y,-z
loop_
_atom_site_type_symbol
_atom_site_label
_atom_site_fract_x
_atom_site_fract_y
_atom_site_fract_z
Si Si1 0.858362 0.240914 0.075846
Si Si2 0.484133 0.771975 0.290042
Si Si3 0.590601 0.984693 0.775716
Si Si4 0.317144 0.204731 0.469343
Si Si5 0.722225 0.820614 0.063601
O O1 0.181451 0.471672 0.167747
O O2 0.163192 0.767644 0.075211
O O3 0.712178 0.255447 0.177760
O O4 0.647730 0.925017 0.039717
O O5 0.473698 0.940159 0.303635
O O6 0.508263 0.747995 0.425261
O O7 0.751729 0.898584 0.227060
O O8 0.689471 0.910308 0.682185
O O9 0.500000 0.500000 0.500000
O O10 0.000000 0.000000 0.500000
O O11 0.500000 0.500000 0.000000
O O12 0.000000 0.000000 0.000000
#
# Coordination Sequence:
#
# PCOD9042807 Si02
#       5
#     2   2   2   2   2
#     4  10  23  44  79 110 140 197 247 305 363 434
#     4  11  25  47  78 107 147 199 247 297 375 434
#     4  10  25  48  74 110 149 193 248 301 365 448
#     4  12  32  50  74 109 153 197 246 303 372 435
#     4  11  23  39  69 108 151 184 235 302 367 424
#
# _framework density 23.779
#
# number of rings (size 3 to 8) (size 9 to 14) (size 15 to 20)
#    0.000    1.200    2.000    1.200   14.000    0.800 
#    0.000    0.000    0.000    0.000    0.000    0.000 
#    0.000    0.000    0.000    0.000    0.000    0.000 
#
# Total GULP energy -55803.476412 kJ/mol
# GULP energy per Si atom -5580.347641 kJ/mol
# Density = 2.372488 g / cm^3
# Si number density = 23.779000 Si / 1000 Ang^3
#
#
#
# Elastic Constant Matrix: (Units=GPa)
#
#
# Indices 1 2 3 4 5 6 
#
# 1 95.5424 41.0956 74.6490 -2.8910 -14.1032 6.7394
# 2 41.0956 131.3257 50.8041 -12.9901 -22.3513 3.6084
# 3 74.6490 50.8041 167.5807 -9.4461 -25.5670 5.7115
# 4 -2.8910 -12.9901 -9.4461 24.6395 -5.1667 -1.2297
# 5 -14.1032 -22.3513 -25.5670 -5.1667 70.7512 -4.6477
# 6 6.7394 3.6084 5.7115 -1.2297 -4.6477 40.5664
#
#
#
# Elastic Compliance Matrix: (Units=1/GPa)
#
#
# Indices 1 2 3 4 5 6 
#
# 1 0.017074 -0.002927 -0.006831 -0.002301 -0.000270 -0.001715
# 2 -0.002927 0.009845 -0.001019 0.004998 0.002537 0.000196
# 3 -0.006831 -0.001019 0.009791 0.002858 0.002075 0.000171
# 4 -0.002301 0.004998 0.002858 0.045290 0.005562 0.001545
# 5 -0.000270 0.002537 0.002075 0.005562 0.016139 0.001545
# 6 -0.001715 0.000196 0.000171 0.001545 0.001545 0.025118
#
#
# Mechanical properties :
#
#
# Convention : Reuss Voigt Hill
#
# Bulk Modulus (GPa) = 65.97613 80.83848 73.40730
# Shear Modulus (GPa) = 33.36398 42.38477 37.87437
#
# Velocity S-wave (km/s) = 3.74984 4.22648 3.99528
# Velocity P-wave (km/s) = 6.82306 7.60836 7.22638
#
# Compressibility (1/GPa) = 0.01515700
#
# Stress axis : x y z
#
# Youngs Moduli (GPa) = 58.56879 101.56959 102.13746
#
# Poissons Ratio (x) = 0.29728 0.69768
# Poissons Ratio (y) = 0.17142 0.10407
# Poissons Ratio (z) = 0.40007 0.10350
#
# Static dielectric constant tensor:
#      x y z
#    x 2.020800 0.032050 -0.013660 
#    y 0.032050 2.008470 -0.031390 
#    z -0.013660 -0.031390 1.928580 
# 
# From -- ./inp_files/115186.got.cif
#   From: 2010.05.17/outbox.cif.g08.bks.cpg/sg2_58_cif.got.tgz:115186.got - 2010.06.03 11:33:40.
