data_PCOD9042950
_publ_section_title
;
Structure prediction by ZEFSAII (Michael W. Deem and Ramdas Pophale) SiO2 
 PCOD9042950
Probable space group: P -1
;
_chemical_formula_sum "Si O2"
_cell_formula_units_Z 16
_cell_length_a 9.183538
_cell_length_b 16.112933
_cell_length_c 5.537108
_cell_angle_alpha 74.623850
_cell_angle_beta 90.553375
_cell_angle_gamma 117.900092
_cell_volume 691.868491
_symmetry_space_group_name_H-M "P -1"
_symmetry_group_IT_number 2
_symmetry_cell_setting 'triclinic'
loop_
_space_group_symop_operation_xyz
x,y,z
-x,-y,-z
loop_
_atom_site_type_symbol
_atom_site_label
_atom_site_fract_x
_atom_site_fract_y
_atom_site_fract_z
Si Si1 0.063969 0.934005 0.302319
Si Si2 0.110782 0.444474 0.056764
Si Si3 0.375276 0.624371 0.156278
Si Si4 0.323358 0.945133 0.910759
Si Si5 0.143572 0.783402 0.684090
Si Si6 0.737375 0.904493 0.468094
Si Si7 0.613843 0.274422 0.424300
Si Si8 0.404197 0.449986 0.786690
O O1 0.064842 0.850986 0.545134
O O2 0.874727 0.907801 0.282825
O O3 0.157308 0.043916 0.331238
O O4 0.173547 0.932809 0.086459
O O5 0.994487 0.329254 0.195426
O O6 0.241864 0.508722 0.216885
O O7 0.227389 0.445790 0.832257
O O8 0.000000 0.500000 0.000000
O O9 0.342567 0.668015 0.875228
O O10 0.351129 0.662489 0.382143
O O11 0.566271 0.644468 0.138032
O O12 0.260852 0.839533 0.871197
O O13 0.334467 0.022090 0.649858
O O14 0.500000 0.000000 0.000000
O O15 0.277024 0.780650 0.505472
O O16 0.580620 0.799044 0.548611
O O17 0.500000 0.500000 0.500000
O O18 0.500000 0.500000 0.000000
#
# Coordination Sequence:
#
# PCOD9042950 Si02
#       8
#     2   2   2   2   2   2   2   2
#     4  10  23  45  67 102 139 181 240 298 369 427
#     4  11  24  47  71 104 146 191 238 309 356 430
#     4  11  26  47  70 101 147 187 247 290 365 428
#     4  11  23  43  71 102 138 185 231 300 365 439
#     4  11  26  43  68 105 140 183 247 291 372 428
#     4  10  24  42  71  98 142 182 238 301 359 442
#     4  12  26  45  72 109 137 194 239 298 359 441
#     4  10  23  47  71  98 137 192 241 292 362 426
#
# _framework density 23.125782999999998
#
# number of rings (size 3 to 8) (size 9 to 14) (size 15 to 20)
#    0.000    1.250    1.250    3.375    7.000    3.500 
#    9.000    0.000    0.000    0.000    0.000    0.000 
#    0.000    0.000    0.000    0.000    0.000    0.000 
#
# Total GULP energy -89200.031068 kJ/mol
# GULP energy per Si atom -5575.001942 kJ/mol
# Density = 2.307315 g / cm^3
# Si number density = 23.125783 Si / 1000 Ang^3
#
#
#
# Elastic Constant Matrix: (Units=GPa)
#
#
# Indices 1 2 3 4 5 6 
#
# 1 140.6105 41.5878 28.8999 5.8444 -17.8184 -4.4444
# 2 41.5878 166.6912 55.8208 14.4560 -10.6725 22.2067
# 3 28.8999 55.8208 106.9112 17.3519 -10.0973 5.2732
# 4 5.8444 14.4560 17.3519 28.2094 -13.7063 -12.1416
# 5 -17.8184 -10.6725 -10.0973 -13.7063 43.9965 -0.8756
# 6 -4.4444 22.2067 5.2732 -12.1416 -0.8756 39.7292
#
#
#
# Elastic Compliance Matrix: (Units=1/GPa)
#
#
# Indices 1 2 3 4 5 6 
#
# 1 0.008513 -0.002142 -0.001602 0.003696 0.003783 0.003575
# 2 -0.002142 0.008784 -0.002875 -0.005751 -0.001319 -0.006554
# 3 -0.001602 -0.002875 0.012532 -0.007382 -0.000820 -0.002510
# 4 0.003696 -0.005751 -0.007382 0.061051 0.017898 0.023660
# 5 0.003783 -0.001319 -0.000820 0.017898 0.029476 0.007389
# 6 0.003575 -0.006554 -0.002510 0.023660 0.007389 0.036961
#
#
# Mechanical properties :
#
#
# Convention : Reuss Voigt Hill
#
# Bulk Modulus (GPa) = 60.27273 74.09219 67.18246
# Shear Modulus (GPa) = 28.39521 41.58063 34.98792
#
# Velocity S-wave (km/s) = 3.50788 4.24491 3.89387
# Velocity P-wave (km/s) = 6.52124 7.49226 7.02355
#
# Compressibility (1/GPa) = 0.01659125
#
# Stress axis : x y z
#
# Youngs Moduli (GPa) = 117.46070 113.84506 79.79488
#
# Poissons Ratio (x) = 0.24389 0.12781
# Poissons Ratio (y) = 0.25164 0.22941
# Poissons Ratio (z) = 0.18814 0.32731
#
# Static dielectric constant tensor:
#      x y z
#    x 2.003240 -0.047970 0.029420 
#    y -0.047970 1.900900 -0.016900 
#    z 0.029420 -0.016900 1.969940 
# 
# From -- ./inp_files/44602.got.cif
#   From: 2010.05.17/outbox.cif.g08.bks.cpg/sg2_23_cif.got.tgz:44602.got - 2010.06.03 11:33:40.
