data_PCOD9042600
_publ_section_title
;
Structure prediction by ZEFSAII (Michael W. Deem and Ramdas Pophale) SiO2 
 PCOD9042600
Probable space group: P -1
;
_chemical_formula_sum "Si O2"
_cell_formula_units_Z 15
_cell_length_a 12.273154
_cell_length_b 24.157919
_cell_length_c 13.276672
_cell_angle_alpha 153.714129
_cell_angle_beta 157.448274
_cell_angle_gamma 23.229923
_cell_volume 564.771641
_symmetry_space_group_name_H-M "P -1"
_symmetry_group_IT_number 2
_symmetry_cell_setting 'triclinic'
loop_
_space_group_symop_operation_xyz
x,y,z
-x,-y,-z
loop_
_atom_site_type_symbol
_atom_site_label
_atom_site_fract_x
_atom_site_fract_y
_atom_site_fract_z
Si Si1 0.398915 0.396971 0.142748
Si Si2 0.566522 0.782789 0.606333
Si Si3 0.452352 0.481013 0.810693
Si Si4 0.834969 0.189738 0.889113
Si Si5 0.674349 0.315080 0.458577
Si Si6 0.136908 0.226373 0.882024
Si Si7 0.500000 0.000000 0.000000
Si Si8 0.702557 0.081496 0.798268
O O1 0.659532 0.330993 0.351267
O O2 0.464652 0.517723 0.348691
O O3 0.466377 0.255826 0.908462
O O4 0.000000 0.500000 0.000000
O O5 0.719509 0.615609 0.499855
O O6 0.415899 0.796436 0.390217
O O7 0.819652 0.846222 0.931028
O O8 0.342358 0.889107 0.676821
O O9 0.816480 0.364900 0.888508
O O10 0.500000 0.500000 0.000000
O O11 0.273315 0.649163 0.895343
O O12 0.852169 0.086271 0.824285
O O13 0.016678 0.215661 0.649827
O O14 0.412042 0.268406 0.174455
O O15 0.283801 0.089252 0.856447
O O16 0.500000 0.000000 0.500000
O O17 0.000000 0.000000 0.000000
#
# Coordination Sequence:
#
# PCOD9042600 Si02
#       8
#     2   2   2   2   2   2   1   2
#     4  11  26  52  82 113 151 193 261 325 381 451
#     4  11  25  46  69 107 140 194 237 305 360 435
#     4  10  23  44  73 102 138 180 251 300 354 424
#     4  11  25  47  75 101 144 190 244 297 372 439
#     4  11  26  45  77 111 141 190 254 317 367 444
#     4  12  26  44  69 110 146 197 241 301 370 440
#     4  12  28  46  68 100 160 192 246 290 370 436
#     4  12  30  49  74 112 157 200 244 312 390 460
#
# _framework density 26.559405999999999
#
# number of rings (size 3 to 8) (size 9 to 14) (size 15 to 20)
#    0.000    0.800    1.333    4.400    3.733   13.333 
#    0.000    0.000    0.000    0.000    0.000    0.000 
#    0.000    0.000    0.000    0.000    0.000    0.000 
#
# Total GULP energy -83807.264119 kJ/mol
# GULP energy per Si atom -5587.150941 kJ/mol
# Density = 2.649896 g / cm^3
# Si number density = 26.559406 Si / 1000 Ang^3
#
#
#
# Elastic Constant Matrix: (Units=GPa)
#
#
# Indices 1 2 3 4 5 6 
#
# 1 66.3964 41.4962 48.9065 -1.5237 9.3297 36.7766
# 2 41.4962 142.8178 71.9385 9.3670 3.7704 22.6809
# 3 48.9065 71.9385 206.3245 11.8423 11.0092 11.5592
# 4 -1.5237 9.3670 11.8423 63.1798 -3.6927 -12.9846
# 5 9.3297 3.7704 11.0092 -3.6927 46.1951 3.8387
# 6 36.7766 22.6809 11.5592 -12.9846 3.8387 59.4746
#
#
#
# Elastic Compliance Matrix: (Units=1/GPa)
#
#
# Indices 1 2 3 4 5 6 
#
# 1 0.030522 -0.003636 -0.004766 -0.001457 -0.003464 -0.016656
# 2 -0.003636 0.009501 -0.002336 -0.001282 0.000516 -0.001234
# 3 -0.004766 -0.002336 0.006723 -0.000566 -0.000698 0.002453
# 4 -0.001457 -0.001282 -0.000566 0.017237 0.001482 0.005167
# 5 -0.003464 0.000516 -0.000698 0.001482 0.022511 0.000952
# 6 -0.016656 -0.001234 0.002453 0.005167 0.000952 0.028174
#
#
# Mechanical properties :
#
#
# Convention : Reuss Voigt Hill
#
# Bulk Modulus (GPa) = 39.56878 82.24680 60.90779
# Shear Modulus (GPa) = 34.58594 50.64974 42.61784
#
# Velocity S-wave (km/s) = 3.61253 4.37170 4.01012
# Velocity P-wave (km/s) = 5.68604 7.51776 6.66512
#
# Compressibility (1/GPa) = 0.02527245
#
# Stress axis : x y z
#
# Youngs Moduli (GPa) = 32.76278 105.24795 148.74129
#
# Poissons Ratio (x) = 0.38266 0.70885
# Poissons Ratio (y) = 0.11912 0.34742
# Poissons Ratio (z) = 0.15614 0.24583
#
# Static dielectric constant tensor:
#      x y z
#    x 2.291990 -0.177810 0.006460 
#    y -0.177810 2.325700 0.059300 
#    z 0.006460 0.059300 2.102570 
# 
# From -- ./inp_files/535741.got.cif
#   From: 2010.05.17/outbox.cif.g08.bks.cpg/sg2_268_cif.got.tgz:535741.got - 2010.06.03 11:33:40.
