data_PCOD9042195
_publ_section_title
;
Structure prediction by ZEFSAII (Michael W. Deem and Ramdas Pophale) SiO2 
 PCOD9042195
Probable space group: P -1
;
_chemical_formula_sum "Si O2"
_cell_formula_units_Z 14
_cell_length_a 10.817390
_cell_length_b 9.397703
_cell_length_c 19.458594
_cell_angle_alpha 40.044393
_cell_angle_beta 147.491643
_cell_angle_gamma 119.173390
_cell_volume 608.245103
_symmetry_space_group_name_H-M "P -1"
_symmetry_group_IT_number 2
_symmetry_cell_setting 'triclinic'
loop_
_space_group_symop_operation_xyz
x,y,z
-x,-y,-z
loop_
_atom_site_type_symbol
_atom_site_label
_atom_site_fract_x
_atom_site_fract_y
_atom_site_fract_z
Si Si1 0.241815 0.561001 0.077892
Si Si2 0.294769 0.260549 0.954932
Si Si3 0.213217 0.091409 0.731141
Si Si4 0.911496 0.076810 0.788454
Si Si5 0.013446 0.158470 0.384385
Si Si6 0.422359 0.136502 0.216254
Si Si7 0.289520 0.548062 0.556827
O O1 0.368690 0.397705 0.130160
O O2 0.474885 0.477052 0.274170
O O3 0.000000 0.500000 0.000000
O O4 0.100031 0.859421 0.904721
O O5 0.162755 0.555808 0.787591
O O6 0.078571 0.172706 0.874971
O O7 0.425742 0.169107 0.124476
O O8 0.502475 0.132890 0.038490
O O9 0.285159 0.282906 0.650006
O O10 0.997377 0.272119 0.615118
O O11 0.076816 0.947125 0.682597
O O12 0.704983 0.313743 0.561677
O O13 0.793833 0.942399 0.832374
O O14 0.000000 0.000000 0.500000
O O15 0.314912 0.080106 0.549827
#
# Coordination Sequence:
#
# PCOD9042195 Si02
#       7
#     2   2   2   2   2   2   2
#     4  10  23  44  70 100 135 178 228 284 337 407
#     4  12  26  45  71 103 140 183 228 286 342 411
#     4  11  24  45  68 103 136 183 226 290 336 407
#     4  11  26  45  72 101 138 186 230 283 343 410
#     4  12  25  43  68 101 140 182 228 278 348 407
#     4  11  26  44  70 103 140 180 230 286 346 407
#     4  11  24  46  73  99 141 177 236 286 341 403
#
# _framework density 23.017036999999998
#
# number of rings (size 3 to 8) (size 9 to 14) (size 15 to 20)
#    0.000    0.857    4.286    1.714    2.000    5.714 
#    0.000    0.000    0.000    0.000    0.000    0.000 
#    0.000    0.000    0.000    0.000    0.000    0.000 
#
# Total GULP energy -78198.168152 kJ/mol
# GULP energy per Si atom -5585.583439 kJ/mol
# Density = 2.296465 g / cm^3
# Si number density = 23.017037 Si / 1000 Ang^3
#
#
#
# Elastic Constant Matrix: (Units=GPa)
#
#
# Indices 1 2 3 4 5 6 
#
# 1 40.6101 15.0880 24.5375 -6.5226 12.4582 6.2755
# 2 15.0880 146.2316 67.2515 -11.5989 3.4642 3.8971
# 3 24.5375 67.2515 111.9197 -14.6397 9.6888 7.3488
# 4 -6.5226 -11.5989 -14.6397 56.0054 -3.6648 6.1062
# 5 12.4582 3.4642 9.6888 -3.6648 29.3717 -7.9076
# 6 6.2755 3.8971 7.3488 6.1062 -7.9076 23.1252
#
#
#
# Elastic Compliance Matrix: (Units=1/GPa)
#
#
# Indices 1 2 3 4 5 6 
#
# 1 0.035703 -0.000482 -0.004639 0.003346 -0.017145 -0.014879
# 2 -0.000482 0.009492 -0.005685 0.000433 0.001184 0.000628
# 3 -0.004639 -0.005685 0.014149 0.002215 -0.002780 -0.003815
# 4 0.003346 0.000433 0.002215 0.019612 -0.001764 -0.007467
# 5 -0.017145 0.001184 -0.002780 -0.001764 0.047842 0.022162
# 6 -0.014879 0.000628 -0.003815 -0.007467 0.022162 0.057937
#
#
# Mechanical properties :
#
#
# Convention : Reuss Voigt Hill
#
# Bulk Modulus (GPa) = 26.50304 56.94614 41.72459
# Shear Modulus (GPa) = 22.83878 34.49276 28.66577
#
# Velocity S-wave (km/s) = 3.15343 3.87534 3.53287
# Velocity P-wave (km/s) = 4.97979 6.69470 5.89988
#
# Compressibility (1/GPa) = 0.03773151
#
# Stress axis : x y z
#
# Youngs Moduli (GPa) = 28.00896 105.34735 70.67576
#
# Poissons Ratio (x) = 0.05080 0.32786
# Poissons Ratio (y) = 0.01351 0.40181
# Poissons Ratio (z) = 0.12993 0.59893
#
# Static dielectric constant tensor:
#      x y z
#    x 1.925300 -0.015450 0.031610 
#    y -0.015450 1.849170 0.020750 
#    z 0.031610 0.020750 1.895480 
# 
# From -- ./inp_files/72162.got.cif
#   From: 2010.05.17/outbox.cif.g08.bks.cpg/sg2_37_cif.got.tgz:72162.got - 2010.06.03 11:33:40.
