data_PCOD9042147
_publ_section_title
;
Structure prediction by ZEFSAII (Michael W. Deem and Ramdas Pophale) SiO2 
 PCOD9042147
Probable space group: P -1
;
_chemical_formula_sum "Si O2"
_cell_formula_units_Z 16
_cell_length_a 13.800300
_cell_length_b 13.648655
_cell_length_c 12.971631
_cell_angle_alpha 127.094173
_cell_angle_beta 146.058830
_cell_angle_gamma 30.577490
_cell_volume 638.651440
_symmetry_space_group_name_H-M "P -1"
_symmetry_group_IT_number 2
_symmetry_cell_setting 'triclinic'
loop_
_space_group_symop_operation_xyz
x,y,z
-x,-y,-z
loop_
_atom_site_type_symbol
_atom_site_label
_atom_site_fract_x
_atom_site_fract_y
_atom_site_fract_z
Si Si1 0.038704 0.524537 0.302877
Si Si2 0.523325 0.017236 0.905888
Si Si3 0.866939 0.071648 0.263316
Si Si4 0.973630 0.140006 0.209334
Si Si5 0.927685 0.193156 0.981401
Si Si6 0.569656 0.916180 0.661711
Si Si7 0.338919 0.436631 0.145615
Si Si8 0.464612 0.381785 0.431631
O O1 0.237172 0.294869 0.367251
O O2 0.280070 0.470616 0.427099
O O3 0.793570 0.756314 0.278546
O O4 0.814736 0.578999 0.066375
O O5 0.610913 0.875356 0.797798
O O6 0.752457 0.999497 0.094633
O O7 0.500000 0.000000 0.000000
O O8 0.691233 0.219777 0.301375
O O9 0.782293 0.212332 0.185322
O O10 0.219343 0.864539 0.444570
O O11 0.817728 0.273610 0.052383
O O12 0.237067 0.079709 0.437197
O O13 0.097178 0.933761 0.153719
O O14 0.269705 0.045641 0.192086
O O15 0.766253 0.374092 0.873043
O O16 0.265414 0.449777 0.205399
O O17 0.500000 0.500000 0.500000
#
# Coordination Sequence:
#
# PCOD9042147 Si02
#       8
#     2   2   2   2   2   2   2   2
#     4  10  24  39  63  92 129 176 219 265 332 405
#     4  11  25  41  65  97 140 180 219 271 339 405
#     4  11  23  41  62  96 134 168 223 277 330 400
#     4  11  22  42  71  98 128 175 234 276 336 398
#     4  10  23  44  69  96 132 178 223 288 332 395
#     4  11  23  43  71  94 138 178 222 276 344 400
#     4  10  24  40  63  89 134 174 219 270 342 401
#     4  12  23  37  62  93 131 171 219 273 333 400
#
# _framework density 25.052790999999999
#
# number of rings (size 3 to 8) (size 9 to 14) (size 15 to 20)
#    0.000    1.250    2.500    2.625    8.750    2.500 
#    0.000    0.000    0.000    3.000    0.000    0.000 
#    0.000    0.000    0.000    0.000    0.000    0.000 
#
# Total GULP energy -89247.356811 kJ/mol
# GULP energy per Si atom -5577.959801 kJ/mol
# Density = 2.499577 g / cm^3
# Si number density = 25.052791 Si / 1000 Ang^3
#
#
#
# Elastic Constant Matrix: (Units=GPa)
#
#
# Indices 1 2 3 4 5 6 
#
# 1 94.8142 3.1857 30.7957 10.0417 -2.8127 5.5821
# 2 3.1857 79.2706 16.0059 -9.5751 -1.1868 5.1770
# 3 30.7957 16.0059 82.8688 0.9264 6.9855 5.5991
# 4 10.0417 -9.5751 0.9264 26.9239 -2.3279 0.7270
# 5 -2.8127 -1.1868 6.9855 -2.3279 39.8077 4.3772
# 6 5.5821 5.1770 5.5991 0.7270 4.3772 24.5769
#
#
#
# Elastic Compliance Matrix: (Units=1/GPa)
#
#
# Indices 1 2 3 4 5 6 
#
# 1 0.012697 0.000067 -0.004690 -0.004350 0.001688 -0.002001
# 2 0.000067 0.014001 -0.002728 0.005254 0.001513 -0.002768
# 3 -0.004690 -0.002728 0.014657 0.000060 -0.002850 -0.001193
# 4 -0.004350 0.005254 0.000060 0.040888 0.002425 -0.001774
# 5 0.001688 0.001513 -0.002850 0.002425 0.026459 -0.004837
# 6 -0.002001 -0.002768 -0.001193 -0.001774 -0.004837 0.042912
#
#
# Mechanical properties :
#
#
# Convention : Reuss Voigt Hill
#
# Bulk Modulus (GPa) = 37.51917 39.65870 38.58894
# Shear Modulus (GPa) = 28.53878 32.05946 30.29912
#
# Velocity S-wave (km/s) = 3.37879 3.58114 3.48143
# Velocity P-wave (km/s) = 5.49819 5.74141 5.62112
#
# Compressibility (1/GPa) = 0.02665304
#
# Stress axis : x y z
#
# Youngs Moduli (GPa) = 78.76184 71.42234 68.22561
#
# Poissons Ratio (x) = -0.00480 0.31996
# Poissons Ratio (y) = -0.00529 0.18615
# Poissons Ratio (z) = 0.36937 0.19488
#
# Static dielectric constant tensor:
#      x y z
#    x 2.040360 -0.005100 -0.053000 
#    y -0.005100 2.164650 0.013680 
#    z -0.053000 0.013680 2.007390 
# 
# From -- ./inp_files/528398.got.cif
#   From: 2010.05.17/outbox.cif.g08.bks.cpg/sg2_265_cif.got.tgz:528398.got - 2010.06.03 11:33:40.
