data_PCOD9042028
_publ_section_title
;
Structure prediction by ZEFSAII (Michael W. Deem and Ramdas Pophale) SiO2 
 PCOD9042028
Probable space group: P -1
;
_chemical_formula_sum "Si O2"
_cell_formula_units_Z 16
_cell_length_a 8.694244
_cell_length_b 19.506392
_cell_length_c 11.293620
_cell_angle_alpha 31.146701
_cell_angle_beta 40.493202
_cell_angle_gamma 50.270531
_cell_volume 642.905741
_symmetry_space_group_name_H-M "P -1"
_symmetry_group_IT_number 2
_symmetry_cell_setting 'triclinic'
loop_
_space_group_symop_operation_xyz
x,y,z
-x,-y,-z
loop_
_atom_site_type_symbol
_atom_site_label
_atom_site_fract_x
_atom_site_fract_y
_atom_site_fract_z
Si Si1 0.153740 0.971992 0.632013
Si Si2 0.853692 0.795723 0.342087
Si Si3 0.443847 0.730081 0.860033
Si Si4 0.676501 0.882205 0.910196
Si Si5 0.848847 0.089955 0.806064
Si Si6 0.618310 0.587793 0.402747
Si Si7 0.131444 0.494681 0.271961
Si Si8 0.747398 0.511389 0.069676
O O1 0.289757 0.857477 0.792276
O O2 0.905354 0.915370 0.806910
O O3 0.305902 0.027031 0.351025
O O4 0.064747 0.093798 0.581720
O O5 0.617390 0.783832 0.575997
O O6 0.848321 0.659061 0.474804
O O7 0.078421 0.807880 0.282805
O O8 0.857132 0.936998 0.068972
O O9 0.276565 0.610863 0.081759
O O10 0.614727 0.649660 0.965083
O O11 0.418394 0.894193 0.102141
O O12 0.689748 0.729101 0.098401
O O13 0.500000 0.500000 0.500000
O O14 0.431754 0.596030 0.607196
O O15 0.857356 0.523405 0.399094
O O16 0.214224 0.500270 0.076836
O O17 0.000000 0.500000 0.000000
#
# Coordination Sequence:
#
# PCOD9042028 Si02
#       8
#     2   2   2   2   2   2   2   2
#     4  11  25  46  71 100 140 187 234 287 346 414
#     4  10  23  44  68  99 141 177 235 284 350 411
#     4  11  24  48  71 104 141 183 238 288 353 417
#     4  11  25  46  67 104 142 181 238 285 346 417
#     4  11  24  43  70 100 137 188 228 288 344 413
#     4  12  25  43  73 104 143 183 234 290 353 419
#     4  11  24  47  71 102 144 182 227 299 346 420
#     4  11  25  43  68 103 141 183 224 286 357 410
#
# _framework density 24.887008000000002
#
# number of rings (size 3 to 8) (size 9 to 14) (size 15 to 20)
#    0.000    1.000    3.750    2.625    3.500    6.000 
#    0.000    0.000    0.000    0.000    0.000    0.000 
#    0.000    0.000    0.000    0.000    0.000    0.000 
#
# Total GULP energy -89556.672919 kJ/mol
# GULP energy per Si atom -5597.292057 kJ/mol
# Density = 2.483036 g / cm^3
# Si number density = 24.887008 Si / 1000 Ang^3
#
#
#
# Elastic Constant Matrix: (Units=GPa)
#
#
# Indices 1 2 3 4 5 6 
#
# 1 62.8500 28.0880 38.4934 -1.6341 -2.7025 -14.5750
# 2 28.0880 91.6674 28.1775 9.1678 -5.0537 -23.8334
# 3 38.4934 28.1775 106.8955 -3.4939 -16.2328 1.4153
# 4 -1.6341 9.1678 -3.4939 43.2888 -0.6329 -6.8899
# 5 -2.7025 -5.0537 -16.2328 -0.6329 35.3748 0.3358
# 6 -14.5750 -23.8334 1.4153 -6.8899 0.3358 48.3336
#
#
#
# Elastic Compliance Matrix: (Units=1/GPa)
#
#
# Indices 1 2 3 4 5 6 
#
# 1 0.023718 -0.003609 -0.007966 0.001920 -0.002381 0.005896
# 2 -0.003609 0.014622 -0.002638 -0.002509 0.000503 0.005838
# 3 -0.007966 -0.002638 0.013820 0.000811 0.005409 -0.004030
# 4 0.001920 -0.002509 0.000811 0.024219 0.000567 0.002766
# 5 -0.002381 0.000503 0.005409 0.000567 0.030658 -0.000761
# 6 0.005896 0.005838 -0.004030 0.002766 -0.000761 0.025864
#
#
# Mechanical properties :
#
#
# Convention : Reuss Voigt Hill
#
# Bulk Modulus (GPa) = 42.13383 50.10341 46.11862
# Shear Modulus (GPa) = 29.54415 36.50971 33.02693
#
# Velocity S-wave (km/s) = 3.44922 3.83432 3.64686
# Velocity P-wave (km/s) = 5.72971 6.30704 6.02530
#
# Compressibility (1/GPa) = 0.02373390
#
# Stress axis : x y z
#
# Youngs Moduli (GPa) = 42.16258 68.38918 72.35775
#
# Poissons Ratio (x) = 0.24682 0.57643
# Poissons Ratio (y) = 0.15217 0.19086
# Poissons Ratio (z) = 0.33588 0.18040
#
# Static dielectric constant tensor:
#      x y z
#    x 2.028120 0.035000 0.069400 
#    y 0.035000 1.988160 0.040850 
#    z 0.069400 0.040850 1.978650 
# 
# From -- ./inp_files/405226.got.cif
#   From: 2010.05.17/outbox.cif.g08.bks.cpg/sg2_203_cif.got.tgz:405226.got - 2010.06.03 11:33:40.
