data_PCOD9042363
_publ_section_title
;
Structure prediction by ZEFSAII (Michael W. Deem and Ramdas Pophale) SiO2 
 PCOD9042363
Probable space group: P -1
;
_chemical_formula_sum "Si O2"
_cell_formula_units_Z 12
_cell_length_a 5.016420
_cell_length_b 15.336886
_cell_length_c 8.073509
_cell_angle_alpha 94.824878
_cell_angle_beta 73.056321
_cell_angle_gamma 127.050508
_cell_volume 470.803207
_symmetry_space_group_name_H-M "P -1"
_symmetry_group_IT_number 2
_symmetry_cell_setting 'triclinic'
loop_
_space_group_symop_operation_xyz
x,y,z
-x,-y,-z
loop_
_atom_site_type_symbol
_atom_site_label
_atom_site_fract_x
_atom_site_fract_y
_atom_site_fract_z
Si Si1 0.546822 0.243834 0.921819
Si Si2 0.233504 0.880152 0.954577
Si Si3 0.283736 0.506827 0.325328
Si Si4 0.662566 0.740198 0.385793
Si Si5 0.620894 0.379202 0.237706
Si Si6 0.280273 0.987173 0.384210
O O1 0.575065 0.261036 0.719627
O O2 0.770761 0.211223 0.962185
O O3 0.563949 0.329429 0.057517
O O4 0.135183 0.142685 0.998296
O O5 0.431847 0.903790 0.752260
O O6 0.500000 0.000000 0.000000
O O7 0.621672 0.632087 0.312244
O O8 0.419519 0.433486 0.307228
O O9 0.000000 0.500000 0.500000
O O10 0.041336 0.465023 0.200209
O O11 0.520957 0.708813 0.596676
O O12 0.036124 0.861452 0.337906
O O13 0.500000 0.000000 0.500000
O O14 0.000000 0.000000 0.500000
#
# Coordination Sequence:
#
# PCOD9042363 Si02
#       6
#     2   2   2   2   2   2
#     4  12  27  44  73 103 139 189 229 287 351 419
#     4  12  25  47  66 101 145 178 231 291 346 404
#     4  10  23  44  71 100 140 182 226 294 347 406
#     4  11  25  44  72  99 136 185 234 273 356 413
#     4  11  24  46  68 103 142 176 233 293 342 411
#     4  12  27  44  71 102 136 182 235 285 342 420
#
# _framework density 25.488357000000001
#
# number of rings (size 3 to 8) (size 9 to 14) (size 15 to 20)
#    0.000    0.667    1.667    6.500    2.333   10.667 
#    0.000    0.000    0.000    0.000    0.000    0.000 
#    0.000    0.000    0.000    0.000    0.000    0.000 
#
# Total GULP energy -66962.811274 kJ/mol
# GULP energy per Si atom -5580.234273 kJ/mol
# Density = 2.543034 g / cm^3
# Si number density = 25.488357 Si / 1000 Ang^3
#
#
#
# Elastic Constant Matrix: (Units=GPa)
#
#
# Indices 1 2 3 4 5 6 
#
# 1 118.5468 29.6474 44.3045 3.8118 11.9028 -2.7467
# 2 29.6474 127.9585 39.3609 3.8504 5.3514 6.8091
# 3 44.3045 39.3609 120.7067 -25.5627 15.2151 -15.0392
# 4 3.8118 3.8504 -25.5627 46.0750 9.6389 0.2789
# 5 11.9028 5.3514 15.2151 9.6389 43.7254 7.4946
# 6 -2.7467 6.8091 -15.0392 0.2789 7.4946 59.1076
#
#
#
# Elastic Compliance Matrix: (Units=1/GPa)
#
#
# Indices 1 2 3 4 5 6 
#
# 1 0.010347 -0.001024 -0.004044 -0.002889 -0.000589 -0.000342
# 2 -0.001024 0.009380 -0.003825 -0.003130 0.001543 -0.002282
# 3 -0.004044 -0.003825 0.014562 0.010071 -0.006531 0.004738
# 4 -0.002889 -0.003130 0.010071 0.029768 -0.009559 0.003860
# 5 -0.000589 0.001543 -0.006531 -0.009559 0.028145 -0.005390
# 6 -0.000342 -0.002282 0.004738 0.003860 -0.005390 0.019036
#
#
# Mechanical properties :
#
#
# Convention : Reuss Voigt Hill
#
# Bulk Modulus (GPa) = 60.58977 65.98195 63.28586
# Shear Modulus (GPa) = 37.16793 46.70821 41.93807
#
# Velocity S-wave (km/s) = 3.82282 4.28545 4.06073
# Velocity P-wave (km/s) = 6.58092 7.10141 6.84611
#
# Compressibility (1/GPa) = 0.01650444
#
# Stress axis : x y z
#
# Youngs Moduli (GPa) = 96.64636 106.61275 68.66982
#
# Poissons Ratio (x) = 0.10912 0.27772
# Poissons Ratio (y) = 0.09892 0.26263
# Poissons Ratio (z) = 0.39086 0.40774
#
# Static dielectric constant tensor:
#      x y z
#    x 1.957170 0.004510 0.115830 
#    y 0.004510 2.078000 0.001660 
#    z 0.115830 0.001660 1.975020 
# 
# From -- ./inp_files/133215.got.cif
#   From: 2010.05.17/outbox.cif.g08.bks.cpg/sg2_67_cif.got.tgz:133215.got - 2010.06.03 11:33:40.
