data_PCOD9042088
_publ_section_title
;
Structure prediction by ZEFSAII (Michael W. Deem and Ramdas Pophale) SiO2 
 PCOD9042088
Probable space group: P -1
;
_chemical_formula_sum "Si O2"
_cell_formula_units_Z 16
_cell_length_a 5.353818
_cell_length_b 15.329162
_cell_length_c 19.249293
_cell_angle_alpha 27.532082
_cell_angle_beta 95.421817
_cell_angle_gamma 105.062874
_cell_volume 671.647684
_symmetry_space_group_name_H-M "P -1"
_symmetry_group_IT_number 2
_symmetry_cell_setting 'triclinic'
loop_
_space_group_symop_operation_xyz
x,y,z
-x,-y,-z
loop_
_atom_site_type_symbol
_atom_site_label
_atom_site_fract_x
_atom_site_fract_y
_atom_site_fract_z
Si Si1 0.599196 0.222237 0.475739
Si Si2 0.579071 0.787035 0.368462
Si Si3 0.118871 0.806591 0.722729
Si Si4 0.088965 0.766853 0.987170
Si Si5 0.847213 0.638471 0.696960
Si Si6 0.771746 0.605808 0.973503
Si Si7 0.204226 0.554756 0.402638
Si Si8 0.177069 0.874370 0.071213
O O1 0.602637 0.238083 0.548900
O O2 0.892890 0.295241 0.395418
O O3 0.417671 0.345727 0.355571
O O4 0.407185 0.992067 0.607748
O O5 0.462860 0.712165 0.340481
O O6 0.744059 0.639451 0.487791
O O7 0.733996 0.027686 0.193192
O O8 0.950263 0.787660 0.661127
O O9 0.946855 0.795682 0.795333
O O10 0.139709 0.586445 0.881614
O O11 0.086626 0.817489 0.030818
O O12 0.205690 0.588605 0.117403
O O13 0.802542 0.685222 0.996651
O O14 0.500000 0.500000 0.000000
O O15 0.115755 0.673696 0.257495
O O16 0.000000 0.500000 0.500000
O O17 0.500000 0.000000 0.000000
O O18 0.000000 0.000000 0.000000
#
# Coordination Sequence:
#
# PCOD9042088 Si02
#       8
#     2   2   2   2   2   2   2   2
#     4  12  26  47  71 110 144 196 246 308 377 441
#     4  11  25  47  75 107 148 199 244 318 372 459
#     4  10  23  44  69 103 145 194 249 305 378 432
#     4  11  24  50  72 112 144 204 252 303 384 449
#     4  11  28  45  73 105 152 190 251 308 370 447
#     4  10  23  44  72 109 150 194 252 315 366 448
#     4  11  26  48  75 109 152 190 254 308 387 445
#     4  12  27  50  77 109 150 197 249 312 377 449
#
# _framework density 23.822012000000001
#
# number of rings (size 3 to 8) (size 9 to 14) (size 15 to 20)
#    0.000    1.000    2.500    2.250   10.500    1.000 
#    9.000    0.000    0.000    0.000    0.000    0.000 
#    0.000    0.000    0.000    0.000    0.000    0.000 
#
# Total GULP energy -89392.641669 kJ/mol
# GULP energy per Si atom -5587.040104 kJ/mol
# Density = 2.376779 g / cm^3
# Si number density = 23.822012 Si / 1000 Ang^3
#
#
#
# Elastic Constant Matrix: (Units=GPa)
#
#
# Indices 1 2 3 4 5 6 
#
# 1 76.9834 38.4525 37.2949 15.6486 0.4387 4.9196
# 2 38.4525 165.4887 50.9408 33.3408 6.7117 4.2550
# 3 37.2949 50.9408 154.4542 3.4362 1.7146 -8.2577
# 4 15.6486 33.3408 3.4362 47.3685 6.9200 4.8109
# 5 0.4387 6.7117 1.7146 6.9200 25.8071 -0.9402
# 6 4.9196 4.2550 -8.2577 4.8109 -0.9402 26.0757
#
#
#
# Elastic Compliance Matrix: (Units=1/GPa)
#
#
# Indices 1 2 3 4 5 6 
#
# 1 0.016617 -0.002032 -0.003445 -0.003685 0.001348 -0.003166
# 2 -0.002032 0.008177 -0.002134 -0.004747 -0.000706 -0.000776
# 3 -0.003445 -0.002134 0.008147 0.001761 -0.000282 0.003243
# 4 -0.003685 -0.004747 0.001761 0.026752 -0.006107 -0.003128
# 5 0.001348 -0.000706 -0.000282 -0.006107 0.040652 0.002364
# 6 -0.003166 -0.000776 0.003243 -0.003128 0.002364 0.040763
#
#
# Mechanical properties :
#
#
# Convention : Reuss Voigt Hill
#
# Bulk Modulus (GPa) = 56.43264 72.25585 64.34425
# Shear Modulus (GPa) = 30.81925 37.86615 34.34270
#
# Velocity S-wave (km/s) = 3.60075 3.99123 3.80101
# Velocity P-wave (km/s) = 6.40530 7.18591 6.80681
#
# Compressibility (1/GPa) = 0.01772024
#
# Stress axis : x y z
#
# Youngs Moduli (GPa) = 60.17929 122.29756 122.73832
#
# Poissons Ratio (x) = 0.24846 0.42278
# Poissons Ratio (y) = 0.12226 0.26196
# Poissons Ratio (z) = 0.20729 0.26102
#
# Static dielectric constant tensor:
#      x y z
#    x 1.956040 -0.036100 -0.025220 
#    y -0.036100 1.396910 0.066150 
#    z -0.025220 0.066150 1.897660 
# 
# From -- ./inp_files/135127.got.cif
#   From: 2010.05.17/outbox.cif.g08.bks.cpg/sg2_68_cif.got.tgz:135127.got - 2010.06.03 11:33:40.
