data_PCOD9042068
_publ_section_title
;
Structure prediction by ZEFSAII (Michael W. Deem and Ramdas Pophale) SiO2 
 PCOD9042068
Probable space group: P -1
;
_chemical_formula_sum "Si O2"
_cell_formula_units_Z 16
_cell_length_a 15.949382
_cell_length_b 8.367062
_cell_length_c 18.791342
_cell_angle_alpha 56.846480
_cell_angle_beta 159.361558
_cell_angle_gamma 112.905499
_cell_volume 673.136605
_symmetry_space_group_name_H-M "P -1"
_symmetry_group_IT_number 2
_symmetry_cell_setting 'triclinic'
loop_
_space_group_symop_operation_xyz
x,y,z
-x,-y,-z
loop_
_atom_site_type_symbol
_atom_site_label
_atom_site_fract_x
_atom_site_fract_y
_atom_site_fract_z
Si Si1 0.729467 0.792485 0.517296
Si Si2 0.603996 0.801772 0.889416
Si Si3 0.674372 0.772811 0.226099
Si Si4 0.341549 0.556163 0.076372
Si Si5 0.223671 0.486103 0.774122
Si Si6 0.004505 0.945282 0.099546
Si Si7 0.471603 0.472833 0.362518
Si Si8 0.723770 0.834545 0.665815
O O1 0.558196 0.656600 0.408543
O O2 0.694018 0.886532 0.546427
O O3 0.037810 0.651417 0.789966
O O4 0.642420 0.979989 0.344886
O O5 0.772080 0.671120 0.120852
O O6 0.773858 0.887211 0.955371
O O7 0.522357 0.647316 0.815544
O O8 0.483091 0.708906 0.138196
O O9 0.747067 0.628693 0.249101
O O10 0.956787 0.699723 0.507649
O O11 0.500000 0.000000 0.000000
O O12 0.367218 0.499849 0.192968
O O13 0.500000 0.500000 0.000000
O O14 0.255908 0.733230 0.367050
O O15 0.024001 0.136017 0.112715
O O16 0.000000 0.000000 0.000000
O O17 0.288474 0.390765 0.282751
O O18 0.500000 0.000000 0.500000
#
# Coordination Sequence:
#
# PCOD9042068 Si02
#       8
#     2   2   2   2   2   2   2   2
#     4  12  28  44  74 109 141 198 248 303 373 443
#     4  12  25  47  74 103 153 191 248 308 374 446
#     4  11  28  47  79 110 151 193 248 308 376 453
#     4  12  27  48  71 108 146 194 242 308 374 445
#     4  11  26  50  76 114 148 198 245 307 380 451
#     4  11  22  43  75 102 142 198 239 299 378 430
#     4  11  24  46  68 104 146 184 252 303 361 442
#     4  10  23  44  69 101 147 193 244 308 371 434
#
# _framework density 23.76932
#
# number of rings (size 3 to 8) (size 9 to 14) (size 15 to 20)
#    0.000    0.750    2.500    4.875    5.250    1.000 
#    0.000    0.000    0.000    0.000    0.000    0.000 
#    0.000    0.000    0.000    0.000    0.000    0.000 
#
# Total GULP energy -89469.283028 kJ/mol
# GULP energy per Si atom -5591.830189 kJ/mol
# Density = 2.371522 g / cm^3
# Si number density = 23.769320 Si / 1000 Ang^3
#
#
#
# Elastic Constant Matrix: (Units=GPa)
#
#
# Indices 1 2 3 4 5 6 
#
# 1 64.2137 -1.9818 17.2719 -1.1248 -14.0058 14.4384
# 2 -1.9818 96.8821 58.3237 2.6053 3.6430 11.8646
# 3 17.2719 58.3237 179.8159 -4.0773 -12.6154 18.7634
# 4 -1.1248 2.6053 -4.0773 42.5678 2.5457 -3.9631
# 5 -14.0058 3.6430 -12.6154 2.5457 34.3107 -0.1113
# 6 14.4384 11.8646 18.7634 -3.9631 -0.1113 45.1828
#
#
#
# Elastic Compliance Matrix: (Units=1/GPa)
#
#
# Indices 1 2 3 4 5 6 
#
# 1 0.018831 0.001606 -0.001224 -0.000699 0.007099 -0.005975
# 2 0.001606 0.013449 -0.004468 -0.001284 -0.002328 -0.002308
# 3 -0.001224 -0.004468 0.007485 0.000660 0.002673 -0.001479
# 4 -0.000699 -0.001284 0.000660 0.023937 -0.001674 0.002382
# 5 0.007099 -0.002328 0.002673 -0.001674 0.033388 -0.002832
# 6 -0.005975 -0.002308 -0.001479 0.002382 -0.002832 0.025464
#
#
# Mechanical properties :
#
#
# Convention : Reuss Voigt Hill
#
# Bulk Modulus (GPa) = 31.65313 54.23771 42.94542
# Shear Modulus (GPa) = 35.39607 42.23209 38.81408
#
# Velocity S-wave (km/s) = 3.86314 4.21972 4.04536
# Velocity P-wave (km/s) = 5.76577 6.82710 6.31876
#
# Compressibility (1/GPa) = 0.03159246
#
# Stress axis : x y z
#
# Youngs Moduli (GPa) = 53.10305 74.35402 133.60167
#
# Poissons Ratio (x) = -0.11938 0.16352
# Poissons Ratio (y) = -0.08526 0.59695
# Poissons Ratio (z) = 0.06499 0.33222
#
# Static dielectric constant tensor:
#      x y z
#    x 1.865220 0.022010 0.017970 
#    y 0.022010 1.902180 0.008180 
#    z 0.017970 0.008180 1.981990 
# 
# From -- ./inp_files/599456.got.cif
#   From: 2010.05.17/outbox.cif.g08.bks.cpg/sg2_300_cif.got.tgz:599456.got - 2010.06.03 11:33:40.
