data_PCOD9042594
_publ_section_title
;
Structure prediction by ZEFSAII (Michael W. Deem and Ramdas Pophale) SiO2 
 PCOD9042594
Probable space group: P -1
;
_chemical_formula_sum "Si O2"
_cell_formula_units_Z 14
_cell_length_a 7.910529
_cell_length_b 6.569286
_cell_length_c 14.624193
_cell_angle_alpha 63.702578
_cell_angle_beta 68.678531
_cell_angle_gamma 102.879121
_cell_volume 563.620952
_symmetry_space_group_name_H-M "P -1"
_symmetry_group_IT_number 2
_symmetry_cell_setting 'triclinic'
loop_
_space_group_symop_operation_xyz
x,y,z
-x,-y,-z
loop_
_atom_site_type_symbol
_atom_site_label
_atom_site_fract_x
_atom_site_fract_y
_atom_site_fract_z
Si Si1 0.613577 0.677202 0.679179
Si Si2 0.324561 0.702752 0.593279
Si Si3 0.417589 0.923126 0.772097
Si Si4 0.538677 0.815988 0.097730
Si Si5 0.869890 0.642005 0.468214
Si Si6 0.937059 0.146673 0.271062
Si Si7 0.283979 0.412844 0.006192
O O1 0.401220 0.576107 0.683032
O O2 0.608864 0.917383 0.683571
O O3 0.610689 0.485608 0.796407
O O4 0.772853 0.702712 0.565230
O O5 0.291059 0.551025 0.535922
O O6 0.117861 0.710949 0.664613
O O7 0.500000 0.000000 0.500000
O O8 0.274286 0.973733 0.720929
O O9 0.464653 0.093604 0.817515
O O10 0.295948 0.640608 0.895768
O O11 0.735858 0.809341 0.015496
O O12 0.500000 0.000000 0.000000
O O13 0.000000 0.500000 0.500000
O O14 0.978833 0.916969 0.342767
O O15 0.108051 0.325194 0.132073
O O16 0.500000 0.500000 0.000000
#
# Coordination Sequence:
#
# PCOD9042594 Si02
#       7
#     2   2   2   2   2   2   2
#     4  10  24  42  72 104 138 187 238 287 354 437
#     4  11  24  48  76 105 143 193 242 292 355 434
#     4  10  23  44  73 101 137 186 242 291 350 426
#     4  11  23  40  69 100 136 188 229 292 357 418
#     4  12  28  45  70 112 147 187 239 298 364 430
#     4  11  26  46  73 103 146 190 237 296 355 433
#     4  11  24  44  67 106 143 184 238 293 359 423
#
# _framework density 24.839386999999999
#
# number of rings (size 3 to 8) (size 9 to 14) (size 15 to 20)
#    0.000    1.143    2.857    1.714    6.000    4.571 
#    2.571    0.000    0.000    0.000    0.000    0.000 
#    0.000    0.000    0.000    0.000    0.000    0.000 
#
# Total GULP energy -78275.439134 kJ/mol
# GULP energy per Si atom -5591.102795 kJ/mol
# Density = 2.478285 g / cm^3
# Si number density = 24.839387 Si / 1000 Ang^3
#
#
#
# Elastic Constant Matrix: (Units=GPa)
#
#
# Indices 1 2 3 4 5 6 
#
# 1 102.6506 30.6315 22.6638 8.6503 16.7434 -13.2547
# 2 30.6315 104.3741 34.9769 36.7844 0.1059 -21.6710
# 3 22.6638 34.9769 127.0219 20.1018 2.3247 -9.1859
# 4 8.6503 36.7844 20.1018 66.6823 -12.9181 15.2624
# 5 16.7434 0.1059 2.3247 -12.9181 48.9972 5.0494
# 6 -13.2547 -21.6710 -9.1859 15.2624 5.0494 37.7091
#
#
#
# Elastic Compliance Matrix: (Units=1/GPa)
#
#
# Indices 1 2 3 4 5 6 
#
# 1 0.012087 -0.001088 -0.000904 -0.002964 -0.005416 0.005328
# 2 -0.001088 0.019189 -0.001390 -0.014961 -0.005307 0.017072
# 3 -0.000904 -0.001390 0.008999 -0.002537 -0.001015 0.002238
# 4 -0.002964 -0.014961 -0.002537 0.032525 0.012325 -0.025072
# 5 -0.005416 -0.005307 -0.001015 0.012325 0.026991 -0.013803
# 6 0.005328 0.017072 0.002238 -0.025072 -0.013803 0.050744
#
#
# Mechanical properties :
#
#
# Convention : Reuss Voigt Hill
#
# Bulk Modulus (GPa) = 29.84133 56.73234 43.28683
# Shear Modulus (GPa) = 29.67892 47.06267 38.37080
#
# Velocity S-wave (km/s) = 3.46039 4.35751 3.93460
# Velocity P-wave (km/s) = 5.29202 6.94309 6.17300
#
# Compressibility (1/GPa) = 0.03351058
#
# Stress axis : x y z
#
# Youngs Moduli (GPa) = 82.73286 52.11349 111.12682
#
# Poissons Ratio (x) = 0.05671 0.10040
# Poissons Ratio (y) = 0.09003 0.15450
# Poissons Ratio (z) = 0.07475 0.07246
#
# Static dielectric constant tensor:
#      x y z
#    x 2.011520 0.059490 -0.032160 
#    y 0.059490 2.126390 -0.016670 
#    z -0.032160 -0.016670 1.972160 
# 
# From -- ./inp_files/488118.got.cif
#   From: 2010.05.17/outbox.cif.g08.bks.cpg/sg2_245_cif.got.tgz:488118.got - 2010.06.03 11:33:40.
