data_PCOD9042189
_publ_section_title
;
Structure prediction by ZEFSAII (Michael W. Deem and Ramdas Pophale) SiO2 
 PCOD9042189
Probable space group: P -1
;
_chemical_formula_sum "Si O2"
_cell_formula_units_Z 15
_cell_length_a 7.669311
_cell_length_b 21.259936
_cell_length_c 6.507892
_cell_angle_alpha 111.706100
_cell_angle_beta 67.904667
_cell_angle_gamma 138.800006
_cell_volume 641.021484
_symmetry_space_group_name_H-M "P -1"
_symmetry_group_IT_number 2
_symmetry_cell_setting 'triclinic'
loop_
_space_group_symop_operation_xyz
x,y,z
-x,-y,-z
loop_
_atom_site_type_symbol
_atom_site_label
_atom_site_fract_x
_atom_site_fract_y
_atom_site_fract_z
Si Si1 0.566977 0.650857 0.394496
Si Si2 0.048594 0.059717 0.244866
Si Si3 0.710088 0.301938 0.673071
Si Si4 0.256398 0.449030 0.389736
Si Si5 0.373779 0.259710 0.126602
Si Si6 0.464904 0.877725 0.684664
Si Si7 0.500000 0.000000 0.500000
Si Si8 0.030057 0.265046 0.007987
O O1 0.469847 0.694090 0.380650
O O2 0.355315 0.536810 0.312108
O O3 0.563136 0.663891 0.653057
O O4 0.859432 0.707911 0.240876
O O5 0.236984 0.168380 0.214256
O O6 0.768143 0.936345 0.676083
O O7 0.771367 0.021381 0.395181
O O8 0.000000 0.000000 0.000000
O O9 0.644515 0.208193 0.526660
O O10 0.006734 0.397030 0.588111
O O11 0.628666 0.296522 0.935934
O O12 0.500000 0.500000 0.500000
O O13 0.158538 0.363285 0.181854
O O14 0.165478 0.235533 0.024773
O O15 0.415175 0.937289 0.675088
O O16 0.282435 0.821435 0.904326
#
# Coordination Sequence:
#
# PCOD9042189 Si02
#       8
#     2   2   2   2   2   2   1   2
#     4  11  22  42  69  99 141 188 236 291 354 425
#     4  12  27  47  72 110 144 186 247 304 374 443
#     4  10  24  43  69  96 143 184 238 292 351 433
#     4  11  22  40  64 104 138 184 238 291 350 417
#     4  11  22  45  68 100 137 190 234 293 367 425
#     4  11  24  49  72 106 142 191 242 299 371 436
#     4  12  26  46  76 102 144 184 242 306 366 442
#     4  10  23  44  69  99 145 187 235 294 356 429
#
# _framework density 23.400153
#
# number of rings (size 3 to 8) (size 9 to 14) (size 15 to 20)
#    0.000    1.067    4.000    2.000    0.000    3.200 
#    2.400    0.000    0.000    0.000    0.000    0.000 
#    0.000    0.000    0.000    0.000    0.000    0.000 
#
# Total GULP energy -83647.111541 kJ/mol
# GULP energy per Si atom -5576.474103 kJ/mol
# Density = 2.334689 g / cm^3
# Si number density = 23.400153 Si / 1000 Ang^3
#
#
#
# Elastic Constant Matrix: (Units=GPa)
#
#
# Indices 1 2 3 4 5 6 
#
# 1 105.6116 25.6116 23.8606 -2.2942 -9.9306 14.3526
# 2 25.6116 59.7012 23.2562 -6.9746 -2.2763 6.7126
# 3 23.8606 23.2562 121.6112 -32.4168 -28.3360 32.4956
# 4 -2.2942 -6.9746 -32.4168 25.3718 9.8348 -13.0782
# 5 -9.9306 -2.2763 -28.3360 9.8348 35.0118 -20.1070
# 6 14.3526 6.7126 32.4956 -13.0782 -20.1070 39.3539
#
#
#
# Elastic Compliance Matrix: (Units=1/GPa)
#
#
# Indices 1 2 3 4 5 6 
#
# 1 0.011263 -0.004390 -0.001337 -0.003878 0.001247 -0.002907
# 2 -0.004390 0.019983 -0.003021 0.002389 -0.003130 -0.000118
# 3 -0.001337 -0.003021 0.015217 0.014313 0.005394 -0.004050
# 4 -0.003878 0.002389 0.014313 0.063546 -0.001829 0.009372
# 5 0.001247 -0.003130 0.005394 -0.001829 0.043491 0.017238
# 6 -0.002907 -0.000118 -0.004050 0.009372 0.017238 0.041757
#
#
# Mechanical properties :
#
#
# Convention : Reuss Voigt Hill
#
# Bulk Modulus (GPa) = 34.52086 48.04232 41.28159
# Shear Modulus (GPa) = 22.48108 34.22722 28.35415
#
# Velocity S-wave (km/s) = 3.10292 3.82866 3.48474
# Velocity P-wave (km/s) = 5.25565 6.33405 5.81989
#
# Compressibility (1/GPa) = 0.02896799
#
# Stress axis : x y z
#
# Youngs Moduli (GPa) = 88.78385 50.04214 65.71540
#
# Poissons Ratio (x) = 0.21968 0.08785
# Poissons Ratio (y) = 0.38975 0.19853
# Poissons Ratio (z) = 0.11869 0.15118
#
# Static dielectric constant tensor:
#      x y z
#    x 1.934740 -0.433800 -0.296540 
#    y -0.433800 5.689410 2.673670 
#    z -0.296540 2.673670 3.815970 
# 
# From -- ./inp_files/55022.got.cif
#   From: 2010.05.17/outbox.cif.g08.bks.cpg/sg2_28_cif.got.tgz:55022.got - 2010.06.03 11:33:40.
