data_PCOD9042795
_publ_section_title
;
Structure prediction by ZEFSAII (Michael W. Deem and Ramdas Pophale) SiO2 
 PCOD9042795
Probable space group: P -1
;
_chemical_formula_sum "Si O2"
_cell_formula_units_Z 12
_cell_length_a 24.548617
_cell_length_b 4.935274
_cell_length_c 10.399850
_cell_angle_alpha 88.206653
_cell_angle_beta 23.918632
_cell_angle_gamma 97.400393
_cell_volume 470.502619
_symmetry_space_group_name_H-M "P -1"
_symmetry_group_IT_number 2
_symmetry_cell_setting 'triclinic'
loop_
_space_group_symop_operation_xyz
x,y,z
-x,-y,-z
loop_
_atom_site_type_symbol
_atom_site_label
_atom_site_fract_x
_atom_site_fract_y
_atom_site_fract_z
Si Si1 0.658380 0.845000 0.137091
Si Si2 0.474432 0.849376 0.767916
Si Si3 0.656918 0.598794 0.726619
Si Si4 0.906311 0.177515 0.153426
Si Si5 0.160459 0.499981 0.165961
Si Si6 0.755262 0.319904 0.284222
O O1 0.533385 0.720246 0.520138
O O2 0.590829 0.925671 0.153895
O O3 0.777564 0.698625 0.879703
O O4 0.745111 0.170319 0.001520
O O5 0.609433 0.045116 0.564074
O O6 0.365353 0.584803 0.091692
O O7 0.739329 0.484553 0.443728
O O8 0.743522 0.948753 0.550958
O O9 0.500000 0.500000 0.000000
O O10 0.882840 0.212216 0.051344
O O11 0.000000 0.500000 0.000000
O O12 0.000000 0.000000 0.000000
O O13 0.000000 0.500000 0.500000
O O14 0.204170 0.462212 0.926058
#
# Coordination Sequence:
#
# PCOD9042795 Si02
#       6
#     2   2   2   2   2   2
#     4  10  24  47  71 113 148 194 254 329 374 445
#     4  10  23  44  77 114 153 195 256 326 388 453
#     4  12  24  44  78 117 150 203 256 313 390 463
#     4  12  27  49  70 108 159 202 247 308 386 460
#     4  11  25  47  72 102 148 206 257 305 386 469
#     4  11  25  46  74 107 154 194 253 322 387 446
#
# _framework density 25.504639999999998
#
# number of rings (size 3 to 8) (size 9 to 14) (size 15 to 20)
#    0.000    1.000    3.333    2.000    2.333    8.667 
#    3.000    0.000    0.000    0.000    0.000    0.000 
#    0.000    0.000    0.000    0.000    0.000    0.000 
#
# Total GULP energy -67104.276014 kJ/mol
# GULP energy per Si atom -5592.023001 kJ/mol
# Density = 2.544659 g / cm^3
# Si number density = 25.504640 Si / 1000 Ang^3
#
#
#
# Elastic Constant Matrix: (Units=GPa)
#
#
# Indices 1 2 3 4 5 6 
#
# 1 148.5217 56.9714 55.0220 -7.3435 -29.9052 -23.4013
# 2 56.9714 172.4525 50.2333 -0.5600 -11.0347 -15.4466
# 3 55.0220 50.2333 86.8532 9.7651 -27.1974 -0.9129
# 4 -7.3435 -0.5600 9.7651 43.7545 -3.1562 -14.8137
# 5 -29.9052 -11.0347 -27.1974 -3.1562 50.7294 14.6663
# 6 -23.4013 -15.4466 -0.9129 -14.8137 14.6663 50.2714
#
#
#
# Elastic Compliance Matrix: (Units=1/GPa)
#
#
# Indices 1 2 3 4 5 6 
#
# 1 0.011015 -0.001146 -0.006393 0.005331 0.001471 0.005801
# 2 -0.001146 0.007618 -0.004522 0.001729 -0.002164 0.002866
# 3 -0.006393 -0.004522 0.021877 -0.008441 0.009084 -0.009106
# 4 0.005331 0.001729 -0.008441 0.029655 -0.002746 0.012399
# 5 0.001471 -0.002164 0.009084 -0.002746 0.027291 -0.008586
# 6 0.005801 0.002866 -0.009106 0.012399 -0.008586 0.029466
#
#
# Mechanical properties :
#
#
# Convention : Reuss Voigt Hill
#
# Bulk Modulus (GPa) = 61.01900 81.36454 71.19177
# Shear Modulus (GPa) = 31.94751 45.32443 38.63597
#
# Velocity S-wave (km/s) = 3.54307 4.22015 3.89634
# Velocity P-wave (km/s) = 6.38078 7.46440 6.94376
#
# Compressibility (1/GPa) = 0.01638834
#
# Stress axis : x y z
#
# Youngs Moduli (GPa) = 90.78851 131.26254 45.70993
#
# Poissons Ratio (x) = 0.15037 0.29222
# Poissons Ratio (y) = 0.10400 0.20671
# Poissons Ratio (z) = 0.58041 0.59361
#
# Static dielectric constant tensor:
#      x y z
#    x 1.979470 -0.050390 -0.057890 
#    y -0.050390 2.120500 0.105610 
#    z -0.057890 0.105610 2.244280 
# 
# From -- ./inp_files/476005.got.cif
#   From: 2010.05.17/outbox.cif.g08.bks.cpg/sg2_239_cif.got.tgz:476005.got - 2010.06.03 11:33:40.
