data_PCOD9042626
_publ_section_title
;
Structure prediction by ZEFSAII (Michael W. Deem and Ramdas Pophale) SiO2 
 PCOD9042626
Probable space group: P -1
;
_chemical_formula_sum "Si O2"
_cell_formula_units_Z 16
_cell_length_a 23.179797
_cell_length_b 5.515675
_cell_length_c 5.584285
_cell_angle_alpha 82.206193
_cell_angle_beta 80.758760
_cell_angle_gamma 65.032184
_cell_volume 637.001536
_symmetry_space_group_name_H-M "P -1"
_symmetry_group_IT_number 2
_symmetry_cell_setting 'triclinic'
loop_
_space_group_symop_operation_xyz
x,y,z
-x,-y,-z
loop_
_atom_site_type_symbol
_atom_site_label
_atom_site_fract_x
_atom_site_fract_y
_atom_site_fract_z
Si Si1 0.725760 0.330154 0.594531
Si Si2 0.533599 0.285427 0.313123
Si Si3 0.651494 0.758529 0.245613
Si Si4 0.856386 0.146954 0.285996
Si Si5 0.441200 0.280549 0.062897
Si Si6 0.009762 0.343829 0.763649
Si Si7 0.876518 0.366306 0.752715
Si Si8 0.249109 0.226025 0.150027
O O1 0.667527 0.506929 0.440622
O O2 0.787621 0.171042 0.410189
O O3 0.739660 0.552644 0.715288
O O4 0.716460 0.088131 0.764685
O O5 0.500000 0.500000 0.500000
O O6 0.467207 0.250200 0.314446
O O7 0.598615 0.029048 0.354401
O O8 0.555366 0.448419 0.075921
O O9 0.620054 0.730693 0.017431
O O10 0.719916 0.759294 0.129002
O O11 0.873348 0.297753 0.483317
O O12 0.917904 0.870221 0.269005
O O13 0.848791 0.245742 0.002378
O O14 0.500000 0.000000 0.000000
O O15 0.000000 0.500000 0.500000
O O16 0.950549 0.257190 0.796404
O O17 0.000000 0.500000 0.000000
O O18 0.828160 0.678192 0.788444
#
# Coordination Sequence:
#
# PCOD9042626 Si02
#       8
#     2   2   2   2   2   2   2   2
#     4  11  27  47  75 111 150 206 255 322 388 468
#     4  10  23  44  73 105 142 188 239 309 382 451
#     4  11  25  47  72 107 146 196 251 311 381 474
#     4  11  23  46  71 107 151 208 265 328 397 469
#     4   9  22  43  67 100 140 181 235 298 370 448
#     4  12  24  40  68 111 148 209 266 331 397 469
#     4  11  23  46  72 104 153 207 263 332 395 471
#     4  11  27  48  73 110 153 201 258 319 390 469
#
# _framework density 25.117681000000001
#
# number of rings (size 3 to 8) (size 9 to 14) (size 15 to 20)
#    0.000    1.250    1.250    3.000    3.500    8.000 
#    0.000    0.000    0.000    0.000    0.000    0.000 
#    0.000    0.000    0.000    0.000    0.000    0.000 
#
# Total GULP energy -89095.173028 kJ/mol
# GULP energy per Si atom -5568.448314 kJ/mol
# Density = 2.506051 g / cm^3
# Si number density = 25.117681 Si / 1000 Ang^3
#
#
#
# Elastic Constant Matrix: (Units=GPa)
#
#
# Indices 1 2 3 4 5 6 
#
# 1 63.2264 30.9561 1.4709 22.3501 -0.5134 -30.7112
# 2 30.9561 163.8802 41.9557 -11.9673 -4.0969 -40.2761
# 3 1.4709 41.9557 80.0627 3.7646 2.5585 -3.8502
# 4 22.3501 -11.9673 3.7646 52.5482 0.3693 0.1455
# 5 -0.5134 -4.0969 2.5585 0.3693 51.0029 2.5525
# 6 -30.7112 -40.2761 -3.8502 0.1455 2.5525 52.9837
#
#
#
# Elastic Compliance Matrix: (Units=1/GPa)
#
#
# Indices 1 2 3 4 5 6 
#
# 1 0.029408 -0.003710 0.002765 -0.013586 -0.000768 0.014501
# 2 -0.003710 0.009530 -0.004915 0.004083 0.000710 0.004691
# 3 0.002765 -0.004915 0.015161 -0.003371 -0.001054 -0.000972
# 4 -0.013586 0.004083 -0.003371 0.025991 0.000428 -0.005108
# 5 -0.000768 0.000710 -0.001054 0.000428 0.019753 -0.000935
# 6 0.014501 0.004691 -0.000972 -0.005108 -0.000935 0.030833
#
#
# Mechanical properties :
#
#
# Convention : Reuss Voigt Hill
#
# Bulk Modulus (GPa) = 23.59729 50.65942 37.12836
# Shear Modulus (GPa) = 31.94423 46.82609 39.38516
#
# Velocity S-wave (km/s) = 3.57007 4.32240 3.96413
# Velocity P-wave (km/s) = 5.13897 6.71740 5.98049
#
# Compressibility (1/GPa) = 0.04237774
#
# Stress axis : x y z
#
# Youngs Moduli (GPa) = 34.00392 104.93203 65.96082
#
# Poissons Ratio (x) = 0.38934 -0.18237
# Poissons Ratio (y) = 0.12617 0.32420
# Poissons Ratio (z) = -0.09402 0.51574
#
# Static dielectric constant tensor:
#      x y z
#    x 2.135430 0.007150 -0.086760 
#    y 0.007150 1.965210 -0.062200 
#    z -0.086760 -0.062200 1.978900 
# 
# From -- ./inp_files/14392.got.cif
#   From: 2010.05.17/outbox.cif.g08.bks.cpg/sg2_8_cif.got.tgz:14392.got - 2010.06.03 11:33:40.
