data_PCOD9042785
_publ_section_title
;
Structure prediction by ZEFSAII (Michael W. Deem and Ramdas Pophale) SiO2 
 PCOD9042785
Probable space group: P -1
;
_chemical_formula_sum "Si O2"
_cell_formula_units_Z 11
_cell_length_a 5.496211
_cell_length_b 16.314620
_cell_length_c 15.191924
_cell_angle_alpha 161.095913
_cell_angle_beta 89.851012
_cell_angle_gamma 88.754923
_cell_volume 440.111393
_symmetry_space_group_name_H-M "P -1"
_symmetry_group_IT_number 2
_symmetry_cell_setting 'triclinic'
loop_
_space_group_symop_operation_xyz
x,y,z
-x,-y,-z
loop_
_atom_site_type_symbol
_atom_site_label
_atom_site_fract_x
_atom_site_fract_y
_atom_site_fract_z
Si Si1 0.306461 0.273286 0.089314
Si Si2 0.500000 0.000000 0.500000
Si Si3 0.125806 0.241563 0.872870
Si Si4 0.374342 0.262340 0.457064
Si Si5 0.764712 0.838085 0.832854
Si Si6 0.848455 0.756901 0.374664
O O1 0.464887 0.500457 0.291456
O O2 0.225025 0.322049 0.239751
O O3 0.114455 0.251346 0.988936
O O4 0.458728 0.001107 0.813809
O O5 0.388319 0.144568 0.737367
O O6 0.386656 0.237995 0.680969
O O7 0.956728 0.022485 0.618942
O O8 0.031841 0.513317 0.112706
O O9 0.238140 0.295760 0.397699
O O10 0.207913 0.243428 0.522657
O O11 0.500000 0.000000 0.000000
O O12 0.000000 0.000000 0.000000
#
# Coordination Sequence:
#
# PCOD9042785 Si02
#       6
#     2   1   2   2   2   2
#     4  11  23  46  73 108 151 197 246 312 379 452
#     4  12  28  50  76 102 158 180 266 310 402 436
#     4  12  27  47  75 109 144 199 252 313 387 458
#     4  11  23  46  73 108 151 197 246 312 379 452
#     4  10  23  44  76 112 156 203 257 311 384 460
#     4  12  27  47  75 109 144 199 252 313 387 458
#
# _framework density 24.993673999999999
#
# number of rings (size 3 to 8) (size 9 to 14) (size 15 to 20)
#    0.000    0.727    1.818    4.909    0.000    4.364 
#    0.000    8.182    0.000    0.000    0.000    0.000 
#    0.000    0.000    0.000    0.000    0.000    0.000 
#
# Total GULP energy -61356.466741 kJ/mol
# GULP energy per Si atom -5577.860613 kJ/mol
# Density = 2.493679 g / cm^3
# Si number density = 24.993674 Si / 1000 Ang^3
#
#
#
# Elastic Constant Matrix: (Units=GPa)
#
#
# Indices 1 2 3 4 5 6 
#
# 1 615.8369 -277.2569 -11.8897 -732.7324 962.2933-1825.8762
# 2 -277.2569 185.8580 -94.2635 236.8709 -478.4653 951.7884
# 3 -11.8897 -94.2635 -1.3709 -16.3893 -35.1896 151.4188
# 4 -732.7324 236.8709 -16.3893 949.2727-1306.0885 2503.1390
# 5 962.2933 -478.4653 -35.1896-1306.0885 1795.0200-3265.1441
# 6 -1825.8762 951.7884 151.4188 2503.1390-3265.1441 6171.5667
#
#
#
# Elastic Compliance Matrix: (Units=1/GPa)
#
#
# Indices 1 2 3 4 5 6 
#
# 1 0.015210 0.001565 -0.005905 0.005941 0.002577 0.003357
# 2 0.001565 0.003269 -0.003102 -0.003060 0.001760 0.002208
# 3 -0.005905 -0.003102 0.016937 -0.015394 -0.006280 0.001237
# 4 0.005941 -0.003060 -0.015394 0.012892 0.008221 0.001728
# 5 0.002577 0.001760 -0.006280 0.008221 0.016248 0.005907
# 6 0.003357 0.002208 0.001237 0.001728 0.005907 0.003209
#
#
# Mechanical properties :
#
#
# Convention : Reuss Voigt Hill
#
# Bulk Modulus (GPa) = 48.70358 3.72267 26.21313
# Shear Modulus (GPa) = 55.87091 1862.08748 958.97920
#
# Velocity S-wave (km/s) = 4.73313 27.32473 19.60923
# Velocity P-wave (km/s) = 7.02842 31.57553 22.87370
#
# Compressibility (1/GPa) = 0.02053237
#
# Stress axis : x y z
#
# Youngs Moduli (GPa) = 65.74564 305.92035 59.04393
#
# Poissons Ratio (x) = -0.47882 0.34865
# Poissons Ratio (y) = -0.10290 0.18314
# Poissons Ratio (z) = 0.38822 0.94891
#
# Static dielectric constant tensor:
#      x y z
#    x 2.254600 -0.027820 0.271860 
#    y -0.027820 1.987830 -0.083940 
#    z 0.271860 -0.083940 2.248600 
# 
# From -- ./inp_files/8739.got.cif
#   From: 2010.05.17/outbox.cif.g08.bks.cpg/sg2_5_cif.got.tgz:8739.got - 2010.06.03 11:33:40.
