data_PCOD9042562
_publ_section_title
;
Structure prediction by ZEFSAII (Michael W. Deem and Ramdas Pophale) SiO2 
 PCOD9042562
Probable space group: P -1
;
_chemical_formula_sum "Si O2"
_cell_formula_units_Z 16
_cell_length_a 17.482906
_cell_length_b 13.569057
_cell_length_c 11.018372
_cell_angle_alpha 32.604933
_cell_angle_beta 49.042838
_cell_angle_gamma 29.473057
_cell_volume 662.395773
_symmetry_space_group_name_H-M "P -1"
_symmetry_group_IT_number 2
_symmetry_cell_setting 'triclinic'
loop_
_space_group_symop_operation_xyz
x,y,z
-x,-y,-z
loop_
_atom_site_type_symbol
_atom_site_label
_atom_site_fract_x
_atom_site_fract_y
_atom_site_fract_z
Si Si1 0.525796 0.587646 0.262034
Si Si2 0.065487 0.319412 0.243253
Si Si3 0.862146 0.182379 0.058624
Si Si4 0.847724 0.076882 0.850673
Si Si5 0.621574 0.660045 0.640171
Si Si6 0.321574 0.906870 0.576354
Si Si7 0.818995 0.187851 0.488292
Si Si8 0.248014 0.185539 0.796176
O O1 0.500000 0.500000 0.500000
O O2 0.567777 0.390306 0.311747
O O3 0.677897 0.495630 0.247483
O O4 0.381776 0.923926 0.023515
O O5 0.903669 0.507776 0.294081
O O6 0.205154 0.201713 0.309112
O O7 0.163276 0.011157 0.409528
O O8 0.000000 0.500000 0.000000
O O9 0.699835 0.519864 0.836946
O O10 0.803994 0.056976 0.267568
O O11 0.965865 0.119747 0.126170
O O12 0.000000 0.000000 0.000000
O O13 0.731915 0.366671 0.749935
O O14 0.787218 0.183702 0.665005
O O15 0.826544 0.895454 0.097856
O O16 0.439662 0.849759 0.603290
O O17 0.666064 0.797274 0.402414
O O18 0.000000 0.000000 0.500000
#
# Coordination Sequence:
#
# PCOD9042562 Si02
#       8
#     2   2   2   2   2   2   2   2
#     4  11  21  41  67  97 141 180 214 266 334 409
#     4  11  22  38  62 100 137 168 226 270 322 410
#     4  10  23  44  72  96 126 182 229 283 344 387
#     4  11  21  43  68  93 138 176 221 279 339 397
#     4  11  24  43  68  98 130 175 230 283 336 393
#     4  11  22  44  70  96 141 177 219 280 340 400
#     4  11  21  37  64  94 132 181 216 268 335 397
#     4  12  23  42  69 100 137 177 226 273 336 407
#
# _framework density 24.154743
#
# number of rings (size 3 to 8) (size 9 to 14) (size 15 to 20)
#    0.000    1.000    3.750    4.875    0.000    1.500 
#    2.250    4.375    0.000    0.000    0.000    0.000 
#    0.000    0.000    0.000    0.000    0.000    0.000 
#
# Total GULP energy -89317.531919 kJ/mol
# GULP energy per Si atom -5582.345745 kJ/mol
# Density = 2.409977 g / cm^3
# Si number density = 24.154743 Si / 1000 Ang^3
#
#
#
# Elastic Constant Matrix: (Units=GPa)
#
#
# Indices 1 2 3 4 5 6 
#
# 1 123.3659 38.7143 49.7106 -12.3856 29.2801 -41.6564
# 2 38.7143 92.9241 26.1021 -6.0501 4.8550 -15.6167
# 3 49.7106 26.1021 109.6575 -4.9983 29.7949 -29.5505
# 4 -12.3856 -6.0501 -4.9983 36.6426 -22.7097 1.6843
# 5 29.2801 4.8550 29.7949 -22.7097 44.6943 -15.8078
# 6 -41.6564 -15.6167 -29.5505 1.6843 -15.8078 58.7472
#
#
#
# Elastic Compliance Matrix: (Units=1/GPa)
#
#
# Indices 1 2 3 4 5 6 
#
# 1 0.013337 -0.003598 -0.002340 0.000664 -0.004272 0.006155
# 2 -0.003598 0.013039 -0.002307 0.003370 0.004498 0.000868
# 3 -0.002340 -0.002307 0.013556 -0.004999 -0.008990 0.002271
# 4 0.000664 0.003370 -0.004999 0.043451 0.026262 0.004673
# 5 -0.004272 0.004498 -0.008990 0.026262 0.045873 0.005235
# 6 0.006155 0.000868 0.002271 0.004673 0.005235 0.024034
#
#
# Mechanical properties :
#
#
# Convention : Reuss Voigt Hill
#
# Bulk Modulus (GPa) = 42.66000 61.66684 52.16342
# Shear Modulus (GPa) = 28.15399 42.11151 35.13275
#
# Velocity S-wave (km/s) = 3.41775 4.17994 3.81791
# Velocity P-wave (km/s) = 5.76837 6.99151 6.40919
#
# Compressibility (1/GPa) = 0.02344116
#
# Stress axis : x y z
#
# Youngs Moduli (GPa) = 74.97945 76.69310 73.76835
#
# Poissons Ratio (x) = 0.27598 0.17260
# Poissons Ratio (y) = 0.26981 0.17020
# Poissons Ratio (z) = 0.17543 0.17695
#
# Static dielectric constant tensor:
#      x y z
#    x 2.107680 -0.130210 0.159360 
#    y -0.130210 2.059150 -0.013320 
#    z 0.159360 -0.013320 2.013220 
# 
# From -- ./inp_files/466024.got.cif
#   From: 2010.05.17/outbox.cif.g08.bks.cpg/sg2_234_cif.got.tgz:466024.got - 2010.06.03 11:33:40.
