data_PCOD9042963
_publ_section_title
;
Structure prediction by ZEFSAII (Michael W. Deem and Ramdas Pophale) SiO2 
 PCOD9042963
Probable space group: P -1
;
_chemical_formula_sum "Si O2"
_cell_formula_units_Z 13
_cell_length_a 11.169410
_cell_length_b 7.039357
_cell_length_c 13.585741
_cell_angle_alpha 101.555404
_cell_angle_beta 145.201378
_cell_angle_gamma 94.691623
_cell_volume 536.189236
_symmetry_space_group_name_H-M "P -1"
_symmetry_group_IT_number 2
_symmetry_cell_setting 'triclinic'
loop_
_space_group_symop_operation_xyz
x,y,z
-x,-y,-z
loop_
_atom_site_type_symbol
_atom_site_label
_atom_site_fract_x
_atom_site_fract_y
_atom_site_fract_z
Si Si1 0.647489 0.423161 0.299962
Si Si2 0.500000 0.500000 0.500000
Si Si3 0.549457 0.303691 0.720363
Si Si4 0.225764 0.999147 0.203319
Si Si5 0.072886 0.922623 0.312486
Si Si6 0.095048 0.512953 0.727489
Si Si7 0.358520 0.969959 0.002048
O O1 0.456213 0.512676 0.193096
O O2 0.760690 0.478647 0.273286
O O3 0.859271 0.523802 0.531184
O O4 0.528922 0.163842 0.205513
O O5 0.575817 0.413246 0.642288
O O6 0.410456 0.250874 0.364191
O O7 0.705271 0.174793 0.820073
O O8 0.286733 0.112543 0.531208
O O9 0.165196 0.913086 0.265180
O O10 0.000000 0.000000 0.000000
O O11 0.984983 0.705497 0.291079
O O12 0.861059 0.983508 0.162047
O O13 0.248374 0.716150 0.920342
O O14 0.500000 0.000000 0.000000
#
# Coordination Sequence:
#
# PCOD9042963 Si02
#       7
#     2   1   2   2   2   2   2
#     4  10  23  45  71 106 139 186 234 286 357 426
#     4  10  24  48  76  98 146 180 234 298 350 416
#     4  11  25  46  74 107 139 190 236 294 356 416
#     4  11  28  50  70 105 140 190 242 290 355 424
#     4  11  24  45  73 101 137 189 234 291 361 410
#     4  10  23  47  70 100 149 181 228 297 351 417
#     4  10  23  45  67 103 144 184 233 286 352 421
#
# _framework density 24.245172
#
# number of rings (size 3 to 8) (size 9 to 14) (size 15 to 20)
#    0.000    1.538    1.538    1.846    6.462    3.692 
#   11.077    0.000    0.000    0.000    0.000    0.000 
#    0.000    0.000    0.000    0.000    0.000    0.000 
#
# Total GULP energy -72491.159187 kJ/mol
# GULP energy per Si atom -5576.243014 kJ/mol
# Density = 2.418999 g / cm^3
# Si number density = 24.245172 Si / 1000 Ang^3
#
#
#
# Elastic Constant Matrix: (Units=GPa)
#
#
# Indices 1 2 3 4 5 6 
#
# 1 -74.2069 -198.6955 -93.7045 -42.9860 -25.5552 14.8803
# 2 -198.6955 -305.7727 -196.8259 -69.9874 -59.3483 70.9876
# 3 -93.7045 -196.8259 -48.7900 -19.5943 -28.7734 14.7258
# 4 -42.9860 -69.9874 -19.5943 28.6528 -18.8953 13.3696
# 5 -25.5552 -59.3483 -28.7734 -18.8953 22.3115 2.4995
# 6 14.8803 70.9876 14.7258 13.3696 2.4995 44.9460
#
#
#
# Elastic Compliance Matrix: (Units=1/GPa)
#
#
# Indices 1 2 3 4 5 6 
#
# 1 0.031543 -0.011302 -0.010712 0.004369 -0.005157 0.009904
# 2 -0.011302 0.006619 -0.003880 -0.002837 -0.002245 -0.004472
# 3 -0.010712 -0.003880 0.024548 -0.013364 -0.002897 0.005769
# 4 0.004369 -0.002837 -0.013364 0.030363 0.006157 -0.001962
# 5 -0.005157 -0.002245 -0.002897 0.006157 0.034141 0.002473
# 6 0.009904 -0.004472 0.005769 -0.001962 0.002473 0.024588
#
#
# Mechanical properties :
#
#
# Convention : Reuss Voigt Hill
#
# Bulk Modulus (GPa) = 91.56119 -156.35792 -32.39837
# Shear Modulus (GPa) = 24.12762 23.21247 23.67004
#
# Velocity S-wave (km/s) = 3.15802 3.09755 3.12794
# Velocity P-wave (km/s) = 7.15152 7.19981 0.58866
#
# Compressibility (1/GPa) = 0.01092166
#
# Stress axis : x y z
#
# Youngs Moduli (GPa) = 31.70249 151.09016 40.73606
#
# Poissons Ratio (x) = 1.70759 0.43636
# Poissons Ratio (y) = 0.35829 0.15808
# Poissons Ratio (z) = 0.33960 0.58630
#
# Static dielectric constant tensor:
#      x y z
#    x 1.950910 -0.023380 0.003550 
#    y -0.023380 1.873040 0.025870 
#    z 0.003550 0.025870 1.945470 
# 
# From -- ./inp_files/89493.got.cif
#   From: 2010.05.17/outbox.cif.g08.bks.cpg/sg2_45_cif.got.tgz:89493.got - 2010.06.03 11:33:40.
