data_PCOD9042264
_publ_section_title
;
Structure prediction by ZEFSAII (Michael W. Deem and Ramdas Pophale) SiO2 
 PCOD9042264
Probable space group: P -1
;
_chemical_formula_sum "Si O2"
_cell_formula_units_Z 14
_cell_length_a 5.617122
_cell_length_b 20.028842
_cell_length_c 9.800291
_cell_angle_alpha 38.325027
_cell_angle_beta 107.538619
_cell_angle_gamma 113.237742
_cell_volume 628.199624
_symmetry_space_group_name_H-M "P -1"
_symmetry_group_IT_number 2
_symmetry_cell_setting 'triclinic'
loop_
_space_group_symop_operation_xyz
x,y,z
-x,-y,-z
loop_
_atom_site_type_symbol
_atom_site_label
_atom_site_fract_x
_atom_site_fract_y
_atom_site_fract_z
Si Si1 0.902732 0.089360 0.428310
Si Si2 0.767607 0.532451 0.075404
Si Si3 0.581491 0.863267 0.413300
Si Si4 0.695840 0.480899 0.443730
Si Si5 0.923104 0.319330 0.341275
Si Si6 0.636735 0.762023 0.302702
Si Si7 0.505258 0.923936 0.821739
O O1 0.734780 0.140947 0.211172
O O2 0.157325 0.155331 0.446165
O O3 0.703248 0.013675 0.620054
O O4 0.000000 0.000000 0.500000
O O5 0.706616 0.551727 0.191451
O O6 0.875619 0.423557 0.251075
O O7 0.500000 0.500000 0.000000
O O8 0.953962 0.629148 0.863414
O O9 0.336991 0.776854 0.578281
O O10 0.555902 0.827084 0.310680
O O11 0.588797 0.992823 0.225118
O O12 0.500000 0.500000 0.500000
O O13 0.571640 0.353135 0.582524
O O14 0.000000 0.500000 0.500000
O O15 0.108885 0.268498 0.549285
O O16 0.651041 0.842788 0.047713
#
# Coordination Sequence:
#
# PCOD9042264 Si02
#       7
#     2   2   2   2   2   2   2
#     4   9  21  45  64  99 145 187 238 293 365 447
#     4  11  23  48  76 103 141 196 251 317 366 459
#     4  11  22  42  73 106 143 186 251 300 365 453
#     4  12  28  53  73 110 156 197 254 324 394 453
#     4  11  23  41  76 107 145 185 259 308 374 436
#     4  12  25  46  69 108 142 197 246 308 377 452
#     4  10  23  44  70 103 152 184 237 304 370 452
#
# _framework density 22.285910000000001
#
# number of rings (size 3 to 8) (size 9 to 14) (size 15 to 20)
#    0.000    1.143    2.857    2.143    2.000    4.571 
#   12.857    0.000    0.000    0.000    0.000    0.000 
#    0.000    0.000    0.000    0.000    0.000    0.000 
#
# Total GULP energy -78208.241350 kJ/mol
# GULP energy per Si atom -5586.302954 kJ/mol
# Density = 2.223519 g / cm^3
# Si number density = 22.285910 Si / 1000 Ang^3
#
#
#
# Elastic Constant Matrix: (Units=GPa)
#
#
# Indices 1 2 3 4 5 6 
#
# 1 113.1083 44.5790 58.3811 19.0552 2.1816 17.6413
# 2 44.5790 113.2076 40.9248 18.7654 0.7125 26.0277
# 3 58.3811 40.9248 137.6396 22.3944 14.5005 12.2527
# 4 19.0552 18.7654 22.3944 33.0907 -8.1279 -4.6836
# 5 2.1816 0.7125 14.5005 -8.1279 31.8535 -1.5759
# 6 17.6413 26.0277 12.2527 -4.6836 -1.5759 55.1364
#
#
#
# Elastic Compliance Matrix: (Units=1/GPa)
#
#
# Indices 1 2 3 4 5 6 
#
# 1 0.012818 -0.002481 -0.003866 -0.003729 -0.000133 -0.002391
# 2 -0.002481 0.012436 -0.001027 -0.006050 -0.001452 -0.005404
# 3 -0.003866 -0.001027 0.011082 -0.006494 -0.006487 -0.001478
# 4 -0.003729 -0.006050 -0.006494 0.045362 0.015406 0.009786
# 5 -0.000133 -0.001452 -0.006487 0.015406 0.038546 0.004580
# 6 -0.002391 -0.005404 -0.001478 0.009786 0.004580 0.022744
#
#
# Mechanical properties :
#
#
# Convention : Reuss Voigt Hill
#
# Bulk Modulus (GPa) = 46.32050 72.41391 59.36720
# Shear Modulus (GPa) = 30.31563 38.68751 34.50157
#
# Velocity S-wave (km/s) = 3.69223 4.17101 3.93890
# Velocity P-wave (km/s) = 6.24552 7.46727 6.88355
#
# Compressibility (1/GPa) = 0.02158871
#
# Stress axis : x y z
#
# Youngs Moduli (GPa) = 78.01521 80.41161 90.23720
#
# Poissons Ratio (x) = 0.19953 0.34881
# Poissons Ratio (y) = 0.19358 0.09265
# Poissons Ratio (z) = 0.30157 0.08257
#
# Static dielectric constant tensor:
#      x y z
#    x 1.869480 -0.052270 0.015190 
#    y -0.052270 1.855840 0.011080 
#    z 0.015190 0.011080 1.863170 
# 
# From -- ./inp_files/138186.got.cif
#   From: 2010.05.17/outbox.cif.g08.bks.cpg/sg2_70_cif.got.tgz:138186.got - 2010.06.03 11:33:40.
