data_PCOD9042729
_publ_section_title
;
Structure prediction by ZEFSAII (Michael W. Deem and Ramdas Pophale) SiO2 
 PCOD9042729
Probable space group: P -1
;
_chemical_formula_sum "Si O2"
_cell_formula_units_Z 16
_cell_length_a 8.687474
_cell_length_b 15.602910
_cell_length_c 14.438122
_cell_angle_alpha 26.144508
_cell_angle_beta 136.998371
_cell_angle_gamma 124.548631
_cell_volume 561.519899
_symmetry_space_group_name_H-M "P -1"
_symmetry_group_IT_number 2
_symmetry_cell_setting 'triclinic'
loop_
_space_group_symop_operation_xyz
x,y,z
-x,-y,-z
loop_
_atom_site_type_symbol
_atom_site_label
_atom_site_fract_x
_atom_site_fract_y
_atom_site_fract_z
Si Si1 0.810249 0.835036 0.492569
Si Si2 0.291934 0.683899 0.770518
Si Si3 0.002646 0.226820 0.171780
Si Si4 0.978652 0.727600 0.069503
Si Si5 0.214984 0.858087 0.365624
Si Si6 0.583495 0.099929 0.884085
Si Si7 0.155546 0.344896 0.638195
Si Si8 0.537345 0.429587 0.849388
O O1 0.563338 0.848968 0.322514
O O2 0.037099 0.672642 0.703685
O O3 0.812889 0.819497 0.618932
O O4 0.885851 0.040155 0.302318
O O5 0.234472 0.829307 0.514106
O O6 0.500000 0.500000 0.000000
O O7 0.401777 0.707794 0.897002
O O8 0.103635 0.251205 0.093132
O O9 0.786474 0.417314 0.923592
O O10 0.043343 0.500120 0.353645
O O11 0.227232 0.786504 0.123595
O O12 0.803932 0.904777 0.882926
O O13 0.397612 0.658681 0.596522
O O14 0.962135 0.842054 0.231881
O O15 0.377209 0.140059 0.836462
O O16 0.402348 0.342854 0.796622
O O17 0.000000 0.500000 0.500000
#
# Coordination Sequence:
#
# PCOD9042729 Si02
#       8
#     2   2   2   2   2   2   2   2
#     4  10  17  33  59  87 118 153 201 240 297 355
#     4   9  18  34  60  87 111 154 201 243 291 350
#     4  10  19  33  60  91 117 154 200 247 295 352
#     4  11  23  39  61  90 124 157 199 246 297 353
#     4  10  21  40  64  86 117 163 202 241 296 355
#     4  11  20  36  58  87 119 155 195 240 295 351
#     4  11  23  38  60  90 122 158 200 245 295 356
#     4  10  20  36  60  89 119 156 200 246 298 350
#
# _framework density 28.494091999999998
#
# number of rings (size 3 to 8) (size 9 to 14) (size 15 to 20)
#    0.000    1.750    3.750    1.125    0.000    2.500 
#    0.000    1.250    0.000   10.500    0.000    0.000 
#    0.000    0.000    0.000    0.000    0.000    0.000 
#
# Total GULP energy -89428.394449 kJ/mol
# GULP energy per Si atom -5589.274653 kJ/mol
# Density = 2.842924 g / cm^3
# Si number density = 28.494092 Si / 1000 Ang^3
#
#
#
# Elastic Constant Matrix: (Units=GPa)
#
#
# Indices 1 2 3 4 5 6 
#
# 1 69.0234 37.1091 18.6531 -0.8891 -10.7736 -4.4713
# 2 37.1091 132.4851 81.3940 2.8673 -21.4159 -24.6544
# 3 18.6531 81.3940 129.2155 5.4652 -5.1586 -21.3812
# 4 -0.8891 2.8673 5.4652 64.6340 -19.1921 -5.9425
# 5 -10.7736 -21.4159 -5.1586 -19.1921 39.8321 6.6813
# 6 -4.4713 -24.6544 -21.3812 -5.9425 6.6813 50.2009
#
#
#
# Elastic Compliance Matrix: (Units=1/GPa)
#
#
# Indices 1 2 3 4 5 6 
#
# 1 0.017394 -0.004909 0.000498 0.001179 0.002847 -0.000889
# 2 -0.004909 0.015753 -0.008540 0.002190 0.006580 0.003045
# 3 0.000498 -0.008540 0.013265 -0.001719 -0.003871 0.001811
# 4 0.001179 0.002190 -0.001719 0.018636 0.010031 0.001319
# 5 0.002847 0.006580 -0.003871 0.010031 0.033997 -0.001501
# 6 -0.000889 0.003045 0.001811 0.001319 -0.001501 0.022464
#
#
# Mechanical properties :
#
#
# Convention : Reuss Voigt Hill
#
# Bulk Modulus (GPa) = 48.75804 67.22626 57.99215
# Shear Modulus (GPa) = 32.41552 43.83793 38.12673
#
# Velocity S-wave (km/s) = 3.37653 3.92662 3.66191
# Velocity P-wave (km/s) = 5.68771 6.64846 6.18676
#
# Compressibility (1/GPa) = 0.02050944
#
# Stress axis : x y z
#
# Youngs Moduli (GPa) = 57.48992 63.48139 75.38883
#
# Poissons Ratio (x) = 0.31161 -0.03753
# Poissons Ratio (y) = 0.28220 0.64383
# Poissons Ratio (z) = -0.02862 0.54214
#
# Static dielectric constant tensor:
#      x y z
#    x 2.086200 0.148420 -0.004810 
#    y 0.148420 2.019150 0.006700 
#    z -0.004810 0.006700 2.317450 
# 
# From -- ./inp_files/522201.got.cif
#   From: 2010.05.17/outbox.cif.g08.bks.cpg/sg2_262_cif.got.tgz:522201.got - 2010.06.03 11:33:40.
