data_PCOD9042786
_publ_section_title
;
Structure prediction by ZEFSAII (Michael W. Deem and Ramdas Pophale) SiO2 
 PCOD9042786
Probable space group: P -1
;
_chemical_formula_sum "Si O2"
_cell_formula_units_Z 16
_cell_length_a 14.310022
_cell_length_b 16.136019
_cell_length_c 8.242278
_cell_angle_alpha 42.543702
_cell_angle_beta 28.818192
_cell_angle_gamma 40.261661
_cell_volume 578.529358
_symmetry_space_group_name_H-M "P -1"
_symmetry_group_IT_number 2
_symmetry_cell_setting 'triclinic'
loop_
_space_group_symop_operation_xyz
x,y,z
-x,-y,-z
loop_
_atom_site_type_symbol
_atom_site_label
_atom_site_fract_x
_atom_site_fract_y
_atom_site_fract_z
Si Si1 0.638070 0.083334 0.719230
Si Si2 0.134274 0.240158 0.785301
Si Si3 0.238196 0.571259 0.637276
Si Si4 0.604370 0.665541 0.490431
Si Si5 0.667862 0.049398 0.090451
Si Si6 0.824073 0.344468 0.851153
Si Si7 0.700679 0.580137 0.910375
Si Si8 0.958925 0.166236 0.611132
O O1 0.521929 0.220967 0.608935
O O2 0.861732 0.975666 0.481550
O O3 0.500000 0.000000 0.000000
O O4 0.625534 0.111700 0.888421
O O5 0.263523 0.278046 0.676315
O O6 0.160441 0.092477 0.998226
O O7 0.900816 0.286288 0.997986
O O8 0.248874 0.289357 0.389558
O O9 0.251314 0.467607 0.624759
O O10 0.463280 0.587729 0.273010
O O11 0.204692 0.497362 0.955965
O O12 0.076752 0.717313 0.635227
O O13 0.401315 0.639643 0.899517
O O14 0.500000 0.000000 0.500000
O O15 0.750245 0.132009 0.968595
O O16 0.971821 0.240542 0.649867
O O17 0.800572 0.491824 0.725787
#
# Coordination Sequence:
#
# PCOD9042786 Si02
#       8
#     2   2   2   2   2   2   2   2
#     4  12  29  51  74 116 162 206 265 326 394 474
#     4  12  25  45  74 110 153 202 257 320 386 468
#     4  10  24  45  81 112 151 208 261 324 396 465
#     4  11  25  50  80 112 160 208 258 331 397 465
#     4  12  28  47  81 110 154 208 261 321 399 471
#     4  11  26  46  76 115 154 205 265 322 392 474
#     4  10  23  44  76 114 156 200 262 326 392 468
#     4  12  28  51  79 116 159 210 266 324 395 476
#
# _framework density 27.656331000000002
#
# number of rings (size 3 to 8) (size 9 to 14) (size 15 to 20)
#    0.000    0.750    1.250    4.500   10.500    3.000 
#    0.000    1.875    0.000    0.000    0.000    0.000 
#    0.000    0.000    0.000    0.000    0.000    0.000 
#
# Total GULP energy -89406.739054 kJ/mol
# GULP energy per Si atom -5587.921191 kJ/mol
# Density = 2.759338 g / cm^3
# Si number density = 27.656331 Si / 1000 Ang^3
#
#
#
# Elastic Constant Matrix: (Units=GPa)
#
#
# Indices 1 2 3 4 5 6 
#
# 1 191.4470 54.6223 60.2502 -1.8316 -17.3325 7.8985
# 2 54.6223 135.0853 25.1274 -14.2085 1.7493 2.6460
# 3 60.2502 25.1274 113.3199 -7.9819 -14.3958 1.1083
# 4 -1.8316 -14.2085 -7.9819 55.0541 -5.9660 9.5075
# 5 -17.3325 1.7493 -14.3958 -5.9660 44.2873 -3.5400
# 6 7.8985 2.6460 1.1083 9.5075 -3.5400 52.4697
#
#
#
# Elastic Compliance Matrix: (Units=1/GPa)
#
#
# Indices 1 2 3 4 5 6 
#
# 1 0.007022 -0.002340 -0.003023 -0.000505 0.001737 -0.000667
# 2 -0.002340 0.008719 -0.000701 0.002025 -0.001257 -0.000524
# 3 -0.003023 -0.000701 0.011035 0.001580 0.002656 0.000150
# 4 -0.000505 0.002025 0.001580 0.019782 0.002624 -0.003467
# 5 0.001737 -0.001257 0.002656 0.002624 0.024600 0.000930
# 6 -0.000667 -0.000524 0.000150 -0.003467 0.000930 0.019873
#
#
# Mechanical properties :
#
#
# Convention : Reuss Voigt Hill
#
# Bulk Modulus (GPa) = 68.27159 79.98354 74.12757
# Shear Modulus (GPa) = 46.27822 50.35237 48.31529
#
# Velocity S-wave (km/s) = 4.09508 4.27153 4.18423
# Velocity P-wave (km/s) = 6.86286 7.30146 7.08555
#
# Compressibility (1/GPa) = 0.01464738
#
# Stress axis : x y z
#
# Youngs Moduli (GPa) = 142.40425 114.69490 90.62264
#
# Poissons Ratio (x) = 0.26835 0.27398
# Poissons Ratio (y) = 0.33318 0.06355
# Poissons Ratio (z) = 0.43053 0.08043
#
# Static dielectric constant tensor:
#      x y z
#    x 2.133630 -0.021010 0.001950 
#    y -0.021010 2.427760 0.090480 
#    z 0.001950 0.090480 1.998480 
# 
# From -- ./inp_files/317940.got.cif
#   From: 2010.05.17/outbox.cif.g08.bks.cpg/sg2_159_cif.got.tgz:317940.got - 2010.06.03 11:33:40.
