data_PCOD9042709
_publ_section_title
;
Structure prediction by ZEFSAII (Michael W. Deem and Ramdas Pophale) SiO2 
 PCOD9042709
Probable space group: P -1
;
_chemical_formula_sum "Si O2"
_cell_formula_units_Z 16
_cell_length_a 6.851393
_cell_length_b 17.942855
_cell_length_c 5.438146
_cell_angle_alpha 102.663704
_cell_angle_beta 73.496134
_cell_angle_gamma 92.614948
_cell_volume 625.295490
_symmetry_space_group_name_H-M "P -1"
_symmetry_group_IT_number 2
_symmetry_cell_setting 'triclinic'
loop_
_space_group_symop_operation_xyz
x,y,z
-x,-y,-z
loop_
_atom_site_type_symbol
_atom_site_label
_atom_site_fract_x
_atom_site_fract_y
_atom_site_fract_z
Si Si1 0.636243 0.574684 0.983783
Si Si2 0.957052 0.712393 0.284148
Si Si3 0.522176 0.408036 0.442982
Si Si4 0.002605 0.914965 0.056951
Si Si5 0.994832 0.375362 0.295600
Si Si6 0.671704 0.176921 0.807573
Si Si7 0.415807 0.078919 0.492643
Si Si8 0.273487 0.172836 0.232194
O O1 0.599827 0.614933 0.286605
O O2 0.500000 0.500000 0.000000
O O3 0.557289 0.621204 0.809937
O O4 0.866813 0.555117 0.802210
O O5 0.966725 0.649937 0.456283
O O6 0.784861 0.772097 0.482400
O O7 0.172154 0.756014 0.246806
O O8 0.940092 0.684816 0.987534
O O9 0.500000 0.500000 0.500000
O O10 0.757372 0.389007 0.367902
O O11 0.805967 0.913072 0.301084
O O12 0.198625 0.885510 0.119425
O O13 0.936844 0.849972 0.838010
O O14 0.000000 0.000000 0.000000
O O15 0.584854 0.138147 0.564908
O O16 0.461533 0.203353 0.032816
O O17 0.368818 0.092390 0.235977
O O18 0.500000 0.000000 0.500000
#
# Coordination Sequence:
#
# PCOD9042709 Si02
#       8
#     2   2   2   2   2   2   2   2
#     4  10  23  44  74 109 148 187 234 298 365 419
#     4  12  28  48  72 101 152 200 249 296 357 455
#     4  10  23  44  74 110 146 189 234 296 367 420
#     4  11  23  42  69 102 139 182 249 312 386 453
#     4  12  27  47  72 111 145 194 250 292 359 446
#     4  11  26  45  68  97 141 195 238 312 376 430
#     4  11  24  41  69 105 132 181 246 311 376 439
#     4  11  26  45  67  99 140 191 247 305 377 434
#
# _framework density 25.587899
#
# number of rings (size 3 to 8) (size 9 to 14) (size 15 to 20)
#    0.000    1.000    1.250    3.750    7.000   10.000 
#    0.000    0.000    0.000    0.000    0.000    0.000 
#    0.000    0.000    0.000    0.000    0.000    0.000 
#
# Total GULP energy -89477.408391 kJ/mol
# GULP energy per Si atom -5592.338024 kJ/mol
# Density = 2.552966 g / cm^3
# Si number density = 25.587899 Si / 1000 Ang^3
#
#
#
# Elastic Constant Matrix: (Units=GPa)
#
#
# Indices 1 2 3 4 5 6 
#
# 1 143.0754 6.9687 49.8016 -12.7021 0.1975 -1.3470
# 2 6.9687 63.7119 22.1105 -12.3762 -4.1987 5.6803
# 3 49.8016 22.1105 130.6515 -20.4435 2.5297 -1.4168
# 4 -12.7021 -12.3762 -20.4435 38.2055 1.1289 -6.5682
# 5 0.1975 -4.1987 2.5297 1.1289 41.8375 -7.1961
# 6 -1.3470 5.6803 -1.4168 -6.5682 -7.1961 47.5048
#
#
#
# Elastic Compliance Matrix: (Units=1/GPa)
#
#
# Indices 1 2 3 4 5 6 
#
# 1 0.008117 0.000373 -0.002957 0.001284 0.000196 0.000304
# 2 0.000373 0.017562 -0.002503 0.004196 0.001567 -0.001346
# 3 -0.002957 -0.002503 0.009796 0.003624 -0.000774 0.000891
# 4 0.001284 0.004196 0.003624 0.030565 0.000038 0.003874
# 5 0.000196 0.001567 -0.000774 0.000038 0.024714 0.003544
# 6 0.000304 -0.001346 0.000891 0.003874 0.003544 0.022319
#
#
# Mechanical properties :
#
#
# Convention : Reuss Voigt Hill
#
# Bulk Modulus (GPa) = 39.52114 55.02226 47.27170
# Shear Modulus (GPa) = 37.97110 42.74677 40.35893
#
# Velocity S-wave (km/s) = 3.85638 4.09171 3.97579
# Velocity P-wave (km/s) = 5.94203 6.62365 6.29208
#
# Compressibility (1/GPa) = 0.02530291
#
# Stress axis : x y z
#
# Youngs Moduli (GPa) = 123.19951 56.94183 102.07912
#
# Poissons Ratio (x) = -0.02127 0.30183
# Poissons Ratio (y) = -0.04601 0.25548
# Poissons Ratio (z) = 0.36427 0.14251
#
# Static dielectric constant tensor:
#      x y z
#    x 2.013700 -0.002540 0.043620 
#    y -0.002540 2.074110 0.001370 
#    z 0.043620 0.001370 2.083990 
# 
# From -- ./inp_files/11283.got.cif
#   From: 2010.05.17/outbox.cif.g08.bks.cpg/sg2_6_cif.got.tgz:11283.got - 2010.06.03 11:33:40.
