data_PCOD9042339
_publ_section_title
;
Structure prediction by ZEFSAII (Michael W. Deem and Ramdas Pophale) SiO2 
 PCOD9042339
Probable space group: P -1
;
_chemical_formula_sum "Si O2"
_cell_formula_units_Z 16
_cell_length_a 12.240988
_cell_length_b 8.943695
_cell_length_c 9.868522
_cell_angle_alpha 76.540129
_cell_angle_beta 54.852668
_cell_angle_gamma 55.416922
_cell_volume 720.197002
_symmetry_space_group_name_H-M "P -1"
_symmetry_group_IT_number 2
_symmetry_cell_setting 'triclinic'
loop_
_space_group_symop_operation_xyz
x,y,z
-x,-y,-z
loop_
_atom_site_type_symbol
_atom_site_label
_atom_site_fract_x
_atom_site_fract_y
_atom_site_fract_z
Si Si1 0.293874 0.479376 0.604334
Si Si2 0.167171 0.978110 0.915026
Si Si3 0.330251 0.801751 0.560137
Si Si4 0.418743 0.930391 0.214895
Si Si5 0.644267 0.289490 0.911826
Si Si6 0.846069 0.674824 0.744901
Si Si7 0.143811 0.604578 0.411927
Si Si8 0.215199 0.282819 0.917863
O O1 0.251972 0.683967 0.616939
O O2 0.481947 0.344175 0.521335
O O3 0.257867 0.465953 0.477013
O O4 0.207673 0.421367 0.783094
O O5 0.272849 0.823347 0.986066
O O6 0.259772 0.921483 0.718684
O O7 0.147048 0.164632 0.940372
O O8 0.000000 0.000000 0.000000
O O9 0.322184 0.911299 0.410542
O O10 0.418506 0.809709 0.116483
O O11 0.595302 0.854759 0.158094
O O12 0.324451 0.141155 0.196484
O O13 0.778815 0.291962 0.726365
O O14 0.500000 0.500000 0.000000
O O15 0.867881 0.507762 0.678495
O O16 0.976234 0.713849 0.587093
O O17 0.860878 0.630356 0.901717
#
# Coordination Sequence:
#
# PCOD9042339 Si02
#       8
#     2   2   2   2   2   2   2   2
#     4  10  23  44  70  98 137 178 232 288 351 414
#     4  12  30  45  69 105 146 186 232 296 361 418
#     4  10  24  43  68 102 134 179 231 286 347 427
#     4  11  24  45  76  99 138 185 241 295 346 420
#     4  12  26  46  76 105 140 190 244 293 347 429
#     4  11  26  44  67 103 139 179 237 292 353 421
#     4  11  26  43  71  99 141 187 230 294 357 415
#     4  11  26  45  70 102 138 186 234 294 353 422
#
# _framework density 22.216142999999999
#
# number of rings (size 3 to 8) (size 9 to 14) (size 15 to 20)
#    0.000    1.000    2.500    1.875   14.000    3.000 
#    0.000    0.000    0.000    0.000    0.000    0.000 
#    0.000    0.000    0.000    0.000    0.000    0.000 
#
# Total GULP energy -89566.398690 kJ/mol
# GULP energy per Si atom -5597.899918 kJ/mol
# Density = 2.216558 g / cm^3
# Si number density = 22.216143 Si / 1000 Ang^3
#
#
#
# Elastic Constant Matrix: (Units=GPa)
#
#
# Indices 1 2 3 4 5 6 
#
# 1 113.6590 21.6758 49.0809 -18.9300 -3.0401 15.2755
# 2 21.6758 32.2206 44.2379 -20.1000 -2.6427 0.8207
# 3 49.0809 44.2379 168.6042 -24.5984 21.0546 19.2814
# 4 -18.9300 -20.1000 -24.5984 25.5094 4.1366 3.5500
# 5 -3.0401 -2.6427 21.0546 4.1366 40.5307 1.2799
# 6 15.2755 0.8207 19.2814 3.5500 1.2799 29.6788
#
#
#
# Elastic Compliance Matrix: (Units=1/GPa)
#
#
# Indices 1 2 3 4 5 6 
#
# 1 0.011646 -0.001218 -0.001544 0.006828 0.001083 -0.005821
# 2 -0.001218 0.085430 -0.016354 0.048825 0.008907 0.002665
# 3 -0.001544 -0.016354 0.012318 -0.000063 -0.007371 -0.006430
# 4 0.006828 0.048825 -0.000063 0.085479 -0.004526 -0.014852
# 5 0.001083 0.008907 -0.007371 -0.004526 0.029523 0.003253
# 6 -0.005821 0.002665 -0.006430 -0.014852 0.003253 0.042430
#
#
# Mechanical properties :
#
#
# Convention : Reuss Voigt Hill
#
# Bulk Modulus (GPa) = 14.05258 60.49702 37.27480
# Shear Modulus (GPa) = 15.20779 32.44307 23.82543
#
# Velocity S-wave (km/s) = 2.61921 3.82558 3.27836
# Velocity P-wave (km/s) = 3.93524 6.84132 5.58076
#
# Compressibility (1/GPa) = 0.07116129
#
# Stress axis : x y z
#
# Youngs Moduli (GPa) = 85.86865 11.70549 81.18179
#
# Poissons Ratio (x) = 0.01426 0.12534
# Poissons Ratio (y) = 0.10461 1.32765
# Poissons Ratio (z) = 0.13257 0.19143
#
# Static dielectric constant tensor:
#      x y z
#    x 1.867850 0.016920 0.002480 
#    y 0.016920 1.828950 0.029550 
#    z 0.002480 0.029550 1.832010 
# 
# From -- ./inp_files/243397.got.cif
#   From: 2010.05.17/outbox.cif.g08.bks.cpg/sg2_122_cif.got.tgz:243397.got - 2010.06.03 11:33:40.
