data_PCOD9042196
_publ_section_title
;
Structure prediction by ZEFSAII (Michael W. Deem and Ramdas Pophale) SiO2 
 PCOD9042196
Probable space group: P -1
;
_chemical_formula_sum "Si O2"
_cell_formula_units_Z 12
_cell_length_a 14.232844
_cell_length_b 7.513737
_cell_length_c 12.220758
_cell_angle_alpha 56.042449
_cell_angle_beta 27.816422
_cell_angle_gamma 72.430726
_cell_volume 439.092433
_symmetry_space_group_name_H-M "P -1"
_symmetry_group_IT_number 2
_symmetry_cell_setting 'triclinic'
loop_
_space_group_symop_operation_xyz
x,y,z
-x,-y,-z
loop_
_atom_site_type_symbol
_atom_site_label
_atom_site_fract_x
_atom_site_fract_y
_atom_site_fract_z
Si Si1 0.949791 0.353091 0.264878
Si Si2 0.342481 0.270591 0.471071
Si Si3 0.807733 0.715012 0.778489
Si Si4 0.973690 0.713225 0.391799
Si Si5 0.488831 0.929477 0.300966
Si Si6 0.229124 0.363176 0.779009
O O1 0.060263 0.408745 0.250705
O O2 0.955720 0.585158 0.119327
O O3 0.096859 0.273578 0.061244
O O4 0.682214 0.139858 0.603916
O O5 0.421803 0.087351 0.398192
O O6 0.283970 0.221180 0.676487
O O7 0.135715 0.267458 0.615795
O O8 0.553169 0.555294 0.145721
O O9 0.787156 0.707865 0.672600
O O10 0.000000 0.000000 0.500000
O O11 0.000000 0.500000 0.500000
O O12 0.241466 0.923020 0.049103
O O13 0.426984 0.651747 0.495000
#
# Coordination Sequence:
#
# PCOD9042196 Si02
#       6
#     2   2   2   2   2   2
#     4   9  22  47  67 101 137 178 231 282 342 394
#     4  12  25  43  70 103 135 180 232 277 347 406
#     4  12  25  41  70  99 138 183 226 283 340 412
#     4  12  25  42  66 102 143 177 226 283 336 411
#     4  10  23  44  70 100 135 180 224 285 339 401
#     4   9  22  46  71  98 138 175 233 289 328 407
#
# _framework density 27.329097999999998
#
# number of rings (size 3 to 8) (size 9 to 14) (size 15 to 20)
#    1.000    0.333    1.667    3.500    2.333    2.000 
#    0.000    3.333    0.000    1.000    0.000    0.000 
#    0.000    0.000    0.000    0.000    0.000    0.000 
#
# Total GULP energy -66979.389990 kJ/mol
# GULP energy per Si atom -5581.615832 kJ/mol
# Density = 2.726690 g / cm^3
# Si number density = 27.329098 Si / 1000 Ang^3
#
#
#
# Elastic Constant Matrix: (Units=GPa)
#
#
# Indices 1 2 3 4 5 6 
#
# 1 134.8250 10.4061 41.2534 -3.2967 8.8347 42.6559
# 2 10.4061 110.5148 29.5515 13.3935 14.2535 -13.0145
# 3 41.2534 29.5515 157.9412 -29.9911 -19.2126 14.5539
# 4 -3.2967 13.3935 -29.9911 41.1832 16.0509 15.4660
# 5 8.8347 14.2535 -19.2126 16.0509 40.5514 -5.6278
# 6 42.6559 -13.0145 14.5539 15.4660 -5.6278 44.1010
#
#
#
# Elastic Compliance Matrix: (Units=1/GPa)
#
#
# Indices 1 2 3 4 5 6 
#
# 1 0.017568 -0.005989 0.001263 0.019637 -0.012739 -0.027689
# 2 -0.005989 0.015382 -0.006211 -0.018324 0.002870 0.019175
# 3 0.001263 -0.006211 0.011021 0.014765 -0.000369 -0.011916
# 4 0.019637 -0.018324 0.014765 0.076521 -0.029438 -0.059866
# 5 -0.012739 0.002870 -0.000369 -0.029438 0.041924 0.028964
# 6 -0.027689 0.019175 -0.011916 -0.059866 0.028964 0.083739
#
#
# Mechanical properties :
#
#
# Convention : Reuss Voigt Hill
#
# Bulk Modulus (GPa) = 45.25850 62.85588 54.05719
# Shear Modulus (GPa) = 18.15568 46.63846 32.39707
#
# Velocity S-wave (km/s) = 2.58027 4.13552 3.44676
# Velocity P-wave (km/s) = 5.04713 6.77148 5.97187
#
# Compressibility (1/GPa) = 0.02209530
#
# Stress axis : x y z
#
# Youngs Moduli (GPa) = 56.92140 65.01087 90.73730
#
# Poissons Ratio (x) = 0.38937 -0.11456
# Poissons Ratio (y) = 0.34092 0.56357
# Poissons Ratio (z) = -0.07186 0.40379
#
# Static dielectric constant tensor:
#      x y z
#    x 2.320030 -0.311840 -0.154180 
#    y -0.311840 2.686330 0.098620 
#    z -0.154180 0.098620 2.221440 
# 
# From -- ./inp_files/294175.got.cif
#   From: 2010.05.17/outbox.cif.g08.bks.cpg/sg2_148_cif.got.tgz:294175.got - 2010.06.03 11:33:40.
