data_PCOD9042831
_publ_section_title
;
Structure prediction by ZEFSAII (Michael W. Deem and Ramdas Pophale) SiO2 
 PCOD9042831
Probable space group: P -1
;
_chemical_formula_sum "Si O2"
_cell_formula_units_Z 14
_cell_length_a 7.145950
_cell_length_b 11.050269
_cell_length_c 12.648945
_cell_angle_alpha 51.859830
_cell_angle_beta 125.317183
_cell_angle_gamma 108.299384
_cell_volume 639.556662
_symmetry_space_group_name_H-M "P -1"
_symmetry_group_IT_number 2
_symmetry_cell_setting 'triclinic'
loop_
_space_group_symop_operation_xyz
x,y,z
-x,-y,-z
loop_
_atom_site_type_symbol
_atom_site_label
_atom_site_fract_x
_atom_site_fract_y
_atom_site_fract_z
Si Si1 0.867867 0.146598 0.724875
Si Si2 0.790697 0.605495 0.328028
Si Si3 0.673830 0.425753 0.183713
Si Si4 0.513259 0.169109 0.785573
Si Si5 0.205608 0.906142 0.871596
Si Si6 0.518380 0.184233 0.406908
Si Si7 0.024422 0.363193 0.168044
O O1 0.710732 0.149169 0.774702
O O2 0.706319 0.213926 0.541579
O O3 0.088856 0.245282 0.758327
O O4 0.972823 0.980615 0.809541
O O5 0.667257 0.524633 0.235639
O O6 0.624276 0.665660 0.336125
O O7 0.000000 0.500000 0.500000
O O8 0.606856 0.256207 0.288283
O O9 0.926005 0.422453 0.216136
O O10 0.500000 0.500000 0.000000
O O11 0.329511 0.040275 0.778506
O O12 0.627364 0.145920 0.950441
O O13 0.143496 0.765868 0.855125
O O14 0.277137 0.278755 0.301177
O O15 0.500000 0.000000 0.500000
O O16 0.000000 0.500000 0.000000
#
# Coordination Sequence:
#
# PCOD9042831 Si02
#       7
#     2   2   2   2   2   2   2
#     4  11  24  43  71  98 137 185 233 296 356 419
#     4  11  25  45  67 104 140 178 239 289 353 424
#     4  12  27  48  74 104 148 192 236 302 353 423
#     4  10  24  42  71  96 137 185 230 296 352 420
#     4  10  23  45  64 104 136 176 245 286 353 428
#     4  12  27  47  69 108 145 186 244 293 357 431
#     4  12  27  44  73 103 140 189 239 287 360 425
#
# _framework density 21.890163000000001
#
# number of rings (size 3 to 8) (size 9 to 14) (size 15 to 20)
#    0.000    0.857    4.286    1.286    6.000    1.143 
#    0.000    0.000    0.000    0.000    0.000    0.000 
#    0.000    0.000    0.000    0.000    0.000    0.000 
#
# Total GULP energy -78305.403160 kJ/mol
# GULP energy per Si atom -5593.243083 kJ/mol
# Density = 2.184034 g / cm^3
# Si number density = 21.890163 Si / 1000 Ang^3
#
#
#
# Elastic Constant Matrix: (Units=GPa)
#
#
# Indices 1 2 3 4 5 6 
#
# 1 111.7028 3.9134 1.7214 -14.2126 1.0123 -9.7134
# 2 3.9134 89.9110 12.1881 -1.7167 -5.1084 9.3053
# 3 1.7214 12.1881 79.8389 -7.5065 15.6831 7.2267
# 4 -14.2126 -1.7167 -7.5065 30.1008 2.7253 8.7812
# 5 1.0123 -5.1084 15.6831 2.7253 44.3757 -1.2763
# 6 -9.7134 9.3053 7.2267 8.7812 -1.2763 26.9838
#
#
#
# Elastic Compliance Matrix: (Units=1/GPa)
#
#
# Indices 1 2 3 4 5 6 
#
# 1 0.009683 -0.000640 0.000147 0.003929 -0.000520 0.002364
# 2 -0.000640 0.011929 -0.001695 0.000996 0.001807 -0.004129
# 3 0.000147 -0.001695 0.015026 0.005897 -0.006032 -0.005591
# 4 0.003929 0.000996 0.005897 0.041184 -0.004995 -0.014147
# 5 -0.000520 0.001807 -0.006032 -0.004995 0.025298 0.003627
# 6 0.002364 -0.004129 -0.005591 -0.014147 0.003627 0.045607
#
#
# Mechanical properties :
#
#
# Convention : Reuss Voigt Hill
#
# Bulk Modulus (GPa) = 30.99769 35.23319 33.11544
# Shear Modulus (GPa) = 30.51446 37.86738 34.19092
#
# Velocity S-wave (km/s) = 3.73766 4.16370 3.95641
# Velocity P-wave (km/s) = 5.72870 6.26463 6.00265
#
# Compressibility (1/GPa) = 0.03226047
#
# Stress axis : x y z
#
# Youngs Moduli (GPa) = 103.27676 83.83122 66.55026
#
# Poissons Ratio (x) = 0.05369 -0.00975
# Poissons Ratio (y) = 0.06614 0.11278
# Poissons Ratio (z) = -0.01514 0.14207
#
# Static dielectric constant tensor:
#      x y z
#    x 1.806560 0.004060 0.020680 
#    y 0.004060 1.837120 -0.045620 
#    z 0.020680 -0.045620 1.794040 
# 
# From -- ./inp_files/363744.got.cif
#   From: 2010.05.17/outbox.cif.g08.bks.cpg/sg2_182_cif.got.tgz:363744.got - 2010.06.03 11:33:40.
