data_PCOD9042798
_publ_section_title
;
Structure prediction by ZEFSAII (Michael W. Deem and Ramdas Pophale) SiO2 
 PCOD9042798
Probable space group: P -1
;
_chemical_formula_sum "Si O2"
_cell_formula_units_Z 14
_cell_length_a 9.205281
_cell_length_b 8.890407
_cell_length_c 9.910093
_cell_angle_alpha 74.821200
_cell_angle_beta 138.021725
_cell_angle_gamma 90.090548
_cell_volume 499.567159
_symmetry_space_group_name_H-M "P -1"
_symmetry_group_IT_number 2
_symmetry_cell_setting 'triclinic'
loop_
_space_group_symop_operation_xyz
x,y,z
-x,-y,-z
loop_
_atom_site_type_symbol
_atom_site_label
_atom_site_fract_x
_atom_site_fract_y
_atom_site_fract_z
Si Si1 0.296018 0.059609 0.452703
Si Si2 0.662438 0.844363 0.270541
Si Si3 0.779431 0.546431 0.238743
Si Si4 0.382418 0.672525 0.452238
Si Si5 0.830900 0.221575 0.454695
Si Si6 0.215197 0.833644 0.027338
Si Si7 0.216417 0.473286 0.061735
O O1 0.297824 0.915488 0.595516
O O2 0.049677 0.092852 0.206684
O O3 0.500000 0.000000 0.500000
O O4 0.293337 0.202113 0.526402
O O5 0.642248 0.708396 0.181180
O O6 0.386469 0.932848 0.069068
O O7 0.909581 0.859879 0.394375
O O8 0.708564 0.379519 0.243035
O O9 0.000000 0.500000 0.500000
O O10 0.819785 0.569642 0.105392
O O11 0.500000 0.500000 0.500000
O O12 0.188930 0.702884 0.425853
O O13 0.267230 0.803248 0.228903
O O14 0.592842 0.668407 0.697279
O O15 0.271223 0.645789 0.058662
O O16 0.000000 0.500000 0.000000
#
# Coordination Sequence:
#
# PCOD9042798 Si02
#       7
#     2   2   2   2   2   2   2
#     4  12  29  53  79 118 165 219 271 334 409 494
#     4  11  26  48  78 114 163 207 272 335 406 478
#     4  10  23  44  77 120 159 203 263 337 402 474
#     4  10  24  44  74 118 157 208 266 325 399 481
#     4  11  25  46  81 112 164 211 269 326 407 474
#     4  11  26  48  77 114 166 210 273 334 404 482
#     4  11  26  43  81 119 164 213 264 334 411 476
#
# _framework density 28.024260000000002
#
# number of rings (size 3 to 8) (size 9 to 14) (size 15 to 20)
#    0.000    1.143    0.000    4.714   16.000    6.286 
#    0.000    5.714    0.000    0.000    0.000    0.000 
#    0.000    0.000    0.000    0.000    0.000    0.000 
#
# Total GULP energy -78138.671872 kJ/mol
# GULP energy per Si atom -5581.333705 kJ/mol
# Density = 2.796048 g / cm^3
# Si number density = 28.024260 Si / 1000 Ang^3
#
#
#
# Elastic Constant Matrix: (Units=GPa)
#
#
# Indices 1 2 3 4 5 6 
#
# 1 229.9764 28.5949 74.7763 21.6223 -0.0198 -35.5423
# 2 28.5949 81.7464 33.8926 7.7490 -17.9066 -12.4029
# 3 74.7763 33.8926 182.7801 12.2439 -16.1703 -34.9312
# 4 21.6223 7.7490 12.2439 42.3646 -8.2785 -1.1075
# 5 -0.0198 -17.9066 -16.1703 -8.2785 61.0751 14.7012
# 6 -35.5423 -12.4029 -34.9312 -1.1075 14.7012 52.6481
#
#
#
# Elastic Compliance Matrix: (Units=1/GPa)
#
#
# Indices 1 2 3 4 5 6 
#
# 1 0.005683 -0.001041 -0.001544 -0.002533 -0.001780 0.003011
# 2 -0.001041 0.014244 -0.001754 -0.000876 0.003472 0.000501
# 3 -0.001544 -0.001754 0.007119 -0.000766 0.000519 0.003107
# 4 -0.002533 -0.000876 -0.000766 0.025937 0.003760 -0.002929
# 5 -0.001780 0.003472 0.000519 0.003760 0.019327 -0.005358
# 6 0.003011 0.000501 0.003107 -0.002929 -0.005358 0.024640
#
#
# Mechanical properties :
#
#
# Convention : Reuss Voigt Hill
#
# Bulk Modulus (GPa) = 54.44252 85.44783 69.94517
# Shear Modulus (GPa) = 44.74231 55.03351 49.88791
#
# Velocity S-wave (km/s) = 4.00003 4.43626 4.22378
# Velocity P-wave (km/s) = 6.38770 7.53641 6.98571
#
# Compressibility (1/GPa) = 0.01836800
#
# Stress axis : x y z
#
# Youngs Moduli (GPa) = 175.95947 70.20615 140.46920
#
# Poissons Ratio (x) = 0.07306 0.21695
# Poissons Ratio (y) = 0.18312 0.24635
# Poissons Ratio (z) = 0.27177 0.12313
#
# Static dielectric constant tensor:
#      x y z
#    x 2.324790 0.129440 0.071230 
#    y 0.129440 2.438750 0.051130 
#    z 0.071230 0.051130 2.251770 
# 
# From -- ./inp_files/171755.got.cif
#   From: 2010.05.17/outbox.cif.g08.bks.cpg/sg2_86_cif.got.tgz:171755.got - 2010.06.03 11:33:40.
