data_PCOD9042773
_publ_section_title
;
Structure prediction by ZEFSAII (Michael W. Deem and Ramdas Pophale) SiO2 
 PCOD9042773
Probable space group: P -1
;
_chemical_formula_sum "Si O2"
_cell_formula_units_Z 16
_cell_length_a 8.287392
_cell_length_b 20.606055
_cell_length_c 12.258753
_cell_angle_alpha 147.959486
_cell_angle_beta 36.986545
_cell_angle_gamma 130.842867
_cell_volume 666.416229
_symmetry_space_group_name_H-M "P -1"
_symmetry_group_IT_number 2
_symmetry_cell_setting 'triclinic'
loop_
_space_group_symop_operation_xyz
x,y,z
-x,-y,-z
loop_
_atom_site_type_symbol
_atom_site_label
_atom_site_fract_x
_atom_site_fract_y
_atom_site_fract_z
Si Si1 0.657126 0.698420 0.658247
Si Si2 0.059362 0.162533 0.983873
Si Si3 0.647557 0.983342 0.014616
Si Si4 0.750050 0.404169 0.419582
Si Si5 0.799393 0.899774 0.431907
Si Si6 0.247613 0.619062 0.198799
Si Si7 0.212453 0.362703 0.930813
Si Si8 0.476099 0.330782 0.078480
O O1 0.645597 0.840738 0.838869
O O2 0.533050 0.625491 0.523071
O O3 0.483755 0.664794 0.808824
O O4 0.966182 0.661614 0.464511
O O5 0.154547 0.126845 0.758904
O O6 0.311263 0.212204 0.979604
O O7 0.925190 0.047508 0.943345
O O8 0.845383 0.283421 0.266582
O O9 0.500000 0.000000 0.000000
O O10 0.486123 0.051140 0.297256
O O11 0.701138 0.544357 0.686149
O O12 0.978973 0.402760 0.200275
O O13 0.855033 0.766237 0.265564
O O14 0.000000 0.000000 0.500000
O O15 0.504810 0.654428 0.179856
O O16 0.251771 0.472155 0.983413
O O17 0.271921 0.674252 0.144354
#
# Coordination Sequence:
#
# PCOD9042773 Si02
#       8
#     2   2   2   2   2   2   2   2
#     4  12  28  48  70 111 152 180 246 308 360 426
#     4  11  25  45  74 106 136 195 250 284 360 435
#     4  12  25  47  75 101 139 199 247 291 358 435
#     4  11  22  47  74 104 150 188 239 298 354 439
#     4  11  22  43  72 104 138 180 247 301 333 422
#     4  11  25  45  70 111 147 185 238 301 366 420
#     4  10  23  44  76 106 146 189 244 289 354 440
#     4  12  26  44  74 107 150 192 229 305 376 418
#
# _framework density 24.00902
#
# number of rings (size 3 to 8) (size 9 to 14) (size 15 to 20)
#    0.000    0.750    6.250    1.500    3.500    2.000 
#    4.500    1.250    0.000    0.000    0.000    0.000 
#    0.000    0.000    0.000    0.000    0.000    0.000 
#
# Total GULP energy -89556.248532 kJ/mol
# GULP energy per Si atom -5597.265533 kJ/mol
# Density = 2.395437 g / cm^3
# Si number density = 24.009020 Si / 1000 Ang^3
#
#
#
# Elastic Constant Matrix: (Units=GPa)
#
#
# Indices 1 2 3 4 5 6 
#
# 1 36.8400 8.8285 17.3125 -1.1871 2.4479 -0.6934
# 2 8.8285 145.3133 30.0235 11.7971 -1.1704 -1.3637
# 3 17.3125 30.0235 79.5507 12.5372 9.2357 6.8411
# 4 -1.1871 11.7971 12.5372 41.9296 7.1998 -0.3477
# 5 2.4479 -1.1704 9.2357 7.1998 25.9801 3.5537
# 6 -0.6934 -1.3637 6.8411 -0.3477 3.5537 36.7168
#
#
#
# Elastic Compliance Matrix: (Units=1/GPa)
#
#
# Indices 1 2 3 4 5 6 
#
# 1 0.030855 -0.000710 -0.006972 0.003467 -0.001702 0.002053
# 2 -0.000710 0.007641 -0.002724 -0.001652 0.001756 0.000592
# 3 -0.006972 -0.002724 0.016401 -0.003695 -0.003869 -0.002949
# 4 0.003467 -0.001652 -0.003695 0.026681 -0.006700 0.001594
# 5 -0.001702 0.001756 -0.003869 -0.006700 0.042430 -0.003416
# 6 0.002053 0.000592 -0.002949 0.001594 -0.003416 0.028191
#
#
# Mechanical properties :
#
#
# Convention : Reuss Voigt Hill
#
# Bulk Modulus (GPa) = 29.33852 41.55922 35.44887
# Shear Modulus (GPa) = 27.11889 34.62793 30.87341
#
# Velocity S-wave (km/s) = 3.36449 3.80187 3.58985
# Velocity P-wave (km/s) = 5.22871 6.05142 5.65505
#
# Compressibility (1/GPa) = 0.03408489
#
# Stress axis : x y z
#
# Youngs Moduli (GPa) = 32.41009 130.86511 60.97127
#
# Poissons Ratio (x) = 0.09291 0.42511
# Poissons Ratio (y) = 0.02301 0.16608
# Poissons Ratio (z) = 0.22597 0.35647
#
# Static dielectric constant tensor:
#      x y z
#    x 1.993430 -0.074820 -0.050010 
#    y -0.074820 1.930250 0.012300 
#    z -0.050010 0.012300 1.929900 
# 
# From -- ./inp_files/405644.got.cif
#   From: 2010.05.17/outbox.cif.g08.bks.cpg/sg2_203_cif.got.tgz:405644.got - 2010.06.03 11:33:40.
