data_PCOD9042587
_publ_section_title
;
Structure prediction by ZEFSAII (Michael W. Deem and Ramdas Pophale) SiO2 
 PCOD9042587
Probable space group: P -1
;
_chemical_formula_sum "Si O2"
_cell_formula_units_Z 16
_cell_length_a 8.657963
_cell_length_b 15.270043
_cell_length_c 8.560244
_cell_angle_alpha 71.483148
_cell_angle_beta 54.101598
_cell_angle_gamma 107.425705
_cell_volume 673.470328
_symmetry_space_group_name_H-M "P -1"
_symmetry_group_IT_number 2
_symmetry_cell_setting 'triclinic'
loop_
_space_group_symop_operation_xyz
x,y,z
-x,-y,-z
loop_
_atom_site_type_symbol
_atom_site_label
_atom_site_fract_x
_atom_site_fract_y
_atom_site_fract_z
Si Si1 0.096731 0.704241 0.077807
Si Si2 0.813208 0.958704 0.996924
Si Si3 0.424827 0.253667 0.949271
Si Si4 0.956366 0.331603 0.534589
Si Si5 0.367752 0.436165 0.774661
Si Si6 0.176167 0.532070 0.026099
Si Si7 0.501127 0.014870 0.306760
Si Si8 0.008342 0.866723 0.496533
O O1 0.939671 0.639881 0.366291
O O2 0.238332 0.652325 0.983620
O O3 0.916071 0.668391 0.058139
O O4 0.287540 0.843834 0.921615
O O5 0.936347 0.055605 0.731657
O O6 0.587506 0.949697 0.201531
O O7 0.731506 0.835381 0.050585
O O8 0.000000 0.000000 0.000000
O O9 0.675949 0.274573 0.772246
O O10 0.464140 0.373733 0.833298
O O11 0.250168 0.188681 0.238999
O O12 0.055224 0.437742 0.293659
O O13 0.983810 0.239260 0.493770
O O14 0.500000 0.500000 0.500000
O O15 0.374825 0.524360 0.838738
O O16 0.000000 0.500000 0.000000
O O17 0.500000 0.000000 0.500000
O O18 0.233340 0.956156 0.431407
#
# Coordination Sequence:
#
# PCOD9042587 Si02
#       8
#     2   2   2   2   2   2   2   2
#     4  11  24  45  71 101 146 192 238 295 363 431
#     4  12  25  43  68 105 144 191 243 293 359 435
#     4  12  25  44  73 104 143 190 242 296 364 424
#     4  12  24  47  76 104 144 194 236 298 366 428
#     4  11  24  46  70 107 145 186 243 303 358 428
#     4  10  23  44  73 100 139 189 235 292 363 420
#     4  12  25  43  73 107 149 196 242 295 365 436
#     4  12  25  49  71 106 154 192 239 303 361 428
#
# _framework density 23.757539999999999
#
# number of rings (size 3 to 8) (size 9 to 14) (size 15 to 20)
#    0.000    0.500    3.750    5.625    1.750    2.000 
#    2.250    2.500    0.000    0.000    0.000    0.000 
#    0.000    0.000    0.000    0.000    0.000    0.000 
#
# Total GULP energy -89625.679232 kJ/mol
# GULP energy per Si atom -5601.604952 kJ/mol
# Density = 2.370347 g / cm^3
# Si number density = 23.757540 Si / 1000 Ang^3
#
#
#
# Elastic Constant Matrix: (Units=GPa)
#
#
# Indices 1 2 3 4 5 6 
#
# 1 89.7881 9.0447 31.9869 -1.1879 10.6161 9.9287
# 2 9.0447 124.4201 4.6739 25.7528 -10.0403 -16.5020
# 3 31.9869 4.6739 123.1495 31.5305 6.9372 -5.4395
# 4 -1.1879 25.7528 31.5305 38.8667 -3.0213 0.8902
# 5 10.6161 -10.0403 6.9372 -3.0213 47.1548 5.2573
# 6 9.9287 -16.5020 -5.4395 0.8902 5.2573 41.0683
#
#
#
# Elastic Compliance Matrix: (Units=1/GPa)
#
#
# Indices 1 2 3 4 5 6 
#
# 1 0.014343 -0.003151 -0.005509 0.006959 -0.002047 -0.005352
# 2 -0.003151 0.011081 0.003136 -0.010009 0.001333 0.005676
# 3 -0.005509 0.003136 0.013066 -0.013063 -0.001385 0.004783
# 4 0.006959 -0.010009 -0.013063 0.043522 0.001975 -0.008630
# 5 -0.002047 0.001333 -0.001385 0.001975 0.022513 -0.002078
# 6 -0.005352 0.005676 0.004783 -0.008630 -0.002078 0.029011
#
#
# Mechanical properties :
#
#
# Convention : Reuss Voigt Hill
#
# Bulk Modulus (GPa) = 36.44008 47.64097 42.04052
# Shear Modulus (GPa) = 32.52448 44.86143 38.69296
#
# Velocity S-wave (km/s) = 3.70404 4.35018 4.04004
# Velocity P-wave (km/s) = 5.80214 6.73265 6.28464
#
# Compressibility (1/GPa) = 0.02744231
#
# Stress axis : x y z
#
# Youngs Moduli (GPa) = 69.71982 90.24816 76.53533
#
# Poissons Ratio (x) = 0.28438 0.42160
# Poissons Ratio (y) = 0.21969 -0.24002
# Poissons Ratio (z) = 0.38406 -0.28303
#
# Static dielectric constant tensor:
#      x y z
#    x 1.965720 0.007160 -0.021990 
#    y 0.007160 1.874770 -0.003230 
#    z -0.021990 -0.003230 1.898940 
# 
# From -- ./inp_files/206217.got.cif
#   From: 2010.05.17/outbox.cif.g08.bks.cpg/sg2_104_cif.got.tgz:206217.got - 2010.06.03 11:33:40.
