data_PCOD9042053
_publ_section_title
;
Structure prediction by ZEFSAII (Michael W. Deem and Ramdas Pophale) SiO2 
 PCOD9042053
Probable space group: P -1
;
_chemical_formula_sum "Si O2"
_cell_formula_units_Z 14
_cell_length_a 12.115287
_cell_length_b 14.478165
_cell_length_c 7.020942
_cell_angle_alpha 133.334338
_cell_angle_beta 130.819278
_cell_angle_gamma 57.298634
_cell_volume 668.423813
_symmetry_space_group_name_H-M "P -1"
_symmetry_group_IT_number 2
_symmetry_cell_setting 'triclinic'
loop_
_space_group_symop_operation_xyz
x,y,z
-x,-y,-z
loop_
_atom_site_type_symbol
_atom_site_label
_atom_site_fract_x
_atom_site_fract_y
_atom_site_fract_z
Si Si1 0.116555 0.399231 0.111796
Si Si2 0.576688 0.989638 0.271060
Si Si3 0.905968 0.788296 0.508980
Si Si4 0.387268 0.187397 0.616512
Si Si5 0.083686 0.981450 0.367601
Si Si6 0.078773 0.682843 0.882434
Si Si7 0.662695 0.535595 0.233963
O O1 0.259163 0.440602 0.439430
O O2 0.025948 0.350428 0.115222
O O3 0.157198 0.281997 0.841093
O O4 0.000000 0.500000 0.000000
O O5 0.496832 0.107222 0.477121
O O6 0.746984 0.995753 0.426613
O O7 0.551292 0.862028 0.177686
O O8 0.500000 0.000000 0.000000
O O9 0.777403 0.848940 0.598559
O O10 0.004768 0.676979 0.583871
O O11 0.989937 0.900254 0.683740
O O12 0.354179 0.334594 0.726501
O O13 0.092343 0.832230 0.118638
O O14 0.000000 0.000000 0.500000
O O15 0.227866 0.581039 0.906165
O O16 0.500000 0.500000 0.000000
#
# Coordination Sequence:
#
# PCOD9042053 Si02
#       7
#     2   2   2   2   2   2   2
#     4  12  24  45  73 103 140 189 241 287 355 430
#     4  10  24  45  70  99 141 182 234 290 352 432
#     4  11  23  43  76 102 136 190 236 294 350 431
#     4  10  23  44  69 101 134 187 232 280 359 420
#     4  11  24  43  70 109 136 181 241 293 358 414
#     4  12  24  47  70 101 148 181 241 297 352 429
#     4  12  26  46  73 102 146 188 234 299 359 417
#
# _framework density 20.944794999999999
#
# number of rings (size 3 to 8) (size 9 to 14) (size 15 to 20)
#    0.000    0.857    4.286    2.571    6.000    0.000 
#    7.714    1.429    0.000    0.000    0.000    0.000 
#    0.000    0.000    0.000    0.000    0.000    0.000 
#
# Total GULP energy -78050.531016 kJ/mol
# GULP energy per Si atom -5575.037930 kJ/mol
# Density = 2.089712 g / cm^3
# Si number density = 20.944795 Si / 1000 Ang^3
#
#
#
# Elastic Constant Matrix: (Units=GPa)
#
#
# Indices 1 2 3 4 5 6 
#
# 1 148.7108 54.9710 48.7171 -6.6441 -11.7780 1.1245
# 2 54.9710 169.3371 52.3680 -16.2799 -7.1747 15.8579
# 3 48.7171 52.3680 117.0025 -7.9322 -5.6426 6.6792
# 4 -6.6441 -16.2799 -7.9322 35.6719 -1.5384 -6.8739
# 5 -11.7780 -7.1747 -5.6426 -1.5384 32.4390 4.4777
# 6 1.1245 15.8579 6.6792 -6.8739 4.4777 44.5112
#
#
#
# Elastic Compliance Matrix: (Units=1/GPa)
#
#
# Indices 1 2 3 4 5 6 
#
# 1 0.008447 -0.001881 -0.002587 0.000363 0.002123 0.000688
# 2 -0.001881 0.007698 -0.002339 0.002283 0.001010 -0.002093
# 3 -0.002587 -0.002339 0.010785 0.000745 0.000546 -0.000660
# 4 0.000363 0.002283 0.000745 0.030064 0.001704 0.003537
# 5 0.002123 0.001010 0.000546 0.001704 0.032480 -0.003500
# 6 0.000688 -0.002093 -0.000660 0.003537 -0.003500 0.024192
#
#
# Mechanical properties :
#
#
# Convention : Reuss Voigt Hill
#
# Bulk Modulus (GPa) = 75.10522 83.01805 79.06163
# Shear Modulus (GPa) = 37.95969 41.12403 39.54186
#
# Velocity S-wave (km/s) = 4.26181 4.43589 4.34972
# Velocity P-wave (km/s) = 7.75589 8.12150 7.94080
#
# Compressibility (1/GPa) = 0.01331465
#
# Stress axis : x y z
#
# Youngs Moduli (GPa) = 118.39023 129.90826 92.71742
#
# Poissons Ratio (x) = 0.24441 0.23987
# Poissons Ratio (y) = 0.22274 0.21687
# Poissons Ratio (z) = 0.30629 0.30386
#
# Static dielectric constant tensor:
#      x y z
#    x 1.732650 -0.036850 0.003210 
#    y -0.036850 1.802580 -0.001810 
#    z 0.003210 -0.001810 1.817430 
# 
# From -- ./inp_files/72445.got.cif
#   From: 2010.05.17/outbox.cif.g08.bks.cpg/sg2_37_cif.got.tgz:72445.got - 2010.06.03 11:33:40.
