data_PCOD9042414
_publ_section_title
;
Structure prediction by ZEFSAII (Michael W. Deem and Ramdas Pophale) SiO2 
 PCOD9042414
Probable space group: P -1
;
_chemical_formula_sum "Si O2"
_cell_formula_units_Z 16
_cell_length_a 17.190506
_cell_length_b 6.439120
_cell_length_c 11.667822
_cell_angle_alpha 71.574055
_cell_angle_beta 46.583291
_cell_angle_gamma 49.719488
_cell_volume 696.251331
_symmetry_space_group_name_H-M "P -1"
_symmetry_group_IT_number 2
_symmetry_cell_setting 'triclinic'
loop_
_space_group_symop_operation_xyz
x,y,z
-x,-y,-z
loop_
_atom_site_type_symbol
_atom_site_label
_atom_site_fract_x
_atom_site_fract_y
_atom_site_fract_z
Si Si1 0.144074 0.048524 0.975691
Si Si2 0.588492 0.409417 0.683758
Si Si3 0.374141 0.320558 0.596853
Si Si4 0.061706 0.573014 0.522476
Si Si5 0.635248 0.090649 0.053700
Si Si6 0.883283 0.608944 0.254313
Si Si7 0.789266 0.186529 0.707393
Si Si8 0.337194 0.420317 0.888790
O O1 0.122819 0.153293 0.848648
O O2 0.196230 0.734759 0.993137
O O3 0.013859 0.304527 0.130378
O O4 0.272499 0.013179 0.907091
O O5 0.604347 0.480870 0.528056
O O6 0.730333 0.188099 0.642998
O O7 0.472037 0.372081 0.807383
O O8 0.518785 0.686181 0.786214
O O9 0.244630 0.369903 0.661281
O O10 0.356403 0.379599 0.739249
O O11 0.500000 0.000000 0.500000
O O12 0.112175 0.378306 0.616577
O O13 0.177586 0.598072 0.361160
O O14 0.000000 0.500000 0.500000
O O15 0.932884 0.885137 0.638528
O O16 0.682785 0.225916 0.900106
O O17 0.666352 0.817507 0.015269
#
# Coordination Sequence:
#
# PCOD9042414 Si02
#       8
#     2   2   2   2   2   2   2   2
#     4  10  23  44  71 105 139 178 239 290 354 421
#     4  11  24  41  69  99 139 183 233 284 349 417
#     4  12  22  42  70  99 146 177 227 296 351 421
#     4  11  26  46  72 101 137 186 234 290 352 423
#     4  11  22  45  66  98 145 179 232 295 338 410
#     4  11  22  47  72 102 143 182 227 301 357 406
#     4  11  25  46  66 100 138 182 235 289 341 411
#     4  11  24  42  71 106 134 192 229 283 358 419
#
# _framework density 22.980208000000001
#
# number of rings (size 3 to 8) (size 9 to 14) (size 15 to 20)
#    0.000    1.000    5.000    1.500    0.000    6.000 
#    0.000    0.000    0.000    0.000    0.000    0.000 
#    0.000    0.000    0.000    0.000    0.000    0.000 
#
# Total GULP energy -89468.567891 kJ/mol
# GULP energy per Si atom -5591.785493 kJ/mol
# Density = 2.292790 g / cm^3
# Si number density = 22.980208 Si / 1000 Ang^3
#
#
#
# Elastic Constant Matrix: (Units=GPa)
#
#
# Indices 1 2 3 4 5 6 
#
# 1 113.2934 22.7857 16.7207 -22.2859 8.5557 -8.9857
# 2 22.7857 59.8400 10.2516 -9.6970 0.1098 -6.1442
# 3 16.7207 10.2516 63.9621 -28.0774 0.7836 1.7826
# 4 -22.2859 -9.6970 -28.0774 36.4183 -13.0106 1.6585
# 5 8.5557 0.1098 0.7836 -13.0106 29.5352 6.5196
# 6 -8.9857 -6.1442 1.7826 1.6585 6.5196 29.2034
#
#
#
# Elastic Compliance Matrix: (Units=1/GPa)
#
#
# Indices 1 2 3 4 5 6 
#
# 1 0.010766 -0.002972 -0.000222 0.004954 -0.001529 0.002761
# 2 -0.002972 0.018740 -0.001141 0.002680 0.001422 0.002628
# 3 -0.000222 -0.001141 0.026625 0.024436 0.011422 -0.005871
# 4 0.004954 0.002680 0.024436 0.059777 0.026145 -0.008635
# 5 -0.001529 0.001422 0.011422 0.026145 0.048415 -0.013162
# 6 0.002761 0.002628 -0.005871 -0.008635 -0.013162 0.039432
#
#
# Mechanical properties :
#
#
# Convention : Reuss Voigt Hill
#
# Bulk Modulus (GPa) = 21.06969 37.40129 29.23549
# Shear Modulus (GPa) = 21.90615 31.52056 26.71336
#
# Velocity S-wave (km/s) = 3.09084 3.70758 3.41317
# Velocity P-wave (km/s) = 4.68255 5.88549 5.31814
#
# Compressibility (1/GPa) = 0.04746154
#
# Stress axis : x y z
#
# Youngs Moduli (GPa) = 92.88420 53.36178 37.55805
#
# Poissons Ratio (x) = 0.15862 0.00832
# Poissons Ratio (y) = 0.27610 0.04285
# Poissons Ratio (z) = 0.02058 0.06088
#
# Static dielectric constant tensor:
#      x y z
#    x 1.872940 -0.038020 -0.019530 
#    y -0.038020 1.981300 0.026410 
#    z -0.019530 0.026410 1.884420 
# 
# From -- ./inp_files/364487.got.cif
#   From: 2010.05.17/outbox.cif.g08.bks.cpg/sg2_183_cif.got.tgz:364487.got - 2010.06.03 11:33:40.
