data_PCOD9042488
_publ_section_title
;
Structure prediction by ZEFSAII (Michael W. Deem and Ramdas Pophale) SiO2 
 PCOD9042488
Probable space group: P -1
;
_chemical_formula_sum "Si O2"
_cell_formula_units_Z 14
_cell_length_a 10.395475
_cell_length_b 11.674676
_cell_length_c 15.984683
_cell_angle_alpha 154.567927
_cell_angle_beta 138.731353
_cell_angle_gamma 47.069954
_cell_volume 549.485573
_symmetry_space_group_name_H-M "P -1"
_symmetry_group_IT_number 2
_symmetry_cell_setting 'triclinic'
loop_
_space_group_symop_operation_xyz
x,y,z
-x,-y,-z
loop_
_atom_site_type_symbol
_atom_site_label
_atom_site_fract_x
_atom_site_fract_y
_atom_site_fract_z
Si Si1 0.782212 0.043439 0.888501
Si Si2 0.772477 0.803294 0.548716
Si Si3 0.142105 0.409066 0.804421
Si Si4 0.505202 0.805200 0.733776
Si Si5 0.204916 0.379562 0.116118
Si Si6 0.619846 0.389155 0.802395
Si Si7 0.938755 0.080017 0.357429
O O1 0.769182 0.838993 0.669374
O O2 0.616458 0.971975 0.826952
O O3 0.778714 0.344981 0.049785
O O4 0.000000 0.000000 0.000000
O O5 0.612955 0.601362 0.304338
O O6 0.980040 0.757108 0.575697
O O7 0.694796 0.096732 0.673937
O O8 0.934814 0.493102 0.799065
O O9 0.090740 0.155718 0.555030
O O10 0.286181 0.401637 0.949067
O O11 0.500000 0.500000 0.500000
O O12 0.644070 0.810703 0.886804
O O13 0.281656 0.868198 0.687998
O O14 0.322928 0.569689 0.238686
O O15 0.069161 0.216428 0.878450
#
# Coordination Sequence:
#
# PCOD9042488 Si02
#       7
#     2   2   2   2   2   2   2
#     4  11  20  43  70  95 140 178 218 283 344 393
#     4  10  23  44  72 101 134 184 231 273 346 408
#     4  11  24  43  69  98 140 175 229 281 338 398
#     4  12  24  44  71 104 140 177 224 287 348 399
#     4  12  23  46  68 102 139 177 225 284 342 404
#     4  10  23  45  71  96 140 184 221 287 340 395
#     4  12  25  43  70 107 132 179 237 274 341 415
#
# _framework density 25.478379
#
# number of rings (size 3 to 8) (size 9 to 14) (size 15 to 20)
#    0.000    0.857    5.714    1.714    0.000    2.286 
#    0.000    8.571    0.000    0.000    0.000    0.000 
#    0.000    0.000    0.000    0.000    0.000    0.000 
#
# Total GULP energy -78394.852144 kJ/mol
# GULP energy per Si atom -5599.632296 kJ/mol
# Density = 2.542039 g / cm^3
# Si number density = 25.478379 Si / 1000 Ang^3
#
#
#
# Elastic Constant Matrix: (Units=GPa)
#
#
# Indices 1 2 3 4 5 6 
#
# 1 171.9863 78.4667 55.6837 -22.6333 17.5950 2.5005
# 2 78.4667 66.9096 28.1804 -11.7356 13.7200 20.5483
# 3 55.6837 28.1804 142.3187 -29.7054 -6.1646 1.4005
# 4 -22.6333 -11.7356 -29.7054 38.2605 -5.9728 -1.3794
# 5 17.5950 13.7200 -6.1646 -5.9728 48.2449 -7.5395
# 6 2.5005 20.5483 1.4005 -1.3794 -7.5395 36.2607
#
#
#
# Elastic Compliance Matrix: (Units=1/GPa)
#
#
# Indices 1 2 3 4 5 6 
#
# 1 0.016477 -0.022539 -0.001474 0.002514 0.002445 0.012297
# 2 -0.022539 0.054660 -0.002616 -0.001766 -0.012889 -0.032067
# 3 -0.001474 -0.002616 0.009599 0.006428 0.003650 0.002217
# 4 0.002514 -0.001766 0.006428 0.032946 0.004932 0.002858
# 5 0.002445 -0.012889 0.003650 0.004932 0.026564 0.012705
# 6 0.012297 -0.032067 0.002217 0.002858 0.012705 0.047567
#
#
# Mechanical properties :
#
#
# Convention : Reuss Voigt Hill
#
# Bulk Modulus (GPa) = 36.39254 78.43068 57.41161
# Shear Modulus (GPa) = 19.98168 39.14547 29.56357
#
# Velocity S-wave (km/s) = 2.80350 3.92397 3.41007
# Velocity P-wave (km/s) = 4.97938 7.16799 6.17148
#
# Compressibility (1/GPa) = 0.02747816
#
# Stress axis : x y z
#
# Youngs Moduli (GPa) = 60.69218 18.29492 104.17432
#
# Poissons Ratio (x) = 0.41234 0.15356
# Poissons Ratio (y) = 1.36792 0.27253
# Poissons Ratio (z) = 0.08947 0.04786
#
# Static dielectric constant tensor:
#      x y z
#    x 2.005880 0.012760 0.008730 
#    y 0.012760 2.077900 0.016080 
#    z 0.008730 0.016080 2.011570 
# 
# From -- ./inp_files/448110.got.cif
#   From: 2010.05.17/outbox.cif.g08.bks.cpg/sg2_225_cif.got.tgz:448110.got - 2010.06.03 11:33:40.
