data_PCOD9042259
_publ_section_title
;
Structure prediction by ZEFSAII (Michael W. Deem and Ramdas Pophale) SiO2 
 PCOD9042259
Probable space group: P -1
;
_chemical_formula_sum "Si O2"
_cell_formula_units_Z 14
_cell_length_a 7.705513
_cell_length_b 7.415615
_cell_length_c 12.187318
_cell_angle_alpha 72.217978
_cell_angle_beta 64.559120
_cell_angle_gamma 55.437858
_cell_volume 516.093530
_symmetry_space_group_name_H-M "P -1"
_symmetry_group_IT_number 2
_symmetry_cell_setting 'triclinic'
loop_
_space_group_symop_operation_xyz
x,y,z
-x,-y,-z
loop_
_atom_site_type_symbol
_atom_site_label
_atom_site_fract_x
_atom_site_fract_y
_atom_site_fract_z
Si Si1 0.880561 0.430995 0.274926
Si Si2 0.650379 0.687891 0.832343
Si Si3 0.748216 0.121072 0.003369
Si Si4 0.539039 0.105745 0.361587
Si Si5 0.256333 0.319515 0.938966
Si Si6 0.951844 0.066039 0.735578
Si Si7 0.198494 0.554590 0.458351
O O1 0.087072 0.478218 0.225683
O O2 0.708856 0.585633 0.201064
O O3 0.008002 0.177627 0.247921
O O4 0.776081 0.446789 0.418188
O O5 0.593738 0.871860 0.719073
O O6 0.411497 0.695763 0.897484
O O7 0.637221 0.711190 0.964403
O O8 0.708555 0.915920 0.054280
O O9 0.775620 0.180870 0.860227
O O10 0.000000 0.000000 0.000000
O O11 0.801726 0.979942 0.294893
O O12 0.421021 0.362294 0.378223
O O13 0.500000 0.000000 0.500000
O O14 0.000000 0.500000 0.000000
O O15 0.872188 0.215306 0.621732
O O16 0.000000 0.500000 0.500000
#
# Coordination Sequence:
#
# PCOD9042259 Si02
#       7
#     2   2   2   2   2   2   2
#     4  11  25  49  73 103 149 187 238 298 355 436
#     4  11  23  44  73 105 144 184 233 295 359 428
#     4  12  25  42  71 106 143 186 232 297 355 427
#     4  12  26  47  74 106 143 192 242 300 361 420
#     4  10  23  44  70 103 144 186 230 293 364 417
#     4  12  26  48  70 110 146 184 248 295 355 436
#     4  12  26  47  77 104 140 196 241 300 361 416
#
# _framework density 27.126863
#
# number of rings (size 3 to 8) (size 9 to 14) (size 15 to 20)
#    0.000    0.571    7.143    0.857    4.000    1.714 
#    0.000    4.286    0.000    0.000    0.000    0.000 
#    0.000    0.000    0.000    0.000    0.000    0.000 
#
# Total GULP energy -78251.639845 kJ/mol
# GULP energy per Si atom -5589.402846 kJ/mol
# Density = 2.706512 g / cm^3
# Si number density = 27.126863 Si / 1000 Ang^3
#
#
#
# Elastic Constant Matrix: (Units=GPa)
#
#
# Indices 1 2 3 4 5 6 
#
# 1 52.5540 20.1020 53.5943 -8.1265 5.1629 -12.5063
# 2 20.1020 127.2418 53.1152 -15.0425 -9.9646 -19.8430
# 3 53.5943 53.1152 257.0531 -21.4203 24.9308 -8.6986
# 4 -8.1265 -15.0425 -21.4203 65.9760 -16.2140 -13.5014
# 5 5.1629 -9.9646 24.9308 -16.2140 51.1040 -3.4827
# 6 -12.5063 -19.8430 -8.6986 -13.5014 -3.4827 36.4111
#
#
#
# Elastic Compliance Matrix: (Units=1/GPa)
#
#
# Indices 1 2 3 4 5 6 
#
# 1 0.027046 0.000013 -0.005140 0.004089 0.001739 0.009751
# 2 0.000013 0.010873 -0.002104 0.004620 0.005131 0.007632
# 3 -0.005140 -0.002104 0.005573 -0.000424 -0.002881 -0.002013
# 4 0.004089 0.004620 -0.000424 0.021154 0.008255 0.012455
# 5 0.001739 0.005131 -0.002881 0.008255 0.024973 0.008155
# 6 0.009751 0.007632 -0.002013 0.012455 0.008155 0.039890
#
#
# Mechanical properties :
#
#
# Convention : Reuss Voigt Hill
#
# Bulk Modulus (GPa) = 34.44578 76.71909 55.58244
# Shear Modulus (GPa) = 32.54192 51.36739 41.95465
#
# Velocity S-wave (km/s) = 3.46731 4.35627 3.93696
# Velocity P-wave (km/s) = 5.36239 7.32433 6.41876
#
# Compressibility (1/GPa) = 0.02903113
#
# Stress axis : x y z
#
# Youngs Moduli (GPa) = 36.97337 91.96714 179.45005
#
# Poissons Ratio (x) = -0.00119 0.92232
# Poissons Ratio (y) = -0.00048 0.37754
# Poissons Ratio (z) = 0.19003 0.19349
#
# Static dielectric constant tensor:
#      x y z
#    x 3.467540 -0.936730 -0.114200 
#    y -0.936730 3.063230 0.164400 
#    z -0.114200 0.164400 2.158010 
# 
# From -- ./inp_files/381279.got.cif
#   From: 2010.05.17/outbox.cif.g08.bks.cpg/sg2_191_cif.got.tgz:381279.got - 2010.06.03 11:33:40.
