data_PCOD9042782
_publ_section_title
;
Structure prediction by ZEFSAII (Michael W. Deem and Ramdas Pophale) SiO2 
 PCOD9042782
Probable space group: P -1
;
_chemical_formula_sum "Si O2"
_cell_formula_units_Z 12
_cell_length_a 8.699749
_cell_length_b 8.429427
_cell_length_c 12.198685
_cell_angle_alpha 87.769122
_cell_angle_beta 49.489185
_cell_angle_gamma 52.815005
_cell_volume 439.885656
_symmetry_space_group_name_H-M "P -1"
_symmetry_group_IT_number 2
_symmetry_cell_setting 'triclinic'
loop_
_space_group_symop_operation_xyz
x,y,z
-x,-y,-z
loop_
_atom_site_type_symbol
_atom_site_label
_atom_site_fract_x
_atom_site_fract_y
_atom_site_fract_z
Si Si1 0.750964 0.281741 0.802608
Si Si2 0.085951 0.025477 0.073269
Si Si3 0.674765 0.834093 0.814788
Si Si4 0.289167 0.430735 0.824026
Si Si5 0.401690 0.371662 0.540517
Si Si6 0.778037 0.765336 0.537791
O O1 0.540339 0.330800 0.802459
O O2 0.996940 0.258936 0.638739
O O3 0.948721 0.034379 0.789479
O O4 0.500000 0.500000 0.000000
O O5 0.892505 0.302497 0.141847
O O6 0.459480 0.812494 0.894832
O O7 0.000000 0.000000 0.000000
O O8 0.653053 0.927507 0.702508
O O9 0.027689 0.603519 0.689507
O O10 0.500000 0.000000 0.000000
O O11 0.446459 0.274395 0.643268
O O12 0.000000 0.500000 0.000000
O O13 0.500000 0.500000 0.500000
O O14 0.464181 0.197881 0.421961
O O15 0.000000 0.500000 0.500000
#
# Coordination Sequence:
#
# PCOD9042782 Si02
#       6
#     2   2   2   2   2   2
#     4  12  24  46  76 113 158 214 266 327 404 477
#     4  12  27  45  78 112 157 206 270 328 400 477
#     4  11  23  45  75 110 158 202 253 337 398 466
#     4  12  25  44  76 112 153 209 268 324 402 476
#     4  11  24  43  73 108 153 206 266 321 398 478
#     4  10  23  44  76 109 155 209 265 327 392 484
#
# _framework density 27.279814999999999
#
# number of rings (size 3 to 8) (size 9 to 14) (size 15 to 20)
#    0.000    0.667    3.333    6.000    2.333    0.000 
#    0.000    3.333    0.000    0.000    0.000    0.000 
#    0.000    0.000    0.000    0.000    0.000    0.000 
#
# Total GULP energy -67044.003770 kJ/mol
# GULP energy per Si atom -5587.000314 kJ/mol
# Density = 2.721773 g / cm^3
# Si number density = 27.279815 Si / 1000 Ang^3
#
#
#
# Elastic Constant Matrix: (Units=GPa)
#
#
# Indices 1 2 3 4 5 6 
#
# 1 265.6084 62.0072 76.9004 -24.5022 9.8393 -43.5465
# 2 62.0072 163.4687 51.7005 -54.6565 -1.4207 -22.3231
# 3 76.9004 51.7005 167.7819 -39.3280 15.5955 0.5267
# 4 -24.5022 -54.6565 -39.3280 67.0299 -2.6518 8.5280
# 5 9.8393 -1.4207 15.5955 -2.6518 74.8731 -2.6044
# 6 -43.5465 -22.3231 0.5267 8.5280 -2.6044 42.2058
#
#
#
# Elastic Compliance Matrix: (Units=1/GPa)
#
#
# Indices 1 2 3 4 5 6 
#
# 1 0.005486 -0.000836 -0.002457 -0.000809 -0.000066 0.005408
# 2 -0.000836 0.009277 -0.001087 0.006293 0.000834 0.002837
# 3 -0.002457 -0.001087 0.008416 0.003609 -0.001463 -0.004035
# 4 -0.000809 0.006293 0.003609 0.022136 0.000188 -0.002012
# 5 -0.000066 0.000834 -0.001463 0.000188 0.013734 0.001201
# 6 0.005408 0.002837 -0.004035 -0.002012 0.001201 0.031305
#
#
# Mechanical properties :
#
#
# Convention : Reuss Voigt Hill
#
# Bulk Modulus (GPa) = 69.35444 108.67501 89.01473
# Shear Modulus (GPa) = 48.11399 63.90516 56.00958
#
# Velocity S-wave (km/s) = 4.20422 4.84527 4.53609
# Velocity P-wave (km/s) = 7.00328 8.43954 7.75473
#
# Compressibility (1/GPa) = 0.01441869
#
# Stress axis : x y z
#
# Youngs Moduli (GPa) = 182.27931 107.79081 118.82438
#
# Poissons Ratio (x) = 0.09015 0.29198
# Poissons Ratio (y) = 0.15245 0.12911
# Poissons Ratio (z) = 0.44791 0.11712
#
# Static dielectric constant tensor:
#      x y z
#    x 2.197730 0.143300 0.114930 
#    y 0.143300 2.307390 0.103390 
#    z 0.114930 0.103390 2.301240 
# 
# From -- ./inp_files/381854.got.cif
#   From: 2010.05.17/outbox.cif.g08.bks.cpg/sg2_191_cif.got.tgz:381854.got - 2010.06.03 11:33:40.
