data_PCOD9042475
_publ_section_title
;
Structure prediction by ZEFSAII (Michael W. Deem and Ramdas Pophale) SiO2 
 PCOD9042475
Probable space group: P -1
;
_chemical_formula_sum "Si O2"
_cell_formula_units_Z 15
_cell_length_a 6.240144
_cell_length_b 8.939845
_cell_length_c 20.267951
_cell_angle_alpha 137.915365
_cell_angle_beta 81.561381
_cell_angle_gamma 77.230095
_cell_volume 650.173321
_symmetry_space_group_name_H-M "P -1"
_symmetry_group_IT_number 2
_symmetry_cell_setting 'triclinic'
loop_
_space_group_symop_operation_xyz
x,y,z
-x,-y,-z
loop_
_atom_site_type_symbol
_atom_site_label
_atom_site_fract_x
_atom_site_fract_y
_atom_site_fract_z
Si Si1 0.259771 0.801468 0.956301
Si Si2 0.794206 0.948274 0.606380
Si Si3 0.456770 0.275805 0.958606
Si Si4 0.057302 0.433448 0.841746
Si Si5 0.679303 0.407536 0.589042
Si Si6 0.561290 0.051136 0.269290
Si Si7 0.243498 0.509530 0.241664
Si Si8 0.500000 0.000000 0.500000
O O1 0.492233 0.721963 0.870930
O O2 0.234440 0.549951 0.888242
O O3 0.324862 0.879768 0.048713
O O4 0.000000 0.000000 0.000000
O O5 0.673524 0.907505 0.663426
O O6 0.082783 0.739923 0.516642
O O7 0.768230 0.229821 0.698533
O O8 0.640566 0.943522 0.548164
O O9 0.434529 0.100521 0.846594
O O10 0.500000 0.500000 0.000000
O O11 0.199661 0.413511 0.056738
O O12 0.988556 0.480771 0.783056
O O13 0.197322 0.139601 0.761437
O O14 0.469258 0.675171 0.656467
O O15 0.774592 0.476500 0.674978
O O16 0.585465 0.213735 0.550351
#
# Coordination Sequence:
#
# PCOD9042475 Si02
#       8
#     2   2   2   2   2   2   2   1
#     4  11  25  41  69 104 138 185 236 282 342 419
#     4  11  24  48  70 100 141 181 236 295 357 409
#     4  11  24  46  65 103 145 182 223 291 344 422
#     4  11  24  44  72  96 145 187 228 286 347 420
#     4  11  27  44  73 104 140 181 239 302 343 420
#     4  12  25  45  71 109 142 187 233 286 368 410
#     4  10  23  44  71  99 138 184 236 283 349 419
#     4  10  24  50  72  94 136 184 240 286 360 406
#
# _framework density 23.07077
#
# number of rings (size 3 to 8) (size 9 to 14) (size 15 to 20)
#    0.000    1.067    2.667    3.200    7.467    1.600 
#    4.800    0.000    0.000    0.000    0.000    0.000 
#    0.000    0.000    0.000    0.000    0.000    0.000 
#
# Total GULP energy -83766.173759 kJ/mol
# GULP energy per Si atom -5584.411584 kJ/mol
# Density = 2.301826 g / cm^3
# Si number density = 23.070770 Si / 1000 Ang^3
#
#
#
# Elastic Constant Matrix: (Units=GPa)
#
#
# Indices 1 2 3 4 5 6 
#
# 1 60.2067 19.8263 23.2743 6.0779 -1.2525 -20.0903
# 2 19.8263 87.6874 34.0632 10.6430 -19.9287 -12.1660
# 3 23.2743 34.0632 69.2449 13.8137 -15.5164 -14.7909
# 4 6.0779 10.6430 13.8137 9.2961 -4.8658 -6.2613
# 5 -1.2525 -19.9287 -15.5164 -4.8658 27.3016 4.7148
# 6 -20.0903 -12.1660 -14.7909 -6.2613 4.7148 38.2528
#
#
#
# Elastic Compliance Matrix: (Units=1/GPa)
#
#
# Indices 1 2 3 4 5 6 
#
# 1 0.022810 -0.003062 -0.005445 0.000072 -0.005936 0.009644
# 2 -0.003062 0.016278 -0.003772 -0.006632 0.008418 -0.000013
# 3 -0.005445 -0.003772 0.024698 -0.025035 0.006469 0.000595
# 4 0.000072 -0.006632 -0.025035 0.166292 0.008072 0.014473
# 5 -0.005936 0.008418 0.006469 0.008072 0.048054 -0.002540
# 6 0.009644 -0.000013 0.000595 0.014473 -0.002540 0.034115
#
#
# Mechanical properties :
#
#
# Convention : Reuss Voigt Hill
#
# Bulk Modulus (GPa) = 25.49143 41.27408 33.38275
# Shear Modulus (GPa) = 14.29059 24.30178 19.29618
#
# Velocity S-wave (km/s) = 2.49152 3.24907 2.89518
# Velocity P-wave (km/s) = 4.39888 5.65723 5.06727
#
# Compressibility (1/GPa) = 0.03922888
#
# Stress axis : x y z
#
# Youngs Moduli (GPa) = 43.84041 61.43239 40.48894
#
# Poissons Ratio (x) = 0.18810 0.22046
# Poissons Ratio (y) = 0.13424 0.15271
# Poissons Ratio (z) = 0.23871 0.23170
#
# Static dielectric constant tensor:
#      x y z
#    x 1.841350 -0.028240 0.001560 
#    y -0.028240 1.863430 0.032380 
#    z 0.001560 0.032380 1.909300 
# 
# From -- ./inp_files/34828.got.cif
#   From: 2010.05.17/outbox.cif.g08.bks.cpg/sg2_18_cif.got.tgz:34828.got - 2010.06.03 11:33:40.
