data_PCOD9042151
_publ_section_title
;
Structure prediction by ZEFSAII (Michael W. Deem and Ramdas Pophale) SiO2 
 PCOD9042151
Probable space group: P -1
;
_chemical_formula_sum "Si O2"
_cell_formula_units_Z 16
_cell_length_a 11.706178
_cell_length_b 8.919359
_cell_length_c 13.251795
_cell_angle_alpha 31.382803
_cell_angle_beta 71.914657
_cell_angle_gamma 71.984626
_cell_volume 682.195573
_symmetry_space_group_name_H-M "P -1"
_symmetry_group_IT_number 2
_symmetry_cell_setting 'triclinic'
loop_
_space_group_symop_operation_xyz
x,y,z
-x,-y,-z
loop_
_atom_site_type_symbol
_atom_site_label
_atom_site_fract_x
_atom_site_fract_y
_atom_site_fract_z
Si Si1 0.727916 0.246323 0.803925
Si Si2 0.736012 0.794133 0.771675
Si Si3 0.997473 0.706406 0.783883
Si Si4 0.580436 0.701120 0.673032
Si Si5 0.380661 0.278509 0.945756
Si Si6 0.985954 0.165946 0.677725
Si Si7 0.219566 0.577877 0.647190
Si Si8 0.868894 0.974869 0.101730
O O1 0.680233 0.583920 0.628901
O O2 0.851331 0.138801 0.773094
O O3 0.628017 0.055352 0.892162
O O4 0.769146 0.166647 0.954213
O O5 0.872899 0.676476 0.777441
O O6 0.645366 0.736217 0.741144
O O7 0.738229 0.140108 0.577888
O O8 0.700538 0.677550 0.956715
O O9 0.109638 0.645812 0.715889
O O10 0.994101 0.031157 0.642499
O O11 0.000000 0.500000 0.000000
O O12 0.499110 0.431095 0.853835
O O13 0.500000 0.000000 0.500000
O O14 0.325016 0.441643 0.768996
O O15 0.000000 0.500000 0.500000
O O16 0.093983 0.993391 0.810982
O O17 0.175444 0.343263 0.717914
O O18 0.000000 0.000000 0.000000
#
# Coordination Sequence:
#
# PCOD9042151 Si02
#       8
#     2   2   2   2   2   2   2   2
#     4  10  23  44  69  96 136 184 224 283 347 399
#     4  12  25  43  71 100 141 178 228 286 356 395
#     4  12  23  40  68 105 140 181 219 278 346 423
#     4  12  27  46  74 100 132 182 244 293 334 408
#     4  11  23  50  69  98 137 183 233 286 338 410
#     4  11  23  38  63 103 145 171 221 273 338 423
#     4  11  23  41  71 102 143 178 228 280 346 414
#     4   9  20  38  65  97 139 179 219 269 341 417
#
# _framework density 23.453683999999999
#
# number of rings (size 3 to 8) (size 9 to 14) (size 15 to 20)
#    0.000    1.000    3.750    3.375    7.000    0.000 
#    0.000    1.875    0.000    0.000    0.000    0.000 
#    0.000    0.000    0.000    0.000    0.000    0.000 
#
# Total GULP energy -89431.062325 kJ/mol
# GULP energy per Si atom -5589.441395 kJ/mol
# Density = 2.340030 g / cm^3
# Si number density = 23.453684 Si / 1000 Ang^3
#
#
#
# Elastic Constant Matrix: (Units=GPa)
#
#
# Indices 1 2 3 4 5 6 
#
# 1 141.4726 33.6848 22.4412 -13.9978 -7.6717 43.4515
# 2 33.6848 64.0635 2.2063 -20.1589 2.2708 12.1207
# 3 22.4412 2.2063 63.6404 -14.8355 -5.7788 9.4363
# 4 -13.9978 -20.1589 -14.8355 39.8419 1.8448 0.6283
# 5 -7.6717 2.2708 -5.7788 1.8448 40.9380 -5.2991
# 6 43.4515 12.1207 9.4363 0.6283 -5.2991 42.8366
#
#
#
# Elastic Compliance Matrix: (Units=1/GPa)
#
#
# Indices 1 2 3 4 5 6 
#
# 1 0.011583 -0.003596 -0.001999 0.001635 0.000690 -0.010230
# 2 -0.003596 0.021677 0.003451 0.011158 -0.002371 -0.003703
# 3 -0.001999 0.003451 0.018735 0.008006 0.001326 -0.003029
# 4 0.001635 0.011158 0.008006 0.034493 -0.001681 -0.007293
# 5 0.000690 -0.002371 0.001326 -0.001681 0.025318 0.002836
# 6 -0.010230 -0.003703 -0.003029 -0.007293 0.002836 0.035894
#
#
# Mechanical properties :
#
#
# Convention : Reuss Voigt Hill
#
# Bulk Modulus (GPa) = 20.96114 42.87123 31.91618
# Shear Modulus (GPa) = 29.78134 38.77958 34.28046
#
# Velocity S-wave (km/s) = 3.56728 4.07068 3.82727
# Velocity P-wave (km/s) = 5.09156 6.35710 5.75920
#
# Compressibility (1/GPa) = 0.04770734
#
# Stress axis : x y z
#
# Youngs Moduli (GPa) = 86.33282 46.13133 53.37741
#
# Poissons Ratio (x) = 0.16589 0.10671
# Poissons Ratio (y) = 0.31046 -0.18423
# Poissons Ratio (z) = 0.17259 -0.15922
#
# Static dielectric constant tensor:
#      x y z
#    x 1.926640 -0.055620 0.011280 
#    y -0.055620 1.902210 -0.015530 
#    z 0.011280 -0.015530 1.967620 
# 
# From -- ./inp_files/514801.got.cif
#   From: 2010.05.17/outbox.cif.g08.bks.cpg/sg2_258_cif.got.tgz:514801.got - 2010.06.03 11:33:40.
