data_PCOD9042482
_publ_section_title
;
Structure prediction by ZEFSAII (Michael W. Deem and Ramdas Pophale) SiO2 
 PCOD9042482
Probable space group: P -1
;
_chemical_formula_sum "Si O2"
_cell_formula_units_Z 14
_cell_length_a 20.908201
_cell_length_b 8.032237
_cell_length_c 4.973080
_cell_angle_alpha 67.789120
_cell_angle_beta 70.441380
_cell_angle_gamma 46.269533
_cell_volume 555.339655
_symmetry_space_group_name_H-M "P -1"
_symmetry_group_IT_number 2
_symmetry_cell_setting 'triclinic'
loop_
_space_group_symop_operation_xyz
x,y,z
-x,-y,-z
loop_
_atom_site_type_symbol
_atom_site_label
_atom_site_fract_x
_atom_site_fract_y
_atom_site_fract_z
Si Si1 0.641825 0.620262 0.037052
Si Si2 0.979574 0.410650 0.837789
Si Si3 0.917093 0.059041 0.735695
Si Si4 0.258779 0.807669 0.262106
Si Si5 0.199328 0.439290 0.133918
Si Si6 0.472029 0.892739 0.394334
Si Si7 0.696931 0.038694 0.385529
O O1 0.680661 0.444229 0.833044
O O2 0.726054 0.562521 0.110842
O O3 0.587856 0.891281 0.860456
O O4 0.562468 0.659536 0.283968
O O5 0.877038 0.529120 0.939328
O O6 0.000000 0.500000 0.500000
O O7 0.000000 0.500000 0.000000
O O8 0.043704 0.129378 0.962840
O O9 0.844298 0.074194 0.655943
O O10 0.859618 0.321477 0.761937
O O11 0.000000 0.000000 0.500000
O O12 0.292547 0.818420 0.497034
O O13 0.264375 0.963088 0.949793
O O14 0.247481 0.217619 0.400711
O O15 0.500000 0.000000 0.500000
O O16 0.403492 0.855727 0.599752
#
# Coordination Sequence:
#
# PCOD9042482 Si02
#       7
#     2   2   2   2   2   2   2
#     4   9  23  44  68 100 138 184 235 293 347 438
#     4  12  25  44  69 102 143 183 233 300 357 415
#     4  11  25  47  75 105 145 195 248 297 353 438
#     4  11  26  47  69 108 143 185 239 296 368 415
#     4  10  23  45  68 100 137 192 238 290 356 428
#     4  10  23  44  72 100 139 185 239 284 359 437
#     4  11  26  45  72 102 146 186 232 304 359 425
#
# _framework density 25.209796000000001
#
# number of rings (size 3 to 8) (size 9 to 14) (size 15 to 20)
#    0.000    1.429    0.000    3.000    8.000    5.714 
#    5.143    0.000    0.000    0.000    0.000    0.000 
#    0.000    0.000    0.000    0.000    0.000    0.000 
#
# Total GULP energy -78348.136827 kJ/mol
# GULP energy per Si atom -5596.295488 kJ/mol
# Density = 2.515242 g / cm^3
# Si number density = 25.209796 Si / 1000 Ang^3
#
#
#
# Elastic Constant Matrix: (Units=GPa)
#
#
# Indices 1 2 3 4 5 6 
#
# 1 212.5462 40.5109 44.1470 35.6478 -21.7215 -39.7541
# 2 40.5109 148.4278 30.1158 3.7713 -20.6531 -25.4203
# 3 44.1470 30.1158 79.9545 10.7131 -3.3264 -9.7483
# 4 35.6478 3.7713 10.7131 43.3142 -3.0919 -8.2422
# 5 -21.7215 -20.6531 -3.3264 -3.0919 41.2235 5.5557
# 6 -39.7541 -25.4203 -9.7483 -8.2422 5.5557 40.5740
#
#
#
# Elastic Compliance Matrix: (Units=1/GPa)
#
#
# Indices 1 2 3 4 5 6 
#
# 1 0.007182 -0.000081 -0.002652 -0.004083 0.002526 0.005173
# 2 -0.000081 0.008495 -0.002621 0.001052 0.003495 0.004349
# 3 -0.002652 -0.002621 0.015013 -0.001552 -0.001515 -0.000741
# 4 -0.004083 0.001052 -0.001552 0.027081 0.000042 0.001782
# 5 0.002526 0.003495 -0.001515 0.000042 0.027141 0.000593
# 6 0.005173 0.004349 -0.000741 0.001782 0.000593 0.032543
#
#
# Mechanical properties :
#
#
# Convention : Reuss Voigt Hill
#
# Bulk Modulus (GPa) = 50.04176 74.49734 62.26955
# Shear Modulus (GPa) = 37.08556 46.76597 41.92576
#
# Velocity S-wave (km/s) = 3.83962 4.31173 4.08250
# Velocity P-wave (km/s) = 6.28889 7.37584 6.85395
#
# Compressibility (1/GPa) = 0.01998331
#
# Stress axis : x y z
#
# Youngs Moduli (GPa) = 139.24357 117.71000 66.60867
#
# Poissons Ratio (x) = 0.00950 0.17665
# Poissons Ratio (y) = 0.01124 0.17456
# Poissons Ratio (z) = 0.36928 0.30848
#
# Static dielectric constant tensor:
#      x y z
#    x 2.157660 -0.008360 -0.016740 
#    y -0.008360 2.036540 -0.058730 
#    z -0.016740 -0.058730 2.033040 
# 
# From -- ./inp_files/116589.got.cif
#   From: 2010.05.17/outbox.cif.g08.bks.cpg/sg2_59_cif.got.tgz:116589.got - 2010.06.03 11:33:40.
