data_PCOD9042707
_publ_section_title
;
Structure prediction by ZEFSAII (Michael W. Deem and Ramdas Pophale) SiO2 
 PCOD9042707
Probable space group: P -1
;
_chemical_formula_sum "Si O2"
_cell_formula_units_Z 14
_cell_length_a 8.562077
_cell_length_b 18.173484
_cell_length_c 8.875019
_cell_angle_alpha 145.927509
_cell_angle_beta 70.972726
_cell_angle_gamma 125.717358
_cell_volume 589.273041
_symmetry_space_group_name_H-M "P -1"
_symmetry_group_IT_number 2
_symmetry_cell_setting 'triclinic'
loop_
_space_group_symop_operation_xyz
x,y,z
-x,-y,-z
loop_
_atom_site_type_symbol
_atom_site_label
_atom_site_fract_x
_atom_site_fract_y
_atom_site_fract_z
Si Si1 0.036329 0.098026 0.394354
Si Si2 0.301201 0.838075 0.359850
Si Si3 0.639160 0.636647 0.055757
Si Si4 0.895374 0.788969 0.766541
Si Si5 0.640610 0.403937 0.199998
Si Si6 0.222393 0.557169 0.465353
Si Si7 0.321507 0.840003 0.703331
O O1 0.214852 0.187937 0.612927
O O2 0.139047 0.168086 0.316114
O O3 0.886302 0.148898 0.560090
O O4 0.898811 0.903548 0.085427
O O5 0.357870 0.836276 0.510769
O O6 0.500000 0.000000 0.500000
O O7 0.243187 0.672840 0.021072
O O8 0.500000 0.500000 0.000000
O O9 0.514130 0.641308 0.964884
O O10 0.773540 0.585110 0.848389
O O11 0.756776 0.596982 0.506665
O O12 0.122727 0.837249 0.776091
O O13 0.606819 0.356224 0.306667
O O14 0.283752 0.686061 0.535658
O O15 0.000000 0.500000 0.500000
O O16 0.500000 0.000000 0.000000
#
# Coordination Sequence:
#
# PCOD9042707 Si02
#       7
#     2   2   2   2   2   2   2
#     4  10  24  46  75 109 150 194 250 317 384 453
#     4  11  26  49  76 113 151 198 255 323 382 463
#     4  12  26  45  77 113 151 197 262 317 385 458
#     4  10  23  44  74 108 146 194 249 310 381 452
#     4  12  25  47  74 109 153 199 253 313 386 454
#     4  12  26  47  73 111 155 203 260 316 384 462
#     4  11  25  43  78 106 151 200 255 313 389 455
#
# _framework density 23.758087
#
# number of rings (size 3 to 8) (size 9 to 14) (size 15 to 20)
#    0.000    0.857    2.857    3.000    4.000    4.571 
#    0.000    1.429    0.000    0.000    0.000    0.000 
#    0.000    0.000    0.000    0.000    0.000    0.000 
#
# Total GULP energy -78380.853861 kJ/mol
# GULP energy per Si atom -5598.632419 kJ/mol
# Density = 2.370401 g / cm^3
# Si number density = 23.758087 Si / 1000 Ang^3
#
#
#
# Elastic Constant Matrix: (Units=GPa)
#
#
# Indices 1 2 3 4 5 6 
#
# 1 107.4290 47.7809 62.3524 -13.1531 13.9442 -18.6262
# 2 47.7809 123.0341 34.0147 -7.2139 8.7823 -22.1821
# 3 62.3524 34.0147 197.5879 -10.7864 -2.1042 -13.7569
# 4 -13.1531 -7.2139 -10.7864 34.5584 -6.9203 -0.6216
# 5 13.9442 8.7823 -2.1042 -6.9203 55.5998 -10.7134
# 6 -18.6262 -22.1821 -13.7569 -0.6216 -10.7134 32.9623
#
#
#
# Elastic Compliance Matrix: (Units=1/GPa)
#
#
# Indices 1 2 3 4 5 6 
#
# 1 0.014183 -0.003575 -0.003457 0.003229 -0.002034 0.003566
# 2 -0.003575 0.010539 -0.000280 0.000906 0.000312 0.005074
# 3 -0.003457 -0.000280 0.006335 0.000912 0.001456 0.000992
# 4 0.003229 0.000906 0.000912 0.031505 0.003904 0.004678
# 5 -0.002034 0.000312 0.001456 0.003904 0.020203 0.006308
# 6 0.003566 0.005074 0.000992 0.004678 0.006308 0.038319
#
#
# Mechanical properties :
#
#
# Convention : Reuss Voigt Hill
#
# Bulk Modulus (GPa) = 60.85692 79.59411 70.22551
# Shear Modulus (GPa) = 35.41424 43.55096 39.48260
#
# Velocity S-wave (km/s) = 3.86504 4.28612 4.08101
# Velocity P-wave (km/s) = 6.75196 7.62030 7.19923
#
# Compressibility (1/GPa) = 0.01643199
#
# Stress axis : x y z
#
# Youngs Moduli (GPa) = 70.50871 94.88406 157.86168
#
# Poissons Ratio (x) = 0.33918 0.54578
# Poissons Ratio (y) = 0.25205 0.04424
# Poissons Ratio (z) = 0.24377 0.02659
#
# Static dielectric constant tensor:
#      x y z
#    x 1.895400 0.033340 -0.001900 
#    y 0.033340 1.911440 0.006890 
#    z -0.001900 0.006890 1.877020 
# 
# From -- ./inp_files/219016.got.cif
#   From: 2010.05.17/outbox.cif.g08.bks.cpg/sg2_110_cif.got.tgz:219016.got - 2010.06.03 11:33:40.
