data_PCOD9042646
_publ_section_title
;
Structure prediction by ZEFSAII (Michael W. Deem and Ramdas Pophale) SiO2 
 PCOD9042646
Probable space group: P -1
;
_chemical_formula_sum "Si O2"
_cell_formula_units_Z 16
_cell_length_a 15.503639
_cell_length_b 6.344822
_cell_length_c 9.182296
_cell_angle_alpha 52.772711
_cell_angle_beta 106.957515
_cell_angle_gamma 106.626420
_cell_volume 680.758900
_symmetry_space_group_name_H-M "P -1"
_symmetry_group_IT_number 2
_symmetry_cell_setting 'triclinic'
loop_
_space_group_symop_operation_xyz
x,y,z
-x,-y,-z
loop_
_atom_site_type_symbol
_atom_site_label
_atom_site_fract_x
_atom_site_fract_y
_atom_site_fract_z
Si Si1 0.470621 0.697996 0.202690
Si Si2 0.234110 0.218723 0.728554
Si Si3 0.397878 0.212431 0.001208
Si Si4 0.076478 0.314461 0.788833
Si Si5 0.709747 0.915125 0.724408
Si Si6 0.178063 0.581761 0.999889
Si Si7 0.116085 0.759917 0.184422
Si Si8 0.635325 0.777175 0.463930
O O1 0.554051 0.824589 0.296423
O O2 0.413164 0.461201 0.360208
O O3 0.407546 0.923506 0.057087
O O4 0.515098 0.620130 0.105394
O O5 0.142535 0.337045 0.672271
O O6 0.283776 0.291752 0.570213
O O7 0.217460 0.894110 0.867119
O O8 0.307770 0.312149 0.851985
O O9 0.376329 0.138341 0.187874
O O10 0.114798 0.506744 0.859808
O O11 0.969651 0.325369 0.717348
O O12 0.090423 0.022407 0.978963
O O13 0.678544 0.987157 0.517997
O O14 0.788039 0.137493 0.734094
O O15 0.752940 0.636920 0.864036
O O16 0.127295 0.560890 0.140131
#
# Coordination Sequence:
#
# PCOD9042646 Si02
#       8
#     2   2   2   2   2   2   2   2
#     4   9  21  39  62  80 113 150 185 248 279 340
#     4  10  19  37  57  85 120 151 186 239 270 344
#     4  10  18  38  61  84 110 144 198 232 282 330
#     4   9  17  32  56  88 113 151 192 232 279 322
#     4  11  21  35  59  88 113 154 186 232 287 340
#     4  10  17  33  59  86 108 158 188 234 274 324
#     4   9  18  32  55  88 119 141 194 241 269 328
#     4  10  22  38  55  86 119 148 187 230 301 332
#
# _framework density 23.50318
#
# number of rings (size 3 to 8) (size 9 to 14) (size 15 to 20)
#    0.000    2.250    3.750    1.125    0.000    2.000 
#    2.250    0.625    0.000    1.500    0.000    0.000 
#    0.000    0.000    0.000    0.000    0.000    0.000 
#
# Total GULP energy -89289.092215 kJ/mol
# GULP energy per Si atom -5580.568263 kJ/mol
# Density = 2.344969 g / cm^3
# Si number density = 23.503180 Si / 1000 Ang^3
#
#
#
# Elastic Constant Matrix: (Units=GPa)
#
#
# Indices 1 2 3 4 5 6 
#
# 1 153.2247 47.8332 48.3222 15.3646 -37.0892 -8.6065
# 2 47.8332 57.5054 17.6787 13.6773 -8.6802 -7.7962
# 3 48.3222 17.6787 84.0032 22.6268 -17.8583 -8.3312
# 4 15.3646 13.6773 22.6268 35.9412 -13.1901 -0.6820
# 5 -37.0892 -8.6802 -17.8583 -13.1901 43.6395 13.6682
# 6 -8.6065 -7.7962 -8.3312 -0.6820 13.6682 19.5327
#
#
#
# Elastic Compliance Matrix: (Units=1/GPa)
#
#
# Indices 1 2 3 4 5 6 
#
# 1 0.012947 -0.009860 -0.005288 0.005444 0.011035 -0.008018
# 2 -0.009860 0.028032 0.002090 -0.011070 -0.009729 0.014157
# 3 -0.005288 0.002090 0.017498 -0.010247 -0.002270 0.007198
# 4 0.005444 -0.011070 -0.010247 0.041670 0.015845 -0.016023
# 5 0.011035 -0.009729 -0.002270 0.015845 0.043598 -0.029944
# 6 -0.008018 0.014157 0.007198 -0.016023 -0.029944 0.076778
#
#
# Mechanical properties :
#
#
# Convention : Reuss Voigt Hill
#
# Bulk Modulus (GPa) = 30.90166 58.04463 44.47314
# Shear Modulus (GPa) = 19.42301 31.88264 25.65283
#
# Velocity S-wave (km/s) = 2.87784 3.68710 3.30731
# Velocity P-wave (km/s) = 4.92128 6.54801 5.79204
#
# Compressibility (1/GPa) = 0.03236072
#
# Stress axis : x y z
#
# Youngs Moduli (GPa) = 77.23791 35.67308 57.14959
#
# Poissons Ratio (x) = 0.35173 0.30223
# Poissons Ratio (y) = 0.76155 -0.11944
# Poissons Ratio (z) = 0.40846 -0.07455
#
# Static dielectric constant tensor:
#      x y z
#    x 1.922370 0.034470 -0.042710 
#    y 0.034470 1.928400 0.008360 
#    z -0.042710 0.008360 1.913030 
# 
# From -- ./inp_files/47150.got.cif
#   From: 2010.05.17/outbox.cif.g08.bks.cpg/sg2_24_cif.got.tgz:47150.got - 2010.06.03 11:33:40.
