data_PCOD9042160
_publ_section_title
;
Structure prediction by ZEFSAII (Michael W. Deem and Ramdas Pophale) SiO2 
 PCOD9042160
Probable space group: P -1
;
_chemical_formula_sum "Si O2"
_cell_formula_units_Z 16
_cell_length_a 14.388419
_cell_length_b 28.025368
_cell_length_c 10.706643
_cell_angle_alpha 150.480958
_cell_angle_beta 28.889575
_cell_angle_gamma 159.940435
_cell_volume 685.077276
_symmetry_space_group_name_H-M "P -1"
_symmetry_group_IT_number 2
_symmetry_cell_setting 'triclinic'
loop_
_space_group_symop_operation_xyz
x,y,z
-x,-y,-z
loop_
_atom_site_type_symbol
_atom_site_label
_atom_site_fract_x
_atom_site_fract_y
_atom_site_fract_z
Si Si1 0.660611 0.855335 0.576426
Si Si2 0.457038 0.564051 0.090611
Si Si3 0.739221 0.871205 0.794571
Si Si4 0.393951 0.562036 0.497049
Si Si5 0.576539 0.855061 0.407424
Si Si6 0.100206 0.514869 0.212554
Si Si7 0.189552 0.428596 0.674794
Si Si8 0.402838 0.867365 0.380695
O O1 0.589524 0.851601 0.796069
O O2 0.529470 0.862507 0.627268
O O3 0.609680 0.721847 0.304231
O O4 0.000000 0.000000 0.500000
O O5 0.575943 0.542006 0.786577
O O6 0.500000 0.500000 0.000000
O O7 0.147121 0.479181 0.207267
O O8 0.684133 0.734219 0.541386
O O9 0.580550 0.852009 0.059878
O O10 0.077608 0.024912 0.744892
O O11 0.251331 0.529663 0.724371
O O12 0.172059 0.517242 0.551855
O O13 0.385810 0.685583 0.234056
O O14 0.469017 0.883304 0.486475
O O15 0.069554 0.426051 0.937787
O O16 0.500000 0.500000 0.500000
O O17 0.937250 0.268775 0.551836
O O18 0.500000 0.000000 0.500000
#
# Coordination Sequence:
#
# PCOD9042160 Si02
#       8
#     2   2   2   2   2   2   2   2
#     4   9  21  44  70  96 141 189 226 276 358 424
#     4  11  23  41  69 102 132 179 239 286 342 416
#     4  11  23  43  72  98 137 184 227 289 354 411
#     4  12  23  42  71 101 137 180 232 293 348 418
#     4  10  23  44  69  97 137 184 223 285 359 413
#     4  11  23  44  67  98 139 180 226 289 355 415
#     4  12  25  42  67  96 136 183 229 290 358 408
#     4  12  27  43  67 105 138 177 244 292 344 428
#
# _framework density 23.355028999999998
#
# number of rings (size 3 to 8) (size 9 to 14) (size 15 to 20)
#    0.000    1.000    5.000    1.500    3.500    1.500 
#    0.000    0.625    0.000    0.000    0.000    0.000 
#    0.000    0.000    0.000    0.000    0.000    0.000 
#
# Total GULP energy -89289.183038 kJ/mol
# GULP energy per Si atom -5580.573940 kJ/mol
# Density = 2.330187 g / cm^3
# Si number density = 23.355029 Si / 1000 Ang^3
#
#
#
# Elastic Constant Matrix: (Units=GPa)
#
#
# Indices 1 2 3 4 5 6 
#
# 1 194.4868 31.7188 15.3110 9.2035 -4.0407 7.1178
# 2 31.7188 130.9280 9.9018 6.2959 -9.1746 6.8528
# 3 15.3110 9.9018 61.0845 -6.5436 -7.9498 10.5864
# 4 9.2035 6.2959 -6.5436 29.9018 -0.9497 -1.3130
# 5 -4.0407 -9.1746 -7.9498 -0.9497 32.9483 -4.9811
# 6 7.1178 6.8528 10.5864 -1.3130 -4.9811 40.0763
#
#
#
# Elastic Compliance Matrix: (Units=1/GPa)
#
#
# Indices 1 2 3 4 5 6 
#
# 1 0.005531 -0.001134 -0.001315 -0.001777 -0.000083 -0.000510
# 2 -0.001134 0.008218 -0.000841 -0.001544 0.001779 -0.000811
# 3 -0.001315 -0.000841 0.018472 0.004567 0.003603 -0.003905
# 4 -0.001777 -0.001544 0.004567 0.035397 0.001585 0.000730
# 5 -0.000083 0.001779 0.003603 0.001585 0.032176 0.002810
# 6 -0.000510 -0.000811 -0.003905 0.000730 0.002810 0.026586
#
#
# Mechanical properties :
#
#
# Convention : Reuss Voigt Hill
#
# Bulk Modulus (GPa) = 39.00314 55.59581 47.29948
# Shear Modulus (GPa) = 35.33406 42.55647 38.94526
#
# Velocity S-wave (km/s) = 3.89383 4.27330 4.08797
# Velocity P-wave (km/s) = 6.07884 6.94294 6.52521
#
# Compressibility (1/GPa) = 0.02563896
#
# Stress axis : x y z
#
# Youngs Moduli (GPa) = 180.79045 121.69069 54.13707
#
# Poissons Ratio (x) = 0.13803 0.07121
# Poissons Ratio (y) = 0.20506 0.04553
# Poissons Ratio (z) = 0.23781 0.10235
#
# Static dielectric constant tensor:
#      x y z
#    x 1.933390 -0.092610 0.053660 
#    y -0.092610 1.773070 0.002530 
#    z 0.053660 0.002530 1.915600 
# 
# From -- ./inp_files/458399.got.cif
#   From: 2010.05.17/outbox.cif.g08.bks.cpg/sg2_230_cif.got.tgz:458399.got - 2010.06.03 11:33:40.
