data_PCOD9042342
_publ_section_title
;
Structure prediction by ZEFSAII (Michael W. Deem and Ramdas Pophale) SiO2 
 PCOD9042342
Probable space group: P -1
;
_chemical_formula_sum "Si O2"
_cell_formula_units_Z 15
_cell_length_a 10.863457
_cell_length_b 7.802153
_cell_length_c 10.380075
_cell_angle_alpha 132.979225
_cell_angle_beta 104.193302
_cell_angle_gamma 99.291849
_cell_volume 552.993447
_symmetry_space_group_name_H-M "P -1"
_symmetry_group_IT_number 2
_symmetry_cell_setting 'triclinic'
loop_
_space_group_symop_operation_xyz
x,y,z
-x,-y,-z
loop_
_atom_site_type_symbol
_atom_site_label
_atom_site_fract_x
_atom_site_fract_y
_atom_site_fract_z
Si Si1 0.732319 0.815861 0.738869
Si Si2 0.591332 0.589622 0.308516
Si Si3 0.430355 0.895246 0.089918
Si Si4 0.301235 0.603274 0.170487
Si Si5 0.000000 0.500000 0.500000
Si Si6 0.253662 0.677380 0.547586
Si Si7 0.978401 0.941325 0.188488
Si Si8 0.839836 0.086785 0.551460
O O1 0.645101 0.696111 0.520946
O O2 0.740009 0.553767 0.650859
O O3 0.645803 0.920102 0.856687
O O4 0.891632 0.038148 0.858505
O O5 0.449779 0.619430 0.263828
O O6 0.717492 0.789635 0.348817
O O7 0.565879 0.297985 0.117056
O O8 0.338875 0.717217 0.094280
O O9 0.592954 0.079171 0.274795
O O10 0.243439 0.784008 0.322087
O O11 0.172603 0.310068 0.990605
O O12 0.170021 0.560094 0.597632
O O13 0.033114 0.796689 0.713795
O O14 0.129708 0.741399 0.484361
O O15 0.035337 0.919500 0.335641
#
# Coordination Sequence:
#
# PCOD9042342 Si02
#       8
#     2   2   2   2   1   2   2   2
#     4  10  24  48  67  99 148 182 233 288 342 415
#     4  11  23  41  71 105 135 185 233 284 352 406
#     4  12  23  40  75 104 140 180 238 288 345 412
#     4  12  22  42  72 107 145 171 237 300 332 418
#     4  10  24  46  62  96 146 172 226 288 340 412
#     4  11  24  45  69 101 139 191 229 291 348 409
#     4  10  23  44  70  98 141 188 218 292 351 402
#     4  11  23  43  72 103 136 189 233 277 357 411
#
# _framework density 27.125095999999999
#
# number of rings (size 3 to 8) (size 9 to 14) (size 15 to 20)
#    0.000    1.067    4.000    3.200    1.867    1.067 
#    4.800    8.000    2.933    0.000    0.000    0.000 
#    0.000    0.000    0.000    0.000    0.000    0.000 
#
# Total GULP energy -83870.115486 kJ/mol
# GULP energy per Si atom -5591.341032 kJ/mol
# Density = 2.706336 g / cm^3
# Si number density = 27.125096 Si / 1000 Ang^3
#
#
#
# Elastic Constant Matrix: (Units=GPa)
#
#
# Indices 1 2 3 4 5 6 
#
# 1 121.3011 6.1966 56.6986 8.7683 1.6240 -7.0034
# 2 6.1966 79.1803 28.4810 9.1423 4.6528 -26.1682
# 3 56.6986 28.4810 87.0313 29.4058 19.7917 2.9210
# 4 8.7683 9.1423 29.4058 50.2346 6.2952 0.4544
# 5 1.6240 4.6528 19.7917 6.2952 63.2463 3.1388
# 6 -7.0034 -26.1682 2.9210 0.4544 3.1388 51.1855
#
#
#
# Elastic Compliance Matrix: (Units=1/GPa)
#
#
# Indices 1 2 3 4 5 6 
#
# 1 0.013775 0.004319 -0.012381 0.003689 0.002607 0.004607
# 2 0.004319 0.019392 -0.010258 0.001500 0.000977 0.011017
# 3 -0.012381 -0.010258 0.028627 -0.011866 -0.006304 -0.008080
# 4 0.003689 0.001500 -0.011866 0.025814 0.000856 0.001667
# 5 0.002607 0.000977 -0.006304 0.000856 0.017553 0.000132
# 6 0.004607 0.011017 -0.008080 0.001667 0.000132 0.026238
#
#
# Mechanical properties :
#
#
# Convention : Reuss Voigt Hill
#
# Bulk Modulus (GPa) = 39.75703 52.25169 46.00436
# Shear Modulus (GPa) = 28.34088 46.00906 37.17497
#
# Velocity S-wave (km/s) = 3.23588 4.12294 3.70604
# Velocity P-wave (km/s) = 5.35256 6.47842 5.94221
#
# Compressibility (1/GPa) = 0.02515278
#
# Stress axis : x y z
#
# Youngs Moduli (GPa) = 72.59531 51.56866 34.93180
#
# Poissons Ratio (x) = -0.22271 0.43250
# Poissons Ratio (y) = -0.31352 0.35833
# Poissons Ratio (z) = 0.89882 0.52899
#
# Static dielectric constant tensor:
#      x y z
#    x 1.953840 -0.169300 0.003880 
#    y -0.169300 1.874820 0.016800 
#    z 0.003880 0.016800 2.133390 
# 
# From -- ./inp_files/418694.got.cif
#   From: 2010.05.17/outbox.cif.g08.bks.cpg/sg2_210_cif.got.tgz:418694.got - 2010.06.03 11:33:40.
