data_PCOD9042779
_publ_section_title
;
Structure prediction by ZEFSAII (Michael W. Deem and Ramdas Pophale) SiO2 
 PCOD9042779
Probable space group: P -1
;
_chemical_formula_sum "Si O2"
_cell_formula_units_Z 14
_cell_length_a 11.082136
_cell_length_b 7.463884
_cell_length_c 11.834590
_cell_angle_alpha 62.926302
_cell_angle_beta 138.065336
_cell_angle_gamma 123.756251
_cell_volume 542.357257
_symmetry_space_group_name_H-M "P -1"
_symmetry_group_IT_number 2
_symmetry_cell_setting 'triclinic'
loop_
_space_group_symop_operation_xyz
x,y,z
-x,-y,-z
loop_
_atom_site_type_symbol
_atom_site_label
_atom_site_fract_x
_atom_site_fract_y
_atom_site_fract_z
Si Si1 0.587086 0.947486 0.816377
Si Si2 0.848565 0.846554 0.185226
Si Si3 0.446102 0.771183 0.462259
Si Si4 0.000000 0.500000 0.000000
Si Si5 0.812948 0.814247 0.813572
Si Si6 0.894839 0.646215 0.645717
Si Si7 0.000000 0.000000 0.500000
Si Si8 0.174809 0.611258 0.675691
O O1 0.719619 0.877646 0.840753
O O2 0.368169 0.781303 0.710332
O O3 0.599071 0.179364 0.711735
O O4 0.684858 0.938891 0.005738
O O5 0.782860 0.591473 0.186384
O O6 0.040422 0.975661 0.208343
O O7 0.889641 0.884353 0.335073
O O8 0.628224 0.703694 0.633613
O O9 0.254241 0.585901 0.425818
O O10 0.500000 0.000000 0.500000
O O11 0.917192 0.654264 0.971173
O O12 0.965285 0.626928 0.824824
O O13 0.081927 0.732417 0.665529
O O14 0.819951 0.832643 0.503879
O O15 0.000000 0.500000 0.500000
#
# Coordination Sequence:
#
# PCOD9042779 Si02
#       8
#     2   2   2   1   2   2   1   2
#     4  11  24  44  79 116 142 197 262 325 367 444
#     4  12  24  46  70 107 150 198 261 308 384 448
#     4  10  23  44  76 109 143 192 259 313 371 449
#     4  12  26  46  72 106 148 208 240 308 374 466
#     4  11  23  45  73 109 149 197 253 309 386 452
#     4  12  26  50  73 109 152 202 255 303 392 453
#     4  12  28  46  74 102 162 208 240 318 386 462
#     4  12  23  44  80 107 151 199 256 319 375 450
#
# _framework density 25.813245999999999
#
# number of rings (size 3 to 8) (size 9 to 14) (size 15 to 20)
#    0.000    0.571    2.857    6.857    0.000    0.571 
#    0.000    2.143    0.000    0.000    0.000    0.000 
#    0.000    0.000    0.000    0.000    0.000    0.000 
#
# Total GULP energy -77958.092447 kJ/mol
# GULP energy per Si atom -5568.435175 kJ/mol
# Density = 2.575449 g / cm^3
# Si number density = 25.813246 Si / 1000 Ang^3
#
#
#
# Elastic Constant Matrix: (Units=GPa)
#
#
# Indices 1 2 3 4 5 6 
#
# 1 102.2181 35.8114 30.8249 0.8978 -4.0837 16.7890
# 2 35.8114 148.5476 33.1061 -13.1184 8.0300 27.8822
# 3 30.8249 33.1061 149.7401 -23.6473 -20.2066 16.2598
# 4 0.8978 -13.1184 -23.6473 41.6482 0.7365 1.2063
# 5 -4.0837 8.0300 -20.2066 0.7365 39.7167 -9.8820
# 6 16.7890 27.8822 16.2598 1.2063 -9.8820 50.0273
#
#
#
# Elastic Compliance Matrix: (Units=1/GPa)
#
#
# Indices 1 2 3 4 5 6 
#
# 1 0.011471 -0.002149 -0.001968 -0.001988 0.000169 -0.001931
# 2 -0.002149 0.008779 -0.001132 0.002369 -0.003761 -0.004604
# 3 -0.001968 -0.001132 0.008709 0.004581 0.004167 -0.000827
# 4 -0.001988 0.002369 0.004581 0.027471 0.000463 -0.002713
# 5 0.000169 -0.003761 0.004167 0.000463 0.029695 0.006540
# 6 -0.001931 -0.004604 -0.000827 -0.002713 0.006540 0.024829
#
#
# Mechanical properties :
#
#
# Convention : Reuss Voigt Hill
#
# Bulk Modulus (GPa) = 54.16897 66.66563 60.41730
# Shear Modulus (GPa) = 39.18357 46.32933 42.75645
#
# Velocity S-wave (km/s) = 3.90033 4.24109 4.07428
# Velocity P-wave (km/s) = 6.42759 7.06149 6.75199
#
# Compressibility (1/GPa) = 0.01846075
#
# Stress axis : x y z
#
# Youngs Moduli (GPa) = 87.17890 113.90994 114.82254
#
# Poissons Ratio (x) = 0.24481 0.22593
# Poissons Ratio (y) = 0.18736 0.12999
# Poissons Ratio (z) = 0.17154 0.12896
#
# Static dielectric constant tensor:
#      x y z
#    x 2.386410 -0.575700 0.203320 
#    y -0.575700 2.830200 -0.203830 
#    z 0.203320 -0.203830 2.132210 
# 
# From -- ./inp_files/419264.got.cif
#   From: 2010.05.17/outbox.cif.g08.bks.cpg/sg2_210_cif.got.tgz:419264.got - 2010.06.03 11:33:40.
