data_PCOD9042301
_publ_section_title
;
Structure prediction by ZEFSAII (Michael W. Deem and Ramdas Pophale) SiO2 
 PCOD9042301
Probable space group: P -1
;
_chemical_formula_sum "Si O2"
_cell_formula_units_Z 14
_cell_length_a 9.591224
_cell_length_b 7.228162
_cell_length_c 19.204190
_cell_angle_alpha 128.304956
_cell_angle_beta 143.265420
_cell_angle_gamma 49.591395
_cell_volume 591.437402
_symmetry_space_group_name_H-M "P -1"
_symmetry_group_IT_number 2
_symmetry_cell_setting 'triclinic'
loop_
_space_group_symop_operation_xyz
x,y,z
-x,-y,-z
loop_
_atom_site_type_symbol
_atom_site_label
_atom_site_fract_x
_atom_site_fract_y
_atom_site_fract_z
Si Si1 0.051356 0.453803 0.092044
Si Si2 0.095476 0.220694 0.646635
Si Si3 0.400370 0.751938 0.746520
Si Si4 0.261234 0.306026 0.583300
Si Si5 0.021060 0.298670 0.188979
Si Si6 0.566517 0.215574 0.437155
Si Si7 0.224988 0.985649 0.873599
O O1 0.322314 0.256213 0.147849
O O2 0.942431 0.336063 0.085233
O O3 0.968476 0.740379 0.152968
O O4 0.000000 0.500000 0.000000
O O5 0.239210 0.271365 0.649186
O O6 0.055813 0.442888 0.738123
O O7 0.835170 0.200181 0.512139
O O8 0.240677 0.970011 0.685617
O O9 0.432857 0.468304 0.671675
O O10 0.269560 0.809866 0.782558
O O11 0.000000 0.500000 0.500000
O O12 0.360889 0.017055 0.533057
O O13 0.321714 0.201824 0.295970
O O14 0.888539 0.128773 0.135947
O O15 0.500000 0.500000 0.500000
O O16 0.500000 0.000000 0.000000
#
# Coordination Sequence:
#
# PCOD9042301 Si02
#       7
#     2   2   2   2   2   2   2
#     4  12  27  47  73 110 142 193 257 316 378 450
#     4  11  23  45  71 107 152 200 241 304 382 451
#     4  12  25  47  76 107 155 197 252 315 375 455
#     4  12  24  41  72 110 148 201 252 296 375 458
#     4  11  25  47  74 105 150 198 246 316 384 445
#     4  10  23  44  70 109 155 196 241 304 373 457
#     4  12  26  52  74 104 147 197 258 322 381 447
#
# _framework density 23.671142
#
# number of rings (size 3 to 8) (size 9 to 14) (size 15 to 20)
#    0.000    0.571    5.714    2.143    2.000    1.143 
#    2.571    2.143    0.000    0.000    0.000    0.000 
#    0.000    0.000    0.000    0.000    0.000    0.000 
#
# Total GULP energy -78000.511803 kJ/mol
# GULP energy per Si atom -5571.465129 kJ/mol
# Density = 2.361727 g / cm^3
# Si number density = 23.671142 Si / 1000 Ang^3
#
#
#
# Elastic Constant Matrix: (Units=GPa)
#
#
# Indices 1 2 3 4 5 6 
#
# 1 126.9595 55.4977 26.2957 -16.8937 6.0489 17.8624
# 2 55.4977 174.4618 28.1138 1.3470 2.4802 5.2453
# 3 26.2957 28.1138 63.4261 -8.4648 6.7878 9.6294
# 4 -16.8937 1.3470 -8.4648 32.5361 -0.6066 -0.2796
# 5 6.0489 2.4802 6.7878 -0.6066 22.8354 -4.6312
# 6 17.8624 5.2453 9.6294 -0.2796 -4.6312 59.0995
#
#
#
# Elastic Compliance Matrix: (Units=1/GPa)
#
#
# Indices 1 2 3 4 5 6 
#
# 1 0.010792 -0.003075 -0.001715 0.005214 -0.002460 -0.002877
# 2 -0.003075 0.007082 -0.002400 -0.002492 0.000844 0.000746
# 3 -0.001715 -0.002400 0.019084 0.004049 -0.005414 -0.002783
# 4 0.005214 -0.002492 0.004049 0.034548 -0.001800 -0.001992
# 5 -0.002460 0.000844 -0.005414 -0.001800 0.046972 0.005223
# 6 -0.002877 0.000746 -0.002783 -0.001992 0.005223 0.018577
#
#
# Mechanical properties :
#
#
# Convention : Reuss Voigt Hill
#
# Bulk Modulus (GPa) = 44.29488 64.96244 54.62866
# Shear Modulus (GPa) = 31.45397 39.89022 35.67209
#
# Velocity S-wave (km/s) = 3.64921 4.10955 3.88620
# Velocity P-wave (km/s) = 6.04226 7.07257 6.57762
#
# Compressibility (1/GPa) = 0.02257597
#
# Stress axis : x y z
#
# Youngs Moduli (GPa) = 92.66181 141.20649 52.40072
#
# Poissons Ratio (x) = 0.43427 0.08987
# Poissons Ratio (y) = 0.28497 0.12578
# Poissons Ratio (z) = 0.15892 0.33894
#
# Static dielectric constant tensor:
#      x y z
#    x 1.926730 -0.186820 -0.134200 
#    y -0.186820 1.895140 -0.063560 
#    z -0.134200 -0.063560 1.935200 
# 
# From -- ./inp_files/575604.got.cif
#   From: 2010.05.17/outbox.cif.g08.bks.cpg/sg2_288_cif.got.tgz:575604.got - 2010.06.03 11:33:40.
