data_PCOD9042731
_publ_section_title
;
Structure prediction by ZEFSAII (Michael W. Deem and Ramdas Pophale) SiO2 
 PCOD9042731
Probable space group: P -1
;
_chemical_formula_sum "Si O2"
_cell_formula_units_Z 14
_cell_length_a 13.885272
_cell_length_b 18.974570
_cell_length_c 8.671562
_cell_angle_alpha 128.157910
_cell_angle_beta 148.012414
_cell_angle_gamma 30.673773
_cell_volume 562.249672
_symmetry_space_group_name_H-M "P -1"
_symmetry_group_IT_number 2
_symmetry_cell_setting 'triclinic'
loop_
_space_group_symop_operation_xyz
x,y,z
-x,-y,-z
loop_
_atom_site_type_symbol
_atom_site_label
_atom_site_fract_x
_atom_site_fract_y
_atom_site_fract_z
Si Si1 0.778873 0.519602 0.502794
Si Si2 0.837842 0.707259 0.800603
Si Si3 0.864338 0.956121 0.228776
Si Si4 0.205311 0.778025 0.888481
Si Si5 0.787029 0.792026 0.194740
Si Si6 0.655898 0.375627 0.670661
Si Si7 0.250452 0.960039 0.141568
O O1 0.867958 0.588548 0.700494
O O2 0.576727 0.573494 0.452813
O O3 0.084530 0.339126 0.696912
O O4 0.534223 0.604516 0.145299
O O5 0.512335 0.859865 0.489366
O O6 0.852085 0.740337 0.036823
O O7 0.085284 0.658317 0.961701
O O8 0.157586 0.775918 0.368310
O O9 0.000000 0.000000 0.500000
O O10 0.579146 0.050795 0.079661
O O11 0.699165 0.012849 0.914083
O O12 0.987913 0.795428 0.530735
O O13 0.224910 0.864049 0.941320
O O14 0.050477 0.875660 0.969337
O O15 0.500000 0.500000 0.500000
#
# Coordination Sequence:
#
# PCOD9042731 Si02
#       7
#     2   2   2   2   2   2   2
#     4  11  24  50  72 108 151 196 238 306 368 438
#     4  11  26  46  76 106 149 201 242 296 374 438
#     4  12  29  46  74 112 147 186 251 312 357 436
#     4  10  23  44  75 102 147 193 242 300 366 435
#     4  12  26  44  75 110 148 184 251 309 359 425
#     4  12  26  46  77 104 146 199 244 290 373 445
#     4  10  24  47  72 101 149 194 238 298 376 434
#
# _framework density 24.899968000000001
#
# number of rings (size 3 to 8) (size 9 to 14) (size 15 to 20)
#    0.000    0.857    2.857    2.571   10.000    2.286 
#    0.000    1.429    0.000    0.000    0.000    0.000 
#    0.000    0.000    0.000    0.000    0.000    0.000 
#
# Total GULP energy -78387.651532 kJ/mol
# GULP energy per Si atom -5599.117967 kJ/mol
# Density = 2.484329 g / cm^3
# Si number density = 24.899968 Si / 1000 Ang^3
#
#
#
# Elastic Constant Matrix: (Units=GPa)
#
#
# Indices 1 2 3 4 5 6 
#
# 1 56.8612 30.2465 -0.8841 8.0365 7.3022 4.7247
# 2 30.2465 137.2985 48.5746 -11.3461 -2.2210 20.9538
# 3 -0.8841 48.5746 98.8851 16.4609 2.6303 10.3648
# 4 8.0365 -11.3461 16.4609 34.5751 10.9897 8.2105
# 5 7.3022 -2.2210 2.6303 10.9897 48.8628 -5.5514
# 6 4.7247 20.9538 10.3648 8.2105 -5.5514 32.9120
#
#
#
# Elastic Compliance Matrix: (Units=1/GPa)
#
#
# Indices 1 2 3 4 5 6 
#
# 1 0.024072 -0.009004 0.006331 -0.011855 -0.001339 0.003015
# 2 -0.009004 0.014839 -0.008662 0.013783 -0.001652 -0.009144
# 3 0.006331 -0.008662 0.016269 -0.013092 0.001061 0.002927
# 4 -0.011855 0.013783 -0.013092 0.049655 -0.009999 -0.017024
# 5 -0.001339 -0.001652 0.001061 -0.009999 0.023622 0.007389
# 6 0.003015 -0.009144 0.002927 -0.017024 0.007389 0.040345
#
#
# Mechanical properties :
#
#
# Convention : Reuss Voigt Hill
#
# Bulk Modulus (GPa) = 30.75986 49.87988 40.31987
# Shear Modulus (GPa) = 24.71490 37.61049 31.16270
#
# Velocity S-wave (km/s) = 3.15392 3.89068 3.54151
# Velocity P-wave (km/s) = 5.06391 6.34498 5.74030
#
# Compressibility (1/GPa) = 0.03250990
#
# Stress axis : x y z
#
# Youngs Moduli (GPa) = 41.54250 67.38847 61.46840
#
# Poissons Ratio (x) = 0.60678 -0.38918
# Poissons Ratio (y) = 0.37406 0.53243
# Poissons Ratio (z) = -0.26302 0.58371
#
# Static dielectric constant tensor:
#      x y z
#    x 2.026150 0.045840 -0.009610 
#    y 0.045840 1.998740 -0.063540 
#    z -0.009610 -0.063540 2.083940 
# 
# From -- ./inp_files/319503.got.cif
#   From: 2010.05.17/outbox.cif.g08.bks.cpg/sg2_160_cif.got.tgz:319503.got - 2010.06.03 11:33:40.
