data_PCOD9042552
_publ_section_title
;
Structure prediction by ZEFSAII (Michael W. Deem and Ramdas Pophale) SiO2 
 PCOD9042552
Probable space group: P -1
;
_chemical_formula_sum "Si O2"
_cell_formula_units_Z 16
_cell_length_a 9.483329
_cell_length_b 9.364214
_cell_length_c 15.315682
_cell_angle_alpha 84.019876
_cell_angle_beta 109.093631
_cell_angle_gamma 45.934846
_cell_volume 805.851090
_symmetry_space_group_name_H-M "P -1"
_symmetry_group_IT_number 2
_symmetry_cell_setting 'triclinic'
loop_
_space_group_symop_operation_xyz
x,y,z
-x,-y,-z
loop_
_atom_site_type_symbol
_atom_site_label
_atom_site_fract_x
_atom_site_fract_y
_atom_site_fract_z
Si Si1 0.852644 0.013179 0.209879
Si Si2 0.322849 0.399224 0.092467
Si Si3 0.839352 0.758790 0.871818
Si Si4 0.117119 0.277308 0.637436
Si Si5 0.171341 0.802433 0.121302
Si Si6 0.047980 0.729511 0.748607
Si Si7 0.231844 0.206575 0.466199
Si Si8 0.466130 0.229911 0.813286
O O1 0.579358 0.197424 0.115682
O O2 0.887028 0.151382 0.241269
O O3 0.900425 0.853753 0.300809
O O4 0.016658 0.874856 0.167955
O O5 0.283234 0.302779 0.160962
O O6 0.293852 0.574388 0.118423
O O7 0.104586 0.543764 0.973840
O O8 0.868522 0.824019 0.784453
O O9 0.679459 0.961397 0.898822
O O10 0.194023 0.188047 0.559782
O O11 0.310501 0.243717 0.718947
O O12 0.875918 0.551082 0.574167
O O13 0.377928 0.757067 0.194446
O O14 0.000000 0.000000 0.000000
O O15 0.278861 0.452810 0.822041
O O16 0.925905 0.774311 0.630895
O O17 0.500000 0.000000 0.500000
#
# Coordination Sequence:
#
# PCOD9042552 Si02
#       8
#     2   2   2   2   2   2   2   2
#     4  12  25  40  65  97 134 163 217 267 305 375
#     4  11  25  39  62  95 131 173 214 264 301 375
#     4  11  23  41  62  93 131 172 219 251 313 372
#     4  10  24  44  66  96 123 162 211 269 320 379
#     4  12  25  40  61  93 134 178 214 255 315 365
#     4  11  24  40  68  94 123 174 206 263 325 372
#     4  10  23  44  72  89 123 164 208 262 334 388
#     4  11  21  41  63  88 132 167 212 260 308 382
#
# _framework density 19.854785
#
# number of rings (size 3 to 8) (size 9 to 14) (size 15 to 20)
#    0.000    1.000    5.000    0.750    5.250    1.500 
#    0.000    3.750    0.000    0.000    0.000    0.000 
#    0.000    0.000    0.000    0.000    0.000    0.000 
#
# Total GULP energy -89254.850489 kJ/mol
# GULP energy per Si atom -5578.428156 kJ/mol
# Density = 1.980959 g / cm^3
# Si number density = 19.854785 Si / 1000 Ang^3
#
#
#
# Elastic Constant Matrix: (Units=GPa)
#
#
# Indices 1 2 3 4 5 6 
#
# 1 112.2415 20.2701 31.1855 2.4405 -8.7659 3.2885
# 2 20.2701 49.4319 8.0843 -12.2102 -16.9589 -18.7867
# 3 31.1855 8.0843 48.9070 1.3022 -14.0903 -5.1046
# 4 2.4405 -12.2102 1.3022 29.3772 -2.9985 4.4276
# 5 -8.7659 -16.9589 -14.0903 -2.9985 25.6773 -6.1602
# 6 3.2885 -18.7867 -5.1046 4.4276 -6.1602 41.6390
#
#
#
# Elastic Compliance Matrix: (Units=1/GPa)
#
#
# Indices 1 2 3 4 5 6 
#
# 1 0.014066 -0.014362 -0.011643 -0.006511 -0.014339 -0.010447
# 2 -0.014362 0.066576 0.019621 0.028392 0.062708 0.039836
# 3 -0.011643 0.019621 0.036186 0.008239 0.034216 0.018394
# 4 -0.006511 0.028392 0.008239 0.046989 0.029836 0.013751
# 5 -0.014339 0.062708 0.034216 0.029836 0.108896 0.046557
# 6 -0.010447 0.039836 0.018394 0.013751 0.046557 0.050495
#
#
# Mechanical properties :
#
#
# Convention : Reuss Voigt Hill
#
# Bulk Modulus (GPa) = 9.60984 36.62892 23.11938
# Shear Modulus (GPa) = 13.48935 29.40806 21.44870
#
# Velocity S-wave (km/s) = 2.60936 3.85276 3.29033
# Velocity P-wave (km/s) = 3.73215 6.18709 5.10926
#
# Compressibility (1/GPa) = 0.10405997
#
# Stress axis : x y z
#
# Youngs Moduli (GPa) = 71.09458 15.02035 27.63477
#
# Poissons Ratio (x) = 0.21572 0.32176
# Poissons Ratio (y) = 1.02105 -0.54222
# Poissons Ratio (z) = 0.82778 -0.29471
#
# Static dielectric constant tensor:
#      x y z
#    x 1.688420 0.005560 0.005990 
#    y 0.005560 1.728630 -0.030580 
#    z 0.005990 -0.030580 1.724560 
# 
# From -- ./inp_files/207514.got.cif
#   From: 2010.05.17/outbox.cif.g08.bks.cpg/sg2_104_cif.got.tgz:207514.got - 2010.06.03 11:33:40.
