data_PCOD9042995
_publ_section_title
;
Structure prediction by ZEFSAII (Michael W. Deem and Ramdas Pophale) SiO2 
 PCOD9042995
Probable space group: P -1
;
_chemical_formula_sum "Si O2"
_cell_formula_units_Z 16
_cell_length_a 7.745706
_cell_length_b 11.587009
_cell_length_c 14.824181
_cell_angle_alpha 132.438075
_cell_angle_beta 69.702558
_cell_angle_gamma 74.778964
_cell_volume 641.494624
_symmetry_space_group_name_H-M "P -1"
_symmetry_group_IT_number 2
_symmetry_cell_setting 'triclinic'
loop_
_space_group_symop_operation_xyz
x,y,z
-x,-y,-z
loop_
_atom_site_type_symbol
_atom_site_label
_atom_site_fract_x
_atom_site_fract_y
_atom_site_fract_z
Si Si1 0.272520 0.469208 0.192339
Si Si2 0.246588 0.640686 0.893516
Si Si3 0.218102 0.322480 0.791817
Si Si4 0.827450 0.965076 0.550629
Si Si5 0.860327 0.669363 0.698733
Si Si6 0.745358 0.999054 0.287871
Si Si7 0.570179 0.044090 0.808456
Si Si8 0.362899 0.510769 0.617711
O O1 0.482385 0.481083 0.169566
O O2 0.280446 0.366917 0.229406
O O3 0.978741 0.713961 0.363985
O O4 0.363883 0.304987 0.007434
O O5 0.187089 0.490279 0.819414
O O6 0.285569 0.668516 0.798050
O O7 0.013218 0.861366 0.110113
O O8 0.201573 0.142411 0.708878
O O9 0.525382 0.156841 0.676363
O O10 0.000000 0.500000 0.000000
O O11 0.806120 0.971098 0.666853
O O12 0.000000 0.000000 0.500000
O O13 0.000000 0.500000 0.500000
O O14 0.091190 0.602725 0.681149
O O15 0.671913 0.909853 0.812412
O O16 0.563069 0.009803 0.256470
O O17 0.579143 0.252449 0.475555
O O18 0.500000 0.500000 0.500000
#
# Coordination Sequence:
#
# PCOD9042995 Si02
#       8
#     2   2   2   2   2   2   2   2
#     4  12  25  42  71 103 138 183 230 285 352 405
#     4  11  25  43  66 100 139 173 226 281 341 412
#     4   9  20  44  70  97 136 179 224 277 345 409
#     4  11  22  42  69 103 137 177 234 284 337 409
#     4  12  22  46  71  96 136 180 234 287 347 412
#     4  10  23  45  67  96 134 177 225 279 345 406
#     4  11  25  44  71  98 139 179 231 290 345 413
#     4  12  27  43  68  98 133 180 229 282 342 410
#
# _framework density 24.941755000000001
#
# number of rings (size 3 to 8) (size 9 to 14) (size 15 to 20)
#    0.000    1.000    3.750    2.625    1.750    1.500 
#    0.000    2.500    0.000    0.000    0.000    0.000 
#    0.000    0.000    0.000    0.000    0.000    0.000 
#
# Total GULP energy -89515.163341 kJ/mol
# GULP energy per Si atom -5594.697709 kJ/mol
# Density = 2.488499 g / cm^3
# Si number density = 24.941755 Si / 1000 Ang^3
#
#
#
# Elastic Constant Matrix: (Units=GPa)
#
#
# Indices 1 2 3 4 5 6 
#
# 1 71.6957 1.2876 30.1808 -13.2247 -20.9434 -1.6533
# 2 1.2876 101.9599 44.6819 -16.1592 -11.2249 8.7309
# 3 30.1808 44.6819 147.3006 -4.8794 -19.7017 5.3487
# 4 -13.2247 -16.1592 -4.8794 41.2734 3.8094 -7.5687
# 5 -20.9434 -11.2249 -19.7017 3.8094 34.0789 -3.5602
# 6 -1.6533 8.7309 5.3487 -7.5687 -3.5602 42.5213
#
#
#
# Elastic Compliance Matrix: (Units=1/GPa)
#
#
# Indices 1 2 3 4 5 6 
#
# 1 0.019802 0.003305 -0.003493 0.006714 0.010762 0.002627
# 2 0.003305 0.012718 -0.003893 0.005125 0.003313 -0.000804
# 3 -0.003493 -0.003893 0.008895 -0.001880 0.001857 -0.000634
# 4 0.006714 0.005125 -0.001880 0.028850 0.001999 0.004748
# 5 0.010762 0.003313 0.001857 0.001999 0.038219 0.003060
# 6 0.002627 -0.000804 -0.000634 0.004748 0.003060 0.024966
#
#
# Mechanical properties :
#
#
# Convention : Reuss Voigt Hill
#
# Bulk Modulus (GPa) = 30.07386 52.58408 41.32897
# Shear Modulus (GPa) = 32.74487 39.89513 36.32000
#
# Velocity S-wave (km/s) = 3.62726 4.00375 3.82015
# Velocity P-wave (km/s) = 5.44303 6.51935 6.00535
#
# Compressibility (1/GPa) = 0.03325147
#
# Stress axis : x y z
#
# Youngs Moduli (GPa) = 50.50032 78.63039 112.42806
#
# Poissons Ratio (x) = -0.25985 0.39273
# Poissons Ratio (y) = -0.16689 0.43767
# Poissons Ratio (z) = 0.17641 0.30610
#
# Static dielectric constant tensor:
#      x y z
#    x 2.042140 0.002060 0.023010 
#    y 0.002060 2.055650 0.017570 
#    z 0.023010 0.017570 1.945180 
# 
# From -- ./inp_files/500813.got.cif
#   From: 2010.05.17/outbox.cif.g08.bks.cpg/sg2_251_cif.got.tgz:500813.got - 2010.06.03 11:33:40.
