data_PCOD9042938
_publ_section_title
;
Structure prediction by ZEFSAII (Michael W. Deem and Ramdas Pophale) SiO2 
 PCOD9042938
Probable space group: P -1
;
_chemical_formula_sum "Si O2"
_cell_formula_units_Z 14
_cell_length_a 5.492521
_cell_length_b 15.302414
_cell_length_c 9.340432
_cell_angle_alpha 46.387144
_cell_angle_beta 92.597879
_cell_angle_gamma 113.849427
_cell_volume 486.443102
_symmetry_space_group_name_H-M "P -1"
_symmetry_group_IT_number 2
_symmetry_cell_setting 'triclinic'
loop_
_space_group_symop_operation_xyz
x,y,z
-x,-y,-z
loop_
_atom_site_type_symbol
_atom_site_label
_atom_site_fract_x
_atom_site_fract_y
_atom_site_fract_z
Si Si1 0.233353 0.937052 0.457018
Si Si2 0.178688 0.439716 0.799600
Si Si3 0.200237 0.782059 0.149161
Si Si4 0.752605 0.677184 0.511717
Si Si5 0.752308 0.940071 0.177581
Si Si6 0.151103 0.660430 0.739700
Si Si7 0.317717 0.215465 0.174782
O O1 0.265113 0.821473 0.497568
O O2 0.951034 0.853949 0.643039
O O3 0.500000 0.000000 0.500000
O O4 0.266344 0.080239 0.233820
O O5 0.433074 0.567663 0.577199
O O6 0.165316 0.526742 0.835079
O O7 0.882024 0.344997 0.817896
O O8 0.277334 0.330619 0.963394
O O9 0.478181 0.848848 0.175299
O O10 0.948338 0.712247 0.338937
O O11 0.228398 0.920341 0.917040
O O12 0.775601 0.822344 0.399153
O O13 0.834006 0.613196 0.721584
O O14 0.000000 0.000000 0.000000
O O15 0.374615 0.713566 0.818388
#
# Coordination Sequence:
#
# PCOD9042938 Si02
#       7
#     2   2   2   2   2   2   2
#     4   9  21  44  66  94 132 181 233 283 341 409
#     4  12  26  41  69 106 141 180 231 288 347 416
#     4  10  23  45  69 101 139 182 235 284 347 412
#     4  11  24  42  68  99 141 187 226 287 347 409
#     4   9  21  45  67  95 132 181 234 287 336 409
#     4  11  24  41  67  99 139 180 225 284 347 409
#     4  10  23  45  67 100 139 182 232 284 343 417
#
# _framework density 28.780343999999999
#
# number of rings (size 3 to 8) (size 9 to 14) (size 15 to 20)
#    0.000    1.714    0.000    2.571    2.000    8.000 
#   20.571    0.000    0.000    0.000    0.000    0.000 
#    0.000    0.000    0.000    0.000    0.000    0.000 
#
# Total GULP energy -78249.297269 kJ/mol
# GULP energy per Si atom -5589.235519 kJ/mol
# Density = 2.871484 g / cm^3
# Si number density = 28.780344 Si / 1000 Ang^3
#
#
#
# Elastic Constant Matrix: (Units=GPa)
#
#
# Indices 1 2 3 4 5 6 
#
# 1 65.4117 0.4125 21.9281 6.5430 1.5956 9.6355
# 2 0.4125 144.6403 23.3355 -33.6112 -16.6058 0.4147
# 3 21.9281 23.3355 119.0625 -29.0635 9.6754 6.9079
# 4 6.5430 -33.6112 -29.0635 62.8902 3.9543 5.5320
# 5 1.5956 -16.6058 9.6754 3.9543 68.6745 -11.9956
# 6 9.6355 0.4147 6.9079 5.5320 -11.9956 48.8008
#
#
#
# Elastic Compliance Matrix: (Units=1/GPa)
#
#
# Indices 1 2 3 4 5 6 
#
# 1 0.017293 -0.000250 -0.003823 -0.003468 -0.000164 -0.002518
# 2 -0.000250 0.008161 -0.000758 0.003910 0.001879 0.000106
# 3 -0.003823 -0.000758 0.010846 0.005318 -0.002267 -0.001934
# 4 -0.003468 0.003910 0.005318 0.021150 -0.001439 -0.002853
# 5 -0.000164 0.001879 -0.002267 -0.001439 0.016205 0.004484
# 6 -0.002518 0.000106 -0.001934 -0.002853 0.004484 0.022687
#
#
# Mechanical properties :
#
#
# Convention : Reuss Voigt Hill
#
# Bulk Modulus (GPa) = 37.54044 46.71853 42.12948
# Shear Modulus (GPa) = 43.52294 54.96900 49.24597
#
# Velocity S-wave (km/s) = 3.89298 4.37504 4.14103
# Velocity P-wave (km/s) = 5.76881 6.46446 6.12652
#
# Compressibility (1/GPa) = 0.02663794
#
# Stress axis : x y z
#
# Youngs Moduli (GPa) = 57.82782 122.53910 92.20001
#
# Poissons Ratio (x) = 0.03062 0.35247
# Poissons Ratio (y) = 0.01445 0.06988
# Poissons Ratio (z) = 0.22107 0.09287
#
# Static dielectric constant tensor:
#      x y z
#    x 2.423220 0.029290 -0.048930 
#    y 0.029290 2.329000 0.066860 
#    z -0.048930 0.066860 2.314460 
# 
# From -- ./inp_files/368578.got.cif
#   From: 2010.05.17/outbox.cif.g08.bks.cpg/sg2_185_cif.got.tgz:368578.got - 2010.06.03 11:33:40.
