data_PCOD9042403
_publ_section_title
;
Structure prediction by ZEFSAII (Michael W. Deem and Ramdas Pophale) SiO2 
 PCOD9042403
Probable space group: P -1
;
_chemical_formula_sum "Si O2"
_cell_formula_units_Z 16
_cell_length_a 5.563885
_cell_length_b 18.778724
_cell_length_c 7.791610
_cell_angle_alpha 95.775071
_cell_angle_beta 62.858167
_cell_angle_gamma 111.698407
_cell_volume 670.825901
_symmetry_space_group_name_H-M "P -1"
_symmetry_group_IT_number 2
_symmetry_cell_setting 'triclinic'
loop_
_space_group_symop_operation_xyz
x,y,z
-x,-y,-z
loop_
_atom_site_type_symbol
_atom_site_label
_atom_site_fract_x
_atom_site_fract_y
_atom_site_fract_z
Si Si1 0.592792 0.799254 0.823109
Si Si2 0.527582 0.649622 0.581368
Si Si3 0.308026 0.507361 0.826493
Si Si4 0.420662 0.850022 0.391163
Si Si5 0.789777 0.318879 0.646316
Si Si6 0.971507 0.914778 0.439462
Si Si7 0.627765 0.620414 0.030170
Si Si8 0.063205 0.787730 0.852417
O O1 0.528610 0.712680 0.744653
O O2 0.783804 0.855903 0.630088
O O3 0.799138 0.815623 0.922528
O O4 0.295499 0.813527 0.932733
O O5 0.353342 0.559492 0.656518
O O6 0.368673 0.670517 0.475677
O O7 0.865094 0.658433 0.463067
O O8 0.324849 0.424226 0.828357
O O9 0.565138 0.562910 0.877411
O O10 0.000000 0.500000 0.000000
O O11 0.335561 0.771147 0.298133
O O12 0.759827 0.888750 0.337150
O O13 0.280068 0.904507 0.354626
O O14 0.244718 0.816925 0.622923
O O15 0.660185 0.360942 0.837327
O O16 0.000000 0.000000 0.500000
O O17 0.898177 0.696549 0.915561
#
# Coordination Sequence:
#
# PCOD9042403 Si02
#       8
#     2   2   2   2   2   2   2   2
#     4  10  17  33  59  81 109 151 192 223 289 334
#     4  12  22  42  63  79 124 154 193 243 300 348
#     4  11  26  43  61  83 117 157 199 254 292 344
#     4  10  18  35  56  84 116 153 189 230 292 338
#     4  12  24  39  62  89 116 157 197 241 297 349
#     4  10  18  30  54  90 118 143 185 240 283 336
#     4  11  26  39  59  90 115 149 208 246 294 343
#     4  10  18  35  58  80 108 152 193 237 270 340
#
# _framework density 23.851196000000002
#
# number of rings (size 3 to 8) (size 9 to 14) (size 15 to 20)
#    0.000    1.250    6.250    1.125    5.250    1.000 
#    0.000    0.000    0.000    0.000    0.000   21.000 
#    0.000    0.000    0.000    0.000    0.000    0.000 
#
# Total GULP energy -89307.187619 kJ/mol
# GULP energy per Si atom -5581.699226 kJ/mol
# Density = 2.379691 g / cm^3
# Si number density = 23.851196 Si / 1000 Ang^3
#
#
#
# Elastic Constant Matrix: (Units=GPa)
#
#
# Indices 1 2 3 4 5 6 
#
# 1 223.5446 32.2103 28.1764 5.4903 -13.6844 -11.9348
# 2 32.2103 6.2276 -33.2901 22.1731 9.2444 -12.3977
# 3 28.1764 -33.2901 43.5516 9.6037 -3.7685 2.1564
# 4 5.4903 22.1731 9.6037 6.4206 1.9361 -7.4946
# 5 -13.6844 9.2444 -3.7685 1.9361 30.4754 -3.0430
# 6 -11.9348 -12.3977 2.1564 -7.4946 -3.0430 39.9144
#
#
#
# Elastic Compliance Matrix: (Units=1/GPa)
#
#
# Indices 1 2 3 4 5 6 
#
# 1 0.004682 0.001197 -0.000157 -0.008078 0.002277 0.000437
# 2 0.001197 -0.002936 -0.010541 0.032251 -0.001328 0.005970
# 3 -0.000157 -0.010541 0.011215 0.018536 0.003317 -0.000194
# 4 -0.008078 0.032251 0.018536 0.043435 -0.012500 0.013803
# 5 0.002277 -0.001328 0.003317 -0.012500 0.035487 0.000448
# 6 0.000437 0.005970 -0.000194 0.013803 0.000448 0.029675
#
#
# Mechanical properties :
#
#
# Convention : Reuss Voigt Hill
#
# Bulk Modulus (GPa) = -165.51474 36.39078 -64.56198
# Shear Modulus (GPa) = 36.08893 31.77726 33.93309
#
# Velocity S-wave (km/s) = 3.89406 3.65405 3.77596
# Velocity P-wave (km/s) = 7.02332 5.75268 2.84902
#
# Compressibility (1/GPa) = -0.00604176
#
# Stress axis : x y z
#
# Youngs Moduli (GPa) = 213.59176 -340.59644 89.16670
#
# Poissons Ratio (x) = 0.40769 0.01403
# Poissons Ratio (y) = -0.25567 0.93990
# Poissons Ratio (z) = 0.03360 -3.59021
#
# Static dielectric constant tensor:
#      x y z
#    x 1.982900 -0.039230 0.022670 
#    y -0.039230 1.911470 0.054150 
#    z 0.022670 0.054150 2.025730 
# 
# From -- ./inp_files/137946.got.cif
#   From: 2010.05.17/outbox.cif.g08.bks.cpg/sg2_69_cif.got.tgz:137946.got - 2010.06.03 11:33:40.
