data_PCOD9042466
_publ_section_title
;
Structure prediction by ZEFSAII (Michael W. Deem and Ramdas Pophale) SiO2 
 PCOD9042466
Probable space group: P -1
;
_chemical_formula_sum "Si O2"
_cell_formula_units_Z 16
_cell_length_a 8.924914
_cell_length_b 6.585326
_cell_length_c 14.364377
_cell_angle_alpha 71.455687
_cell_angle_beta 71.655566
_cell_angle_gamma 105.271684
_cell_volume 694.998366
_symmetry_space_group_name_H-M "P -1"
_symmetry_group_IT_number 2
_symmetry_cell_setting 'triclinic'
loop_
_space_group_symop_operation_xyz
x,y,z
-x,-y,-z
loop_
_atom_site_type_symbol
_atom_site_label
_atom_site_fract_x
_atom_site_fract_y
_atom_site_fract_z
Si Si1 0.035669 0.350198 0.285318
Si Si2 0.319248 0.429283 0.927197
Si Si3 0.799968 0.254274 0.189121
Si Si4 0.829001 0.047950 0.521590
Si Si5 0.342212 0.268075 0.739693
Si Si6 0.463927 0.766747 0.602016
Si Si7 0.290241 0.757883 0.304867
Si Si8 0.300400 0.212787 0.153562
O O1 0.153580 0.547656 0.303225
O O2 0.147829 0.210204 0.250253
O O3 0.963089 0.414755 0.195683
O O4 0.864145 0.196669 0.398138
O O5 0.225976 0.610394 0.915091
O O6 0.296915 0.315996 0.846377
O O7 0.523840 0.571305 0.883089
O O8 0.256616 0.251900 0.050906
O O9 0.627609 0.209486 0.289186
O O10 0.792063 0.993408 0.220125
O O11 0.793843 0.192205 0.591696
O O12 0.660591 0.808780 0.580850
O O13 0.000000 0.000000 0.500000
O O14 0.360028 0.490608 0.638470
O O15 0.533062 0.268548 0.704350
O O16 0.500000 0.000000 0.500000
O O17 0.333135 0.983237 0.198081
#
# Coordination Sequence:
#
# PCOD9042466 Si02
#       8
#     2   2   2   2   2   2   2   2
#     4  12  26  42  64 102 137 176 220 281 341 394
#     4  10  23  44  71  98 133 175 225 286 333 395
#     4  11  24  45  65  99 142 173 221 279 339 397
#     4  12  23  44  68  96 138 175 221 279 332 393
#     4  11  22  42  73  96 130 182 227 272 328 404
#     4  11  23  43  64  98 135 174 225 269 331 403
#     4  12  23  43  70 101 132 176 231 274 329 406
#     4  11  23  43  71 101 132 173 230 283 333 393
#
# _framework density 23.021636000000001
#
# number of rings (size 3 to 8) (size 9 to 14) (size 15 to 20)
#    0.000    0.750    6.250    1.875    0.000    4.500 
#    0.000    1.250    0.000    0.000    0.000    0.000 
#    0.000    0.000    0.000    0.000    0.000    0.000 
#
# Total GULP energy -89373.549865 kJ/mol
# GULP energy per Si atom -5585.846867 kJ/mol
# Density = 2.296924 g / cm^3
# Si number density = 23.021636 Si / 1000 Ang^3
#
#
#
# Elastic Constant Matrix: (Units=GPa)
#
#
# Indices 1 2 3 4 5 6 
#
# 1 60.9656 8.7014 8.1451 -0.7470 8.5062 -5.5054
# 2 8.7014 82.5879 26.0001 -0.5322 3.5028 -14.5408
# 3 8.1451 26.0001 94.4535 -5.0777 16.9586 -17.7428
# 4 -0.7470 -0.5322 -5.0777 22.0809 -8.9673 12.7332
# 5 8.5062 3.5028 16.9586 -8.9673 34.7678 -9.1749
# 6 -5.5054 -14.5408 -17.7428 12.7332 -9.1749 34.8491
#
#
#
# Elastic Compliance Matrix: (Units=1/GPa)
#
#
# Indices 1 2 3 4 5 6 
#
# 1 0.017322 -0.001286 -0.000176 -0.002214 -0.004109 0.001837
# 2 -0.001286 0.014132 -0.003094 -0.003198 0.001043 0.005561
# 3 -0.000176 -0.003094 0.013191 -0.001921 -0.005336 0.004694
# 4 -0.002214 -0.003198 -0.001921 0.062442 0.012018 -0.022313
# 5 -0.004109 0.001043 -0.005336 0.012018 0.035929 0.002137
# 6 0.001837 0.005561 0.004694 -0.022313 0.002137 0.042412
#
#
# Mechanical properties :
#
#
# Convention : Reuss Voigt Hill
#
# Bulk Modulus (GPa) = 28.14274 35.96666 32.05470
# Shear Modulus (GPa) = 24.22684 31.35025 27.78855
#
# Velocity S-wave (km/s) = 3.24752 3.69422 3.47805
# Velocity P-wave (km/s) = 5.12960 5.81836 5.48480
#
# Compressibility (1/GPa) = 0.03553314
#
# Stress axis : x y z
#
# Youngs Moduli (GPa) = 57.73064 70.76104 75.81188
#
# Poissons Ratio (x) = 0.09101 0.01333
# Poissons Ratio (y) = 0.07425 0.23453
# Poissons Ratio (z) = 0.01015 0.21891
#
# Static dielectric constant tensor:
#      x y z
#    x 1.947810 -0.040200 0.069020 
#    y -0.040200 1.894270 -0.041470 
#    z 0.069020 -0.041470 1.886310 
# 
# From -- ./inp_files/484350.got.cif
#   From: 2010.05.17/outbox.cif.g08.bks.cpg/sg2_243_cif.got.tgz:484350.got - 2010.06.03 11:33:40.
