data_PCOD9042917
_publ_section_title
;
Structure prediction by ZEFSAII (Michael W. Deem and Ramdas Pophale) SiO2 
 PCOD9042917
Probable space group: P -1
;
_chemical_formula_sum "Si O2"
_cell_formula_units_Z 16
_cell_length_a 19.591036
_cell_length_b 9.348968
_cell_length_c 11.862313
_cell_angle_alpha 72.142756
_cell_angle_beta 136.079431
_cell_angle_gamma 142.256911
_cell_volume 724.346575
_symmetry_space_group_name_H-M "P -1"
_symmetry_group_IT_number 2
_symmetry_cell_setting 'triclinic'
loop_
_space_group_symop_operation_xyz
x,y,z
-x,-y,-z
loop_
_atom_site_type_symbol
_atom_site_label
_atom_site_fract_x
_atom_site_fract_y
_atom_site_fract_z
Si Si1 0.023722 0.328818 0.257357
Si Si2 0.055425 0.872099 0.359194
Si Si3 0.883409 0.229104 0.347760
Si Si4 0.691284 0.797592 0.841371
Si Si5 0.295531 0.468947 0.428854
Si Si6 0.660771 0.218444 0.042642
Si Si7 0.576807 0.323950 0.717496
Si Si8 0.863425 0.203623 0.748949
O O1 0.013862 0.332423 0.379343
O O2 0.220179 0.509493 0.402358
O O3 0.016593 0.488194 0.159954
O O4 0.828652 0.985988 0.067975
O O5 0.185152 0.983721 0.591089
O O6 0.061157 0.774042 0.280000
O O7 0.834234 0.557611 0.211076
O O8 0.131992 0.129566 0.344080
O O9 0.727193 0.133006 0.128278
O O10 0.000000 0.500000 0.500000
O O11 0.502847 0.660301 0.655543
O O12 0.621947 0.540642 0.783314
O O13 0.833604 0.047731 0.851513
O O14 0.300555 0.517300 0.290748
O O15 0.603185 0.219807 0.857084
O O16 0.500000 0.000000 0.000000
O O17 0.354518 0.034280 0.484455
#
# Coordination Sequence:
#
# PCOD9042917 Si02
#       8
#     2   2   2   2   2   2   2   2
#     4  12  26  41  69 110 146 180 237 303 350 416
#     4  11  21  45  75  92 138 193 239 279 354 428
#     4  10  23  45  66  94 137 190 233 283 353 418
#     4  11  24  44  69 110 149 181 232 294 362 413
#     4  11  25  45  74 107 145 189 231 290 367 421
#     4  11  24  37  69 111 127 177 252 294 326 419
#     4  11  23  43  75 104 144 189 238 282 353 440
#     4  11  21  43  73  98 143 192 225 288 356 422
#
# _framework density 22.088873
#
# number of rings (size 3 to 8) (size 9 to 14) (size 15 to 20)
#    0.000    1.000    5.000    2.625    3.500    5.500 
#    0.000    0.625    0.000    0.000    0.000    0.000 
#    0.000    0.000    0.000    0.000    0.000    0.000 
#
# Total GULP energy -89369.943311 kJ/mol
# GULP energy per Si atom -5585.621457 kJ/mol
# Density = 2.203860 g / cm^3
# Si number density = 22.088873 Si / 1000 Ang^3
#
#
#
# Elastic Constant Matrix: (Units=GPa)
#
#
# Indices 1 2 3 4 5 6 
#
# 1 150.5697 45.2375 28.8928 -7.7772 1.1881 13.7994
# 2 45.2375 111.6179 14.7734 -5.4354 0.8885 27.6700
# 3 28.8928 14.7734 59.5475 -3.7503 -4.7138 12.4931
# 4 -7.7772 -5.4354 -3.7503 37.8996 4.7112 -4.8590
# 5 1.1881 0.8885 -4.7138 4.7112 28.2807 1.2801
# 6 13.7994 27.6700 12.4931 -4.8590 1.2801 32.0726
#
#
#
# Elastic Compliance Matrix: (Units=1/GPa)
#
#
# Indices 1 2 3 4 5 6 
#
# 1 0.008188 -0.002944 -0.003366 0.001121 -0.001024 0.000539
# 2 -0.002944 0.012498 0.000374 -0.000045 0.000239 -0.009678
# 3 -0.003366 0.000374 0.020069 0.000001 0.003784 -0.006843
# 4 0.001121 -0.000045 0.000001 0.027717 -0.004842 0.003948
# 5 -0.001024 0.000239 0.003784 -0.004842 0.036989 -0.003450
# 6 0.000539 -0.009678 -0.006843 0.003948 -0.003450 0.042698
#
#
# Mechanical properties :
#
#
# Convention : Reuss Voigt Hill
#
# Bulk Modulus (GPa) = 34.62177 55.50471 45.06324
# Shear Modulus (GPa) = 29.47089 35.17266 32.32178
#
# Velocity S-wave (km/s) = 3.65663 3.99472 3.82941
# Velocity P-wave (km/s) = 5.79101 6.81612 6.32437
#
# Compressibility (1/GPa) = 0.02888356
#
# Stress axis : x y z
#
# Youngs Moduli (GPa) = 122.12258 80.01441 49.82808
#
# Poissons Ratio (x) = 0.23556 0.16773
# Poissons Ratio (y) = 0.35952 -0.01865
# Poissons Ratio (z) = 0.41108 -0.02995
#
# Static dielectric constant tensor:
#      x y z
#    x 1.859160 -0.024290 0.035500 
#    y -0.024290 1.850460 -0.050390 
#    z 0.035500 -0.050390 1.923180 
# 
# From -- ./inp_files/462146.got.cif
#   From: 2010.05.17/outbox.cif.g08.bks.cpg/sg2_232_cif.got.tgz:462146.got - 2010.06.03 11:33:40.
