data_PCOD9042914
_publ_section_title
;
Structure prediction by ZEFSAII (Michael W. Deem and Ramdas Pophale) SiO2 
 PCOD9042914
Probable space group: P -1
;
_chemical_formula_sum "Si O2"
_cell_formula_units_Z 12
_cell_length_a 11.418966
_cell_length_b 17.657116
_cell_length_c 8.908232
_cell_angle_alpha 125.989751
_cell_angle_beta 125.193474
_cell_angle_gamma 19.118759
_cell_volume 474.479101
_symmetry_space_group_name_H-M "P -1"
_symmetry_group_IT_number 2
_symmetry_cell_setting 'triclinic'
loop_
_space_group_symop_operation_xyz
x,y,z
-x,-y,-z
loop_
_atom_site_type_symbol
_atom_site_label
_atom_site_fract_x
_atom_site_fract_y
_atom_site_fract_z
Si Si1 0.216233 0.776971 0.426000
Si Si2 0.280153 0.435294 0.229774
Si Si3 0.222117 0.961097 0.094064
Si Si4 0.859653 0.371691 0.200467
Si Si5 0.884190 0.788405 0.110227
Si Si6 0.691455 0.787128 0.444179
O O1 0.442403 0.653656 0.602895
O O2 0.500628 0.599553 0.294182
O O3 0.947383 0.851529 0.303597
O O4 0.000000 0.000000 0.500000
O O5 0.992365 0.651876 0.158091
O O6 0.042914 0.548778 0.328768
O O7 0.500433 0.228630 0.056415
O O8 0.410240 0.876779 0.292617
O O9 0.011345 0.179312 0.137707
O O10 0.000000 0.000000 0.000000
O O11 0.142332 0.283309 0.356382
O O12 0.832268 0.391387 0.025488
O O13 0.500000 0.000000 0.000000
O O14 0.500000 0.000000 0.500000
#
# Coordination Sequence:
#
# PCOD9042914 Si02
#       6
#     2   2   2   2   2   2
#     4  11  25  46  69  96 133 180 226 275 332 397
#     4  11  24  42  69 100 134 178 224 273 332 400
#     4  11  22  39  68 101 130 172 227 280 332 393
#     4  10  23  45  66  93 134 177 219 277 335 395
#     4  12  25  43  68 102 137 174 221 277 335 398
#     4   9  20  41  65  92 130 175 219 268 327 391
#
# _framework density 25.290891999999999
#
# number of rings (size 3 to 8) (size 9 to 14) (size 15 to 20)
#    0.000    1.333    0.000    5.500    0.000    8.000 
#    0.000    1.667    0.000    0.000    0.000    0.000 
#    0.000    0.000    0.000    0.000    0.000    0.000 
#
# Total GULP energy -67248.597251 kJ/mol
# GULP energy per Si atom -5604.049771 kJ/mol
# Density = 2.523333 g / cm^3
# Si number density = 25.290892 Si / 1000 Ang^3
#
#
#
# Elastic Constant Matrix: (Units=GPa)
#
#
# Indices 1 2 3 4 5 6 
#
# 1 67.5319 21.6352 51.1344 -3.0328 25.5899 -10.6526
# 2 21.6352 110.3591 47.6563 12.8378 15.4540 -16.4480
# 3 51.1344 47.6563 177.2422 -15.1598 29.5989 -15.7110
# 4 -3.0328 12.8378 -15.1598 71.7980 -13.3046 3.0763
# 5 25.5899 15.4540 29.5989 -13.3046 52.9585 -13.5993
# 6 -10.6526 -16.4480 -15.7110 3.0763 -13.5993 23.1876
#
#
#
# Elastic Compliance Matrix: (Units=1/GPa)
#
#
# Indices 1 2 3 4 5 6 
#
# 1 0.021736 -0.000673 -0.004783 -0.001443 -0.007461 0.002084
# 2 -0.000673 0.011678 -0.002518 -0.003072 -0.000863 0.006171
# 3 -0.004783 -0.002518 0.008054 0.001765 -0.000817 0.000760
# 4 -0.001443 -0.003072 0.001765 0.015623 0.004212 -0.001249
# 5 -0.007461 -0.000863 -0.000817 0.004212 0.026997 0.010682
# 6 0.002084 0.006171 0.000760 -0.001249 0.010682 0.055406
#
#
# Mechanical properties :
#
#
# Convention : Reuss Voigt Hill
#
# Bulk Modulus (GPa) = 39.18251 66.22057 52.70154
# Shear Modulus (GPa) = 30.49754 45.23597 37.86675
#
# Velocity S-wave (km/s) = 3.47633 4.23380 3.87363
# Velocity P-wave (km/s) = 5.62490 7.08100 6.39453
#
# Compressibility (1/GPa) = 0.02552159
#
# Stress axis : x y z
#
# Youngs Moduli (GPa) = 46.00711 85.62872 124.16961
#
# Poissons Ratio (x) = 0.05760 0.59387
# Poissons Ratio (y) = 0.03095 0.31262
# Poissons Ratio (z) = 0.22004 0.21559
#
# Static dielectric constant tensor:
#      x y z
#    x 2.016700 -0.056440 0.024570 
#    y -0.056440 1.995440 -0.026720 
#    z 0.024570 -0.026720 1.977010 
# 
# From -- ./inp_files/279961.got.cif
#   From: 2010.05.17/outbox.cif.g08.bks.cpg/sg2_140_cif.got.tgz:279961.got - 2010.06.03 11:33:40.
