data_PCOD9042379
_publ_section_title
;
Structure prediction by ZEFSAII (Michael W. Deem and Ramdas Pophale) SiO2 
 PCOD9042379
Probable space group: P -1
;
_chemical_formula_sum "Si O2"
_cell_formula_units_Z 16
_cell_length_a 8.840422
_cell_length_b 16.283212
_cell_length_c 5.473028
_cell_angle_alpha 97.547126
_cell_angle_beta 93.674329
_cell_angle_gamma 113.398886
_cell_volume 710.915950
_symmetry_space_group_name_H-M "P -1"
_symmetry_group_IT_number 2
_symmetry_cell_setting 'triclinic'
loop_
_space_group_symop_operation_xyz
x,y,z
-x,-y,-z
loop_
_atom_site_type_symbol
_atom_site_label
_atom_site_fract_x
_atom_site_fract_y
_atom_site_fract_z
Si Si1 0.361946 0.733507 0.291918
Si Si2 0.646584 0.555943 0.851226
Si Si3 0.862408 0.737106 0.235857
Si Si4 0.648852 0.829332 0.015107
Si Si5 0.774617 0.132742 0.532840
Si Si6 0.105755 0.535601 0.271914
Si Si7 0.384068 0.315882 0.439741
Si Si8 0.306429 0.973486 0.012160
O O1 0.457865 0.787558 0.079795
O O2 0.348662 0.815731 0.474372
O O3 0.190577 0.645198 0.283235
O O4 0.488421 0.687877 0.351083
O O5 0.752554 0.503424 0.741910
O O6 0.550840 0.592263 0.663949
O O7 0.500000 0.500000 0.000000
O O8 0.783352 0.650684 0.016711
O O9 0.777252 0.807051 0.191887
O O10 0.788945 0.694904 0.471730
O O11 0.055594 0.791980 0.309570
O O12 0.717105 0.934553 0.002465
O O13 0.642763 0.770564 0.757072
O O14 0.786293 0.095263 0.249218
O O15 0.725222 0.059741 0.721800
O O16 0.000000 0.500000 0.500000
O O17 0.000000 0.500000 0.000000
O O18 0.500000 0.000000 0.000000
#
# Coordination Sequence:
#
# PCOD9042379 Si02
#       8
#     2   2   2   2   2   2   2   2
#     4  11  25  45  71 100 140 190 238 294 365 425
#     4  11  25  47  76 105 147 195 253 295 362 446
#     4  10  25  44  68 108 141 189 234 297 368 423
#     4  10  23  44  71 101 141 182 243 295 353 434
#     4  12  28  44  75 104 145 188 234 302 364 422
#     4  12  30  47  72 110 150 189 241 306 365 434
#     4  10  23  44  74  97 142 184 241 290 358 431
#     4  12  26  46  73 105 141 187 247 291 357 439
#
# _framework density 22.506174999999999
#
# number of rings (size 3 to 8) (size 9 to 14) (size 15 to 20)
#    0.000    1.000    1.250    4.125   14.000    2.000 
#    0.000    0.000    0.000    0.000    0.000    0.000 
#    0.000    0.000    0.000    0.000    0.000    0.000 
#
# Total GULP energy -89197.793869 kJ/mol
# GULP energy per Si atom -5574.862117 kJ/mol
# Density = 2.245495 g / cm^3
# Si number density = 22.506175 Si / 1000 Ang^3
#
#
#
# Elastic Constant Matrix: (Units=GPa)
#
#
# Indices 1 2 3 4 5 6 
#
# 1 67.7013 25.3980 7.7664 -5.9274 -1.2329 -5.0906
# 2 25.3980 136.1587 25.6009 -3.6470 -3.7101 -23.7495
# 3 7.7664 25.6009 50.2471 -8.2911 -18.8191 -7.9962
# 4 -5.9274 -3.6470 -8.2911 42.3763 -2.6357 -6.2574
# 5 -1.2329 -3.7101 -18.8191 -2.6357 26.8241 4.5904
# 6 -5.0906 -23.7495 -7.9962 -6.2574 4.5904 39.2140
#
#
#
# Elastic Compliance Matrix: (Units=1/GPa)
#
#
# Indices 1 2 3 4 5 6 
#
# 1 0.016086 -0.002709 -0.000695 0.001971 -0.000036 0.000624
# 2 -0.002709 0.009500 -0.004770 0.000027 -0.002972 0.004782
# 3 -0.000695 -0.004770 0.032441 0.007562 0.022432 0.002217
# 4 0.001971 0.000027 0.007562 0.026569 0.007117 0.005221
# 5 -0.000036 -0.002972 0.022432 0.007117 0.053712 -0.002383
# 6 0.000624 0.004782 0.002217 0.005221 -0.002383 0.030042
#
#
# Mechanical properties :
#
#
# Convention : Reuss Voigt Hill
#
# Bulk Modulus (GPa) = 23.99236 41.29305 32.64270
# Shear Modulus (GPa) = 25.17744 34.70567 29.94156
#
# Velocity S-wave (km/s) = 3.34831 3.93116 3.65138
# Velocity P-wave (km/s) = 5.06278 6.24440 5.68438
#
# Compressibility (1/GPa) = 0.04167994
#
# Stress axis : x y z
#
# Youngs Moduli (GPa) = 62.16719 105.26039 30.82506
#
# Poissons Ratio (x) = 0.28516 0.02142
# Poissons Ratio (y) = 0.16842 0.14702
# Poissons Ratio (z) = 0.04320 0.50204
#
# Static dielectric constant tensor:
#      x y z
#    x 1.859180 -0.005300 0.049320 
#    y -0.005300 1.724890 0.091830 
#    z 0.049320 0.091830 1.821440 
# 
# From -- ./inp_files/39375.got.cif
#   From: 2010.05.17/outbox.cif.g08.bks.cpg/sg2_20_cif.got.tgz:39375.got - 2010.06.03 11:33:40.
