data_PCOD9042214
_publ_section_title
;
Structure prediction by ZEFSAII (Michael W. Deem and Ramdas Pophale) SiO2 
 PCOD9042214
Probable space group: P -1
;
_chemical_formula_sum "Si O2"
_cell_formula_units_Z 16
_cell_length_a 24.468596
_cell_length_b 9.637301
_cell_length_c 9.344272
_cell_angle_alpha 135.361942
_cell_angle_beta 150.678256
_cell_angle_gamma 54.298101
_cell_volume 753.830961
_symmetry_space_group_name_H-M "P -1"
_symmetry_group_IT_number 2
_symmetry_cell_setting 'triclinic'
loop_
_space_group_symop_operation_xyz
x,y,z
-x,-y,-z
loop_
_atom_site_type_symbol
_atom_site_label
_atom_site_fract_x
_atom_site_fract_y
_atom_site_fract_z
Si Si1 0.210725 0.985823 0.715509
Si Si2 0.596109 0.135131 0.733763
Si Si3 0.499933 0.465721 0.144109
Si Si4 0.239112 0.453594 0.167164
Si Si5 0.184248 0.840284 0.224409
Si Si6 0.962651 0.033328 0.253452
Si Si7 0.602078 0.954423 0.301763
Si Si8 0.938952 0.652403 0.073380
O O1 0.085959 0.963951 0.475371
O O2 0.203414 0.900376 0.476869
O O3 0.242996 0.224632 0.963040
O O4 0.293621 0.880246 0.929878
O O5 0.551938 0.346895 0.773476
O O6 0.500000 0.000000 0.500000
O O7 0.607028 0.055676 0.541997
O O8 0.631391 0.454810 0.465533
O O9 0.500000 0.500000 0.000000
O O10 0.423298 0.276006 0.886858
O O11 0.182954 0.601731 0.041772
O O12 0.165115 0.446108 0.139567
O O13 0.285840 0.960131 0.459353
O O14 0.076121 0.905656 0.945715
O O15 0.975559 0.226395 0.528040
O O16 0.894117 0.834981 0.015416
O O17 0.500000 0.000000 0.000000
O O18 0.000000 0.500000 0.000000
#
# Coordination Sequence:
#
# PCOD9042214 Si02
#       8
#     2   2   2   2   2   2   2   2
#     4  11  24  46  72 101 139 184 233 283 345 416
#     4  12  24  43  75  98 136 185 231 281 346 410
#     4  12  24  43  70 100 133 183 233 276 346 412
#     4  11  24  42  71  98 136 184 231 278 343 422
#     4  12  26  45  69 101 144 183 225 291 352 400
#     4  10  25  43  69 102 142 178 232 290 338 411
#     4  12  27  45  67 105 144 176 233 294 342 408
#     4  10  23  44  70 101 137 178 235 282 344 405
#
# _framework density 21.224919
#
# number of rings (size 3 to 8) (size 9 to 14) (size 15 to 20)
#    0.000    0.750    3.750    2.625    7.000    4.500 
#    0.000    0.000    0.000    0.000    0.000    0.000 
#    0.000    0.000    0.000    0.000    0.000    0.000 
#
# Total GULP energy -89391.062252 kJ/mol
# GULP energy per Si atom -5586.941391 kJ/mol
# Density = 2.117661 g / cm^3
# Si number density = 21.224919 Si / 1000 Ang^3
#
#
#
# Elastic Constant Matrix: (Units=GPa)
#
#
# Indices 1 2 3 4 5 6 
#
# 1 112.7981 45.8713 49.9497 8.7665 -10.5351 -3.1502
# 2 45.8713 125.2003 32.6980 7.6524 -0.9561 2.5485
# 3 49.9497 32.6980 63.1895 -12.6703 -6.0423 -4.2772
# 4 8.7665 7.6524 -12.6703 54.2514 6.9980 -1.8462
# 5 -10.5351 -0.9561 -6.0423 6.9980 45.8560 3.8672
# 6 -3.1502 2.5485 -4.2772 -1.8462 3.8672 37.6329
#
#
#
# Elastic Compliance Matrix: (Units=1/GPa)
#
#
# Indices 1 2 3 4 5 6 
#
# 1 0.015891 -0.002254 -0.012255 -0.005498 0.002868 -0.000475
# 2 -0.002254 0.009976 -0.003902 -0.001947 -0.000412 -0.001361
# 3 -0.012255 -0.003902 0.029610 0.009648 -0.000734 0.003152
# 4 -0.005498 -0.001947 0.009648 0.022395 -0.003639 0.002241
# 5 0.002868 -0.000412 -0.000734 -0.003639 0.023116 -0.002369
# 6 -0.000475 -0.001361 0.003152 0.002241 -0.002369 0.027337
#
#
# Mechanical properties :
#
#
# Convention : Reuss Voigt Hill
#
# Bulk Modulus (GPa) = 53.60954 62.02510 57.81732
# Shear Modulus (GPa) = 29.17738 39.05934 34.11836
#
# Velocity S-wave (km/s) = 3.71168 4.29448 4.01367
# Velocity P-wave (km/s) = 6.60920 7.34005 6.98419
#
# Compressibility (1/GPa) = 0.01865340
#
# Stress axis : x y z
#
# Youngs Moduli (GPa) = 62.92920 100.24313 33.77220
#
# Poissons Ratio (x) = 0.22593 0.41389
# Poissons Ratio (y) = 0.14183 0.13179
# Poissons Ratio (z) = 0.77122 0.39119
#
# Static dielectric constant tensor:
#      x y z
#    x 1.822730 0.003850 -0.010920 
#    y 0.003850 1.767850 -0.011210 
#    z -0.010920 -0.011210 1.819120 
# 
# From -- ./inp_files/352467.got.cif
#   From: 2010.05.17/outbox.cif.g08.bks.cpg/sg2_177_cif.got.tgz:352467.got - 2010.06.03 11:33:40.
