data_PCOD9042351
_publ_section_title
;
Structure prediction by ZEFSAII (Michael W. Deem and Ramdas Pophale) SiO2 
 PCOD9042351
Probable space group: P -1
;
_chemical_formula_sum "Si O2"
_cell_formula_units_Z 16
_cell_length_a 24.584017
_cell_length_b 15.485546
_cell_length_c 18.660088
_cell_angle_alpha 26.779704
_cell_angle_beta 18.198719
_cell_angle_gamma 19.621759
_cell_volume 744.890313
_symmetry_space_group_name_H-M "P -1"
_symmetry_group_IT_number 2
_symmetry_cell_setting 'triclinic'
loop_
_space_group_symop_operation_xyz
x,y,z
-x,-y,-z
loop_
_atom_site_type_symbol
_atom_site_label
_atom_site_fract_x
_atom_site_fract_y
_atom_site_fract_z
Si Si1 0.906759 0.553295 0.364311
Si Si2 0.500412 0.698037 0.396712
Si Si3 0.159655 0.299119 0.384147
Si Si4 0.607060 0.617086 0.489048
Si Si5 0.909625 0.665973 0.852463
Si Si6 0.493992 0.436213 0.136526
Si Si7 0.625150 0.217308 0.852691
Si Si8 0.824515 0.034226 0.136497
O O1 0.645684 0.660261 0.609387
O O2 0.008897 0.425403 0.407816
O O3 0.048939 0.355478 0.268075
O O4 0.925359 0.767686 0.173914
O O5 0.500000 0.500000 0.500000
O O6 0.569326 0.619300 0.451248
O O7 0.268186 0.003738 0.467721
O O8 0.704340 0.672408 0.123673
O O9 0.000000 0.500000 0.500000
O O10 0.385642 0.271468 0.114012
O O11 0.614004 0.401829 0.675399
O O12 0.391796 0.870424 0.612753
O O13 0.841357 0.561170 0.255094
O O14 0.830316 0.926597 0.789912
O O15 0.347009 0.706496 0.161525
O O16 0.725057 0.238303 0.044356
O O17 0.500000 0.500000 0.000000
O O18 0.000000 0.000000 0.000000
#
# Coordination Sequence:
#
# PCOD9042351 Si02
#       8
#     2   2   2   2   2   2   2   2
#     4  12  24  43  72 101 135 184 236 288 347 427
#     4  11  28  44  68 106 139 183 236 296 349 422
#     4  11  25  47  69 101 142 185 233 290 361 419
#     4  11  23  45  69  97 137 181 232 285 359 413
#     4  11  25  45  68  98 138 186 232 282 354 426
#     4  11  24  43  70 109 137 178 236 295 348 414
#     4  10  23  44  70  99 138 189 225 282 358 424
#     4  11  25  46  72 100 141 187 234 290 358 425
#
# _framework density 21.479672999999998
#
# number of rings (size 3 to 8) (size 9 to 14) (size 15 to 20)
#    0.000    1.000    2.500    4.125    5.250    3.000 
#    2.250    0.000    0.000    0.000    0.000    0.000 
#    0.000    0.000    0.000    0.000    0.000    0.000 
#
# Total GULP energy -89401.111821 kJ/mol
# GULP energy per Si atom -5587.569489 kJ/mol
# Density = 2.143078 g / cm^3
# Si number density = 21.479673 Si / 1000 Ang^3
#
#
#
# Elastic Constant Matrix: (Units=GPa)
#
#
# Indices 1 2 3 4 5 6 
#
# 1 185.5641 60.8895 31.7720 6.4741 25.5381 6.2023
# 2 60.8895 100.6082 32.7390 7.6290 0.5750 23.6243
# 3 31.7720 32.7390 72.5980 9.0735 3.7692 1.6431
# 4 6.4741 7.6290 9.0735 34.5910 2.4791 -4.5885
# 5 25.5381 0.5750 3.7692 2.4791 40.8654 -4.8856
# 6 6.2023 23.6243 1.6431 -4.5885 -4.8856 31.4013
#
#
#
# Elastic Compliance Matrix: (Units=1/GPa)
#
#
# Indices 1 2 3 4 5 6 
#
# 1 0.007641 -0.004579 -0.001124 0.000375 -0.004468 0.001355
# 2 -0.004579 0.017557 -0.005310 -0.003377 0.001847 -0.012232
# 3 -0.001124 -0.005310 0.016942 -0.002658 -0.000277 0.002899
# 4 0.000375 -0.003377 -0.002658 0.031284 -0.001000 0.007022
# 5 -0.004468 0.001847 -0.000277 -0.001000 0.027763 0.003681
# 6 0.001355 -0.012232 0.002899 0.007022 0.003681 0.042228
#
#
# Mechanical properties :
#
#
# Convention : Reuss Voigt Hill
#
# Bulk Modulus (GPa) = 49.72179 67.73013 58.72596
# Shear Modulus (GPa) = 29.04494 36.92952 32.98723
#
# Velocity S-wave (km/s) = 3.68122 4.15092 3.92311
# Velocity P-wave (km/s) = 6.42395 7.38743 6.92247
#
# Compressibility (1/GPa) = 0.02011191
#
# Stress axis : x y z
#
# Youngs Moduli (GPa) = 130.88032 56.95750 59.02378
#
# Poissons Ratio (x) = 0.26082 0.06636
# Poissons Ratio (y) = 0.59934 0.31344
# Poissons Ratio (z) = 0.14715 0.30247
#
# Static dielectric constant tensor:
#      x y z
#    x 1.770610 0.016100 0.022490 
#    y 0.016100 1.855260 0.039660 
#    z 0.022490 0.039660 1.890130 
# 
# From -- ./inp_files/561397.got.cif
#   From: 2010.05.17/outbox.cif.g08.bks.cpg/sg2_281_cif.got.tgz:561397.got - 2010.06.03 11:33:40.
