data_PCOD9042366
_publ_section_title
;
Structure prediction by ZEFSAII (Michael W. Deem and Ramdas Pophale) SiO2 
 PCOD9042366
Probable space group: P -1
;
_chemical_formula_sum "Si O2"
_cell_formula_units_Z 13
_cell_length_a 15.897466
_cell_length_b 6.918912
_cell_length_c 7.443349
_cell_angle_alpha 79.771948
_cell_angle_beta 132.141861
_cell_angle_gamma 74.044663
_cell_volume 502.833072
_symmetry_space_group_name_H-M "P -1"
_symmetry_group_IT_number 2
_symmetry_cell_setting 'triclinic'
loop_
_space_group_symop_operation_xyz
x,y,z
-x,-y,-z
loop_
_atom_site_type_symbol
_atom_site_label
_atom_site_fract_x
_atom_site_fract_y
_atom_site_fract_z
Si Si1 0.286788 0.396581 0.094314
Si Si2 0.077449 0.841475 0.911082
Si Si3 0.192545 0.120369 0.522419
Si Si4 0.500000 0.500000 0.500000
Si Si5 0.892783 0.761744 0.230070
Si Si6 0.318546 0.704834 0.516793
Si Si7 0.619591 0.741399 0.160338
O O1 0.403270 0.386217 0.381321
O O2 0.167364 0.668936 0.905026
O O3 0.209438 0.262748 0.041796
O O4 0.345646 0.319590 0.990191
O O5 0.954342 0.808301 0.762710
O O6 0.041984 0.101655 0.775645
O O7 0.173483 0.765153 0.232785
O O8 0.191076 0.089372 0.740106
O O9 0.245362 0.290992 0.552558
O O10 0.294717 0.887044 0.603124
O O11 0.394986 0.705005 0.450790
O O12 0.000000 0.500000 0.500000
O O13 0.404452 0.448434 0.762984
O O14 0.500000 0.000000 0.000000
#
# Coordination Sequence:
#
# PCOD9042366 Si02
#       7
#     2   2   2   1   2   2   2
#     4  10  23  44  71 100 143 179 232 285 339 423
#     4  11  24  43  70 107 142 184 222 285 356 414
#     4  11  24  42  73 102 142 183 228 284 353 415
#     4  10  24  46  70  94 132 188 228 282 344 394
#     4  11  23  41  70 107 140 180 228 280 341 418
#     4  11  26  45  67  99 143 182 233 290 342 414
#     4  11  26  45  69 103 135 187 239 286 339 407
#
# _framework density 25.853511000000001
#
# number of rings (size 3 to 8) (size 9 to 14) (size 15 to 20)
#    0.000    1.231    1.538    2.769    4.308   10.462 
#    0.000    6.923    0.000    0.000    0.000    0.000 
#    0.000    0.000    0.000    0.000    0.000    0.000 
#
# Total GULP energy -72470.083093 kJ/mol
# GULP energy per Si atom -5574.621776 kJ/mol
# Density = 2.579467 g / cm^3
# Si number density = 25.853511 Si / 1000 Ang^3
#
#
#
# Elastic Constant Matrix: (Units=GPa)
#
#
# Indices 1 2 3 4 5 6 
#
# 1 47.0614 58.6961 60.5775 6.2447 26.4333 -25.6805
# 2 58.6961 168.0500 33.7635 6.5304 -2.3878 -22.5309
# 3 60.5775 33.7635 25.5262 12.3435 14.6419 16.8810
# 4 6.2447 6.5304 12.3435 53.5402 14.9881 11.0226
# 5 26.4333 -2.3878 14.6419 14.9881 33.9247 10.7609
# 6 -25.6805 -22.5309 16.8810 11.0226 10.7609 58.6152
#
#
#
# Elastic Compliance Matrix: (Units=1/GPa)
#
#
# Indices 1 2 3 4 5 6 
#
# 1 -0.003118 -0.004348 0.021508 -0.001247 -0.003986 -0.008266
# 2 -0.004348 0.009535 -0.007545 -0.001490 0.007048 0.002919
# 3 0.021508 -0.007545 0.004258 0.001958 -0.022888 0.009130
# 4 -0.001247 -0.001490 0.001958 0.021734 -0.008230 -0.004259
# 5 -0.003986 0.007048 -0.022888 -0.008230 0.046409 0.000582
# 6 -0.008266 0.002919 0.009130 -0.004259 0.000582 0.012626
#
#
# Mechanical properties :
#
#
# Convention : Reuss Voigt Hill
#
# Bulk Modulus (GPa) = 33.44130 60.74575 47.09352
# Shear Modulus (GPa) = 60.84116 35.05604 47.94860
#
# Velocity S-wave (km/s) = 4.85635 3.68632 4.31121
# Velocity P-wave (km/s) = 6.66397 6.45490 6.56027
#
# Compressibility (1/GPa) = 0.02990314
#
# Stress axis : x y z
#
# Youngs Moduli (GPa) = -320.67385 104.88048 234.86849
#
# Poissons Ratio (x) = 0.45606 -5.05148
# Poissons Ratio (y) = -1.39440 1.77202
# Poissons Ratio (z) = 6.89696 0.79130
#
# Static dielectric constant tensor:
#      x y z
#    x 1.989470 -0.013420 0.016890 
#    y -0.013420 1.991100 0.014440 
#    z 0.016890 0.014440 2.094520 
# 
# From -- ./inp_files/323774.got.cif
#   From: 2010.05.17/outbox.cif.g08.bks.cpg/sg2_162_cif.got.tgz:323774.got - 2010.06.03 11:33:40.
