data_PCOD9042550
_publ_section_title
;
Structure prediction by ZEFSAII (Michael W. Deem and Ramdas Pophale) SiO2 
 PCOD9042550
Probable space group: P -1
;
_chemical_formula_sum "Si O2"
_cell_formula_units_Z 12
_cell_length_a 5.256525
_cell_length_b 19.004136
_cell_length_c 10.581957
_cell_angle_alpha 142.541462
_cell_angle_beta 128.690209
_cell_angle_gamma 53.777035
_cell_volume 491.724072
_symmetry_space_group_name_H-M "P -1"
_symmetry_group_IT_number 2
_symmetry_cell_setting 'triclinic'
loop_
_space_group_symop_operation_xyz
x,y,z
-x,-y,-z
loop_
_atom_site_type_symbol
_atom_site_label
_atom_site_fract_x
_atom_site_fract_y
_atom_site_fract_z
Si Si1 0.410191 0.499295 0.287226
Si Si2 0.293005 0.130608 0.094244
Si Si3 0.590052 0.122002 0.734302
Si Si4 0.667141 0.713350 0.895668
Si Si5 0.776262 0.645660 0.443915
Si Si6 0.415792 0.659931 0.105673
O O1 0.683055 0.574056 0.435216
O O2 0.092479 0.584894 0.371252
O O3 0.520488 0.389321 0.262743
O O4 0.344194 0.427517 0.038464
O O5 0.223791 0.221026 0.319944
O O6 0.451292 0.207152 0.149019
O O7 0.950726 0.114280 0.898536
O O8 0.500000 0.000000 0.000000
O O9 0.347065 0.192523 0.862876
O O10 0.554581 0.206635 0.723504
O O11 0.500000 0.000000 0.500000
O O12 0.053726 0.650996 0.926691
O O13 0.479147 0.640001 0.243696
#
# Coordination Sequence:
#
# PCOD9042550 Si02
#       6
#     2   2   2   2   2   2
#     4  11  24  46  74 113 152 194 250 299 373 449
#     4  11  29  49  69 110 152 193 252 313 374 441
#     4  10  25  46  76 101 147 205 251 305 368 451
#     4  10  24  47  72 105 149 194 253 301 369 449
#     4  12  27  42  79 110 153 196 241 314 373 432
#     4  10  23  44  72 114 146 194 252 301 366 450
#
# _framework density 24.403929999999999
#
# number of rings (size 3 to 8) (size 9 to 14) (size 15 to 20)
#    0.000    1.333    1.667    1.000   11.667    3.333 
#    0.000    0.000    0.000    0.000    0.000    0.000 
#    0.000    0.000    0.000    0.000    0.000    0.000 
#
# Total GULP energy -67091.187041 kJ/mol
# GULP energy per Si atom -5590.932253 kJ/mol
# Density = 2.434839 g / cm^3
# Si number density = 24.403930 Si / 1000 Ang^3
#
#
#
# Elastic Constant Matrix: (Units=GPa)
#
#
# Indices 1 2 3 4 5 6 
#
# 1 131.8950 61.2548 49.2802 25.2633 -4.5679 5.4311
# 2 61.2548 143.5505 68.5361 17.7068 -13.6017 13.7747
# 3 49.2802 68.5361 184.6192 45.5233 4.2900 9.6457
# 4 25.2633 17.7068 45.5233 41.3689 -5.4575 -8.6871
# 5 -4.5679 -13.6017 4.2900 -5.4575 26.4310 5.3207
# 6 5.4311 13.7747 9.6457 -8.6871 5.3207 34.5565
#
#
#
# Elastic Compliance Matrix: (Units=1/GPa)
#
#
# Indices 1 2 3 4 5 6 
#
# 1 0.010313 -0.003727 -0.000039 -0.005044 -0.000919 -0.001251
# 2 -0.003727 0.010954 -0.003405 0.001470 0.006547 -0.003469
# 3 -0.000039 -0.003405 0.009494 -0.010255 -0.004788 -0.003128
# 4 -0.005044 0.001470 -0.010255 0.041505 0.007637 0.012327
# 5 -0.000919 0.006547 -0.004788 0.007637 0.044623 -0.006080
# 6 -0.001251 -0.003469 -0.003128 0.012327 -0.006080 0.035426
#
#
# Mechanical properties :
#
#
# Convention : Reuss Voigt Hill
#
# Bulk Modulus (GPa) = 60.90187 90.91188 75.90688
# Shear Modulus (GPa) = 29.04786 39.20419 34.12603
#
# Velocity S-wave (km/s) = 3.45381 4.01243 3.74355
# Velocity P-wave (km/s) = 6.39648 7.66811 7.06098
#
# Compressibility (1/GPa) = 0.01641986
#
# Stress axis : x y z
#
# Youngs Moduli (GPa) = 96.96499 91.28923 105.32703
#
# Poissons Ratio (x) = 0.34024 0.00409
# Poissons Ratio (y) = 0.36139 0.35863
# Poissons Ratio (z) = 0.00376 0.31083
#
# Static dielectric constant tensor:
#      x y z
#    x 2.054520 -0.039810 0.031750 
#    y -0.039810 1.995620 -0.049580 
#    z 0.031750 -0.049580 1.930220 
# 
# From -- ./inp_files/73581.got.cif
#   From: 2010.05.17/outbox.cif.g08.bks.cpg/sg2_37_cif.got.tgz:73581.got - 2010.06.03 11:33:40.
