data_PCOD9042244
_publ_section_title
;
Structure prediction by ZEFSAII (Michael W. Deem and Ramdas Pophale) SiO2 
 PCOD9042244
Probable space group: P -1
;
_chemical_formula_sum "Si O2"
_cell_formula_units_Z 13
_cell_length_a 8.777313
_cell_length_b 9.479682
_cell_length_c 8.401857
_cell_angle_alpha 105.728559
_cell_angle_beta 106.874362
_cell_angle_gamma 54.206018
_cell_volume 537.989776
_symmetry_space_group_name_H-M "P -1"
_symmetry_group_IT_number 2
_symmetry_cell_setting 'triclinic'
loop_
_space_group_symop_operation_xyz
x,y,z
-x,-y,-z
loop_
_atom_site_type_symbol
_atom_site_label
_atom_site_fract_x
_atom_site_fract_y
_atom_site_fract_z
Si Si1 0.261308 0.336971 0.425807
Si Si2 0.154264 0.802944 0.033525
Si Si3 0.112700 0.666445 0.649983
Si Si4 0.151525 0.536951 0.126395
Si Si5 0.000000 0.000000 0.500000
Si Si6 0.630295 0.021163 0.272640
Si Si7 0.488164 0.224809 0.956881
O O1 0.266544 0.461812 0.596000
O O2 0.187965 0.469236 0.294021
O O3 0.451940 0.161287 0.371575
O O4 0.094888 0.306291 0.405232
O O5 0.096707 0.733757 0.145493
O O6 0.353887 0.782108 0.107810
O O7 0.155467 0.698201 0.849804
O O8 0.000000 0.000000 0.000000
O O9 0.104949 0.811230 0.578483
O O10 0.343759 0.412945 0.047035
O O11 0.000000 0.500000 0.000000
O O12 0.180410 0.016103 0.601382
O O13 0.619511 0.852077 0.188659
O O14 0.596028 0.103346 0.108694
#
# Coordination Sequence:
#
# PCOD9042244 Si02
#       7
#     2   2   2   2   1   2   2
#     4  10  24  47  68 101 144 188 229 292 354 418
#     4  12  25  44  71 107 140 183 238 292 348 423
#     4  11  25  44  69 102 145 183 233 293 350 418
#     4  11  24  42  73 105 137 187 239 286 354 412
#     4  12  26  42  72 102 140 186 234 286 356 414
#     4  10  23  45  71 103 139 187 232 293 350 419
#     4  10  23  44  70 102 145 179 238 290 349 416
#
# _framework density 24.164028999999999
#
# number of rings (size 3 to 8) (size 9 to 14) (size 15 to 20)
#    0.000    1.231    3.077    1.385    8.615    1.231 
#    0.000    1.538    0.000    0.000    0.000    0.000 
#    0.000    0.000    0.000    0.000    0.000    0.000 
#
# Total GULP energy -72591.739886 kJ/mol
# GULP energy per Si atom -5583.979991 kJ/mol
# Density = 2.410903 g / cm^3
# Si number density = 24.164029 Si / 1000 Ang^3
#
#
#
# Elastic Constant Matrix: (Units=GPa)
#
#
# Indices 1 2 3 4 5 6 
#
# 1 115.5225 31.3176 12.3116 0.0297 10.0354 19.0382
# 2 31.3176 89.8594 14.0151 -7.9749 -15.4028 29.1108
# 3 12.3116 14.0151 65.6429 12.1351 7.9382 -2.5530
# 4 0.0297 -7.9749 12.1351 32.4779 -6.0698 -3.9218
# 5 10.0354 -15.4028 7.9382 -6.0698 37.7790 -5.3519
# 6 19.0382 29.1108 -2.5530 -3.9218 -5.3519 41.2815
#
#
#
# Elastic Compliance Matrix: (Units=1/GPa)
#
#
# Indices 1 2 3 4 5 6 
#
# 1 0.010656 -0.003681 -0.000334 -0.002119 -0.005054 -0.003196
# 2 -0.003681 0.019072 -0.006397 0.007703 0.009900 -0.010132
# 3 -0.000334 -0.006397 0.019558 -0.009831 -0.007649 0.003949
# 4 -0.002119 0.007703 -0.009831 0.038619 0.011997 0.000161
# 5 -0.005054 0.009900 -0.007649 0.011997 0.035471 0.000615
# 6 -0.003196 -0.010132 0.003949 0.000161 0.000615 0.033182
#
#
# Mechanical properties :
#
#
# Convention : Reuss Voigt Hill
#
# Bulk Modulus (GPa) = 35.13349 42.92372 39.02860
# Shear Modulus (GPa) = 26.75673 36.53305 31.64489
#
# Velocity S-wave (km/s) = 3.33122 3.89251 3.62275
# Velocity P-wave (km/s) = 5.41915 6.16475 5.80393
#
# Compressibility (1/GPa) = 0.02846287
#
# Stress axis : x y z
#
# Youngs Moduli (GPa) = 93.84294 52.43282 51.12900
#
# Poissons Ratio (x) = 0.19300 0.01708
# Poissons Ratio (y) = 0.34542 0.32707
# Poissons Ratio (z) = 0.03134 0.33541
#
# Static dielectric constant tensor:
#      x y z
#    x 1.914430 0.201600 -0.041690 
#    y 0.201600 3.388660 0.094070 
#    z -0.041690 0.094070 1.945540 
# 
# From -- ./inp_files/155965.got.cif
#   From: 2010.05.17/outbox.cif.g08.bks.cpg/sg2_78_cif.got.tgz:155965.got - 2010.06.03 11:33:40.
