data_PCOD9042611
_publ_section_title
;
Structure prediction by ZEFSAII (Michael W. Deem and Ramdas Pophale) SiO2 
 PCOD9042611
Probable space group: P -1
;
_chemical_formula_sum "Si O2"
_cell_formula_units_Z 15
_cell_length_a 21.272879
_cell_length_b 9.521997
_cell_length_c 5.316515
_cell_angle_alpha 70.982353
_cell_angle_beta 88.460171
_cell_angle_gamma 39.895524
_cell_volume 607.202817
_symmetry_space_group_name_H-M "P -1"
_symmetry_group_IT_number 2
_symmetry_cell_setting 'triclinic'
loop_
_space_group_symop_operation_xyz
x,y,z
-x,-y,-z
loop_
_atom_site_type_symbol
_atom_site_label
_atom_site_fract_x
_atom_site_fract_y
_atom_site_fract_z
Si Si1 0.338557 0.495355 0.069231
Si Si2 0.435150 0.590978 0.205924
Si Si3 0.161375 0.755186 0.239856
Si Si4 0.838557 0.989601 0.529866
Si Si5 0.016735 0.794615 0.333602
Si Si6 0.817272 0.677544 0.730071
Si Si7 0.308265 0.122145 0.883128
Si Si8 0.500000 0.000000 0.000000
O O1 0.254208 0.761179 0.778256
O O2 0.402983 0.481100 0.254583
O O3 0.273160 0.509750 0.248489
O O4 0.414216 0.265810 0.008472
O O5 0.500000 0.500000 0.500000
O O6 0.500000 0.500000 0.000000
O O7 0.342304 0.885668 0.049736
O O8 0.170061 0.898730 0.281554
O O9 0.107080 0.739944 0.439293
O O10 0.079418 0.924808 0.923059
O O11 0.823671 0.843624 0.644902
O O12 0.956203 0.799729 0.522735
O O13 0.072010 0.599301 0.216103
O O14 0.739860 0.783403 0.445686
O O15 0.774966 0.696642 0.987441
O O16 0.407542 0.043008 0.949382
#
# Coordination Sequence:
#
# PCOD9042611 Si02
#       8
#     2   2   2   2   2   2   2   1
#     4  11  25  46  70 109 139 197 243 304 367 439
#     4  12  25  48  76 102 143 196 247 302 363 431
#     4  10  23  44  73 103 146 188 246 293 368 436
#     4  11  24  44  74 104 141 190 241 302 361 438
#     4  10  24  44  70 108 144 192 236 299 363 441
#     4  12  27  47  75 108 151 188 244 300 364 431
#     4  12  28  48  71 110 145 194 241 305 364 432
#     4  12  28  48  72 104 150 190 248 302 376 434
#
# _framework density 24.703443
#
# number of rings (size 3 to 8) (size 9 to 14) (size 15 to 20)
#    0.000    0.800    2.667    3.200    7.467    1.067 
#    0.000    0.000    0.000    0.000    0.000    0.000 
#    0.000    0.000    0.000    0.000    0.000    0.000 
#
# Total GULP energy -83727.011334 kJ/mol
# GULP energy per Si atom -5581.800756 kJ/mol
# Density = 2.464722 g / cm^3
# Si number density = 24.703443 Si / 1000 Ang^3
#
#
#
# Elastic Constant Matrix: (Units=GPa)
#
#
# Indices 1 2 3 4 5 6 
#
# 1 205.2091 80.9781 41.6373 18.1924 -8.4522 1.3783
# 2 80.9781 179.5661 28.5377 21.5211 -9.8484 -5.2001
# 3 41.6373 28.5377 87.1586 8.7160 -1.6062 2.1953
# 4 18.1924 21.5211 8.7160 24.8304 -2.9873 -6.7467
# 5 -8.4522 -9.8484 -1.6062 -2.9873 22.5254 14.2266
# 6 1.3783 -5.2001 2.1953 -6.7467 14.2266 56.2842
#
#
#
# Elastic Compliance Matrix: (Units=1/GPa)
#
#
# Indices 1 2 3 4 5 6 
#
# 1 0.006446 -0.002266 -0.002075 -0.002094 0.001597 -0.000941
# 2 -0.002266 0.007329 -0.000855 -0.004225 0.001867 -0.000212
# 3 -0.002075 -0.000855 0.013019 -0.002539 -0.000036 -0.000831
# 4 -0.002094 -0.004225 -0.002539 0.047858 0.000073 0.005478
# 5 0.001597 0.001867 -0.000036 0.000073 0.054413 -0.013610
# 6 -0.000941 -0.000212 -0.000831 0.005478 -0.013610 0.021900
#
#
# Mechanical properties :
#
#
# Convention : Reuss Voigt Hill
#
# Bulk Modulus (GPa) = 60.96698 86.02664 73.49681
# Shear Modulus (GPa) = 29.97183 42.11339 36.04261
#
# Velocity S-wave (km/s) = 3.48697 4.13335 3.82384
# Velocity P-wave (km/s) = 6.39884 7.59466 7.02225
#
# Compressibility (1/GPa) = 0.01640232
#
# Stress axis : x y z
#
# Youngs Moduli (GPa) = 155.13647 136.43776 76.81267
#
# Poissons Ratio (x) = 0.30915 0.15938
# Poissons Ratio (y) = 0.35151 0.06568
# Poissons Ratio (z) = 0.32190 0.11666
#
# Static dielectric constant tensor:
#      x y z
#    x 1.988060 -0.035400 0.003390 
#    y -0.035400 1.938640 -0.034740 
#    z 0.003390 -0.034740 1.993290 
# 
# From -- ./inp_files/116040.got.cif
#   From: 2010.05.17/outbox.cif.g08.bks.cpg/sg2_59_cif.got.tgz:116040.got - 2010.06.03 11:33:40.
