data_PCOD9042312
_publ_section_title
;
Structure prediction by ZEFSAII (Michael W. Deem and Ramdas Pophale) SiO2 
 PCOD9042312
Probable space group: P -1
;
_chemical_formula_sum "Si O2"
_cell_formula_units_Z 14
_cell_length_a 8.309474
_cell_length_b 22.591237
_cell_length_c 8.821618
_cell_angle_alpha 135.690230
_cell_angle_beta 34.486405
_cell_angle_gamma 131.466456
_cell_volume 643.926850
_symmetry_space_group_name_H-M "P -1"
_symmetry_group_IT_number 2
_symmetry_cell_setting 'triclinic'
loop_
_space_group_symop_operation_xyz
x,y,z
-x,-y,-z
loop_
_atom_site_type_symbol
_atom_site_label
_atom_site_fract_x
_atom_site_fract_y
_atom_site_fract_z
Si Si1 0.759664 0.557561 0.815253
Si Si2 0.636993 0.187013 0.484894
Si Si3 0.227234 0.305545 0.176067
Si Si4 0.089719 0.271030 0.791900
Si Si5 0.140148 0.092468 0.493751
Si Si6 0.539993 0.744538 0.810205
Si Si7 0.968740 0.907600 0.782828
O O1 0.700792 0.600613 0.781297
O O2 0.000000 0.500000 0.500000
O O3 0.500000 0.500000 0.000000
O O4 0.855414 0.644312 0.996639
O O5 0.458065 0.121307 0.378954
O O6 0.895285 0.255841 0.334915
O O7 0.785010 0.136290 0.406875
O O8 0.424023 0.243460 0.831700
O O9 0.306260 0.312781 0.304591
O O10 0.022909 0.181897 0.775365
O O11 0.355665 0.267064 0.464257
O O12 0.797515 0.273113 0.932959
O O13 0.068165 0.082971 0.352233
O O14 0.000000 0.000000 0.500000
O O15 0.673939 0.842319 0.930638
O O16 0.000000 0.000000 0.000000
#
# Coordination Sequence:
#
# PCOD9042312 Si02
#       7
#     2   2   2   2   2   2   2
#     4  12  26  44  73 107 137 178 227 292 362 424
#     4  11  25  44  71  99 142 191 237 292 349 410
#     4  11  23  47  72  99 136 181 234 283 354 426
#     4  11  24  47  68 101 143 175 238 291 342 423
#     4  11  26  42  70 104 140 194 241 283 355 414
#     4  10  23  44  70  94 134 194 221 288 356 400
#     4  10  25  42  64 101 146 183 247 296 338 409
#
# _framework density 21.741599999999998
#
# number of rings (size 3 to 8) (size 9 to 14) (size 15 to 20)
#    0.000    1.143    1.429    4.286   10.000    1.143 
#    0.000    4.286    0.000    0.000    0.000    0.000 
#    0.000    0.000    0.000    0.000    0.000    0.000 
#
# Total GULP energy -78118.308887 kJ/mol
# GULP energy per Si atom -5579.879206 kJ/mol
# Density = 2.169212 g / cm^3
# Si number density = 21.741600 Si / 1000 Ang^3
#
#
#
# Elastic Constant Matrix: (Units=GPa)
#
#
# Indices 1 2 3 4 5 6 
#
# 1 107.3881 40.3218 5.0537 -7.4449 -0.5767 -11.6526
# 2 40.3218 165.0257 40.9612 1.2779 -0.5356 -23.9668
# 3 5.0537 40.9612 102.2631 -0.7385 -0.9765 0.1139
# 4 -7.4449 1.2779 -0.7385 37.0280 9.3779 6.3931
# 5 -0.5767 -0.5356 -0.9765 9.3779 23.8112 -6.7332
# 6 -11.6526 -23.9668 0.1139 6.3931 -6.7332 39.7134
#
#
#
# Elastic Compliance Matrix: (Units=1/GPa)
#
#
# Indices 1 2 3 4 5 6 
#
# 1 0.010512 -0.002542 0.000510 0.002078 -0.000270 0.001168
# 2 -0.002542 0.008216 -0.003165 -0.002303 0.002310 0.004984
# 3 0.000510 -0.003165 0.011025 0.000920 -0.000544 -0.002033
# 4 0.002078 -0.002303 0.000920 0.032920 -0.015387 -0.008691
# 5 -0.000270 0.002310 -0.000544 -0.015387 0.051628 0.012546
# 6 0.001168 0.004984 -0.002033 -0.008691 0.012546 0.032063
#
#
# Mechanical properties :
#
#
# Convention : Reuss Voigt Hill
#
# Bulk Modulus (GPa) = 51.65966 60.81668 56.23817
# Shear Modulus (GPa) = 30.63523 39.33320 34.98422
#
# Velocity S-wave (km/s) = 3.75782 4.25799 4.01570
# Velocity P-wave (km/s) = 6.52998 7.22546 6.88650
#
# Compressibility (1/GPa) = 0.01935746
#
# Stress axis : x y z
#
# Youngs Moduli (GPa) = 95.12929 121.71978 90.70268
#
# Poissons Ratio (x) = 0.30945 -0.04625
# Poissons Ratio (y) = 0.24185 0.28709
# Poissons Ratio (z) = -0.04851 0.38527
#
# Static dielectric constant tensor:
#      x y z
#    x 1.902270 -0.033090 0.027770 
#    y -0.033090 1.778400 -0.017680 
#    z 0.027770 -0.017680 1.812440 
# 
# From -- ./inp_files/223974.got.cif
#   From: 2010.05.17/outbox.cif.g08.bks.cpg/sg2_112_cif.got.tgz:223974.got - 2010.06.03 11:33:40.
