data_PCOD9042274
_publ_section_title
;
Structure prediction by ZEFSAII (Michael W. Deem and Ramdas Pophale) SiO2 
 PCOD9042274
Probable space group: P -1
;
_chemical_formula_sum "Si O2"
_cell_formula_units_Z 16
_cell_length_a 18.175074
_cell_length_b 8.747432
_cell_length_c 14.529489
_cell_angle_alpha 141.566245
_cell_angle_beta 151.359293
_cell_angle_gamma 38.535276
_cell_volume 652.526378
_symmetry_space_group_name_H-M "P -1"
_symmetry_group_IT_number 2
_symmetry_cell_setting 'triclinic'
loop_
_space_group_symop_operation_xyz
x,y,z
-x,-y,-z
loop_
_atom_site_type_symbol
_atom_site_label
_atom_site_fract_x
_atom_site_fract_y
_atom_site_fract_z
Si Si1 0.794557 0.606896 0.256633
Si Si2 0.753057 0.431734 0.476318
Si Si3 0.322065 0.084596 0.883680
Si Si4 0.911348 0.672233 0.118097
Si Si5 0.861858 0.138460 0.837434
Si Si6 0.494159 0.171823 0.485349
Si Si7 0.010140 0.899587 0.709640
Si Si8 0.569163 0.716591 0.223019
O O1 0.750753 0.643299 0.119925
O O2 0.824461 0.310910 0.176093
O O3 0.662908 0.770515 0.261565
O O4 0.941237 0.725896 0.483940
O O5 0.649888 0.572137 0.519649
O O6 0.677444 0.573583 0.364048
O O7 0.940353 0.402413 0.680904
O O8 0.745142 0.142676 0.328757
O O9 0.260224 0.141381 0.944979
O O10 0.500000 0.000000 0.000000
O O11 0.967548 0.844154 0.186692
O O12 0.886772 0.398290 0.946473
O O13 0.673861 0.197814 0.686090
O O14 0.900672 0.949491 0.703510
O O15 0.000000 0.000000 0.000000
O O16 0.500000 0.000000 0.500000
O O17 0.469518 0.995940 0.290079
O O18 0.500000 0.500000 0.000000
#
# Coordination Sequence:
#
# PCOD9042274 Si02
#       8
#     2   2   2   2   2   2   2   2
#     4  11  24  42  71 102 140 187 248 302 364 436
#     4  11  24  44  71 101 145 196 246 306 378 441
#     4  12  25  45  72 107 142 187 246 307 374 441
#     4  12  26  46  74 106 148 195 247 309 371 448
#     4  12  24  45  74 108 149 195 251 308 372 448
#     4  10  23  44  70 104 145 192 245 302 376 439
#     4  11  25  44  70 106 143 193 248 300 363 438
#     4  11  23  42  69 104 146 192 247 310 371 443
#
# _framework density 24.520081999999999
#
# number of rings (size 3 to 8) (size 9 to 14) (size 15 to 20)
#    0.000    0.750    2.500    5.250    3.500    4.000 
#    0.000    5.000    0.000    0.000    0.000    0.000 
#    0.000    0.000    0.000    0.000    0.000    0.000 
#
# Total GULP energy -89287.380998 kJ/mol
# GULP energy per Si atom -5580.461312 kJ/mol
# Density = 2.446427 g / cm^3
# Si number density = 24.520082 Si / 1000 Ang^3
#
#
#
# Elastic Constant Matrix: (Units=GPa)
#
#
# Indices 1 2 3 4 5 6 
#
# 1 128.3478 24.9044 30.3152 -9.4982 4.3649 -3.4477
# 2 24.9044 87.8526 15.0328 11.5338 -7.6830 5.8257
# 3 30.3152 15.0328 97.2323 10.8239 6.2809 3.2339
# 4 -9.4982 11.5338 10.8239 34.0598 -7.0941 2.6299
# 5 4.3649 -7.6830 6.2809 -7.0941 28.9144 3.6339
# 6 -3.4477 5.8257 3.2339 2.6299 3.6339 48.2255
#
#
#
# Elastic Compliance Matrix: (Units=1/GPa)
#
#
# Indices 1 2 3 4 5 6 
#
# 1 0.009415 -0.002849 -0.002972 0.004331 -0.000599 0.001026
# 2 -0.002849 0.013298 -0.000858 -0.004191 0.003345 -0.001776
# 3 -0.002972 -0.000858 0.012162 -0.005132 -0.003634 -0.000371
# 4 0.004331 -0.004191 -0.005132 0.035437 0.008217 -0.001392
# 5 -0.000599 0.003345 -0.003634 0.008217 0.038819 -0.003576
# 6 0.001026 -0.001776 -0.000371 -0.001392 -0.003576 0.021394
#
#
# Mechanical properties :
#
#
# Convention : Reuss Voigt Hill
#
# Bulk Modulus (GPa) = 46.47799 50.43748 48.45774
# Shear Modulus (GPa) = 33.10046 38.45196 35.77621
#
# Velocity S-wave (km/s) = 3.67813 3.96432 3.82391
# Velocity P-wave (km/s) = 6.08559 6.44740 6.26911
#
# Compressibility (1/GPa) = 0.02151556
#
# Stress axis : x y z
#
# Youngs Moduli (GPa) = 106.21729 75.20069 82.22106
#
# Poissons Ratio (x) = 0.21426 0.24439
# Poissons Ratio (y) = 0.30264 0.07055
# Poissons Ratio (z) = 0.31571 0.06452
#
# Static dielectric constant tensor:
#      x y z
#    x 1.949730 -0.041630 0.001270 
#    y -0.041630 2.071080 -0.102880 
#    z 0.001270 -0.102880 1.995690 
# 
# From -- ./inp_files/537692.got.cif
#   From: 2010.05.17/outbox.cif.g08.bks.cpg/sg2_269_cif.got.tgz:537692.got - 2010.06.03 11:33:40.
