data_PCOD9042235
_publ_section_title
;
Structure prediction by ZEFSAII (Michael W. Deem and Ramdas Pophale) SiO2 
 PCOD9042235
Probable space group: P -1
;
_chemical_formula_sum "Si O2"
_cell_formula_units_Z 14
_cell_length_a 19.675633
_cell_length_b 7.577192
_cell_length_c 6.017414
_cell_angle_alpha 139.710412
_cell_angle_beta 79.918308
_cell_angle_gamma 104.753636
_cell_volume 560.727660
_symmetry_space_group_name_H-M "P -1"
_symmetry_group_IT_number 2
_symmetry_cell_setting 'triclinic'
loop_
_space_group_symop_operation_xyz
x,y,z
-x,-y,-z
loop_
_atom_site_type_symbol
_atom_site_label
_atom_site_fract_x
_atom_site_fract_y
_atom_site_fract_z
Si Si1 0.870215 0.850388 0.738485
Si Si2 0.429460 0.862621 0.526940
Si Si3 0.286725 0.753548 0.271198
Si Si4 0.277000 0.255965 0.510599
Si Si5 0.007552 0.643590 0.375960
Si Si6 0.146269 0.680828 0.517586
Si Si7 0.573326 0.649148 0.713971
O O1 0.798120 0.722649 0.531146
O O2 0.864704 0.650153 0.766380
O O3 0.947045 0.827618 0.583432
O O4 0.868238 0.166783 0.101281
O O5 0.361833 0.889753 0.451807
O O6 0.426824 0.537313 0.246145
O O7 0.500000 0.000000 0.500000
O O8 0.427143 0.032241 0.920105
O O9 0.225849 0.786491 0.506539
O O10 0.274377 0.930077 0.233368
O O11 0.281570 0.433930 0.904490
O O12 0.351989 0.368068 0.457825
O O13 0.090717 0.767032 0.460733
O O14 0.000000 0.500000 0.500000
O O15 0.000000 0.500000 0.000000
O O16 0.500000 0.500000 0.500000
#
# Coordination Sequence:
#
# PCOD9042235 Si02
#       7
#     2   2   2   2   2   2   2
#     4  11  23  43  66  97 133 177 224 279 339 406
#     4  12  24  42  64  91 125 166 214 272 334 406
#     4  12  24  41  64  95 129 171 218 272 334 406
#     4  12  24  41  64  95 129 171 218 272 334 406
#     4  10  23  44  70 102 140 184 234 290 352 420
#     4  11  23  43  66  97 133 177 224 279 339 406
#     4  12  24  42  64  91 125 166 214 272 334 406
#
# _framework density 24.967559000000001
#
# number of rings (size 3 to 8) (size 9 to 14) (size 15 to 20)
#    0.000    0.571    0.000    9.000    0.000    2.286 
#    0.000    6.429    0.000    0.000    0.000    0.000 
#    0.000    0.000    0.000    0.000    0.000    0.000 
#
# Total GULP energy -78203.944065 kJ/mol
# GULP energy per Si atom -5585.996005 kJ/mol
# Density = 2.491073 g / cm^3
# Si number density = 24.967559 Si / 1000 Ang^3
#
#
#
# Elastic Constant Matrix: (Units=GPa)
#
#
# Indices 1 2 3 4 5 6 
#
# 1 203.7591 3.4205 38.6901 -10.2203 -0.2089 -9.4437
# 2 3.4205 57.9960 -6.4961 9.6112 -12.0984 -3.1007
# 3 38.6901 -6.4961 108.0768 1.3140 3.1781 1.1775
# 4 -10.2203 9.6112 1.3140 32.1900 6.1169 -3.5817
# 5 -0.2089 -12.0984 3.1781 6.1169 47.3632 -9.4354
# 6 -9.4437 -3.1007 1.1775 -3.5817 -9.4354 25.8177
#
#
#
# Elastic Compliance Matrix: (Units=1/GPa)
#
#
# Indices 1 2 3 4 5 6 
#
# 1 0.005546 -0.000788 -0.002091 0.002322 0.000143 0.002404
# 2 -0.000788 0.020226 0.001350 -0.007227 0.006709 0.003529
# 3 -0.002091 0.001350 0.010130 -0.001559 -0.000429 -0.001438
# 4 0.002322 -0.007227 -0.001559 0.035433 -0.005735 0.002872
# 5 0.000143 0.006709 -0.000429 -0.005735 0.025468 0.009389
# 6 0.002404 0.003529 -0.001438 0.002872 0.009389 0.043932
#
#
# Mechanical properties :
#
#
# Convention : Reuss Voigt Hill
#
# Bulk Modulus (GPa) = 30.44785 49.00676 39.72731
# Shear Modulus (GPa) = 32.31205 43.35533 37.83369
#
# Velocity S-wave (km/s) = 3.60135 4.17161 3.89693
# Velocity P-wave (km/s) = 5.43271 6.54782 6.01616
#
# Compressibility (1/GPa) = 0.03284304
#
# Stress axis : x y z
#
# Youngs Moduli (GPa) = 180.30643 49.44136 98.71909
#
# Poissons Ratio (x) = 0.03896 0.20646
# Poissons Ratio (y) = 0.14206 -0.13326
# Poissons Ratio (z) = 0.37709 -0.06674
#
# Static dielectric constant tensor:
#      x y z
#    x 2.110530 0.032250 -0.032640 
#    y 0.032250 2.020610 -0.046600 
#    z -0.032640 -0.046600 1.938100 
# 
# From -- ./inp_files/14605.got.cif
#   From: 2010.05.17/outbox.cif.g08.bks.cpg/sg2_8_cif.got.tgz:14605.got - 2010.06.03 11:33:40.
