data_PCOD9042568
_publ_section_title
;
Structure prediction by ZEFSAII (Michael W. Deem and Ramdas Pophale) SiO2 
 PCOD9042568
Probable space group: P -1
;
_chemical_formula_sum "Si O2"
_cell_formula_units_Z 12
_cell_length_a 13.359573
_cell_length_b 11.683299
_cell_length_c 9.019878
_cell_angle_alpha 55.449019
_cell_angle_beta 97.118918
_cell_angle_gamma 140.786588
_cell_volume 583.196741
_symmetry_space_group_name_H-M "P -1"
_symmetry_group_IT_number 2
_symmetry_cell_setting 'triclinic'
loop_
_space_group_symop_operation_xyz
x,y,z
-x,-y,-z
loop_
_atom_site_type_symbol
_atom_site_label
_atom_site_fract_x
_atom_site_fract_y
_atom_site_fract_z
Si Si1 0.661629 0.590826 0.031178
Si Si2 0.165190 0.791166 0.246710
Si Si3 0.030261 0.148029 0.765814
Si Si4 0.537714 0.143021 0.255558
Si Si5 0.789285 0.216515 0.086479
Si Si6 0.465127 0.595997 0.520444
O O1 0.655702 0.420304 0.122007
O O2 0.597769 0.524377 0.239717
O O3 0.500000 0.500000 0.000000
O O4 0.877874 0.906530 0.794910
O O5 0.072419 0.834224 0.208516
O O6 0.000000 0.500000 0.500000
O O7 0.351998 0.986328 0.245680
O O8 0.192610 0.780484 0.088956
O O9 0.260630 0.432556 0.552135
O O10 0.000000 0.000000 0.000000
O O11 0.654533 0.186083 0.130710
O O12 0.500000 0.000000 0.500000
O O13 0.658741 0.925030 0.322340
O O14 0.000000 0.500000 0.000000
O O15 0.500000 0.500000 0.500000
#
# Coordination Sequence:
#
# PCOD9042568 Si02
#       6
#     2   2   2   2   2   2
#     4  11  23  45  73 106 139 187 238 293 359 428
#     4  12  26  46  72 104 141 190 245 296 365 429
#     4  10  23  44  72  98 141 185 232 288 362 420
#     4  12  25  46  72 103 149 189 240 303 358 427
#     4  12  27  44  73 107 143 191 243 299 362 430
#     4  11  25  45  73 102 145 187 238 292 365 429
#
# _framework density 20.576243999999999
#
# number of rings (size 3 to 8) (size 9 to 14) (size 15 to 20)
#    0.000    0.667    3.333    4.500    9.333    0.000 
#    0.000    0.833    0.000    0.000    0.000    0.000 
#    0.000    0.000    0.000    0.000    0.000    0.000 
#
# Total GULP energy -66902.765493 kJ/mol
# GULP energy per Si atom -5575.230458 kJ/mol
# Density = 2.052941 g / cm^3
# Si number density = 20.576244 Si / 1000 Ang^3
#
#
#
# Elastic Constant Matrix: (Units=GPa)
#
#
# Indices 1 2 3 4 5 6 
#
# 1 188.0561 54.2953 45.9643 1.5033 -10.9152 -17.3491
# 2 54.2953 115.8039 53.2259 -14.1823 -6.1607 -2.3183
# 3 45.9643 53.2259 100.5386 -7.4768 -3.7645 -5.9032
# 4 1.5033 -14.1823 -7.4768 40.0784 -3.7959 -4.3889
# 5 -10.9152 -6.1607 -3.7645 -3.7959 34.0940 1.3593
# 6 -17.3491 -2.3183 -5.9032 -4.3889 1.3593 47.0992
#
#
#
# Elastic Compliance Matrix: (Units=1/GPa)
#
#
# Indices 1 2 3 4 5 6 
#
# 1 0.006690 -0.002367 -0.001718 -0.001065 0.001326 0.001995
# 2 -0.002367 0.012719 -0.005364 0.003652 0.001379 -0.000618
# 3 -0.001718 -0.005364 0.013687 0.000822 0.000048 0.000894
# 4 -0.001065 0.003652 0.000822 0.027005 0.003324 0.002311
# 5 0.001326 0.001379 0.000048 0.003324 0.030380 -0.000005
# 6 0.001995 -0.000618 0.000894 0.002311 -0.000005 0.022264
#
#
# Mechanical properties :
#
#
# Convention : Reuss Voigt Hill
#
# Bulk Modulus (GPa) = 70.43406 79.04107 74.73757
# Shear Modulus (GPa) = 36.66321 40.98186 38.82254
#
# Velocity S-wave (km/s) = 4.22574 4.46770 4.34840
# Velocity P-wave (km/s) = 7.62327 8.06913 7.84937
#
# Compressibility (1/GPa) = 0.01419768
#
# Stress axis : x y z
#
# Youngs Moduli (GPa) = 149.46643 78.62283 73.06121
#
# Poissons Ratio (x) = 0.18611 0.12551
# Poissons Ratio (y) = 0.35381 0.39192
# Poissons Ratio (z) = 0.25677 0.42176
#
# Static dielectric constant tensor:
#      x y z
#    x 1.602960 -0.025420 0.045810 
#    y -0.025420 1.840500 -0.079140 
#    z 0.045810 -0.079140 1.712350 
# 
# From -- ./inp_files/178782.got.cif
#   From: 2010.05.17/outbox.cif.g08.bks.cpg/sg2_90_cif.got.tgz:178782.got - 2010.06.03 11:33:40.
