data_PCOD9042458
_publ_section_title
;
Structure prediction by ZEFSAII (Michael W. Deem and Ramdas Pophale) SiO2 
 PCOD9042458
Probable space group: P -1
;
_chemical_formula_sum "Si O2"
_cell_formula_units_Z 16
_cell_length_a 14.789528
_cell_length_b 7.045287
_cell_length_c 6.882379
_cell_angle_alpha 84.498741
_cell_angle_beta 72.121880
_cell_angle_gamma 104.290749
_cell_volume 649.816337
_symmetry_space_group_name_H-M "P -1"
_symmetry_group_IT_number 2
_symmetry_cell_setting 'triclinic'
loop_
_space_group_symop_operation_xyz
x,y,z
-x,-y,-z
loop_
_atom_site_type_symbol
_atom_site_label
_atom_site_fract_x
_atom_site_fract_y
_atom_site_fract_z
Si Si1 0.478764 0.205878 0.144505
Si Si2 0.617628 0.594443 0.137621
Si Si3 0.351487 0.806999 0.255783
Si Si4 0.799127 0.720542 0.775234
Si Si5 0.891796 0.389504 0.171669
Si Si6 0.836798 0.161662 0.851212
Si Si7 0.008627 0.776974 0.545675
Si Si8 0.733268 0.592820 0.425102
O O1 0.524118 0.398399 0.228601
O O2 0.408328 0.010853 0.309499
O O3 0.416997 0.259749 0.999298
O O4 0.575167 0.178148 0.976712
O O5 0.667955 0.664028 0.302615
O O6 0.710213 0.562293 0.956864
O O7 0.245919 0.804096 0.240602
O O8 0.335527 0.613683 0.417109
O O9 0.767602 0.738757 0.571394
O O10 0.898483 0.656321 0.694596
O O11 0.821512 0.924024 0.863246
O O12 0.915796 0.253911 0.340546
O O13 0.827757 0.534108 0.275032
O O14 0.830623 0.242016 0.060878
O O15 0.000000 0.500000 0.000000
O O16 0.946636 0.267325 0.681660
O O17 0.000000 0.000000 0.500000
#
# Coordination Sequence:
#
# PCOD9042458 Si02
#       8
#     2   2   2   2   2   2   2   2
#     4  10  23  44  71  96 141 186 228 293 356 400
#     4  11  23  45  68 101 140 187 229 287 350 421
#     4  11  22  44  69 101 137 184 230 293 343 405
#     4  11  24  45  70 100 144 184 224 289 346 418
#     4  12  26  42  72 108 138 187 234 285 344 413
#     4  11  24  46  71  98 147 185 229 284 349 416
#     4  10  24  43  69 100 140 182 228 281 343 419
#     4  12  26  42  73 105 139 179 240 284 348 412
#
# _framework density 24.622342
#
# number of rings (size 3 to 8) (size 9 to 14) (size 15 to 20)
#    0.000    1.000    3.750    2.250    1.750    6.000 
#    0.000    0.000    0.000    0.000    0.000    0.000 
#    0.000    0.000    0.000    0.000    0.000    0.000 
#
# Total GULP energy -89491.425737 kJ/mol
# GULP energy per Si atom -5593.214109 kJ/mol
# Density = 2.456630 g / cm^3
# Si number density = 24.622342 Si / 1000 Ang^3
#
#
#
# Elastic Constant Matrix: (Units=GPa)
#
#
# Indices 1 2 3 4 5 6 
#
# 1 102.9574 14.5598 18.6445 -2.8711 1.4754 10.6531
# 2 14.5598 92.0791 16.1830 5.0028 -6.6936 9.9183
# 3 18.6445 16.1830 73.4668 15.6974 5.9902 13.9238
# 4 -2.8711 5.0028 15.6974 32.1632 7.1860 -0.6330
# 5 1.4754 -6.6936 5.9902 7.1860 49.1455 -1.2618
# 6 10.6531 9.9183 13.9238 -0.6330 -1.2618 35.8686
#
#
#
# Elastic Compliance Matrix: (Units=1/GPa)
#
#
# Indices 1 2 3 4 5 6 
#
# 1 0.010613 -0.001210 -0.002570 0.002484 -0.000579 -0.001796
# 2 -0.001210 0.011824 -0.001700 -0.001615 0.002033 -0.002207
# 3 -0.002570 -0.001700 0.017635 -0.008413 -0.001223 -0.005804
# 4 0.002484 -0.001615 -0.008413 0.036756 -0.004555 0.003463
# 5 -0.000579 0.002033 -0.001223 -0.004555 0.021477 0.000760
# 6 -0.001796 -0.002207 -0.005804 0.003463 0.000760 0.031364
#
#
# Mechanical properties :
#
#
# Convention : Reuss Voigt Hill
#
# Bulk Modulus (GPa) = 34.34923 40.80866 37.57894
# Shear Modulus (GPa) = 33.25968 38.04320 35.65144
#
# Velocity S-wave (km/s) = 3.67930 3.93500 3.80930
# Velocity P-wave (km/s) = 5.65954 6.10372 5.88582
#
# Compressibility (1/GPa) = 0.02911274
#
# Stress axis : x y z
#
# Youngs Moduli (GPa) = 94.22697 84.57644 56.70383
#
# Poissons Ratio (x) = 0.10234 0.14571
# Poissons Ratio (y) = 0.11402 0.09638
# Poissons Ratio (z) = 0.24214 0.14376
#
# Static dielectric constant tensor:
#      x y z
#    x 1.971440 0.009630 -0.037520 
#    y 0.009630 2.064050 -0.019270 
#    z -0.037520 -0.019270 1.961370 
# 
# From -- ./inp_files/90396.got.cif
#   From: 2010.05.17/outbox.cif.g08.bks.cpg/sg2_46_cif.got.tgz:90396.got - 2010.06.03 11:33:40.
