data_PCOD9042633
_publ_section_title
;
Structure prediction by ZEFSAII (Michael W. Deem and Ramdas Pophale) SiO2 
 PCOD9042633
Probable space group: P -1
;
_chemical_formula_sum "Si O2"
_cell_formula_units_Z 16
_cell_length_a 10.047270
_cell_length_b 11.018710
_cell_length_c 17.004386
_cell_angle_alpha 149.659721
_cell_angle_beta 45.783331
_cell_angle_gamma 122.966424
_cell_volume 672.820198
_symmetry_space_group_name_H-M "P -1"
_symmetry_group_IT_number 2
_symmetry_cell_setting 'triclinic'
loop_
_space_group_symop_operation_xyz
x,y,z
-x,-y,-z
loop_
_atom_site_type_symbol
_atom_site_label
_atom_site_fract_x
_atom_site_fract_y
_atom_site_fract_z
Si Si1 0.130292 0.883010 0.580892
Si Si2 0.300975 0.491113 0.035088
Si Si3 0.782793 0.618694 0.159134
Si Si4 0.439666 0.511278 0.322051
Si Si5 0.830339 0.847068 0.977136
Si Si6 0.493264 0.749277 0.595927
Si Si7 0.143784 0.039064 0.396103
Si Si8 0.864892 0.747568 0.723296
O O1 0.304393 0.671656 0.404684
O O2 0.994961 0.936944 0.743755
O O3 0.215298 0.121029 0.655855
O O4 0.979069 0.827208 0.548445
O O5 0.232399 0.763214 0.183391
O O6 0.500000 0.500000 0.000000
O O7 0.302180 0.335473 0.867992
O O8 0.169992 0.382893 0.092693
O O9 0.649345 0.466549 0.177377
O O10 0.000000 0.500000 0.000000
O O11 0.432993 0.682145 0.496352
O O12 0.336662 0.276978 0.246257
O O13 0.647536 0.033967 0.184484
O O14 0.830782 0.774116 0.844768
O O15 0.000000 0.000000 0.000000
O O16 0.500000 0.500000 0.500000
O O17 0.697680 0.822791 0.558340
O O18 0.000000 0.000000 0.500000
O O19 0.000000 0.500000 0.500000
#
# Coordination Sequence:
#
# PCOD9042633 Si02
#       8
#     2   2   2   2   2   2   2   2
#     4  11  24  46  70 104 143 188 240 291 370 445
#     4  12  26  47  73 106 148 189 250 306 374 443
#     4  12  25  44  68 106 143 182 241 303 365 430
#     4  11  25  46  75 102 146 197 240 298 369 445
#     4  12  26  46  78 108 146 198 248 304 372 446
#     4  12  28  50  72 111 151 196 253 310 370 441
#     4  12  28  45  73 109 149 192 244 313 373 433
#     4  10  23  44  73 106 141 189 246 299 361 441
#
# _framework density 23.780498000000001
#
# number of rings (size 3 to 8) (size 9 to 14) (size 15 to 20)
#    0.000    0.500    2.500    5.625    7.000    1.000 
#    0.000    1.875    0.000    0.000    0.000    0.000 
#    0.000    0.000    0.000    0.000    0.000    0.000 
#
# Total GULP energy -89499.815918 kJ/mol
# GULP energy per Si atom -5593.738495 kJ/mol
# Density = 2.372637 g / cm^3
# Si number density = 23.780498 Si / 1000 Ang^3
#
#
#
# Elastic Constant Matrix: (Units=GPa)
#
#
# Indices 1 2 3 4 5 6 
#
# 1 145.5539 32.3736 36.9339 -12.8706 12.6772 20.5746
# 2 32.3736 127.2076 10.6927 -16.3128 2.9917 32.2091
# 3 36.9339 10.6927 73.5714 -12.0161 3.4407 0.4236
# 4 -12.8706 -16.3128 -12.0161 46.7435 -4.0313 1.4081
# 5 12.6772 2.9917 3.4407 -4.0313 46.3501 -2.1448
# 6 20.5746 32.2091 0.4236 1.4081 -2.1448 53.4970
#
#
#
# Elastic Compliance Matrix: (Units=1/GPa)
#
#
# Indices 1 2 3 4 5 6 
#
# 1 0.008774 -0.001007 -0.003990 0.000944 -0.002088 -0.002845
# 2 -0.001007 0.010032 -0.000369 0.003274 -0.000326 -0.005749
# 3 -0.003990 -0.000369 0.016100 0.002885 0.000243 0.001563
# 4 0.000944 0.003274 0.002885 0.023733 0.001245 -0.002932
# 5 -0.002088 -0.000326 0.000243 0.001245 0.022343 0.001860
# 6 -0.002845 -0.005749 0.001563 -0.002932 0.001860 0.023387
#
#
# Mechanical properties :
#
#
# Convention : Reuss Voigt Hill
#
# Bulk Modulus (GPa) = 41.36918 56.25925 48.81422
# Shear Modulus (GPa) = 40.59741 47.07364 43.83553
#
# Velocity S-wave (km/s) = 4.13628 4.45399 4.29807
# Velocity P-wave (km/s) = 6.34395 7.08236 6.72330
#
# Compressibility (1/GPa) = 0.02417259
#
# Stress axis : x y z
#
# Youngs Moduli (GPa) = 113.96850 99.68545 62.11225
#
# Poissons Ratio (x) = 0.10038 0.24784
# Poissons Ratio (y) = 0.11476 0.02295
# Poissons Ratio (z) = 0.45476 0.03683
#
# Static dielectric constant tensor:
#      x y z
#    x 1.840940 0.074220 0.173640 
#    y 0.074220 1.809750 -0.271110 
#    z 0.173640 -0.271110 1.434200 
# 
# From -- ./inp_files/560121.got.cif
#   From: 2010.05.17/outbox.cif.g08.bks.cpg/sg2_281_cif.got.tgz:560121.got - 2010.06.03 11:33:40.
