data_PCOD9042323
_publ_section_title
;
Structure prediction by ZEFSAII (Michael W. Deem and Ramdas Pophale) SiO2 
 PCOD9042323
Probable space group: P -1
;
_chemical_formula_sum "Si O2"
_cell_formula_units_Z 16
_cell_length_a 5.506057
_cell_length_b 6.884119
_cell_length_c 27.622027
_cell_angle_alpha 138.895034
_cell_angle_beta 93.748822
_cell_angle_gamma 87.164379
_cell_volume 686.864101
_symmetry_space_group_name_H-M "P -1"
_symmetry_group_IT_number 2
_symmetry_cell_setting 'triclinic'
loop_
_space_group_symop_operation_xyz
x,y,z
-x,-y,-z
loop_
_atom_site_type_symbol
_atom_site_label
_atom_site_fract_x
_atom_site_fract_y
_atom_site_fract_z
Si Si1 0.294968 0.232517 0.587308
Si Si2 0.138717 0.742073 0.831720
Si Si3 0.765421 0.588299 0.044629
Si Si4 0.370335 0.208787 0.689208
Si Si5 0.017989 0.797255 0.662927
Si Si6 0.770779 0.353297 0.801524
Si Si7 0.438848 0.678020 0.919523
Si Si8 0.632166 0.406428 0.533983
O O1 0.452436 0.222636 0.637262
O O2 0.443817 0.307251 0.554722
O O3 0.110401 0.507273 0.637929
O O4 0.201485 0.892653 0.523385
O O5 0.193053 0.491016 0.746538
O O6 0.328323 0.704352 0.870539
O O7 0.886852 0.652658 0.837158
O O8 0.190845 0.070523 0.878519
O O9 0.759768 0.431466 0.066353
O O10 0.500000 0.500000 0.000000
O O11 0.000000 0.500000 0.000000
O O12 0.576654 0.249250 0.739429
O O13 0.214624 0.926655 0.651645
O O14 0.790912 0.676599 0.606486
O O15 0.956243 0.075389 0.749517
O O16 0.654380 0.441109 0.868124
O O17 0.500000 0.000000 0.000000
O O18 0.500000 0.500000 0.500000
#
# Coordination Sequence:
#
# PCOD9042323 Si02
#       8
#     2   2   2   2   2   2   2   2
#     4  11  24  42  67 101 135 181 230 289 353 423
#     4  10  24  43  68  99 132 184 229 296 360 432
#     4  12  27  44  69 105 140 184 239 301 364 444
#     4  10  24  45  65  95 137 178 233 291 350 433
#     4  11  23  43  67  99 135 179 230 286 359 419
#     4  10  23  44  70  96 138 186 232 295 364 429
#     4  11  23  44  71  98 139 180 234 292 364 431
#     4  11  25  43  68  99 140 181 231 288 351 425
#
# _framework density 23.294274000000001
#
# number of rings (size 3 to 8) (size 9 to 14) (size 15 to 20)
#    0.000    1.250    1.250    3.375    3.500   11.000 
#    0.000    1.250    0.000    0.000    0.000    0.000 
#    0.000    0.000    0.000    0.000    0.000    0.000 
#
# Total GULP energy -89298.618432 kJ/mol
# GULP energy per Si atom -5581.163652 kJ/mol
# Density = 2.324126 g / cm^3
# Si number density = 23.294274 Si / 1000 Ang^3
#
#
#
# Elastic Constant Matrix: (Units=GPa)
#
#
# Indices 1 2 3 4 5 6 
#
# 1 70.7196 25.9583 28.3241 11.3141 2.6741 8.8533
# 2 25.9583 133.1168 70.8092 21.7125 -9.4552 5.0536
# 3 28.3241 70.8092 114.6886 11.7108 -2.0091 5.0098
# 4 11.3141 21.7125 11.7108 45.4488 11.3514 8.8542
# 5 2.6741 -9.4552 -2.0091 11.3514 38.1743 2.8865
# 6 8.8533 5.0536 5.0098 8.8542 2.8865 31.8445
#
#
#
# Elastic Compliance Matrix: (Units=1/GPa)
#
#
# Indices 1 2 3 4 5 6 
#
# 1 0.016549 -0.001263 -0.002983 -0.001896 -0.000813 -0.003330
# 2 -0.001263 0.012510 -0.006840 -0.005063 0.004298 0.000460
# 3 -0.002983 -0.006840 0.013593 0.000825 -0.000988 -0.000364
# 4 -0.001896 -0.005063 0.000825 0.028051 -0.008982 -0.005785
# 5 -0.000813 0.004298 -0.000988 -0.008982 0.029975 -0.000520
# 6 -0.003330 0.000460 -0.000364 -0.005785 -0.000520 0.033968
#
#
# Mechanical properties :
#
#
# Convention : Reuss Voigt Hill
#
# Bulk Modulus (GPa) = 48.82242 63.18981 56.00611
# Shear Modulus (GPa) = 30.55375 35.98909 33.27142
#
# Velocity S-wave (km/s) = 3.62559 3.93488 3.78340
# Velocity P-wave (km/s) = 6.20733 6.91593 6.57119
#
# Compressibility (1/GPa) = 0.02048239
#
# Stress axis : x y z
#
# Youngs Moduli (GPa) = 60.42488 79.93305 73.56588
#
# Poissons Ratio (x) = 0.10093 0.21943
# Poissons Ratio (y) = 0.07630 0.50319
# Poissons Ratio (z) = 0.18023 0.54674
#
# Static dielectric constant tensor:
#      x y z
#    x 1.907990 -0.030970 -0.057940 
#    y -0.030970 1.813580 0.008710 
#    z -0.057940 0.008710 1.962980 
# 
# From -- ./inp_files/614998.got.cif
#   From: 2010.05.17/outbox.cif.g08.bks.cpg/sg2_308_cif.got.tgz:614998.got - 2010.06.03 11:33:40.
