data_PCOD9042959
_publ_section_title
;
Structure prediction by ZEFSAII (Michael W. Deem and Ramdas Pophale) SiO2 
 PCOD9042959
Probable space group: P -1
;
_chemical_formula_sum "Si O2"
_cell_formula_units_Z 14
_cell_length_a 6.521054
_cell_length_b 6.540346
_cell_length_c 20.899530
_cell_angle_alpha 83.756478
_cell_angle_beta 53.763753
_cell_angle_gamma 110.076234
_cell_volume 615.483125
_symmetry_space_group_name_H-M "P -1"
_symmetry_group_IT_number 2
_symmetry_cell_setting 'triclinic'
loop_
_space_group_symop_operation_xyz
x,y,z
-x,-y,-z
loop_
_atom_site_type_symbol
_atom_site_label
_atom_site_fract_x
_atom_site_fract_y
_atom_site_fract_z
Si Si1 0.309096 0.871068 0.977040
Si Si2 0.623095 0.283578 0.809614
Si Si3 0.047742 0.999076 0.396982
Si Si4 0.870438 0.820520 0.291525
Si Si5 0.797139 0.601452 0.557492
Si Si6 0.376201 0.947556 0.749800
Si Si7 0.665898 0.433495 0.128544
O O1 0.388111 0.704620 0.924127
O O2 0.381590 0.088809 0.909145
O O3 0.970235 0.686465 0.062623
O O4 0.500000 0.000000 0.000000
O O5 0.596509 0.515779 0.811213
O O6 0.923402 0.281171 0.767582
O O7 0.532596 0.177028 0.759306
O O8 0.969982 0.928461 0.340327
O O9 0.823552 0.786384 0.491466
O O10 0.071318 0.241591 0.408084
O O11 0.375633 0.036567 0.344544
O O12 0.535430 0.606102 0.364201
O O13 0.873677 0.023850 0.239589
O O14 0.000000 0.500000 0.500000
O O15 0.297216 0.725585 0.818382
#
# Coordination Sequence:
#
# PCOD9042959 Si02
#       7
#     2   2   2   2   2   2   2
#     4  10  23  45  69 103 131 182 232 273 339 411
#     4  10  24  45  69 103 137 176 233 279 337 410
#     4  10  24  45  65 103 133 177 235 275 336 409
#     4  11  24  47  71 100 139 182 224 283 344 404
#     4  11  23  45  70  96 140 181 224 286 335 399
#     4  10  23  45  67 103 139 176 229 282 338 405
#     4  10  23  47  70  96 143 177 219 295 332 394
#
# _framework density 22.746359000000002
#
# number of rings (size 3 to 8) (size 9 to 14) (size 15 to 20)
#    0.000    1.714    1.429    0.857    4.000    1.143 
#   18.000    0.000    0.000    0.000    0.000    0.000 
#    0.000    0.000    0.000    0.000    0.000    0.000 
#
# Total GULP energy -78281.250174 kJ/mol
# GULP energy per Si atom -5591.517870 kJ/mol
# Density = 2.269459 g / cm^3
# Si number density = 22.746359 Si / 1000 Ang^3
#
#
#
# Elastic Constant Matrix: (Units=GPa)
#
#
# Indices 1 2 3 4 5 6 
#
# 1 115.8547 85.7499 55.0462 2.9483 -9.3908 -17.7172
# 2 85.7499 151.8633 58.4283 14.2364 -9.8558 -6.8496
# 3 55.0462 58.4283 104.5505 -4.8819 -11.1124 -10.0317
# 4 2.9483 14.2364 -4.8819 31.4137 12.1882 -8.0014
# 5 -9.3908 -9.8558 -11.1124 12.1882 30.4467 4.5206
# 6 -17.7172 -6.8496 -10.0317 -8.0014 4.5206 38.5798
#
#
#
# Elastic Compliance Matrix: (Units=1/GPa)
#
#
# Indices 1 2 3 4 5 6 
#
# 1 0.017619 -0.008639 -0.003777 0.003811 -0.001233 0.006510
# 2 -0.008639 0.013770 -0.003524 -0.009122 0.004886 -0.004903
# 3 -0.003777 -0.003524 0.014008 0.004376 0.000743 0.002103
# 4 0.003811 -0.009122 0.004376 0.048137 -0.021495 0.013771
# 5 -0.001233 0.004886 0.000743 -0.021495 0.044280 -0.009152
# 6 0.006510 -0.004903 0.002103 0.013771 -0.009152 0.032515
#
#
# Mechanical properties :
#
#
# Convention : Reuss Voigt Hill
#
# Bulk Modulus (GPa) = 73.98231 85.63526 79.80879
# Shear Modulus (GPa) = 24.18810 31.62432 27.90621
#
# Velocity S-wave (km/s) = 3.26449 3.73272 3.50643
# Velocity P-wave (km/s) = 6.84140 7.50381 7.18025
#
# Compressibility (1/GPa) = 0.01351675
#
# Stress axis : x y z
#
# Youngs Moduli (GPa) = 56.75737 72.62264 71.38960
#
# Poissons Ratio (x) = 0.62739 0.26963
# Poissons Ratio (y) = 0.49033 0.25157
# Poissons Ratio (z) = 0.21436 0.25591
#
# Static dielectric constant tensor:
#      x y z
#    x 1.872880 -0.019200 0.002940 
#    y -0.019200 1.857900 -0.009700 
#    z 0.002940 -0.009700 1.861800 
# 
# From -- ./inp_files/580988.got.cif
#   From: 2010.05.17/outbox.cif.g08.bks.cpg/sg2_291_cif.got.tgz:580988.got - 2010.06.03 11:33:40.
