data_PCOD9042266
_publ_section_title
;
Structure prediction by ZEFSAII (Michael W. Deem and Ramdas Pophale) SiO2 
 PCOD9042266
Probable space group: P -1
;
_chemical_formula_sum "Si O2"
_cell_formula_units_Z 14
_cell_length_a 15.489147
_cell_length_b 11.373236
_cell_length_c 4.990519
_cell_angle_alpha 69.998080
_cell_angle_beta 90.212327
_cell_angle_gamma 45.644730
_cell_volume 550.755020
_symmetry_space_group_name_H-M "P -1"
_symmetry_group_IT_number 2
_symmetry_cell_setting 'triclinic'
loop_
_space_group_symop_operation_xyz
x,y,z
-x,-y,-z
loop_
_atom_site_type_symbol
_atom_site_label
_atom_site_fract_x
_atom_site_fract_y
_atom_site_fract_z
Si Si1 0.266847 0.942095 0.064657
Si Si2 0.502027 0.615336 0.615176
Si Si3 0.000646 0.794666 0.869513
Si Si4 0.234157 0.364853 0.129091
Si Si5 0.647199 0.887222 0.151918
Si Si6 0.843257 0.141867 0.222301
Si Si7 0.350865 0.485015 0.786815
O O1 0.118901 0.117220 0.018621
O O2 0.358575 0.823741 0.414657
O O3 0.334036 0.985988 0.882625
O O4 0.258021 0.824282 0.984391
O O5 0.500000 0.500000 0.500000
O O6 0.546551 0.570281 0.955064
O O7 0.603447 0.585305 0.459582
O O8 0.088266 0.816161 0.963269
O O9 0.091145 0.578205 0.983316
O O10 0.939168 0.933304 0.504298
O O11 0.291078 0.257241 0.493113
O O12 0.314073 0.393170 0.983672
O O13 0.262283 0.227908 0.018789
O O14 0.500000 0.000000 0.000000
O O15 0.769799 0.290858 0.349528
#
# Coordination Sequence:
#
# PCOD9042266 Si02
#       7
#     2   2   2   2   2   2   2
#     4  12  26  41  73  99 145 181 232 291 347 413
#     4  12  24  40  67 108 142 176 228 286 358 421
#     4  10  25  45  71 102 140 183 234 284 352 416
#     4  11  26  49  73  99 138 189 235 285 338 412
#     4  12  28  50  73 104 139 184 237 289 344 409
#     4  10  23  44  70 104 140 181 229 293 352 416
#     4  11  23  44  70 101 141 182 232 289 353 412
#
# _framework density 25.419649
#
# number of rings (size 3 to 8) (size 9 to 14) (size 15 to 20)
#    0.000    0.857    1.429    4.714    6.000    1.143 
#    0.000    0.000    0.000    0.000    0.000    0.000 
#    0.000    0.000    0.000    0.000    0.000    0.000 
#
# Total GULP energy -78332.480445 kJ/mol
# GULP energy per Si atom -5595.177175 kJ/mol
# Density = 2.536179 g / cm^3
# Si number density = 25.419649 Si / 1000 Ang^3
#
#
#
# Elastic Constant Matrix: (Units=GPa)
#
#
# Indices 1 2 3 4 5 6 
#
# 1 126.9150 28.2051 7.1359 -0.0275 -4.2283 -7.7070
# 2 28.2051 133.3196 41.5789 -4.2166 16.5378 -9.7167
# 3 7.1359 41.5789 126.5917 -2.5327 12.7552 -7.6845
# 4 -0.0275 -4.2166 -2.5327 43.2701 -1.6536 0.6966
# 5 -4.2283 16.5378 12.7552 -1.6536 31.5122 0.7349
# 6 -7.7070 -9.7167 -7.6845 0.6966 0.7349 39.8087
#
#
#
# Elastic Compliance Matrix: (Units=1/GPa)
#
#
# Indices 1 2 3 4 5 6 
#
# 1 0.008458 -0.001984 0.000026 -0.000123 0.002133 0.001121
# 2 -0.001984 0.009323 -0.002427 0.000581 -0.004181 0.001490
# 3 0.000026 -0.002427 0.009012 0.000180 -0.002389 0.001193
# 4 -0.000123 0.000581 0.000180 0.023214 0.000830 -0.000269
# 5 0.002133 -0.004181 -0.002389 0.000830 0.035265 -0.001734
# 6 0.001121 0.001490 0.001193 -0.000269 -0.001734 0.025968
#
#
# Mechanical properties :
#
#
# Convention : Reuss Voigt Hill
#
# Bulk Modulus (GPa) = 55.48858 60.07401 57.78130
# Shear Modulus (GPa) = 39.67689 43.57863 41.62776
#
# Velocity S-wave (km/s) = 3.95508 4.14498 4.05114
# Velocity P-wave (km/s) = 6.53707 6.82584 6.68301
#
# Compressibility (1/GPa) = 0.01802173
#
# Stress axis : x y z
#
# Youngs Moduli (GPa) = 118.23258 107.26094 110.96504
#
# Poissons Ratio (x) = 0.21282 -0.00284
# Poissons Ratio (y) = 0.23459 0.26931
# Poissons Ratio (z) = -0.00302 0.26032
#
# Static dielectric constant tensor:
#      x y z
#    x 2.196460 -0.008860 -0.025340 
#    y -0.008860 2.054850 -0.026590 
#    z -0.025340 -0.026590 1.962190 
# 
# From -- ./inp_files/68454.got.cif
#   From: 2010.05.17/outbox.cif.g08.bks.cpg/sg2_35_cif.got.tgz:68454.got - 2010.06.03 11:33:40.
