data_PCOD9042656
_publ_section_title
;
Structure prediction by ZEFSAII (Michael W. Deem and Ramdas Pophale) SiO2 
 PCOD9042656
Probable space group: P -1
;
_chemical_formula_sum "Si O2"
_cell_formula_units_Z 14
_cell_length_a 21.856555
_cell_length_b 4.841319
_cell_length_c 7.097495
_cell_angle_alpha 110.133748
_cell_angle_beta 51.936917
_cell_angle_gamma 112.463364
_cell_volume 540.309656
_symmetry_space_group_name_H-M "P -1"
_symmetry_group_IT_number 2
_symmetry_cell_setting 'triclinic'
loop_
_space_group_symop_operation_xyz
x,y,z
-x,-y,-z
loop_
_atom_site_type_symbol
_atom_site_label
_atom_site_fract_x
_atom_site_fract_y
_atom_site_fract_z
Si Si1 0.830160 0.163729 0.735516
Si Si2 0.422271 0.281047 0.008103
Si Si3 0.730960 0.017240 0.523079
Si Si4 0.953547 0.655039 0.845917
Si Si5 0.065521 0.263045 0.676208
Si Si6 0.718311 0.393326 0.276653
Si Si7 0.426409 0.638327 0.725507
O O1 0.609342 0.545067 0.062455
O O2 0.867500 0.868907 0.586692
O O3 0.758949 0.183655 0.017600
O O4 0.793501 0.176114 0.599594
O O5 0.350165 0.150332 0.256424
O O6 0.500000 0.500000 0.000000
O O7 0.450611 0.989655 0.810614
O O8 0.913166 0.660513 0.128099
O O9 0.713179 0.249123 0.458357
O O10 0.760544 0.748096 0.296896
O O11 0.032649 0.533822 0.715782
O O12 0.986635 0.985413 0.775404
O O13 0.898103 0.431523 0.757425
O O14 0.635271 0.395084 0.334809
O O15 0.500000 0.500000 0.500000
#
# Coordination Sequence:
#
# PCOD9042656 Si02
#       7
#     2   2   2   2   2   2   2
#     4  12  26  48  78 106 158 204 258 306 400 442
#     4  12  26  50  80 113 152 201 260 327 395 467
#     4  12  29  50  75 112 157 200 260 320 384 465
#     4  10  23  44  73 112 148 196 257 311 375 455
#     4  10  23  44  73 112 148 196 257 311 375 455
#     4  12  29  50  75 112 157 200 260 320 384 465
#     4  12  26  50  80 113 152 201 260 327 395 467
#
# _framework density 25.911066999999999
#
# number of rings (size 3 to 8) (size 9 to 14) (size 15 to 20)
#    0.000    0.571    1.429    5.143    0.000   10.286 
#    0.000    0.000    0.000    0.000    0.000    0.000 
#    0.000    0.000    0.000    0.000    0.000    0.000 
#
# Total GULP energy -78581.893407 kJ/mol
# GULP energy per Si atom -5612.992386 kJ/mol
# Density = 2.585209 g / cm^3
# Si number density = 25.911067 Si / 1000 Ang^3
#
#
#
# Elastic Constant Matrix: (Units=GPa)
#
#
# Indices 1 2 3 4 5 6 
#
# 1 200.8359 70.3629 60.4629 12.9809 2.5480 4.3869
# 2 70.3629 140.4643 22.6921 12.1172 16.9732 8.1371
# 3 60.4629 22.6921 89.5114 35.5757 2.8684 -5.9557
# 4 12.9809 12.1172 35.5757 43.7671 -0.6907 15.5604
# 5 2.5480 16.9732 2.8684 -0.6907 40.5394 1.4042
# 6 4.3869 8.1371 -5.9557 15.5604 1.4042 55.3836
#
#
#
# Elastic Compliance Matrix: (Units=1/GPa)
#
#
# Indices 1 2 3 4 5 6 
#
# 1 0.007829 -0.003333 -0.006499 0.004684 0.001519 -0.002184
# 2 -0.003333 0.009313 0.000903 -0.002288 -0.003783 -0.000268
# 3 -0.006499 0.000903 0.024615 -0.021627 -0.002397 0.009166
# 4 0.004684 -0.002288 -0.021627 0.045103 0.003486 -0.015121
# 5 0.001519 -0.003783 -0.002397 0.003486 0.026436 -0.001472
# 6 -0.002184 -0.000268 0.009166 -0.015121 -0.001472 0.023540
#
#
# Mechanical properties :
#
#
# Convention : Reuss Voigt Hill
#
# Bulk Modulus (GPa) = 41.84117 81.98304 61.91210
# Shear Modulus (GPa) = 30.73908 46.42428 38.58168
#
# Velocity S-wave (km/s) = 3.44805 4.23741 3.86295
# Velocity P-wave (km/s) = 5.65996 7.45988 6.62136
#
# Compressibility (1/GPa) = 0.02389991
#
# Stress axis : x y z
#
# Youngs Moduli (GPa) = 127.72783 107.37639 40.62583
#
# Poissons Ratio (x) = 0.35789 0.26402
# Poissons Ratio (y) = 0.42572 -0.03670
# Poissons Ratio (z) = 0.83009 -0.09699
#
# Static dielectric constant tensor:
#      x y z
#    x 1.970130 0.016860 0.022580 
#    y 0.016860 1.988610 -0.002200 
#    z 0.022580 -0.002200 2.156510 
# 
# From -- ./inp_files/339694.got.cif
#   From: 2010.05.17/outbox.cif.g08.bks.cpg/sg2_170_cif.got.tgz:339694.got - 2010.06.03 11:33:40.
