data_PCOD9042766
_publ_section_title
;
Structure prediction by ZEFSAII (Michael W. Deem and Ramdas Pophale) SiO2 
 PCOD9042766
Probable space group: P -1
;
_chemical_formula_sum "Si O2"
_cell_formula_units_Z 14
_cell_length_a 20.965150
_cell_length_b 10.256207
_cell_length_c 18.677624
_cell_angle_alpha 24.318718
_cell_angle_beta 159.658400
_cell_angle_gamma 148.121160
_cell_volume 574.527896
_symmetry_space_group_name_H-M "P -1"
_symmetry_group_IT_number 2
_symmetry_cell_setting 'triclinic'
loop_
_space_group_symop_operation_xyz
x,y,z
-x,-y,-z
loop_
_atom_site_type_symbol
_atom_site_label
_atom_site_fract_x
_atom_site_fract_y
_atom_site_fract_z
Si Si1 0.710856 0.884410 0.079654
Si Si2 0.474560 0.586141 0.089980
Si Si3 0.959372 0.256622 0.264622
Si Si4 0.520123 0.769631 0.443745
Si Si5 0.664500 0.431491 0.507767
Si Si6 0.209662 0.791019 0.459626
Si Si7 0.162729 0.257968 0.990761
O O1 0.531660 0.843237 0.963597
O O2 0.802810 0.531486 0.347250
O O3 0.842521 0.102423 0.155621
O O4 0.637476 0.983905 0.875474
O O5 0.559262 0.630294 0.235661
O O6 0.600652 0.286658 0.345042
O O7 0.268776 0.492106 0.932322
O O8 0.860901 0.552807 0.054594
O O9 0.151402 0.384085 0.374659
O O10 0.000000 0.000000 0.500000
O O11 0.500000 0.500000 0.500000
O O12 0.464405 0.627814 0.531528
O O13 0.725999 0.898060 0.589700
O O14 0.726050 0.076508 0.723342
O O15 0.035604 0.807350 0.217673
#
# Coordination Sequence:
#
# PCOD9042766 Si02
#       7
#     2   2   2   2   2   2   2
#     4  10  24  49  69  97 152 187 227 293 343 434
#     4  10  23  44  76 104 136 186 242 282 353 420
#     4  12  23  44  73 113 142 172 242 294 349 417
#     4  12  29  48  69 101 148 191 233 297 354 415
#     4  12  25  45  70 108 144 184 241 289 354 421
#     4  10  23  50  71 101 144 186 237 286 355 419
#     4  12  24  41  81 109 138 186 230 308 350 405
#
# _framework density 24.367830999999999
#
# number of rings (size 3 to 8) (size 9 to 14) (size 15 to 20)
#    0.857    0.000    5.714    1.286    4.000    2.286 
#    0.000    1.429    0.000    0.000    0.000    0.000 
#    0.000    0.000    0.000    0.000    0.000    0.000 
#
# Total GULP energy -78270.023111 kJ/mol
# GULP energy per Si atom -5590.715937 kJ/mol
# Density = 2.431237 g / cm^3
# Si number density = 24.367831 Si / 1000 Ang^3
#
#
#
# Elastic Constant Matrix: (Units=GPa)
#
#
# Indices 1 2 3 4 5 6 
#
# 1 31.1509 13.9143 20.6207 11.8360 -3.8699 -3.8909
# 2 13.9143 146.7958 30.5908 38.7070 5.9214 -7.9546
# 3 20.6207 30.5908 77.0450 20.0653 -10.9820 -6.3674
# 4 11.8360 38.7070 20.0653 56.6737 -0.5398 -4.6746
# 5 -3.8699 5.9214 -10.9820 -0.5398 31.4204 0.3305
# 6 -3.8909 -7.9546 -6.3674 -4.6746 0.3305 31.1882
#
#
#
# Elastic Compliance Matrix: (Units=1/GPa)
#
#
# Indices 1 2 3 4 5 6 
#
# 1 0.040611 -0.000725 -0.008911 -0.004620 0.001920 0.002350
# 2 -0.000725 0.008845 -0.002310 -0.005017 -0.002660 0.000970
# 3 -0.008911 -0.002310 0.017903 -0.002724 0.005533 0.001487
# 4 -0.004620 -0.005017 -0.002724 0.023085 -0.000190 0.001050
# 5 0.001920 -0.002660 0.005533 -0.000190 0.034492 0.000297
# 6 0.002350 0.000970 0.001487 0.001050 0.000297 0.033062
#
#
# Mechanical properties :
#
#
# Convention : Reuss Voigt Hill
#
# Bulk Modulus (GPa) = 23.00556 42.80482 32.90519
# Shear Modulus (GPa) = 25.46102 36.51419 30.98760
#
# Velocity S-wave (km/s) = 3.23594 3.87519 3.56990
# Velocity P-wave (km/s) = 4.83975 6.13409 5.52496
#
# Compressibility (1/GPa) = 0.04346775
#
# Stress axis : x y z
#
# Youngs Moduli (GPa) = 24.62368 113.05722 55.85746
#
# Poissons Ratio (x) = 0.08191 0.49773
# Poissons Ratio (y) = 0.01784 0.12905
# Poissons Ratio (z) = 0.21942 0.26121
#
# Static dielectric constant tensor:
#      x y z
#    x 1.932240 -0.102110 0.042870 
#    y -0.102110 2.126930 -0.139880 
#    z 0.042870 -0.139880 2.093880 
# 
# From -- ./inp_files/577933.got.cif
#   From: 2010.05.17/outbox.cif.g08.bks.cpg/sg2_289_cif.got.tgz:577933.got - 2010.06.03 11:33:40.
