data_PCOD9042241
_publ_section_title
;
Structure prediction by ZEFSAII (Michael W. Deem and Ramdas Pophale) SiO2 
 PCOD9042241
Probable space group: P -1
;
_chemical_formula_sum "Si O2"
_cell_formula_units_Z 16
_cell_length_a 4.943831
_cell_length_b 5.984910
_cell_length_c 20.946330
_cell_angle_alpha 90.196732
_cell_angle_beta 101.245885
_cell_angle_gamma 85.416290
_cell_volume 605.877074
_symmetry_space_group_name_H-M "P -1"
_symmetry_group_IT_number 2
_symmetry_cell_setting 'triclinic'
loop_
_space_group_symop_operation_xyz
x,y,z
-x,-y,-z
loop_
_atom_site_type_symbol
_atom_site_label
_atom_site_fract_x
_atom_site_fract_y
_atom_site_fract_z
Si Si1 0.896206 0.513104 0.385936
Si Si2 0.391677 0.231643 0.352253
Si Si3 0.925490 0.745172 0.259409
Si Si4 0.274737 0.090708 0.540675
Si Si5 0.119755 0.265745 0.101882
Si Si6 0.365031 0.253752 0.983065
Si Si7 0.631371 0.998606 0.775229
Si Si8 0.363387 0.483446 0.859803
O O1 0.611079 0.413721 0.355479
O O2 0.973840 0.684839 0.334817
O O3 0.818947 0.652316 0.446381
O O4 0.147607 0.320482 0.389757
O O5 0.282470 0.178729 0.276979
O O6 0.577244 0.018329 0.389058
O O7 0.773148 0.558359 0.213910
O O8 0.697610 0.955266 0.242698
O O9 0.210733 0.790475 0.239730
O O10 0.500000 0.000000 0.500000
O O11 0.000000 0.000000 0.500000
O O12 0.125287 0.255502 0.025692
O O13 0.267572 0.066530 0.149753
O O14 0.318636 0.464851 0.127146
O O15 0.815402 0.308619 0.115765
O O16 0.500000 0.500000 0.000000
O O17 0.305525 0.281589 0.905260
O O18 0.500000 0.000000 0.000000
#
# Coordination Sequence:
#
# PCOD9042241 Si02
#       8
#     2   2   2   2   2   2   2   2
#     4  12  26  46  74 104 143 188 233 290 362 428
#     4  12  26  46  74 104 143 188 233 290 362 428
#     4  12  24  42  70 103 143 187 236 297 358 423
#     4  12  28  48  74 106 144 179 236 291 346 432
#     4  11  23  43  66 102 143 188 240 298 361 432
#     4  10  23  44  70 102 144 196 246 308 374 448
#     4  12  24  42  70 103 143 187 236 297 358 423
#     4  11  23  43  66 102 143 188 240 298 361 432
#
# _framework density 26.407999
#
# number of rings (size 3 to 8) (size 9 to 14) (size 15 to 20)
#    0.000    0.500    1.250    7.125    1.750    5.000 
#    0.000    5.625    0.000    0.000    0.000    0.000 
#    0.000    0.000    0.000    0.000    0.000    0.000 
#
# Total GULP energy -89483.953437 kJ/mol
# GULP energy per Si atom -5592.747090 kJ/mol
# Density = 2.634789 g / cm^3
# Si number density = 26.407999 Si / 1000 Ang^3
#
#
#
# Elastic Constant Matrix: (Units=GPa)
#
#
# Indices 1 2 3 4 5 6 
#
# 1 137.0971 36.2880 17.6311 12.2118 -3.5116 -13.1951
# 2 36.2880 91.8428 23.9677 6.4254 -2.1699 -24.2155
# 3 17.6311 23.9677 68.9819 -3.0368 -14.7843 -12.3200
# 4 12.2118 6.4254 -3.0368 54.3863 -6.9426 0.7019
# 5 -3.5116 -2.1699 -14.7843 -6.9426 42.4210 0.5782
# 6 -13.1951 -24.2155 -12.3200 0.7019 0.5782 51.0701
#
#
#
# Elastic Compliance Matrix: (Units=1/GPa)
#
#
# Indices 1 2 3 4 5 6 
#
# 1 0.008370 -0.002725 -0.001186 -0.001649 -0.000138 0.000609
# 2 -0.002725 0.014388 -0.003660 -0.001499 -0.001082 0.005268
# 3 -0.001186 -0.003660 0.017928 0.002481 0.006339 0.002177
# 4 -0.001649 -0.001499 0.002481 0.019577 0.003867 -0.000851
# 5 -0.000138 -0.001082 0.006339 0.003867 0.026340 0.000629
# 6 0.000609 0.005268 0.002177 -0.000851 0.000629 0.022766
#
#
# Mechanical properties :
#
#
# Convention : Reuss Voigt Hill
#
# Bulk Modulus (GPa) = 39.14697 50.41060 44.77878
# Shear Modulus (GPa) = 37.58679 44.24449 40.91564
#
# Velocity S-wave (km/s) = 3.77677 4.09763 3.94047
# Velocity P-wave (km/s) = 5.82020 6.44345 6.13974
#
# Compressibility (1/GPa) = 0.02554476
#
# Stress axis : x y z
#
# Youngs Moduli (GPa) = 119.47713 69.50144 55.77897
#
# Poissons Ratio (x) = 0.18939 0.06615
# Poissons Ratio (y) = 0.32557 0.20413
# Poissons Ratio (z) = 0.14169 0.25435
#
# Static dielectric constant tensor:
#      x y z
#    x 1.968980 -0.016330 -0.005520 
#    y -0.016330 2.142150 0.000720 
#    z -0.005520 0.000720 2.120440 
# 
# From -- ./inp_files/581096.got.cif
#   From: 2010.05.17/outbox.cif.g08.bks.cpg/sg2_291_cif.got.tgz:581096.got - 2010.06.03 11:33:40.
