data_PCOD9042255
_publ_section_title
;
Structure prediction by ZEFSAII (Michael W. Deem and Ramdas Pophale) SiO2 
 PCOD9042255
Probable space group: P -1
;
_chemical_formula_sum "Si O2"
_cell_formula_units_Z 15
_cell_length_a 18.471039
_cell_length_b 20.741448
_cell_length_c 5.132519
_cell_angle_alpha 83.936899
_cell_angle_beta 97.395573
_cell_angle_gamma 160.341505
_cell_volume 655.286329
_symmetry_space_group_name_H-M "P -1"
_symmetry_group_IT_number 2
_symmetry_cell_setting 'triclinic'
loop_
_space_group_symop_operation_xyz
x,y,z
-x,-y,-z
loop_
_atom_site_type_symbol
_atom_site_label
_atom_site_fract_x
_atom_site_fract_y
_atom_site_fract_z
Si Si1 0.468432 0.833971 0.991117
Si Si2 0.608418 0.539188 0.737938
Si Si3 0.815234 0.808136 0.138050
Si Si4 0.471390 0.203049 0.470518
Si Si5 0.879661 0.614678 0.290531
Si Si6 0.000000 0.500000 0.000000
Si Si7 0.014023 0.168591 0.537512
Si Si8 0.906628 0.270265 0.155155
O O1 0.442898 0.763999 0.253864
O O2 0.236616 0.673279 0.917581
O O3 0.660620 0.043912 0.069806
O O4 0.541100 0.856914 0.754339
O O5 0.500000 0.500000 0.500000
O O6 0.390571 0.320989 0.819995
O O7 0.801591 0.659155 0.659322
O O8 0.712412 0.669222 0.956149
O O9 0.932693 0.862297 0.384033
O O10 0.000000 0.000000 0.000000
O O11 0.636710 0.395400 0.361430
O O12 0.239100 0.034810 0.526616
O O13 0.928937 0.732103 0.254436
O O14 0.027677 0.706151 0.547627
O O15 0.944694 0.636676 0.041020
O O16 0.942633 0.376985 0.116287
#
# Coordination Sequence:
#
# PCOD9042255 Si02
#       8
#     2   2   2   2   2   1   2   2
#     4  12  25  47  70 106 138 187 237 298 347 431
#     4   9  22  43  66 100 137 177 227 286 340 430
#     4  10  23  44  70 103 138 177 235 291 339 428
#     4  12  25  45  70 103 145 180 243 290 355 425
#     4  12  25  46  70 102 146 184 235 297 351 427
#     4  12  26  46  78 102 144 192 240 284 382 400
#     4  11  25  41  72  96 140 187 230 285 369 404
#     4  12  25  47  72 103 142 185 237 297 349 430
#
# _framework density 22.890756
#
# number of rings (size 3 to 8) (size 9 to 14) (size 15 to 20)
#    0.000    0.800    5.333    0.400    3.733    8.533 
#    0.000    2.667    0.000    0.000    0.000    0.000 
#    0.000    0.000    0.000    0.000    0.000    0.000 
#
# Total GULP energy -83539.893958 kJ/mol
# GULP energy per Si atom -5569.326264 kJ/mol
# Density = 2.283866 g / cm^3
# Si number density = 22.890756 Si / 1000 Ang^3
#
#
#
# Elastic Constant Matrix: (Units=GPa)
#
#
# Indices 1 2 3 4 5 6 
#
# 1 60.5745 30.6330 4.1344 -4.9625 8.2921 17.8837
# 2 30.6330 142.7584 -21.8234 -25.3235 -14.0468 23.5024
# 3 4.1344 -21.8234 65.6114 -5.8734 -17.8734 5.8055
# 4 -4.9625 -25.3235 -5.8734 29.7708 -11.2825 -5.2112
# 5 8.2921 -14.0468 -17.8734 -11.2825 -9.7261 -17.6888
# 6 17.8837 23.5024 5.8055 -5.2112 -17.6888 43.5503
#
#
#
# Elastic Compliance Matrix: (Units=1/GPa)
#
#
# Indices 1 2 3 4 5 6 
#
# 1 0.016648 -0.001045 0.001865 0.005511 0.009515 -0.001997
# 2 -0.001045 0.008516 0.001777 0.003341 -0.007505 -0.007052
# 3 0.001865 0.001777 0.013487 -0.000856 -0.010453 -0.007871
# 4 0.005511 0.003341 -0.000856 0.028993 -0.018007 -0.007797
# 5 0.009515 -0.007505 -0.010453 -0.018007 -0.024526 -0.010580
# 6 -0.001997 -0.007052 -0.007871 -0.007797 -0.010580 0.023407
#
#
# Mechanical properties :
#
#
# Convention : Reuss Voigt Hill
#
# Bulk Modulus (GPa) = 22.80679 32.75914 27.78297
# Shear Modulus (GPa) = 65.83684 29.78569 47.81126
#
# Velocity S-wave (km/s) = 5.36878 3.61114 4.57516
# Velocity P-wave (km/s) = 6.95821 5.63288 6.33032
#
# Compressibility (1/GPa) = 0.04384660
#
# Stress axis : x y z
#
# Youngs Moduli (GPa) = 60.06616 117.42775 74.14525
#
# Poissons Ratio (x) = 0.12267 -0.13831
# Poissons Ratio (y) = 0.06275 -0.13175
# Poissons Ratio (z) = -0.11205 -0.20866
#
# Static dielectric constant tensor:
#      x y z
#    x 1.836380 -0.018720 0.022130 
#    y -0.018720 1.902600 -0.036660 
#    z 0.022130 -0.036660 1.943690 
# 
# From -- ./inp_files/44451.got.cif
#   From: 2010.05.17/outbox.cif.g08.bks.cpg/sg2_23_cif.got.tgz:44451.got - 2010.06.03 11:33:40.
