data_PCOD9042115
_publ_section_title
;
Structure prediction by ZEFSAII (Michael W. Deem and Ramdas Pophale) SiO2 
 PCOD9042115
Probable space group: P -1
;
_chemical_formula_sum "Si O2"
_cell_formula_units_Z 14
_cell_length_a 9.517013
_cell_length_b 13.658139
_cell_length_c 9.220064
_cell_angle_alpha 60.887525
_cell_angle_beta 150.193429
_cell_angle_gamma 106.345067
_cell_volume 492.376000
_symmetry_space_group_name_H-M "P -1"
_symmetry_group_IT_number 2
_symmetry_cell_setting 'triclinic'
loop_
_space_group_symop_operation_xyz
x,y,z
-x,-y,-z
loop_
_atom_site_type_symbol
_atom_site_label
_atom_site_fract_x
_atom_site_fract_y
_atom_site_fract_z
Si Si1 0.613664 0.660221 0.273222
Si Si2 0.688918 0.440302 0.353741
Si Si3 0.919298 0.836677 0.780718
Si Si4 0.796814 0.892028 0.320687
Si Si5 0.711922 0.608367 0.711765
Si Si6 0.311630 0.901748 0.308979
Si Si7 0.206732 0.777544 0.556894
O O1 0.818247 0.535777 0.475636
O O2 0.741184 0.766863 0.337106
O O3 0.523233 0.635155 0.372163
O O4 0.367259 0.711021 0.892214
O O5 0.469002 0.421006 0.295553
O O6 0.896673 0.313866 0.569448
O O7 0.500000 0.500000 0.000000
O O8 0.974839 0.877852 0.640420
O O9 0.838624 0.715485 0.787376
O O10 0.602917 0.926891 0.492530
O O11 0.194453 0.831063 0.132097
O O12 0.967601 0.895091 0.323330
O O13 0.500000 0.000000 0.000000
O O14 0.000000 0.500000 0.000000
O O15 0.411595 0.820389 0.599859
O O16 0.000000 0.000000 0.000000
#
# Coordination Sequence:
#
# PCOD9042115 Si02
#       7
#     2   2   2   2   2   2   2
#     4  10  26  44  74 103 147 196 254 296 399 439
#     4  10  23  44  69 106 144 186 248 308 387 445
#     4  11  28  48  76 111 151 202 254 308 390 457
#     4  11  27  46  73 106 147 204 257 317 374 461
#     4  11  25  44  74 109 146 198 246 314 375 473
#     4  12  27  49  78 110 151 201 258 319 383 449
#     4  11  26  45  73 105 153 192 251 327 372 458
#
# _framework density 28.433553
#
# number of rings (size 3 to 8) (size 9 to 14) (size 15 to 20)
#    0.000    1.143    1.429    1.714   18.000    1.143 
#    0.000    0.000    0.000    0.000    0.000    0.000 
#    0.000    0.000    0.000    0.000    0.000    0.000 
#
# Total GULP energy -78504.033488 kJ/mol
# GULP energy per Si atom -5607.430963 kJ/mol
# Density = 2.836884 g / cm^3
# Si number density = 28.433553 Si / 1000 Ang^3
#
#
#
# Elastic Constant Matrix: (Units=GPa)
#
#
# Indices 1 2 3 4 5 6 
#
# 1 216.4732 44.9966 67.8677 11.7032 -28.9116 -26.0265
# 2 44.9966 161.8472 33.0555 9.0978 1.5284 -34.4639
# 3 67.8677 33.0555 132.2690 14.6354 -12.8395 -11.3065
# 4 11.7032 9.0978 14.6354 36.9581 -5.0248 9.6898
# 5 -28.9116 1.5284 -12.8395 -5.0248 56.4637 -6.2856
# 6 -26.0265 -34.4639 -11.3065 9.6898 -6.2856 54.8905
#
#
#
# Elastic Compliance Matrix: (Units=1/GPa)
#
#
# Indices 1 2 3 4 5 6 
#
# 1 0.006274 -0.000659 -0.002427 -0.001154 0.002864 0.002593
# 2 -0.000659 0.007717 -0.000939 -0.002628 -0.000465 0.004750
# 3 -0.002427 -0.000939 0.009503 -0.002871 0.000779 0.000813
# 4 -0.001154 -0.002628 -0.002871 0.031469 0.000708 -0.008263
# 5 0.002864 -0.000465 0.000779 0.000708 0.019805 0.003370
# 6 0.002593 0.004750 0.000813 -0.008263 0.003370 0.024442
#
#
# Mechanical properties :
#
#
# Convention : Reuss Voigt Hill
#
# Bulk Modulus (GPa) = 64.74654 89.15880 76.95267
# Shear Modulus (GPa) = 44.48042 53.97377 49.22710
#
# Velocity S-wave (km/s) = 3.95949 4.36161 4.16541
# Velocity P-wave (km/s) = 6.61242 7.53590 7.08921
#
# Compressibility (1/GPa) = 0.01544484
#
# Stress axis : x y z
#
# Youngs Moduli (GPa) = 159.38501 129.58061 105.22801
#
# Poissons Ratio (x) = 0.08534 0.25542
# Poissons Ratio (y) = 0.10497 0.09880
# Poissons Ratio (z) = 0.38687 0.12167
#
# Static dielectric constant tensor:
#      x y z
#    x 2.221400 -0.024640 0.046850 
#    y -0.024640 2.309460 -0.112590 
#    z 0.046850 -0.112590 2.238230 
# 
# From -- ./inp_files/206094.got.cif
#   From: 2010.05.17/outbox.cif.g08.bks.cpg/sg2_104_cif.got.tgz:206094.got - 2010.06.03 11:33:40.
