data_PCOD9042874
_publ_section_title
;
Structure prediction by ZEFSAII (Michael W. Deem and Ramdas Pophale) SiO2 
 PCOD9042874
Probable space group: P -1
;
_chemical_formula_sum "Si O2"
_cell_formula_units_Z 14
_cell_length_a 17.093603
_cell_length_b 8.285285
_cell_length_c 11.221537
_cell_angle_alpha 87.295964
_cell_angle_beta 43.048334
_cell_angle_gamma 120.505837
_cell_volume 657.290278
_symmetry_space_group_name_H-M "P -1"
_symmetry_group_IT_number 2
_symmetry_cell_setting 'triclinic'
loop_
_space_group_symop_operation_xyz
x,y,z
-x,-y,-z
loop_
_atom_site_type_symbol
_atom_site_label
_atom_site_fract_x
_atom_site_fract_y
_atom_site_fract_z
Si Si1 0.880589 0.459410 0.734890
Si Si2 0.532666 0.279145 0.052288
Si Si3 0.161470 0.976182 0.555993
Si Si4 0.483668 0.570166 0.166900
Si Si5 0.795026 0.201597 0.090075
Si Si6 0.454897 0.606283 0.470094
Si Si7 0.064561 0.326493 0.945529
O O1 0.000000 0.500000 0.500000
O O2 0.008122 0.745942 0.639977
O O3 0.689558 0.323819 0.900707
O O4 0.829821 0.292001 0.911770
O O5 0.598365 0.534669 0.009315
O O6 0.335573 0.041773 0.351707
O O7 0.481137 0.248512 0.972073
O O8 0.268279 0.263419 0.401538
O O9 0.073678 0.882674 0.787465
O O10 0.511364 0.644204 0.269037
O O11 0.839360 0.403860 0.117393
O O12 0.587035 0.900624 0.355298
O O13 0.944733 0.234815 0.965556
O O14 0.500000 0.500000 0.500000
O O15 0.234532 0.396468 0.731182
#
# Coordination Sequence:
#
# PCOD9042874 Si02
#       7
#     2   2   2   2   2   2   2
#     4  11  25  39  68  99 122 175 225 257 319 392
#     4   9  22  45  62  92 135 168 210 268 325 380
#     4   9  21  42  65  90 128 171 207 272 319 374
#     4   9  22  43  63  94 129 175 205 268 339 360
#     4  10  25  43  64  94 134 171 213 272 326 373
#     4  12  26  41  69 100 128 170 221 267 321 390
#     4  10  23  45  65  96 130 172 219 263 327 382
#
# _framework density 21.299569999999999
#
# number of rings (size 3 to 8) (size 9 to 14) (size 15 to 20)
#    0.857    1.143    0.000    1.286    8.000    6.857 
#    0.000    0.000    0.000    0.000    0.000    0.000 
#    0.000    0.000    0.000    0.000    0.000    0.000 
#
# Total GULP energy -78151.354674 kJ/mol
# GULP energy per Si atom -5582.239620 kJ/mol
# Density = 2.125109 g / cm^3
# Si number density = 21.299570 Si / 1000 Ang^3
#
#
#
# Elastic Constant Matrix: (Units=GPa)
#
#
# Indices 1 2 3 4 5 6 
#
# 1 129.6785 10.8244 65.5015 33.0862 -2.7793 -7.2836
# 2 10.8244 38.6444 14.0375 -5.3817 9.3393 3.2700
# 3 65.5015 14.0375 94.5805 8.1768 -7.7938 -8.7765
# 4 33.0862 -5.3817 8.1768 34.5470 -3.1416 -0.7576
# 5 -2.7793 9.3393 -7.7938 -3.1416 32.6479 7.0369
# 6 -7.2836 3.2700 -8.7765 -0.7576 7.0369 15.5548
#
#
#
# Elastic Compliance Matrix: (Units=1/GPa)
#
#
# Indices 1 2 3 4 5 6 
#
# 1 0.016621 -0.002838 -0.009747 -0.014179 -0.002145 0.003160
# 2 -0.002838 0.032102 -0.004789 0.007946 -0.008380 -0.006602
# 3 -0.009747 -0.004789 0.018457 0.004724 0.004292 0.005145
# 4 -0.014179 0.007946 0.004724 0.042794 0.002807 -0.004830
# 5 -0.002145 -0.008380 0.004292 0.002807 0.037036 -0.013439
# 6 0.003160 -0.006602 0.005145 -0.004830 -0.013439 0.075904
#
#
# Mechanical properties :
#
#
# Convention : Reuss Voigt Hill
#
# Bulk Modulus (GPa) = 30.83493 49.29222 40.06358
# Shear Modulus (GPa) = 18.62385 28.05262 23.33823
#
# Velocity S-wave (km/s) = 2.96019 3.63306 3.31375
# Velocity P-wave (km/s) = 5.11780 6.38681 5.78720
#
# Compressibility (1/GPa) = 0.03243075
#
# Stress axis : x y z
#
# Youngs Moduli (GPa) = 60.16573 31.15064 54.18040
#
# Poissons Ratio (x) = 0.08842 0.52811
# Poissons Ratio (y) = 0.17077 0.25947
# Poissons Ratio (z) = 0.58645 0.14918
#
# Static dielectric constant tensor:
#      x y z
#    x 1.743320 0.007610 -0.001840 
#    y 0.007610 1.818850 -0.016900 
#    z -0.001840 -0.016900 1.767970 
# 
# From -- ./inp_files/460544.got.cif
#   From: 2010.05.17/outbox.cif.g08.bks.cpg/sg2_231_cif.got.tgz:460544.got - 2010.06.03 11:33:40.
