data_PCOD9042602
_publ_section_title
;
Structure prediction by ZEFSAII (Michael W. Deem and Ramdas Pophale) SiO2 
 PCOD9042602
Probable space group: P -1
;
_chemical_formula_sum "Si O2"
_cell_formula_units_Z 15
_cell_length_a 10.760452
_cell_length_b 11.700406
_cell_length_c 9.660491
_cell_angle_alpha 38.646635
_cell_angle_beta 119.734237
_cell_angle_gamma 108.260975
_cell_volume 653.397695
_symmetry_space_group_name_H-M "P -1"
_symmetry_group_IT_number 2
_symmetry_cell_setting 'triclinic'
loop_
_space_group_symop_operation_xyz
x,y,z
-x,-y,-z
loop_
_atom_site_type_symbol
_atom_site_label
_atom_site_fract_x
_atom_site_fract_y
_atom_site_fract_z
Si Si1 0.299202 0.063492 0.241486
Si Si2 0.626805 0.579772 0.914080
Si Si3 0.607438 0.922785 0.008292
Si Si4 0.002604 0.284714 0.739200
Si Si5 0.850091 0.239110 0.420421
Si Si6 0.560064 0.404184 0.762782
Si Si7 0.170364 0.847005 0.985717
Si Si8 0.000000 0.000000 0.500000
O O1 0.363915 0.213613 0.228241
O O2 0.394298 0.990716 0.228405
O O3 0.152351 0.176451 0.984184
O O4 0.267063 0.896804 0.478635
O O5 0.772188 0.447769 0.165238
O O6 0.500000 0.500000 0.000000
O O7 0.597156 0.541887 0.772334
O O8 0.563044 0.721412 0.143089
O O9 0.500000 0.000000 0.000000
O O10 0.757951 0.969306 0.109970
O O11 0.954964 0.209486 0.637844
O O12 0.878577 0.253285 0.811104
O O13 0.000000 0.500000 0.500000
O O14 0.925178 0.181409 0.372637
O O15 0.500000 0.500000 0.500000
O O16 0.705230 0.275011 0.918257
O O17 0.034449 0.896671 0.765545
#
# Coordination Sequence:
#
# PCOD9042602 Si02
#       8
#     2   2   2   2   2   2   2   1
#     4  12  24  46  76 107 144 196 243 298 384 438
#     4  12  27  47  70 106 146 187 245 308 363 435
#     4  10  23  44  73 102 141 191 246 295 360 441
#     4  12  25  45  75 108 145 196 238 307 372 451
#     4  12  26  48  73 106 151 187 248 309 367 453
#     4  11  26  47  70 105 147 191 242 307 367 442
#     4  11  24  47  75 106 145 192 250 300 381 438
#     4  12  24  46  74 104 148 190 242 312 364 442
#
# _framework density 22.956921999999999
#
# number of rings (size 3 to 8) (size 9 to 14) (size 15 to 20)
#    0.000    0.533    6.667    1.200    3.733    1.600 
#    4.800    2.000    0.000    0.000    0.000    0.000 
#    0.000    0.000    0.000    0.000    0.000    0.000 
#
# Total GULP energy -83577.072260 kJ/mol
# GULP energy per Si atom -5571.804817 kJ/mol
# Density = 2.290467 g / cm^3
# Si number density = 22.956922 Si / 1000 Ang^3
#
#
#
# Elastic Constant Matrix: (Units=GPa)
#
#
# Indices 1 2 3 4 5 6 
#
# 1 69.3897 41.1346 1.7295 7.0151 -14.5532 -8.2924
# 2 41.1346 144.4773 24.4749 22.9366 -26.4806 -16.4276
# 3 1.7295 24.4749 73.5866 18.6843 -3.6253 4.8021
# 4 7.0151 22.9366 18.6843 43.1399 -5.3028 -10.9409
# 5 -14.5532 -26.4806 -3.6253 -5.3028 35.9664 -2.5228
# 6 -8.2924 -16.4276 4.8021 -10.9409 -2.5228 37.3664
#
#
#
# Elastic Compliance Matrix: (Units=1/GPa)
#
#
# Indices 1 2 3 4 5 6 
#
# 1 0.018122 -0.004256 0.001061 -0.000007 0.004467 0.002314
# 2 -0.004256 0.010383 -0.002829 -0.001951 0.005615 0.003791
# 3 0.001061 -0.002829 0.016679 -0.007448 -0.001451 -0.005430
# 4 -0.000007 -0.001951 -0.007448 0.030110 0.002888 0.009109
# 5 0.004467 0.005615 -0.001451 0.002888 0.034504 0.006822
# 6 0.002314 0.003791 -0.005430 0.009109 0.006822 0.032768
#
#
# Mechanical properties :
#
#
# Convention : Reuss Voigt Hill
#
# Bulk Modulus (GPa) = 30.17880 46.90352 38.54116
# Shear Modulus (GPa) = 30.18248 37.96884 34.07566
#
# Velocity S-wave (km/s) = 3.62987 4.07125 3.85688
# Velocity P-wave (km/s) = 5.54458 6.52499 6.05466
#
# Compressibility (1/GPa) = 0.03313584
#
# Stress axis : x y z
#
# Youngs Moduli (GPa) = 55.18078 96.31574 59.95443
#
# Poissons Ratio (x) = 0.40995 -0.06359
# Poissons Ratio (y) = 0.23487 0.16958
# Poissons Ratio (z) = -0.05853 0.27243
#
# Static dielectric constant tensor:
#      x y z
#    x 1.933000 0.006060 0.092520 
#    y 0.006060 1.950450 -0.040730 
#    z 0.092520 -0.040730 1.900320 
# 
# From -- ./inp_files/256139.got.cif
#   From: 2010.05.17/outbox.cif.g08.bks.cpg/sg2_129_cif.got.tgz:256139.got - 2010.06.03 11:33:40.
