data_PCOD9042341
_publ_section_title
;
Structure prediction by ZEFSAII (Michael W. Deem and Ramdas Pophale) SiO2 
 PCOD9042341
Probable space group: P -1
;
_chemical_formula_sum "Si O2"
_cell_formula_units_Z 13
_cell_length_a 8.282785
_cell_length_b 12.038875
_cell_length_c 6.974582
_cell_angle_alpha 111.975796
_cell_angle_beta 78.579737
_cell_angle_gamma 123.645906
_cell_volume 536.860225
_symmetry_space_group_name_H-M "P -1"
_symmetry_group_IT_number 2
_symmetry_cell_setting 'triclinic'
loop_
_space_group_symop_operation_xyz
x,y,z
-x,-y,-z
loop_
_atom_site_type_symbol
_atom_site_label
_atom_site_fract_x
_atom_site_fract_y
_atom_site_fract_z
Si Si1 0.237564 0.795320 0.966921
Si Si2 0.731670 0.844818 0.300566
Si Si3 0.376426 0.571166 0.103110
Si Si4 0.000000 0.000000 0.000000
Si Si5 0.913447 0.596253 0.621409
Si Si6 0.645143 0.884259 0.781836
Si Si7 0.918610 0.660670 0.233008
O O1 0.420309 0.792332 0.838977
O O2 0.059701 0.719243 0.809963
O O3 0.137486 0.725798 0.148712
O O4 0.292677 0.955795 0.076458
O O5 0.522500 0.737714 0.185652
O O6 0.685287 0.878109 0.544039
O O7 0.842407 0.759736 0.241448
O O8 0.874767 0.973385 0.213728
O O9 0.281984 0.510159 0.291706
O O10 0.500000 0.500000 0.000000
O O11 0.210591 0.493969 0.931712
O O12 0.201025 0.130759 0.138451
O O13 0.895143 0.650625 0.457630
O O14 0.000000 0.500000 0.500000
#
# Coordination Sequence:
#
# PCOD9042341 Si02
#       7
#     2   2   2   1   2   2   2
#     4  10  24  45  65 102 139 177 226 280 337 405
#     4  11  24  43  69 102 138 179 227 279 343 402
#     4   9  22  42  64 100 131 171 221 282 339 399
#     4  12  26  42  72 100 134 180 232 278 324 410
#     4  11  24  42  69  97 131 182 228 277 346 401
#     4  11  25  43  68  99 138 184 226 275 338 403
#     4  10  23  44  70  98 139 175 223 288 339 400
#
# _framework density 24.214869
#
# number of rings (size 3 to 8) (size 9 to 14) (size 15 to 20)
#    0.000    1.538    1.538    1.385    2.154    9.846 
#    0.000    3.077    0.000    0.000    0.000    0.000 
#    0.000    0.000    0.000    0.000    0.000    0.000 
#
# Total GULP energy -72487.817786 kJ/mol
# GULP energy per Si atom -5575.985984 kJ/mol
# Density = 2.415975 g / cm^3
# Si number density = 24.214869 Si / 1000 Ang^3
#
#
#
# Elastic Constant Matrix: (Units=GPa)
#
#
# Indices 1 2 3 4 5 6 
#
# 1 78.7642 32.8477 23.1810 -16.4170 -22.7472 21.6267
# 2 32.8477 108.0838 40.9492 -20.7962 -10.5503 41.3859
# 3 23.1810 40.9492 142.2463 -33.9990 -19.1458 16.0375
# 4 -16.4170 -20.7962 -33.9990 46.7343 12.0361 -21.6571
# 5 -22.7472 -10.5503 -19.1458 12.0361 43.6664 -0.7948
# 6 21.6267 41.3859 16.0375 -21.6571 -0.7948 37.8789
#
#
#
# Elastic Compliance Matrix: (Units=1/GPa)
#
#
# Indices 1 2 3 4 5 6 
#
# 1 0.018349 -0.000943 -0.000709 -0.001378 0.009222 -0.009740
# 2 -0.000943 0.018137 -0.003542 -0.005342 0.003432 -0.020760
# 3 -0.000709 -0.003542 0.009448 0.006650 0.001159 0.004100
# 4 -0.001378 -0.005342 0.006650 0.037199 -0.008893 0.024889
# 5 0.009222 0.003432 0.001159 -0.008893 0.031240 -0.013935
# 6 -0.009740 -0.020760 0.004100 0.024889 -0.013935 0.066845
#
#
# Mechanical properties :
#
#
# Convention : Reuss Voigt Hill
#
# Bulk Modulus (GPa) = 28.13202 58.11666 43.12434
# Shear Modulus (GPa) = 24.57559 41.13036 32.85298
#
# Velocity S-wave (km/s) = 3.18920 4.12583 3.68737
# Velocity P-wave (km/s) = 5.02038 6.83733 5.99806
#
# Compressibility (1/GPa) = 0.03554668
#
# Stress axis : x y z
#
# Youngs Moduli (GPa) = 54.50026 55.13576 105.83849
#
# Poissons Ratio (x) = 0.05201 0.07500
# Poissons Ratio (y) = 0.05142 0.37484
# Poissons Ratio (z) = 0.03862 0.19527
#
# Static dielectric constant tensor:
#      x y z
#    x 2.127110 -0.015280 0.105900 
#    y -0.015280 1.947950 0.003440 
#    z 0.105900 0.003440 1.923110 
# 
# From -- ./inp_files/23762.got.cif
#   From: 2010.05.17/outbox.cif.g08.bks.cpg/sg2_12_cif.got.tgz:23762.got - 2010.06.03 11:33:40.
