data_PCOD9042884
_publ_section_title
;
Structure prediction by ZEFSAII (Michael W. Deem and Ramdas Pophale) SiO2 
 PCOD9042884
Probable space group: P -1
;
_chemical_formula_sum "Si O2"
_cell_formula_units_Z 16
_cell_length_a 12.132806
_cell_length_b 17.853913
_cell_length_c 21.633640
_cell_angle_alpha 160.526935
_cell_angle_beta 30.603617
_cell_angle_gamma 139.708348
_cell_volume 761.854058
_symmetry_space_group_name_H-M "P -1"
_symmetry_group_IT_number 2
_symmetry_cell_setting 'triclinic'
loop_
_space_group_symop_operation_xyz
x,y,z
-x,-y,-z
loop_
_atom_site_type_symbol
_atom_site_label
_atom_site_fract_x
_atom_site_fract_y
_atom_site_fract_z
Si Si1 0.829379 0.884307 0.026134
Si Si2 0.948115 0.600431 0.872971
Si Si3 0.749588 0.597611 0.726992
Si Si4 0.545078 0.133461 0.641961
Si Si5 0.450487 0.260003 0.570990
Si Si6 0.980492 0.818998 0.566068
Si Si7 0.354785 0.228216 0.213349
Si Si8 0.229549 0.641044 0.888957
O O1 0.613271 0.090948 0.311794
O O2 0.940598 0.756046 0.935944
O O3 0.759741 0.711722 0.876979
O O4 0.000000 0.000000 0.000000
O O5 0.060445 0.334367 0.590424
O O6 0.086634 0.647884 0.901525
O O7 0.684165 0.672658 0.076500
O O8 0.604349 0.409376 0.646365
O O9 0.645121 0.793268 0.876985
O O10 0.000000 0.500000 0.500000
O O11 0.751310 0.232597 0.603506
O O12 0.500000 0.000000 0.500000
O O13 0.613982 0.925197 0.497117
O O14 0.241578 0.442223 0.779277
O O15 0.884517 0.730282 0.605566
O O16 0.867839 0.097613 0.832752
O O17 0.503226 0.405193 0.291939
O O18 0.500000 0.000000 0.000000
#
# Coordination Sequence:
#
# PCOD9042884 Si02
#       8
#     2   2   2   2   2   2   2   2
#     4  11  24  37  63  98 131 173 215 272 326 380
#     4  11  25  42  69  99 130 172 222 272 323 396
#     4  11  21  38  63  90 129 168 211 267 321 379
#     4  11  24  44  71  92 128 177 224 275 314 383
#     4  10  25  43  62  99 129 169 224 265 327 390
#     4  11  23  43  67  96 130 174 223 264 328 376
#     4   9  22  37  64  93 128 168 207 255 323 393
#     4  10  23  45  65  98 134 171 214 268 336 394
#
# _framework density 21.001398999999999
#
# number of rings (size 3 to 8) (size 9 to 14) (size 15 to 20)
#    0.000    1.500    2.500    1.125    8.750    4.000 
#    0.000    0.625    0.000    0.000    0.000    0.000 
#    0.000    0.000    0.000    0.000    0.000    0.000 
#
# Total GULP energy -89258.223192 kJ/mol
# GULP energy per Si atom -5578.638949 kJ/mol
# Density = 2.095360 g / cm^3
# Si number density = 21.001399 Si / 1000 Ang^3
#
#
#
# Elastic Constant Matrix: (Units=GPa)
#
#
# Indices 1 2 3 4 5 6 
#
# 1 117.7019 32.9541 59.8835 7.9461 -9.1205 -6.5374
# 2 32.9541 83.8388 30.9054 -25.4950 -1.8814 2.4502
# 3 59.8835 30.9054 115.9273 19.8083 18.1509 -13.6024
# 4 7.9461 -25.4950 19.8083 32.8664 -1.6696 1.3410
# 5 -9.1205 -1.8814 18.1509 -1.6696 27.7919 7.4620
# 6 -6.5374 2.4502 -13.6024 1.3410 7.4620 22.5697
#
#
#
# Elastic Compliance Matrix: (Units=1/GPa)
#
#
# Indices 1 2 3 4 5 6 
#
# 1 0.014942 0.001539 -0.012926 0.006589 0.016379 -0.009436
# 2 0.001539 0.041387 -0.031498 0.054199 0.037512 -0.038653
# 3 -0.012926 -0.031498 0.047155 -0.054453 -0.053614 0.049057
# 4 0.006589 0.054199 -0.054453 0.109668 0.065419 -0.064939
# 5 0.016379 0.037512 -0.053614 0.065419 0.101380 -0.069046
# 6 -0.009436 -0.038653 0.049057 -0.064939 -0.069046 0.102023
#
#
# Mechanical properties :
#
#
# Convention : Reuss Voigt Hill
#
# Bulk Modulus (GPa) = 56.45418 62.77267 59.61343
# Shear Modulus (GPa) = 9.83808 29.56060 19.69934
#
# Velocity S-wave (km/s) = 2.16672 3.75581 3.06600
# Velocity P-wave (km/s) = 5.76186 6.98303 6.40163
#
# Compressibility (1/GPa) = 0.01771348
#
# Stress axis : x y z
#
# Youngs Moduli (GPa) = 66.92554 24.16231 21.20660
#
# Poissons Ratio (x) = -0.03718 0.27412
# Poissons Ratio (y) = -0.10297 0.66796
# Poissons Ratio (z) = 0.86509 0.76106
#
# Static dielectric constant tensor:
#      x y z
#    x 1.810730 -0.007800 -0.028770 
#    y -0.007800 1.835590 -0.009980 
#    z -0.028770 -0.009980 1.783650 
# 
# From -- ./inp_files/451209.got.cif
#   From: 2010.05.17/outbox.cif.g08.bks.cpg/sg2_226_cif.got.tgz:451209.got - 2010.06.03 11:33:40.
