data_PCOD9042592
_publ_section_title
;
Structure prediction by ZEFSAII (Michael W. Deem and Ramdas Pophale) SiO2 
 PCOD9042592
Probable space group: P -1
;
_chemical_formula_sum "Si O2"
_cell_formula_units_Z 16
_cell_length_a 22.699066
_cell_length_b 5.159947
_cell_length_c 7.862991
_cell_angle_alpha 120.090169
_cell_angle_beta 55.171097
_cell_angle_gamma 117.312092
_cell_volume 634.518449
_symmetry_space_group_name_H-M "P -1"
_symmetry_group_IT_number 2
_symmetry_cell_setting 'triclinic'
loop_
_space_group_symop_operation_xyz
x,y,z
-x,-y,-z
loop_
_atom_site_type_symbol
_atom_site_label
_atom_site_fract_x
_atom_site_fract_y
_atom_site_fract_z
Si Si1 0.284563 0.419713 0.786774
Si Si2 0.221026 0.235642 0.198363
Si Si3 0.142266 0.560765 0.980745
Si Si4 0.482702 0.706477 0.308140
Si Si5 0.638678 0.959876 0.989223
Si Si6 0.391632 0.045527 0.345412
Si Si7 0.003392 0.182554 0.231098
Si Si8 0.911705 0.593202 0.352335
O O1 0.213921 0.423722 0.788873
O O2 0.324857 0.155112 0.583206
O O3 0.251991 0.384190 0.018303
O O4 0.341653 0.754601 0.815821
O O5 0.292035 0.192926 0.170476
O O6 0.167959 0.400858 0.442011
O O7 0.172281 0.899231 0.115618
O O8 0.100782 0.555507 0.866343
O O9 0.088426 0.365950 0.148065
O O10 0.454138 0.371045 0.329262
O O11 0.500000 0.000000 0.500000
O O12 0.421496 0.792933 0.314872
O O13 0.560909 0.737115 0.096549
O O14 0.629521 0.064488 0.846948
O O15 0.952449 0.416186 0.356403
O O16 0.965365 0.932406 0.348211
O O17 0.000000 0.000000 0.000000
#
# Coordination Sequence:
#
# PCOD9042592 Si02
#       8
#     2   2   2   2   2   2   2   2
#     4  11  26  44  68  98 142 181 227 287 336 413
#     4  11  27  43  69 100 140 182 228 284 337 414
#     4  10  24  44  67  99 135 182 226 281 349 400
#     4  12  25  47  75 103 140 177 231 287 340 402
#     4  11  26  46  68 103 139 179 234 279 341 411
#     4  12  27  46  75 101 135 188 225 283 346 400
#     4  10  23  44  73 101 135 179 230 285 340 406
#     4  11  25  45  72  99 137 180 230 284 340 409
#
# _framework density 25.215973999999999
#
# number of rings (size 3 to 8) (size 9 to 14) (size 15 to 20)
#    0.000    1.000    1.250    4.125   14.000    2.000 
#    0.000    0.000    0.000    0.000    0.000    0.000 
#    0.000    0.000    0.000    0.000    0.000    0.000 
#
# Total GULP energy -89723.985261 kJ/mol
# GULP energy per Si atom -5607.749079 kJ/mol
# Density = 2.515858 g / cm^3
# Si number density = 25.215974 Si / 1000 Ang^3
#
#
#
# Elastic Constant Matrix: (Units=GPa)
#
#
# Indices 1 2 3 4 5 6 
#
# 1 97.6388 19.4280 21.9777 4.8011 -7.7132 10.8837
# 2 19.4280 79.2591 11.0824 -2.1432 -8.7878 -0.9284
# 3 21.9777 11.0824 122.1778 -3.8993 -21.0663 1.3192
# 4 4.8011 -2.1432 -3.8993 31.1245 -4.8291 -3.4026
# 5 -7.7132 -8.7878 -21.0663 -4.8291 43.4703 -2.2367
# 6 10.8837 -0.9284 1.3192 -3.4026 -2.2367 33.4844
#
#
#
# Elastic Compliance Matrix: (Units=1/GPa)
#
#
# Indices 1 2 3 4 5 6 
#
# 1 0.011812 -0.002738 -0.001898 -0.002680 0.000114 -0.004105
# 2 -0.002738 0.013668 -0.000285 0.001884 0.002432 0.001634
# 3 -0.001898 -0.000285 0.009380 0.002220 0.004437 0.000761
# 4 -0.002680 0.001884 0.002220 0.034238 0.005024 0.004650
# 5 0.000114 0.002432 0.004437 0.005024 0.026334 0.002125
# 6 -0.004105 0.001634 0.000761 0.004650 0.002125 0.031829
#
#
# Mechanical properties :
#
#
# Convention : Reuss Voigt Hill
#
# Bulk Modulus (GPa) = 39.97316 44.89466 42.43391
# Shear Modulus (GPa) = 34.37797 38.05500 36.21648
#
# Velocity S-wave (km/s) = 3.69635 3.88901 3.79390
# Velocity P-wave (km/s) = 5.83987 6.16511 6.00469
#
# Compressibility (1/GPa) = 0.02501679
#
# Stress axis : x y z
#
# Youngs Moduli (GPa) = 84.65820 73.16563 106.61257
#
# Poissons Ratio (x) = 0.20032 0.20236
# Poissons Ratio (y) = 0.23179 0.03043
# Poissons Ratio (z) = 0.16069 0.02088
#
# Static dielectric constant tensor:
#      x y z
#    x 2.001780 0.021180 0.026420 
#    y 0.021180 2.026210 -0.015110 
#    z 0.026420 -0.015110 2.001670 
# 
# From -- ./inp_files/53558.got.cif
#   From: 2010.05.17/outbox.cif.g08.bks.cpg/sg2_27_cif.got.tgz:53558.got - 2010.06.03 11:33:40.
