data_PCOD9042329
_publ_section_title
;
Structure prediction by ZEFSAII (Michael W. Deem and Ramdas Pophale) SiO2 
 PCOD9042329
Probable space group: P -1
;
_chemical_formula_sum "Si O2"
_cell_formula_units_Z 12
_cell_length_a 9.711042
_cell_length_b 7.973987
_cell_length_c 7.160581
_cell_angle_alpha 85.611093
_cell_angle_beta 70.890581
_cell_angle_gamma 118.998233
_cell_volume 439.292713
_symmetry_space_group_name_H-M "P -1"
_symmetry_group_IT_number 2
_symmetry_cell_setting 'triclinic'
loop_
_space_group_symop_operation_xyz
x,y,z
-x,-y,-z
loop_
_atom_site_type_symbol
_atom_site_label
_atom_site_fract_x
_atom_site_fract_y
_atom_site_fract_z
Si Si1 0.201850 0.090560 0.529933
Si Si2 0.838668 0.828236 0.864219
Si Si3 0.086329 0.407661 0.850492
Si Si4 0.446077 0.772778 0.596997
Si Si5 0.157476 0.712722 0.351818
Si Si6 0.518961 0.209972 0.978991
O O1 0.195283 0.897285 0.453632
O O2 0.042500 0.008465 0.747356
O O3 0.384317 0.223723 0.541292
O O4 0.186267 0.205033 0.349465
O O5 0.849082 0.683774 0.017268
O O6 0.659584 0.812768 0.994059
O O7 0.253589 0.589507 0.652360
O O8 0.925079 0.256183 0.802281
O O9 0.000000 0.500000 0.000000
O O10 0.312341 0.680117 0.234026
O O11 0.500000 0.000000 0.500000
O O12 0.448135 0.740112 0.821961
O O13 0.000000 0.500000 0.500000
O O14 0.500000 0.000000 0.000000
#
# Coordination Sequence:
#
# PCOD9042329 Si02
#       6
#     2   2   2   2   2   2
#     4  10  23  44  70  97 136 182 221 279 334 406
#     4  10  23  46  69 100 133 180 230 272 338 404
#     4  12  25  41  68 104 135 177 224 285 331 398
#     4  11  22  41  69 101 134 178 226 271 340 398
#     4  12  24  44  69 102 138 177 224 281 338 395
#     4  11  23  45  71  98 131 185 219 278 336 405
#
# _framework density 27.316637
#
# number of rings (size 3 to 8) (size 9 to 14) (size 15 to 20)
#    0.000    1.000    5.000    3.000    0.000    3.333 
#    3.000    0.833    0.000    0.000    0.000    0.000 
#    0.000    0.000    0.000    0.000    0.000    0.000 
#
# Total GULP energy -67027.197567 kJ/mol
# GULP energy per Si atom -5585.599797 kJ/mol
# Density = 2.725446 g / cm^3
# Si number density = 27.316637 Si / 1000 Ang^3
#
#
#
# Elastic Constant Matrix: (Units=GPa)
#
#
# Indices 1 2 3 4 5 6 
#
# 1 311.1251 66.8284 85.3489 -17.1878 -30.8203 -28.2439
# 2 66.8284 80.9525 52.7534 -6.3648 -2.8173 -24.4751
# 3 85.3489 52.7534 145.4115 -21.1904 -27.4169 -13.1871
# 4 -17.1878 -6.3648 -21.1904 43.4985 1.3287 5.1575
# 5 -30.8203 -2.8173 -27.4169 1.3287 59.5610 -5.1256
# 6 -28.2439 -24.4751 -13.1871 5.1575 -5.1256 52.2808
#
#
#
# Elastic Compliance Matrix: (Units=1/GPa)
#
#
# Indices 1 2 3 4 5 6 
#
# 1 0.004347 -0.002400 -0.001183 0.000617 0.001666 0.001029
# 2 -0.002400 0.019944 -0.005936 -0.001613 -0.002438 0.006463
# 3 -0.001183 -0.005936 0.011007 0.003978 0.004030 -0.000639
# 4 0.000617 -0.001613 0.003978 0.025102 0.001363 -0.001761
# 5 0.001666 -0.002438 0.004030 0.001363 0.019581 0.002560
# 6 0.001029 0.006463 -0.000639 -0.001761 0.002560 0.022973
#
#
# Mechanical properties :
#
#
# Convention : Reuss Voigt Hill
#
# Bulk Modulus (GPa) = 61.50056 105.26116 83.38086
# Shear Modulus (GPa) = 39.24291 53.23861 46.24076
#
# Velocity S-wave (km/s) = 3.79435 4.41947 4.11879
# Velocity P-wave (km/s) = 6.46212 8.04113 7.29447
#
# Compressibility (1/GPa) = 0.01626002
#
# Stress axis : x y z
#
# Youngs Moduli (GPa) = 230.05936 50.13927 90.85380
#
# Poissons Ratio (x) = 0.12031 0.10752
# Poissons Ratio (y) = 0.55204 0.53930
# Poissons Ratio (z) = 0.27227 0.29762
#
# Static dielectric constant tensor:
#      x y z
#    x 2.115970 -0.008200 0.256360 
#    y -0.008200 2.081150 0.109910 
#    z 0.256360 0.109910 1.890010 
# 
# From -- ./inp_files/29246.got.cif
#   From: 2010.05.17/outbox.cif.g08.bks.cpg/sg2_15_cif.got.tgz:29246.got - 2010.06.03 11:33:40.
