data_PCOD9042847
_publ_section_title
;
Structure prediction by ZEFSAII (Michael W. Deem and Ramdas Pophale) SiO2 
 PCOD9042847
Probable space group: P -1
;
_chemical_formula_sum "Si O2"
_cell_formula_units_Z 16
_cell_length_a 8.895794
_cell_length_b 14.606387
_cell_length_c 9.425323
_cell_angle_alpha 68.049767
_cell_angle_beta 140.987720
_cell_angle_gamma 98.732534
_cell_volume 694.590087
_symmetry_space_group_name_H-M "P -1"
_symmetry_group_IT_number 2
_symmetry_cell_setting 'triclinic'
loop_
_space_group_symop_operation_xyz
x,y,z
-x,-y,-z
loop_
_atom_site_type_symbol
_atom_site_label
_atom_site_fract_x
_atom_site_fract_y
_atom_site_fract_z
Si Si1 0.775738 0.939932 0.707640
Si Si2 0.166316 0.238862 0.654116
Si Si3 0.891691 0.417405 0.550217
Si Si4 0.991673 0.399550 0.964912
Si Si5 0.013474 0.124051 0.813279
Si Si6 0.629867 0.266934 0.833473
Si Si7 0.991316 0.111488 0.364037
Si Si8 0.455857 0.707001 0.578237
O O1 0.787757 0.898075 0.581592
O O2 0.500000 0.000000 0.500000
O O3 0.883769 0.865753 0.959691
O O4 0.956525 0.016328 0.803524
O O5 0.044423 0.316472 0.642534
O O6 0.228461 0.138646 0.856353
O O7 0.007471 0.197080 0.442810
O O8 0.362672 0.288476 0.694053
O O9 0.000000 0.500000 0.500000
O O10 0.619245 0.395049 0.359184
O O11 0.924053 0.427869 0.735701
O O12 0.252299 0.318292 0.188002
O O13 0.796727 0.347323 0.930028
O O14 0.000000 0.500000 0.000000
O O15 0.738764 0.198875 0.546924
O O16 0.761636 0.161192 0.066086
O O17 0.604340 0.269287 0.644735
O O18 0.000000 0.000000 0.500000
#
# Coordination Sequence:
#
# PCOD9042847 Si02
#       8
#     2   2   2   2   2   2   2   2
#     4  11  25  41  70  97 140 183 246 289 355 425
#     4  11  26  44  70 100 147 182 235 298 358 424
#     4  10  26  46  71 109 143 181 234 300 371 423
#     4  11  27  48  79 106 138 195 247 292 370 440
#     4  10  23  45  65 101 138 190 229 300 359 415
#     4  11  26  44  73 103 146 183 242 298 363 423
#     4  12  26  46  69 108 137 193 243 291 362 427
#     4  10  23  46  72  99 148 184 238 291 358 438
#
# _framework density 23.035167999999999
#
# number of rings (size 3 to 8) (size 9 to 14) (size 15 to 20)
#    0.000    1.250    2.500    0.750   10.500    4.000 
#    0.000    0.000    0.000    0.000    0.000    0.000 
#    0.000    0.000    0.000    0.000    0.000    0.000 
#
# Total GULP energy -89138.655508 kJ/mol
# GULP energy per Si atom -5571.165969 kJ/mol
# Density = 2.298274 g / cm^3
# Si number density = 23.035168 Si / 1000 Ang^3
#
#
#
# Elastic Constant Matrix: (Units=GPa)
#
#
# Indices 1 2 3 4 5 6 
#
# 1 124.5351 30.3301 3.1817 10.9133 -18.3397 23.4358
# 2 30.3301 102.3545 16.2600 16.0215 -11.1660 19.5212
# 3 3.1817 16.2600 26.8837 -1.3908 -6.3821 15.6528
# 4 10.9133 16.0215 -1.3908 20.2176 2.4158 -4.5123
# 5 -18.3397 -11.1660 -6.3821 2.4158 34.3662 -2.0679
# 6 23.4358 19.5212 15.6528 -4.5123 -2.0679 53.3800
#
#
#
# Elastic Compliance Matrix: (Units=1/GPa)
#
#
# Indices 1 2 3 4 5 6 
#
# 1 0.010792 -0.000922 0.003835 -0.006893 0.006304 -0.005864
# 2 -0.000922 0.014052 -0.005895 -0.012347 0.003611 -0.003909
# 3 0.003835 -0.005895 0.050494 0.001967 0.008537 -0.013837
# 4 -0.006893 -0.012347 0.001967 0.067178 -0.011313 0.012205
# 5 0.006304 0.003611 0.008537 -0.011313 0.035645 -0.006167
# 6 -0.005864 -0.003909 -0.013837 0.012205 -0.006167 0.027588
#
#
# Mechanical properties :
#
#
# Convention : Reuss Voigt Hill
#
# Bulk Modulus (GPa) = 14.41495 39.25746 26.83621
# Shear Modulus (GPa) = 21.29109 35.19287 28.24198
#
# Velocity S-wave (km/s) = 3.04351 3.91293 3.50528
# Velocity P-wave (km/s) = 4.31532 6.12325 5.29698
#
# Compressibility (1/GPa) = 0.06937240
#
# Stress axis : x y z
#
# Youngs Moduli (GPa) = 92.65823 71.16423 19.80434
#
# Poissons Ratio (x) = 0.06563 -0.07594
# Poissons Ratio (y) = 0.08545 0.11675
# Poissons Ratio (z) = -0.35530 0.41953
#
# Static dielectric constant tensor:
#      x y z
#    x 1.956520 0.080050 -0.002850 
#    y 0.080050 2.060260 -0.014400 
#    z -0.002850 -0.014400 1.929550 
# 
# From -- ./inp_files/206602.got.cif
#   From: 2010.05.17/outbox.cif.g08.bks.cpg/sg2_104_cif.got.tgz:206602.got - 2010.06.03 11:33:40.
