data_PCOD9042106
_publ_section_title
;
Structure prediction by ZEFSAII (Michael W. Deem and Ramdas Pophale) SiO2 
 PCOD9042106
Probable space group: P -1
;
_chemical_formula_sum "Si O2"
_cell_formula_units_Z 12
_cell_length_a 8.146696
_cell_length_b 13.521150
_cell_length_c 5.000484
_cell_angle_alpha 94.140969
_cell_angle_beta 60.656950
_cell_angle_gamma 116.370712
_cell_volume 422.656573
_symmetry_space_group_name_H-M "P -1"
_symmetry_group_IT_number 2
_symmetry_cell_setting 'triclinic'
loop_
_space_group_symop_operation_xyz
x,y,z
-x,-y,-z
loop_
_atom_site_type_symbol
_atom_site_label
_atom_site_fract_x
_atom_site_fract_y
_atom_site_fract_z
Si Si1 0.698804 0.436642 0.575030
Si Si2 0.914228 0.894340 0.352648
Si Si3 0.337484 0.763577 0.116453
Si Si4 0.655859 0.972235 0.194311
Si Si5 0.937036 0.325335 0.197412
Si Si6 0.299364 0.353354 0.506236
O O1 0.611342 0.334986 0.835777
O O2 0.917489 0.438062 0.305633
O O3 0.531489 0.399944 0.458061
O O4 0.720019 0.556922 0.656245
O O5 0.756308 0.906728 0.270847
O O6 0.789018 0.772190 0.552792
O O7 0.000000 0.000000 0.500000
O O8 0.134594 0.915822 0.040552
O O9 0.524067 0.888346 0.043770
O O10 0.149293 0.746372 0.475717
O O11 0.251043 0.736164 0.883631
O O12 0.500000 0.000000 0.500000
O O13 0.145829 0.343235 0.879658
#
# Coordination Sequence:
#
# PCOD9042106 Si02
#       6
#     2   2   2   2   2   2
#     4   9  23  44  70 100 139 182 229 292 345 419
#     4  11  26  43  69 102 139 182 239 292 347 423
#     4  10  23  45  70 101 141 178 232 287 347 414
#     4  11  25  45  67  98 140 190 236 289 352 418
#     4  10  23  44  69 105 138 182 229 288 347 418
#     4  11  21  46  68 102 138 185 232 286 355 412
#
# _framework density 28.391846000000001
#
# number of rings (size 3 to 8) (size 9 to 14) (size 15 to 20)
#    1.000    0.667    1.667    1.500    7.000    1.333 
#    3.000    1.667    0.000    0.000    0.000    0.000 
#    0.000    0.000    0.000    0.000    0.000    0.000 
#
# Total GULP energy -67349.255826 kJ/mol
# GULP energy per Si atom -5612.437985 kJ/mol
# Density = 2.832722 g / cm^3
# Si number density = 28.391846 Si / 1000 Ang^3
#
#
#
# Elastic Constant Matrix: (Units=GPa)
#
#
# Indices 1 2 3 4 5 6 
#
# 1 100.0177 28.6653 14.9643 10.4640 -4.9993 -4.6252
# 2 28.6653 178.3242 23.2920 0.7382 7.5504 -15.5705
# 3 14.9643 23.2920 127.2679 -3.2836 -20.7793 0.7731
# 4 10.4640 0.7382 -3.2836 53.8279 5.0542 7.5010
# 5 -4.9993 7.5504 -20.7793 5.0542 49.3286 1.7545
# 6 -4.6252 -15.5705 0.7731 7.5010 1.7545 52.3100
#
#
#
# Elastic Compliance Matrix: (Units=1/GPa)
#
#
# Indices 1 2 3 4 5 6 
#
# 1 0.010937 -0.001618 -0.000859 -0.002381 0.001210 0.000799
# 2 -0.001618 0.006259 -0.001245 0.000065 -0.001716 0.001787
# 3 -0.000859 -0.001245 0.008823 0.000473 0.003799 -0.000772
# 4 -0.002381 0.000065 0.000473 0.019664 -0.001962 -0.002952
# 5 0.001210 -0.001716 0.003799 -0.001962 0.022492 -0.000933
# 6 0.000799 0.001787 -0.000772 -0.002952 -0.000933 0.020185
#
#
# Mechanical properties :
#
#
# Convention : Reuss Voigt Hill
#
# Bulk Modulus (GPa) = 53.82928 59.93920 56.88424
# Shear Modulus (GPa) = 49.02207 53.67251 51.34729
#
# Velocity S-wave (km/s) = 4.15978 4.35261 4.25729
# Velocity P-wave (km/s) = 6.48631 6.81304 6.65168
#
# Compressibility (1/GPa) = 0.01857725
#
# Stress axis : x y z
#
# Youngs Moduli (GPa) = 91.43400 159.77615 113.33477
#
# Poissons Ratio (x) = 0.25844 0.09732
# Poissons Ratio (y) = 0.14790 0.14107
# Poissons Ratio (z) = 0.07851 0.19887
#
# Static dielectric constant tensor:
#      x y z
#    x 2.177040 -0.036850 -0.060060 
#    y -0.036850 2.207270 0.038720 
#    z -0.060060 0.038720 2.244780 
# 
# From -- ./inp_files/32817.got.cif
#   From: 2010.05.17/outbox.cif.g08.bks.cpg/sg2_17_cif.got.tgz:32817.got - 2010.06.03 11:33:40.
