data_PCOD9042221
_publ_section_title
;
Structure prediction by ZEFSAII (Michael W. Deem and Ramdas Pophale) SiO2 
 PCOD9042221
Probable space group: P -1
;
_chemical_formula_sum "Si O2"
_cell_formula_units_Z 16
_cell_length_a 7.982215
_cell_length_b 12.260601
_cell_length_c 8.190083
_cell_angle_alpha 64.261306
_cell_angle_beta 72.083581
_cell_angle_gamma 75.092473
_cell_volume 679.809928
_symmetry_space_group_name_H-M "P -1"
_symmetry_group_IT_number 2
_symmetry_cell_setting 'triclinic'
loop_
_space_group_symop_operation_xyz
x,y,z
-x,-y,-z
loop_
_atom_site_type_symbol
_atom_site_label
_atom_site_fract_x
_atom_site_fract_y
_atom_site_fract_z
Si Si1 0.743783 0.261192 0.475355
Si Si2 0.524050 0.634134 0.263427
Si Si3 0.508767 0.894459 0.930192
Si Si4 0.847963 0.963086 0.185439
Si Si5 0.235700 0.500906 0.258742
Si Si6 0.196438 0.524717 0.891716
Si Si7 0.954321 0.696252 0.378347
Si Si8 0.309522 0.002735 0.461638
O O1 0.559031 0.329604 0.560471
O O2 0.794960 0.337046 0.255289
O O3 0.710811 0.126548 0.526867
O O4 0.893991 0.266692 0.566390
O O5 0.394087 0.549384 0.275144
O O6 0.716817 0.558209 0.229617
O O7 0.515864 0.761530 0.088024
O O8 0.321984 0.938026 0.869161
O O9 0.671443 0.903803 0.751979
O O10 0.500000 0.000000 0.000000
O O11 0.846950 0.818182 0.251160
O O12 0.848090 0.967340 0.380086
O O13 0.000000 0.000000 0.000000
O O14 0.173937 0.379236 0.431333
O O15 0.066585 0.606435 0.273577
O O16 0.286875 0.489869 0.061023
O O17 0.000000 0.500000 0.000000
O O18 0.500000 0.000000 0.500000
#
# Coordination Sequence:
#
# PCOD9042221 Si02
#       8
#     2   2   2   2   2   2   2   2
#     4  11  23  46  68 100 144 182 232 287 345 422
#     4  11  25  45  72  97 142 188 227 283 352 420
#     4  11  24  48  68 102 139 182 237 285 343 418
#     4  11  25  44  71 102 137 187 231 285 356 407
#     4  10  23  45  68 101 141 184 230 283 344 416
#     4  12  26  43  70 108 135 176 237 291 349 404
#     4  10  23  44  70 101 145 180 229 289 350 407
#     4  10  25  43  67  99 138 184 235 284 343 418
#
# _framework density 23.535990000000002
#
# number of rings (size 3 to 8) (size 9 to 14) (size 15 to 20)
#    0.000    1.250    2.500    2.250    7.000    3.500 
#    0.000    0.000    0.000    0.000    0.000    0.000 
#    0.000    0.000    0.000    0.000    0.000    0.000 
#
# Total GULP energy -89498.196432 kJ/mol
# GULP energy per Si atom -5593.637277 kJ/mol
# Density = 2.348242 g / cm^3
# Si number density = 23.535990 Si / 1000 Ang^3
#
#
#
# Elastic Constant Matrix: (Units=GPa)
#
#
# Indices 1 2 3 4 5 6 
#
# 1 72.1626 30.6375 21.4990 -3.1295 -22.9415 9.5623
# 2 30.6375 85.9610 41.4603 -16.7944 -14.8011 10.7676
# 3 21.4990 41.4603 174.6972 -8.7270 -34.4185 6.5669
# 4 -3.1295 -16.7944 -8.7270 59.5061 -5.2336 -3.7149
# 5 -22.9415 -14.8011 -34.4185 -5.2336 30.1414 -3.6912
# 6 9.5623 10.7676 6.5669 -3.7149 -3.6912 29.3184
#
#
#
# Elastic Compliance Matrix: (Units=1/GPa)
#
#
# Indices 1 2 3 4 5 6 
#
# 1 0.020765 -0.005041 0.001807 0.001065 0.015177 -0.003281
# 2 -0.005041 0.016046 -0.002619 0.003810 0.001345 -0.003010
# 3 0.001807 -0.002619 0.008074 0.001375 0.009541 -0.000061
# 4 0.001065 0.003810 0.001375 0.018896 0.007693 0.001308
# 5 0.015177 0.001345 0.009541 0.007693 0.057699 0.000659
# 6 -0.003281 -0.003010 -0.000061 0.001308 0.000659 0.036546
#
#
# Mechanical properties :
#
#
# Convention : Reuss Voigt Hill
#
# Bulk Modulus (GPa) = 30.13881 57.77937 43.95909
# Shear Modulus (GPa) = 27.65615 39.74142 33.69879
#
# Velocity S-wave (km/s) = 3.43163 4.11364 3.78802
# Velocity P-wave (km/s) = 5.34178 6.86771 6.15224
#
# Compressibility (1/GPa) = 0.03317981
#
# Stress axis : x y z
#
# Youngs Moduli (GPa) = 48.15831 62.32080 123.85345
#
# Poissons Ratio (x) = 0.31413 -0.22385
# Poissons Ratio (y) = 0.24274 0.32443
# Poissons Ratio (z) = -0.08704 0.16325
#
# Static dielectric constant tensor:
#      x y z
#    x 1.947480 -0.020600 0.035080 
#    y -0.020600 1.872820 0.038640 
#    z 0.035080 0.038640 1.906950 
# 
# From -- ./inp_files/184830.got.cif
#   From: 2010.05.17/outbox.cif.g08.bks.cpg/sg2_93_cif.got.tgz:184830.got - 2010.06.03 11:33:40.
