data_PCOD9042433
_publ_section_title
;
Structure prediction by ZEFSAII (Michael W. Deem and Ramdas Pophale) SiO2 
 PCOD9042433
Probable space group: P -1
;
_chemical_formula_sum "Si O2"
_cell_formula_units_Z 9
_cell_length_a 13.213327
_cell_length_b 8.350629
_cell_length_c 5.359878
_cell_angle_alpha 119.734870
_cell_angle_beta 117.819262
_cell_angle_gamma 44.269992
_cell_volume 352.348478
_symmetry_space_group_name_H-M "P -1"
_symmetry_group_IT_number 2
_symmetry_cell_setting 'triclinic'
loop_
_space_group_symop_operation_xyz
x,y,z
-x,-y,-z
loop_
_atom_site_type_symbol
_atom_site_label
_atom_site_fract_x
_atom_site_fract_y
_atom_site_fract_z
Si Si1 0.545396 0.155145 0.413353
Si Si2 0.373135 0.545416 0.128916
Si Si3 0.271398 0.322818 0.520787
Si Si4 0.067099 0.845202 0.208470
Si Si5 0.000000 0.500000 0.000000
O O1 0.502312 0.295196 0.213334
O O2 0.574752 0.299768 0.743227
O O3 0.401963 0.186283 0.358285
O O4 0.682912 0.877745 0.376421
O O5 0.242464 0.702772 0.303010
O O6 0.291294 0.504035 0.800661
O O7 0.118667 0.437205 0.307935
O O8 0.032589 0.664862 0.028262
O O9 0.000000 0.000000 0.500000
O O10 0.000000 0.000000 0.000000
#
# Coordination Sequence:
#
# PCOD9042433 Si02
#       5
#     2   2   2   2   1
#     4  10  23  44  71 107 139 192 248 305 372 446
#     4  11  23  45  73 101 143 192 249 308 367 445
#     4  11  23  44  70 108 144 193 245 304 376 447
#     4  12  28  49  74 111 152 201 254 312 382 451
#     4  12  26  48  74 108 156 196 248 312 376 450
#
# _framework density 25.542897
#
# number of rings (size 3 to 8) (size 9 to 14) (size 15 to 20)
#    0.000    0.889    2.222    4.000    0.000    5.333 
#   16.000    0.000    0.000    0.000    0.000    0.000 
#    0.000    0.000    0.000    0.000    0.000    0.000 
#
# Total GULP energy -50179.825682 kJ/mol
# GULP energy per Si atom -5575.536187 kJ/mol
# Density = 2.548476 g / cm^3
# Si number density = 25.542897 Si / 1000 Ang^3
#
#
#
# Elastic Constant Matrix: (Units=GPa)
#
#
# Indices 1 2 3 4 5 6 
#
# 1 105.2839 46.3735 40.6094 -9.3240 23.3636 26.4356
# 2 46.3735 126.3932 53.0231 -24.8053 -1.1164 24.3985
# 3 40.6094 53.0231 127.6217 -34.0014 27.7547 -23.4082
# 4 -9.3240 -24.8053 -34.0014 38.2626 4.4314 -0.8287
# 5 23.3636 -1.1164 27.7547 4.4314 55.1278 -3.0681
# 6 26.4356 24.3985 -23.4082 -0.8287 -3.0681 43.3379
#
#
#
# Elastic Compliance Matrix: (Units=1/GPa)
#
#
# Indices 1 2 3 4 5 6 
#
# 1 0.017058 -0.000925 -0.007636 -0.003082 -0.003954 -0.014348
# 2 -0.000925 0.014282 -0.008544 0.000691 0.004272 -0.011776
# 3 -0.007636 -0.008544 0.023901 0.015356 -0.008978 0.022036
# 4 -0.003082 0.000691 0.015356 0.040751 -0.009135 0.009918
# 5 -0.003954 0.004272 -0.008978 -0.009135 0.024976 -0.003249
# 6 -0.014348 -0.011776 0.022036 0.009918 -0.003249 0.050318
#
#
# Mechanical properties :
#
#
# Convention : Reuss Voigt Hill
#
# Bulk Modulus (GPa) = 47.55125 71.03452 59.29289
# Shear Modulus (GPa) = 23.52856 41.96519 32.74688
#
# Velocity S-wave (km/s) = 3.03832 4.05770 3.58444
# Velocity P-wave (km/s) = 5.56464 7.05858 6.35566
#
# Compressibility (1/GPa) = 0.02102994
#
# Stress axis : x y z
#
# Youngs Moduli (GPa) = 58.62240 70.01755 41.83928
#
# Poissons Ratio (x) = 0.06478 0.31950
# Poissons Ratio (y) = 0.05424 0.35749
# Poissons Ratio (z) = 0.44766 0.59825
#
# Static dielectric constant tensor:
#      x y z
#    x 2.153870 -0.029800 -0.134200 
#    y -0.029800 2.035620 0.060750 
#    z -0.134200 0.060750 2.026810 
# 
# From -- ./inp_files/16867.got.cif
#   From: 2010.05.17/outbox.cif.g08.bks.cpg/sg2_9_cif.got.tgz:16867.got - 2010.06.03 11:33:40.
