data_PCOD9042038
_publ_section_title
;
Structure prediction by ZEFSAII (Michael W. Deem and Ramdas Pophale) SiO2 
 PCOD9042038
Probable space group: P -1
;
_chemical_formula_sum "Si O2"
_cell_formula_units_Z 14
_cell_length_a 11.702734
_cell_length_b 12.090117
_cell_length_c 11.367960
_cell_angle_alpha 35.504810
_cell_angle_beta 97.218864
_cell_angle_gamma 69.817900
_cell_volume 584.129078
_symmetry_space_group_name_H-M "P -1"
_symmetry_group_IT_number 2
_symmetry_cell_setting 'triclinic'
loop_
_space_group_symop_operation_xyz
x,y,z
-x,-y,-z
loop_
_atom_site_type_symbol
_atom_site_label
_atom_site_fract_x
_atom_site_fract_y
_atom_site_fract_z
Si Si1 0.266788 0.741939 0.570232
Si Si2 0.686224 0.371568 0.596778
Si Si3 0.607818 0.094671 0.276151
Si Si4 0.624121 0.857081 0.255224
Si Si5 0.195477 0.253927 0.171085
Si Si6 0.007680 0.188010 0.484888
Si Si7 0.108755 0.175889 0.758153
O O1 0.308953 0.610072 0.558799
O O2 0.075214 0.915495 0.452188
O O3 0.243213 0.997171 0.334094
O O4 0.434034 0.455163 0.921501
O O5 0.500000 0.500000 0.500000
O O6 0.714549 0.531706 0.534802
O O7 0.843762 0.024849 0.957797
O O8 0.578712 0.957866 0.297625
O O9 0.651908 0.938501 0.541181
O O10 0.793019 0.989655 0.374302
O O11 0.714952 0.945338 0.165323
O O12 0.500000 0.000000 0.000000
O O13 0.152504 0.473835 0.882034
O O14 0.000000 0.500000 0.000000
O O15 0.013589 0.199765 0.616220
O O16 0.000000 0.500000 0.500000
#
# Coordination Sequence:
#
# PCOD9042038 Si02
#       7
#     2   2   2   2   2   2   2
#     4  12  24  43  73  98 137 184 229 280 352 408
#     4  12  24  41  70 102 135 184 226 278 350 415
#     4  10  23  44  69 100 137 180 231 287 337 410
#     4  11  21  42  66  93 137 174 218 281 341 400
#     4  10  24  46  70 100 139 180 233 288 339 405
#     4  10  24  44  65  98 137 177 228 285 336 404
#     4  11  23  38  61  97 134 169 224 278 331 405
#
# _framework density 23.967307000000002
#
# number of rings (size 3 to 8) (size 9 to 14) (size 15 to 20)
#    0.000    1.143    2.857    3.000    0.000    9.714 
#    0.000    5.714    0.000    0.000    0.000    0.000 
#    0.000    0.000    0.000    0.000    0.000    0.000 
#
# Total GULP energy -78047.033443 kJ/mol
# GULP energy per Si atom -5574.788103 kJ/mol
# Density = 2.391276 g / cm^3
# Si number density = 23.967307 Si / 1000 Ang^3
#
#
#
# Elastic Constant Matrix: (Units=GPa)
#
#
# Indices 1 2 3 4 5 6 
#
# 1 116.1368 11.4101 14.1604 11.0327 1.5581 -1.5497
# 2 11.4101 65.7214 -6.4147 7.7718 -11.7167 2.1081
# 3 14.1604 -6.4147 123.3962 16.1745 -27.0739 -7.4338
# 4 11.0327 7.7718 16.1745 50.6564 6.9862 -0.4540
# 5 1.5581 -11.7167 -27.0739 6.9862 -35.8230 -43.8680
# 6 -1.5497 2.1081 -7.4338 -0.4540 -43.8680 1.8278
#
#
#
# Elastic Compliance Matrix: (Units=1/GPa)
#
#
# Indices 1 2 3 4 5 6 
#
# 1 0.009025 -0.001559 -0.000898 -0.001404 -0.000176 0.001212
# 2 -0.001559 0.016165 0.001104 -0.002605 0.000429 -0.005820
# 3 -0.000898 0.001104 0.007992 -0.002368 -0.001431 -0.004468
# 4 -0.001404 -0.002605 -0.002368 0.021205 0.000324 0.005220
# 5 -0.000176 0.000429 -0.001431 0.000324 -0.000629 -0.021469
# 6 0.001212 -0.005820 -0.004468 0.005220 -0.021469 0.022717
#
#
# Mechanical properties :
#
#
# Convention : Reuss Voigt Hill
#
# Bulk Modulus (GPa) = 32.81231 38.17398 35.49315
# Shear Modulus (GPa) = 55.96564 22.40548 39.18556
#
# Velocity S-wave (km/s) = 4.83751 3.06082 4.04785
# Velocity P-wave (km/s) = 6.70240 5.33419 6.05705
#
# Compressibility (1/GPa) = 0.03047637
#
# Stress axis : x y z
#
# Youngs Moduli (GPa) = 110.80118 61.86066 125.12901
#
# Poissons Ratio (x) = 0.09643 0.11241
# Poissons Ratio (y) = 0.17272 -0.13817
# Poissons Ratio (z) = 0.09954 -0.06831
#
# Static dielectric constant tensor:
#      x y z
#    x 5.551860 2.108430 0.606300 
#    y 2.108430 4.090130 0.522790 
#    z 0.606300 0.522790 2.046670 
# 
# From -- ./inp_files/427269.got.cif
#   From: 2010.05.17/outbox.cif.g08.bks.cpg/sg2_214_cif.got.tgz:427269.got - 2010.06.03 11:33:40.
