data_PCOD9042890
_publ_section_title
;
Structure prediction by ZEFSAII (Michael W. Deem and Ramdas Pophale) SiO2 
 PCOD9042890
Probable space group: P -1
;
_chemical_formula_sum "Si O2"
_cell_formula_units_Z 16
_cell_length_a 11.263701
_cell_length_b 5.318385
_cell_length_c 16.139565
_cell_angle_alpha 102.494243
_cell_angle_beta 51.585435
_cell_angle_gamma 71.594971
_cell_volume 597.997043
_symmetry_space_group_name_H-M "P -1"
_symmetry_group_IT_number 2
_symmetry_cell_setting 'triclinic'
loop_
_space_group_symop_operation_xyz
x,y,z
-x,-y,-z
loop_
_atom_site_type_symbol
_atom_site_label
_atom_site_fract_x
_atom_site_fract_y
_atom_site_fract_z
Si Si1 0.795754 0.217477 0.022564
Si Si2 0.378296 0.626848 0.727549
Si Si3 0.366576 0.257055 0.278255
Si Si4 0.740523 0.915905 0.537289
Si Si5 0.945981 0.507691 0.858575
Si Si6 0.900217 0.223501 0.695762
Si Si7 0.694753 0.654987 0.388006
Si Si8 0.565385 0.275394 0.877095
O O1 0.898183 0.348013 0.939335
O O2 0.859858 0.873540 0.940156
O O3 0.792494 0.240243 0.125196
O O4 0.573544 0.470369 0.114709
O O5 0.483571 0.776076 0.724365
O O6 0.319761 0.623273 0.658210
O O7 0.537309 0.249797 0.643507
O O8 0.242941 0.190104 0.383763
O O9 0.225237 0.582176 0.315672
O O10 0.465873 0.994114 0.143660
O O11 0.767927 0.636888 0.447173
O O12 0.888797 0.970784 0.440632
O O13 0.878591 0.447483 0.796984
O O14 0.165308 0.344392 0.736315
O O15 0.790171 0.086025 0.766396
O O16 0.500000 0.000000 0.500000
O O17 0.500000 0.500000 0.000000
#
# Coordination Sequence:
#
# PCOD9042890 Si02
#       8
#     2   2   2   2   2   2   2   2
#     4  12  24  44  71 106 148 184 242 293 362 425
#     4  11  24  43  71  98 142 185 238 302 358 427
#     4  12  23  40  65 104 135 191 239 292 362 420
#     4  10  23  45  65  99 139 184 249 292 361 425
#     4  11  26  47  73 109 146 187 240 300 355 435
#     4  11  24  40  67 100 143 188 239 293 358 426
#     4   9  23  52  72 102 137 191 239 297 365 422
#     4  12  24  40  66  98 143 192 229 291 358 437
#
# _framework density 26.755984999999999
#
# number of rings (size 3 to 8) (size 9 to 14) (size 15 to 20)
#    0.000    1.000    3.750    1.875    0.000    5.500 
#   15.750    0.000    0.000    0.000    0.000    0.000 
#    0.000    0.000    0.000    0.000    0.000    0.000 
#
# Total GULP energy -89502.461439 kJ/mol
# GULP energy per Si atom -5593.903840 kJ/mol
# Density = 2.669509 g / cm^3
# Si number density = 26.755985 Si / 1000 Ang^3
#
#
#
# Elastic Constant Matrix: (Units=GPa)
#
#
# Indices 1 2 3 4 5 6 
#
# 1 102.0234 17.3385 50.2931 13.1354 13.7153 39.4460
# 2 17.3385 97.0395 36.8977 5.5680 -5.3983 21.1780
# 3 50.2931 36.8977 166.7661 -0.3284 4.7700 26.0377
# 4 13.1354 5.5680 -0.3284 35.3320 13.7488 6.4472
# 5 13.7153 -5.3983 4.7700 13.7488 58.8091 14.6041
# 6 39.4460 21.1780 26.0377 6.4472 14.6041 36.5831
#
#
#
# Elastic Compliance Matrix: (Units=1/GPa)
#
#
# Indices 1 2 3 4 5 6 
#
# 1 0.018812 0.002489 -0.003264 -0.004661 0.002009 -0.019382
# 2 0.002489 0.013237 -0.002266 -0.002760 0.003898 -0.009804
# 3 -0.003264 -0.002266 0.007620 0.001909 -0.000311 -0.000805
# 4 -0.004661 -0.002760 0.001909 0.033013 -0.007661 0.002505
# 5 0.002009 0.003898 -0.000311 -0.007661 0.021555 -0.011456
# 6 -0.019382 -0.009804 -0.000805 0.002505 -0.011456 0.058614
#
#
# Mechanical properties :
#
#
# Convention : Reuss Voigt Hill
#
# Bulk Modulus (GPa) = 29.77325 63.87640 46.82483
# Shear Modulus (GPa) = 29.38980 43.56481 36.47730
#
# Velocity S-wave (km/s) = 3.31787 4.03951 3.69634
# Velocity P-wave (km/s) = 5.08227 6.75887 5.97962
#
# Compressibility (1/GPa) = 0.03358719
#
# Stress axis : x y z
#
# Youngs Moduli (GPa) = 53.15831 75.54800 131.22559
#
# Poissons Ratio (x) = -0.18806 0.42838
# Poissons Ratio (y) = -0.13232 0.29730
# Poissons Ratio (z) = 0.17353 0.17116
#
# Static dielectric constant tensor:
#      x y z
#    x 2.198940 0.040340 -0.017740 
#    y 0.040340 2.110500 -0.042480 
#    z -0.017740 -0.042480 2.076310 
# 
# From -- ./inp_files/564522.got.cif
#   From: 2010.05.17/outbox.cif.g08.bks.cpg/sg2_283_cif.got.tgz:564522.got - 2010.06.03 11:33:40.
