data_PCOD9042768
_publ_section_title
;
Structure prediction by ZEFSAII (Michael W. Deem and Ramdas Pophale) SiO2 
 PCOD9042768
Probable space group: P -1
;
_chemical_formula_sum "Si O2"
_cell_formula_units_Z 14
_cell_length_a 5.381297
_cell_length_b 20.595807
_cell_length_c 8.290395
_cell_angle_alpha 42.197524
_cell_angle_beta 69.151836
_cell_angle_gamma 61.639052
_cell_volume 543.085547
_symmetry_space_group_name_H-M "P -1"
_symmetry_group_IT_number 2
_symmetry_cell_setting 'triclinic'
loop_
_space_group_symop_operation_xyz
x,y,z
-x,-y,-z
loop_
_atom_site_type_symbol
_atom_site_label
_atom_site_fract_x
_atom_site_fract_y
_atom_site_fract_z
Si Si1 0.623689 0.775083 0.174414
Si Si2 0.062094 0.084084 0.219409
Si Si3 0.309340 0.896606 0.328799
Si Si4 0.866803 0.791394 0.605697
Si Si5 0.001183 0.358658 0.408158
Si Si6 0.428226 0.438308 0.981037
Si Si7 0.459942 0.711945 0.033773
O O1 0.416476 0.845545 0.226171
O O2 0.900958 0.702858 0.337713
O O3 0.710346 0.860513 0.895600
O O4 0.522786 0.695111 0.240545
O O5 0.773304 0.176844 0.108320
O O6 0.172889 0.019668 0.147136
O O7 0.000000 0.000000 0.500000
O O8 0.584790 0.861938 0.446242
O O9 0.060436 0.852358 0.517892
O O10 0.069279 0.713657 0.573311
O O11 0.749516 0.723828 0.876451
O O12 0.783864 0.472730 0.244877
O O13 0.280862 0.370586 0.239471
O O14 0.500000 0.500000 0.000000
O O15 0.616808 0.362029 0.941125
#
# Coordination Sequence:
#
# PCOD9042768 Si02
#       7
#     2   2   2   2   2   2   2
#     4  11  27  45  70 109 157 189 251 310 373 444
#     4  12  26  45  72 106 153 205 249 303 364 441
#     4  11  25  45  74 105 150 205 252 303 368 440
#     4  10  23  44  76 104 145 199 257 301 365 451
#     4   9  23  44  72 106 140 193 241 312 374 443
#     4  10  23  45  79 104 138 192 249 302 383 458
#     4  11  26  43  71 111 146 197 246 318 370 447
#
# _framework density 25.77863
#
# number of rings (size 3 to 8) (size 9 to 14) (size 15 to 20)
#    0.000    1.429    1.429    1.286   12.000    4.571 
#    0.000    1.429    0.000    0.000    0.000    0.000 
#    0.000    0.000    0.000    0.000    0.000    0.000 
#
# Total GULP energy -78172.011818 kJ/mol
# GULP energy per Si atom -5583.715130 kJ/mol
# Density = 2.571996 g / cm^3
# Si number density = 25.778630 Si / 1000 Ang^3
#
#
#
# Elastic Constant Matrix: (Units=GPa)
#
#
# Indices 1 2 3 4 5 6 
#
# 1 93.0777 42.1473 17.9155 -5.1181 -7.6379 12.7493
# 2 42.1473 144.8983 40.7429 -6.9052 20.2545 15.1572
# 3 17.9155 40.7429 73.0935 -3.5381 -5.8117 -0.4956
# 4 -5.1181 -6.9052 -3.5381 39.5648 -7.2711 -1.6767
# 5 -7.6379 20.2545 -5.8117 -7.2711 36.9015 -6.5070
# 6 12.7493 15.1572 -0.4956 -1.6767 -6.5070 49.9097
#
#
#
# Elastic Compliance Matrix: (Units=1/GPa)
#
#
# Indices 1 2 3 4 5 6 
#
# 1 0.013492 -0.004300 -0.000416 0.001855 0.005205 -0.001404
# 2 -0.004300 0.011464 -0.006117 -0.000905 -0.008966 -0.003643
# 3 -0.000416 -0.006117 0.017863 0.001896 0.007008 0.003119
# 4 0.001855 -0.000905 0.001896 0.026835 0.006749 0.001601
# 5 0.005205 -0.008966 0.007008 0.006749 0.036673 0.006471
# 6 -0.001404 -0.003643 0.003119 0.001601 0.006471 0.022430
#
#
# Mechanical properties :
#
#
# Convention : Reuss Voigt Hill
#
# Bulk Modulus (GPa) = 47.27624 56.96452 52.12038
# Shear Modulus (GPa) = 31.75142 39.29280 35.52211
#
# Velocity S-wave (km/s) = 3.51336 3.90839 3.71613
# Velocity P-wave (km/s) = 5.90232 6.52019 6.21893
#
# Compressibility (1/GPa) = 0.02115228
#
# Stress axis : x y z
#
# Youngs Moduli (GPa) = 74.11631 87.23318 55.98129
#
# Poissons Ratio (x) = 0.37510 0.02329
# Poissons Ratio (y) = 0.31870 0.34246
# Poissons Ratio (z) = 0.03084 0.53363
#
# Static dielectric constant tensor:
#      x y z
#    x 2.108080 0.018960 -0.014340 
#    y 0.018960 2.112630 0.075400 
#    z -0.014340 0.075400 2.074430 
# 
# From -- ./inp_files/140977.got.cif
#   From: 2010.05.17/outbox.cif.g08.bks.cpg/sg2_71_cif.got.tgz:140977.got - 2010.06.03 11:33:40.
