data_PCOD9042177
_publ_section_title
;
Structure prediction by ZEFSAII (Michael W. Deem and Ramdas Pophale) SiO2 
 PCOD9042177
Probable space group: P -1
;
_chemical_formula_sum "Si O2"
_cell_formula_units_Z 16
_cell_length_a 14.812999
_cell_length_b 14.284282
_cell_length_c 12.870565
_cell_angle_alpha 148.885215
_cell_angle_beta 131.525978
_cell_angle_gamma 29.597314
_cell_volume 658.704229
_symmetry_space_group_name_H-M "P -1"
_symmetry_group_IT_number 2
_symmetry_cell_setting 'triclinic'
loop_
_space_group_symop_operation_xyz
x,y,z
-x,-y,-z
loop_
_atom_site_type_symbol
_atom_site_label
_atom_site_fract_x
_atom_site_fract_y
_atom_site_fract_z
Si Si1 0.284081 0.742674 0.700560
Si Si2 0.289388 0.703306 0.432424
Si Si3 0.711920 0.647903 0.607474
Si Si4 0.290152 0.294741 0.573072
Si Si5 0.126399 0.198974 0.503155
Si Si6 0.296490 0.093082 0.742416
Si Si7 0.699803 0.359948 0.982640
Si Si8 0.876588 0.338188 0.906185
O O1 0.281296 0.656071 0.500587
O O2 0.492053 0.592631 0.721745
O O3 0.287333 0.570212 0.615974
O O4 0.085394 0.083864 0.878327
O O5 0.145168 0.780306 0.315688
O O6 0.259069 0.957058 0.650443
O O7 0.712761 0.740353 0.584033
O O8 0.913568 0.453459 0.630980
O O9 0.508590 0.920324 0.765209
O O10 0.148933 0.334110 0.568075
O O11 0.500000 0.000000 0.500000
O O12 0.246448 0.555944 0.810116
O O13 0.283765 0.034129 0.557453
O O14 0.161528 0.970104 0.252670
O O15 0.158586 0.426326 0.948231
O O16 0.716731 0.464940 0.990433
O O17 0.500000 0.500000 0.000000
#
# Coordination Sequence:
#
# PCOD9042177 Si02
#       8
#     2   2   2   2   2   2   2   2
#     4  10  23  44  69  99 132 170 226 270 328 398
#     4  10  23  45  70  96 134 174 212 281 333 380
#     4  11  23  43  66  92 133 178 213 273 328 381
#     4  12  23  42  63  93 134 169 221 267 319 393
#     4  12  23  42  63  94 131 176 218 268 320 389
#     4  11  23  42  68  96 134 168 220 272 324 392
#     4  12  23  38  66  96 132 174 218 260 324 388
#     4  12  23  43  69  98 131 177 218 268 332 392
#
# _framework density 24.290113000000002
#
# number of rings (size 3 to 8) (size 9 to 14) (size 15 to 20)
#    0.000    0.750    6.250    0.750    1.750    2.000 
#    0.000    5.625    0.000    0.000    0.000    0.000 
#    0.000    0.000    0.000    0.000    0.000    0.000 
#
# Total GULP energy -89433.643339 kJ/mol
# GULP energy per Si atom -5589.602709 kJ/mol
# Density = 2.423483 g / cm^3
# Si number density = 24.290113 Si / 1000 Ang^3
#
#
#
# Elastic Constant Matrix: (Units=GPa)
#
#
# Indices 1 2 3 4 5 6 
#
# 1 88.9774 17.3000 17.7767 3.9161 11.0353 9.1596
# 2 17.3000 82.4965 15.0266 30.8042 2.4206 -13.0404
# 3 17.7767 15.0266 61.0237 16.1880 18.2831 -17.7249
# 4 3.9161 30.8042 16.1880 37.9823 2.8976 -5.8183
# 5 11.0353 2.4206 18.2831 2.8976 32.5435 -0.3868
# 6 9.1596 -13.0404 -17.7249 -5.8183 -0.3868 36.5838
#
#
#
# Elastic Compliance Matrix: (Units=1/GPa)
#
#
# Indices 1 2 3 4 5 6 
#
# 1 0.013967 -0.004282 -0.005477 0.003403 -0.001729 -0.007154
# 2 -0.004282 0.019331 0.002473 -0.015264 0.000064 0.006734
# 3 -0.005477 0.002473 0.028093 -0.010261 -0.013028 0.014094
# 4 0.003403 -0.015264 -0.010261 0.041878 0.001963 -0.004583
# 5 -0.001729 0.000064 -0.013028 0.001963 0.038393 -0.005139
# 6 -0.007154 0.006734 0.014094 -0.004583 -0.005139 0.037571
#
#
# Mechanical properties :
#
#
# Convention : Reuss Voigt Hill
#
# Bulk Modulus (GPa) = 21.35881 36.96712 29.16297
# Shear Modulus (GPa) = 23.87651 33.58156 28.72903
#
# Velocity S-wave (km/s) = 3.13864 3.72226 3.44284
# Velocity P-wave (km/s) = 4.68477 5.80738 5.27602
#
# Compressibility (1/GPa) = 0.04681908
#
# Stress axis : x y z
#
# Youngs Moduli (GPa) = 71.59906 51.72930 35.59651
#
# Poissons Ratio (x) = 0.22151 0.19496
# Poissons Ratio (y) = 0.30659 -0.08804
# Poissons Ratio (z) = 0.39214 -0.12794
#
# Static dielectric constant tensor:
#      x y z
#    x 1.942610 -0.042210 -0.024390 
#    y -0.042210 1.903920 0.034570 
#    z -0.024390 0.034570 1.940290 
# 
# From -- ./inp_files/530041.got.cif
#   From: 2010.05.17/outbox.cif.g08.bks.cpg/sg2_266_cif.got.tgz:530041.got - 2010.06.03 11:33:40.
