data_PCOD9042275
_publ_section_title
;
Structure prediction by ZEFSAII (Michael W. Deem and Ramdas Pophale) SiO2 
 PCOD9042275
Probable space group: P -1
;
_chemical_formula_sum "Si O2"
_cell_formula_units_Z 13
_cell_length_a 22.963454
_cell_length_b 13.779143
_cell_length_c 8.529050
_cell_angle_alpha 134.183538
_cell_angle_beta 39.188404
_cell_angle_gamma 160.908477
_cell_volume 549.470296
_symmetry_space_group_name_H-M "P -1"
_symmetry_group_IT_number 2
_symmetry_cell_setting 'triclinic'
loop_
_space_group_symop_operation_xyz
x,y,z
-x,-y,-z
loop_
_atom_site_type_symbol
_atom_site_label
_atom_site_fract_x
_atom_site_fract_y
_atom_site_fract_z
Si Si1 0.413062 0.147154 0.948357
Si Si2 0.347722 0.797462 0.875340
Si Si3 0.702079 0.846753 0.513018
Si Si4 0.090411 0.762720 0.935484
Si Si5 0.000000 0.000000 0.000000
Si Si6 0.283797 0.864374 0.391998
Si Si7 0.155764 0.159233 0.216294
O O1 0.626320 0.479779 0.809287
O O2 0.453049 0.067079 0.881835
O O3 0.225663 0.876084 0.917277
O O4 0.323440 0.145152 0.245793
O O5 0.513250 0.897356 0.660588
O O6 0.275983 0.734591 0.134192
O O7 0.148021 0.511512 0.866052
O O8 0.500000 0.500000 0.500000
O O9 0.696270 0.974680 0.568676
O O10 0.897107 0.012721 0.258542
O O11 0.103055 0.663677 0.662051
O O12 0.190693 0.041756 0.009693
O O13 0.932476 0.920328 0.861051
O O14 0.000000 0.000000 0.500000
#
# Coordination Sequence:
#
# PCOD9042275 Si02
#       7
#     2   2   2   2   1   2   2
#     4  11  25  49  69 106 151 192 244 312 368 445
#     4  10  25  45  73 104 142 195 240 297 372 448
#     4  11  22  43  72 104 143 188 247 302 368 443
#     4  12  24  45  73 104 146 189 241 307 371 437
#     4  12  24  44  76 108 144 196 242 302 384 432
#     4  10  23  44  70 104 148 182 248 302 362 444
#     4  12  28  47  75 112 147 194 253 314 372 440
#
# _framework density 23.65915
#
# number of rings (size 3 to 8) (size 9 to 14) (size 15 to 20)
#    0.000    0.923    3.077    2.308    4.308    1.846 
#    8.308    0.000    0.000    0.000    0.000    0.000 
#    0.000    0.000    0.000    0.000    0.000    0.000 
#
# Total GULP energy -72416.357398 kJ/mol
# GULP energy per Si atom -5570.489031 kJ/mol
# Density = 2.360530 g / cm^3
# Si number density = 23.659150 Si / 1000 Ang^3
#
#
#
# Elastic Constant Matrix: (Units=GPa)
#
#
# Indices 1 2 3 4 5 6 
#
# 1 115.1231 15.3084 33.2106 -13.7886 -23.2626 28.8697
# 2 15.3084 66.0610 22.9282 -15.7300 9.5581 7.9901
# 3 33.2106 22.9282 113.0224 -9.7503 -16.4914 11.2639
# 4 -13.7886 -15.7300 -9.7503 25.5533 7.5919 -4.1133
# 5 -23.2626 9.5581 -16.4914 7.5919 42.8148 5.4498
# 6 28.8697 7.9901 11.2639 -4.1133 5.4498 30.3425
#
#
#
# Elastic Compliance Matrix: (Units=1/GPa)
#
#
# Indices 1 2 3 4 5 6 
#
# 1 0.015336 -0.002761 -0.000832 0.000681 0.010461 -0.015343
# 2 -0.002761 0.021830 -0.004211 0.013898 -0.010747 0.002256
# 3 -0.000832 -0.004211 0.010960 -0.000955 0.005292 -0.003248
# 4 0.000681 0.013898 -0.000955 0.052474 -0.013107 0.005514
# 5 0.010461 -0.010747 0.005292 -0.013107 0.038055 -0.017699
# 6 -0.015343 0.002256 -0.003248 0.005514 -0.017699 0.052093
#
#
# Mechanical properties :
#
#
# Convention : Reuss Voigt Hill
#
# Bulk Modulus (GPa) = 30.75211 48.56679 39.65945
# Shear Modulus (GPa) = 23.02060 34.59273 28.80666
#
# Velocity S-wave (km/s) = 3.12270 3.82793 3.49315
# Velocity P-wave (km/s) = 5.10175 6.33322 5.75054
#
# Compressibility (1/GPa) = 0.03251809
#
# Stress axis : x y z
#
# Youngs Moduli (GPa) = 65.20455 45.80791 91.23895
#
# Poissons Ratio (x) = 0.12646 0.07593
# Poissons Ratio (y) = 0.18001 0.38424
# Poissons Ratio (z) = 0.05427 0.19291
#
# Static dielectric constant tensor:
#      x y z
#    x 1.902670 0.029180 0.074920 
#    y 0.029180 1.940270 0.016660 
#    z 0.074920 0.016660 1.911070 
# 
# From -- ./inp_files/354177.got.cif
#   From: 2010.05.17/outbox.cif.g08.bks.cpg/sg2_178_cif.got.tgz:354177.got - 2010.06.03 11:33:40.
