data_PCOD9042040
_publ_section_title
;
Structure prediction by ZEFSAII (Michael W. Deem and Ramdas Pophale) SiO2 
 PCOD9042040
Probable space group: P -1
;
_chemical_formula_sum "Si O2"
_cell_formula_units_Z 16
_cell_length_a 8.639444
_cell_length_b 18.750552
_cell_length_c 8.072672
_cell_angle_alpha 81.066937
_cell_angle_beta 112.400153
_cell_angle_gamma 141.618491
_cell_volume 726.880874
_symmetry_space_group_name_H-M "P -1"
_symmetry_group_IT_number 2
_symmetry_cell_setting 'triclinic'
loop_
_space_group_symop_operation_xyz
x,y,z
-x,-y,-z
loop_
_atom_site_type_symbol
_atom_site_label
_atom_site_fract_x
_atom_site_fract_y
_atom_site_fract_z
Si Si1 0.240617 0.922377 0.035749
Si Si2 0.322330 0.548112 0.984951
Si Si3 0.151839 0.604184 0.653450
Si Si4 0.279652 0.258426 0.669228
Si Si5 0.253024 0.170719 0.341035
Si Si6 0.913079 0.024223 0.806155
Si Si7 0.819210 0.634066 0.582212
Si Si8 0.136628 0.327818 0.027160
O O1 0.304540 0.998055 0.185493
O O2 0.992749 0.872429 0.842251
O O3 0.120984 0.805742 0.093189
O O4 0.500000 0.000000 0.000000
O O5 0.171470 0.564332 0.841425
O O6 0.589101 0.615050 0.958519
O O7 0.442036 0.614283 0.185330
O O8 0.141545 0.414189 0.958921
O O9 0.463287 0.723751 0.679654
O O10 0.000000 0.500000 0.500000
O O11 0.997270 0.626215 0.607294
O O12 0.298936 0.220126 0.521932
O O13 0.125700 0.279881 0.548336
O O14 0.142581 0.158146 0.783927
O O15 0.180689 0.061003 0.346370
O O16 0.000000 0.000000 0.000000
O O17 0.500000 0.500000 0.500000
O O18 0.868879 0.676888 0.774409
#
# Coordination Sequence:
#
# PCOD9042040 Si02
#       8
#     2   2   2   2   2   2   2   2
#     4  11  23  44  73 101 141 194 239 295 361 429
#     4  11  23  43  77 108 144 194 233 301 366 434
#     4  12  27  46  72 107 150 188 238 299 367 433
#     4  12  22  45  77 102 142 192 239 295 369 432
#     4  11  24  47  68 103 143 185 238 307 357 426
#     4  10  23  44  69 100 137 185 240 298 350 420
#     4  12  25  45  71 105 145 190 233 299 366 437
#     4  11  22  43  72 103 149 181 243 292 365 427
#
# _framework density 22.011861
#
# number of rings (size 3 to 8) (size 9 to 14) (size 15 to 20)
#    0.000    0.750    5.000    2.625    3.500    0.500 
#    0.000    6.250    0.000    0.000    0.000    0.000 
#    0.000    0.000    0.000    0.000    0.000    0.000 
#
# Total GULP energy -89450.783714 kJ/mol
# GULP energy per Si atom -5590.673982 kJ/mol
# Density = 2.196176 g / cm^3
# Si number density = 22.011861 Si / 1000 Ang^3
#
#
#
# Elastic Constant Matrix: (Units=GPa)
#
#
# Indices 1 2 3 4 5 6 
#
# 1 152.0174 70.2646 52.8202 12.6890 -6.1415 -21.7390
# 2 70.2646 145.7705 15.6463 -12.3628 14.1374 -26.2544
# 3 52.8202 15.6463 73.4019 -6.9031 -7.5788 -17.5243
# 4 12.6890 -12.3628 -6.9031 37.2174 -6.8442 -3.9967
# 5 -6.1415 14.1374 -7.5788 -6.8442 32.6372 12.2764
# 6 -21.7390 -26.2544 -17.5243 -3.9967 12.2764 48.2358
#
#
#
# Elastic Compliance Matrix: (Units=1/GPa)
#
#
# Indices 1 2 3 4 5 6 
#
# 1 0.013448 -0.006864 -0.009317 -0.008394 0.002478 -0.002386
# 2 -0.006864 0.012334 0.003976 0.006665 -0.007106 0.007425
# 3 -0.009317 0.003976 0.022039 0.009500 0.001208 0.006452
# 4 -0.008394 0.006665 0.009500 0.034842 0.003008 0.005418
# 5 0.002478 -0.007106 0.001208 0.003008 0.039669 -0.012159
# 6 -0.002386 0.007425 0.006452 0.005418 -0.012159 0.029585
#
#
# Mechanical properties :
#
#
# Convention : Reuss Voigt Hill
#
# Bulk Modulus (GPa) = 42.71594 72.07243 57.39419
# Shear Modulus (GPa) = 27.15471 39.11531 33.13501
#
# Velocity S-wave (km/s) = 3.51613 4.22003 3.88406
# Velocity P-wave (km/s) = 5.99435 7.52054 6.80040
#
# Compressibility (1/GPa) = 0.02341046
#
# Stress axis : x y z
#
# Youngs Moduli (GPa) = 74.36250 81.07890 45.37368
#
# Poissons Ratio (x) = 0.55652 0.42275
# Poissons Ratio (y) = 0.51042 -0.18041
# Poissons Ratio (z) = 0.69285 -0.32238
#
# Static dielectric constant tensor:
#      x y z
#    x 1.799950 -0.016110 -0.016540 
#    y -0.016110 1.838180 -0.009660 
#    z -0.016540 -0.009660 1.882620 
# 
# From -- ./inp_files/217524.got.cif
#   From: 2010.05.17/outbox.cif.g08.bks.cpg/sg2_109_cif.got.tgz:217524.got - 2010.06.03 11:33:40.
