data_PCOD9042621
_publ_section_title
;
Structure prediction by ZEFSAII (Michael W. Deem and Ramdas Pophale) SiO2 
 PCOD9042621
Probable space group: P -1
;
_chemical_formula_sum "Si O2"
_cell_formula_units_Z 16
_cell_length_a 11.835051
_cell_length_b 5.436294
_cell_length_c 11.677878
_cell_angle_alpha 60.528438
_cell_angle_beta 92.660379
_cell_angle_gamma 81.959292
_cell_volume 641.873785
_symmetry_space_group_name_H-M "P -1"
_symmetry_group_IT_number 2
_symmetry_cell_setting 'triclinic'
loop_
_space_group_symop_operation_xyz
x,y,z
-x,-y,-z
loop_
_atom_site_type_symbol
_atom_site_label
_atom_site_fract_x
_atom_site_fract_y
_atom_site_fract_z
Si Si1 0.540214 0.681700 0.627982
Si Si2 0.715202 0.178666 0.683041
Si Si3 0.301713 0.690072 0.590241
Si Si4 0.075202 0.721304 0.202795
Si Si5 0.447937 0.188957 0.131899
Si Si6 0.044411 0.659007 0.574022
Si Si7 0.328722 0.702299 0.852336
Si Si8 0.903340 0.301721 0.031880
O O1 0.654286 0.511555 0.613800
O O2 0.433883 0.522273 0.624378
O O3 0.552863 0.678728 0.767668
O O4 0.500000 0.000000 0.500000
O O5 0.711897 0.095820 0.568877
O O6 0.845197 0.160749 0.729706
O O7 0.640678 0.023978 0.801226
O O8 0.183128 0.571291 0.605702
O O9 0.309308 0.789471 0.698612
O O10 0.018511 0.459249 0.296580
O O11 0.148943 0.643395 0.110006
O O12 0.969875 0.977058 0.116048
O O13 0.586226 0.092109 0.141013
O O14 0.399779 0.399207 0.976573
O O15 0.000000 0.500000 0.500000
O O16 0.000000 0.000000 0.500000
O O17 0.201707 0.680679 0.892454
O O18 0.000000 0.500000 0.000000
#
# Coordination Sequence:
#
# PCOD9042621 Si02
#       8
#     2   2   2   2   2   2   2   2
#     4  11  24  42  71 103 134 186 243 298 365 440
#     4  12  24  44  72 103 144 188 242 306 371 457
#     4  11  25  43  71 107 141 193 243 304 376 450
#     4  11  27  45  72 110 138 198 256 305 388 450
#     4  10  23  45  70 105 143 188 244 298 379 444
#     4  12  29  49  74 113 156 201 253 323 388 454
#     4  10  23  44  73 104 149 190 240 310 371 451
#     4  11  24  47  76 101 145 194 253 316 372 458
#
# _framework density 24.927021
#
# number of rings (size 3 to 8) (size 9 to 14) (size 15 to 20)
#    0.000    1.000    2.500    2.625    5.250    3.000 
#    0.000   10.000    0.000    0.000    0.000    0.000 
#    0.000    0.000    0.000    0.000    0.000    0.000 
#
# Total GULP energy -89273.249752 kJ/mol
# GULP energy per Si atom -5579.578110 kJ/mol
# Density = 2.487029 g / cm^3
# Si number density = 24.927021 Si / 1000 Ang^3
#
#
#
# Elastic Constant Matrix: (Units=GPa)
#
#
# Indices 1 2 3 4 5 6 
#
# 1 149.0291 11.4646 23.2438 -3.3281 -0.8689 14.9634
# 2 11.4646 65.7291 34.7920 -11.0701 -0.1666 13.0670
# 3 23.2438 34.7920 134.5091 -11.6747 -14.6950 5.8684
# 4 -3.3281 -11.0701 -11.6747 36.2742 14.3263 -10.7598
# 5 -0.8689 -0.1666 -14.6950 14.3263 49.0740 2.8826
# 6 14.9634 13.0670 5.8684 -10.7598 2.8826 30.3490
#
#
#
# Elastic Compliance Matrix: (Units=1/GPa)
#
#
# Indices 1 2 3 4 5 6 
#
# 1 0.007241 -0.000098 -0.001115 -0.000922 0.000278 -0.003665
# 2 -0.000098 0.019477 -0.004677 0.003423 -0.001981 -0.006031
# 3 -0.001115 -0.004677 0.009129 0.000679 0.002452 0.000806
# 4 -0.000922 0.003423 0.000679 0.037140 -0.011413 0.013101
# 5 0.000278 -0.001981 0.002452 -0.011413 0.024804 -0.006161
# 6 -0.003665 -0.006031 0.000806 0.013101 -0.006161 0.042428
#
#
# Mechanical properties :
#
#
# Convention : Reuss Voigt Hill
#
# Bulk Modulus (GPa) = 41.55475 54.25202 47.90339
# Shear Modulus (GPa) = 31.24560 41.79055 36.51808
#
# Velocity S-wave (km/s) = 3.54430 4.09897 3.83168
# Velocity P-wave (km/s) = 5.78413 6.64934 6.23177
#
# Compressibility (1/GPa) = 0.02406464
#
# Stress axis : x y z
#
# Youngs Moduli (GPa) = 138.10834 51.34146 109.54499
#
# Poissons Ratio (x) = 0.00505 0.12220
# Poissons Ratio (y) = 0.01359 0.51237
# Poissons Ratio (z) = 0.15406 0.24014
#
# Static dielectric constant tensor:
#      x y z
#    x 1.888580 -0.081430 -0.011080 
#    y -0.081430 1.915580 0.091940 
#    z -0.011080 0.091940 2.030770 
# 
# From -- ./inp_files/409855.got.cif
#   From: 2010.05.17/outbox.cif.g08.bks.cpg/sg2_205_cif.got.tgz:409855.got - 2010.06.03 11:33:40.
