data_PCOD9042150
_publ_section_title
;
Structure prediction by ZEFSAII (Michael W. Deem and Ramdas Pophale) SiO2 
 PCOD9042150
Probable space group: P -1
;
_chemical_formula_sum "Si O2"
_cell_formula_units_Z 16
_cell_length_a 8.316866
_cell_length_b 10.104248
_cell_length_c 13.774780
_cell_angle_alpha 100.527539
_cell_angle_beta 43.660698
_cell_angle_gamma 113.503447
_cell_volume 722.563785
_symmetry_space_group_name_H-M "P -1"
_symmetry_group_IT_number 2
_symmetry_cell_setting 'triclinic'
loop_
_space_group_symop_operation_xyz
x,y,z
-x,-y,-z
loop_
_atom_site_type_symbol
_atom_site_label
_atom_site_fract_x
_atom_site_fract_y
_atom_site_fract_z
Si Si1 0.658819 0.415358 0.377789
Si Si2 0.633154 0.912993 0.579312
Si Si3 0.868086 0.838903 0.664389
Si Si4 0.901496 0.597905 0.121561
Si Si5 0.653522 0.681664 0.063860
Si Si6 0.853491 0.602890 0.771979
Si Si7 0.293717 0.018939 0.867298
Si Si8 0.606511 0.151553 0.030362
O O1 0.500000 0.500000 0.500000
O O2 0.527401 0.240687 0.420640
O O3 0.701061 0.475565 0.258365
O O4 0.931853 0.458156 0.311541
O O5 0.756835 0.862920 0.612467
O O6 0.450719 0.996744 0.703230
O O7 0.867562 0.020140 0.427326
O O8 0.921741 0.699911 0.657178
O O9 0.640650 0.817460 0.836394
O O10 0.780156 0.677384 0.111896
O O11 0.000000 0.500000 0.000000
O O12 0.140197 0.712636 0.093223
O O13 0.414732 0.530010 0.139987
O O14 0.573096 0.819768 0.122082
O O15 0.832959 0.686128 0.893497
O O16 0.308821 0.891972 0.910522
O O17 0.000000 0.000000 0.000000
O O18 0.500000 0.000000 0.000000
#
# Coordination Sequence:
#
# PCOD9042150 Si02
#       8
#     2   2   2   2   2   2   2   2
#     4  12  28  44  68 101 141 181 226 288 353 411
#     4  10  24  46  68  94 140 184 223 276 352 426
#     4  10  23  44  69  96 135 184 222 277 350 411
#     4  12  23  45  70  97 140 185 232 281 350 413
#     4  11  23  41  71 102 136 178 233 287 343 404
#     4  11  24  42  68 104 136 175 230 295 335 410
#     4  11  21  40  65 100 130 177 231 278 338 408
#     4  11  24  38  68 102 133 174 231 288 340 406
#
# _framework density 22.143374999999999
#
# number of rings (size 3 to 8) (size 9 to 14) (size 15 to 20)
#    0.000    1.000    2.500    4.500    5.250    3.500 
#    0.000    1.875    0.000    0.000    0.000    0.000 
#    0.000    0.000    0.000    0.000    0.000    0.000 
#
# Total GULP energy -89214.954801 kJ/mol
# GULP energy per Si atom -5575.934675 kJ/mol
# Density = 2.209298 g / cm^3
# Si number density = 22.143375 Si / 1000 Ang^3
#
#
#
# Elastic Constant Matrix: (Units=GPa)
#
#
# Indices 1 2 3 4 5 6 
#
# 1 64.3351 10.0073 30.2192 -8.6991 -16.9745 -8.2133
# 2 10.0073 102.8354 33.6664 -9.8207 -8.3099 3.1134
# 3 30.2192 33.6664 75.5843 1.2060 -21.4259 -6.0948
# 4 -8.6991 -9.8207 1.2060 45.7836 -0.8478 -4.7981
# 5 -16.9745 -8.3099 -21.4259 -0.8478 19.9665 -6.7327
# 6 -8.2133 3.1134 -6.0948 -4.7981 -6.7327 47.5990
#
#
#
# Elastic Compliance Matrix: (Units=1/GPa)
#
#
# Indices 1 2 3 4 5 6 
#
# 1 0.024021 0.000929 -0.004231 0.005936 0.018814 0.006802
# 2 0.000929 0.011844 -0.006128 0.002721 -0.001177 -0.001291
# 3 -0.004231 -0.006128 0.024314 -0.001759 0.021788 0.005689
# 4 0.005936 0.002721 -0.001759 0.024142 0.006664 0.003997
# 5 0.018814 -0.001177 0.021788 0.006664 0.096125 0.020381
# 6 0.006802 -0.001291 0.005689 0.003997 0.020381 0.026281
#
#
# Mechanical properties :
#
#
# Convention : Reuss Voigt Hill
#
# Bulk Modulus (GPa) = 24.20146 43.39340 33.79743
# Shear Modulus (GPa) = 20.88899 33.92726 27.40813
#
# Velocity S-wave (km/s) = 3.07473 3.91853 3.52199
# Velocity P-wave (km/s) = 4.85371 6.33343 5.64229
#
# Compressibility (1/GPa) = 0.04131982
#
# Stress axis : x y z
#
# Youngs Moduli (GPa) = 41.62963 84.43135 41.12838
#
# Poissons Ratio (x) = -0.07841 0.17400
# Poissons Ratio (y) = -0.03866 0.25203
# Poissons Ratio (z) = 0.17612 0.51739
#
# Static dielectric constant tensor:
#      x y z
#    x 2.062530 -0.179720 -0.022760 
#    y -0.179720 2.012310 0.025050 
#    z -0.022760 0.025050 1.815590 
# 
# From -- ./inp_files/314511.got.cif
#   From: 2010.05.17/outbox.cif.g08.bks.cpg/sg2_158_cif.got.tgz:314511.got - 2010.06.03 11:33:40.
