data_PCOD9042126
_publ_section_title
;
Structure prediction by ZEFSAII (Michael W. Deem and Ramdas Pophale) SiO2 
 PCOD9042126
Probable space group: P -1
;
_chemical_formula_sum "Si O2"
_cell_formula_units_Z 16
_cell_length_a 15.430678
_cell_length_b 22.094970
_cell_length_c 8.220353
_cell_angle_alpha 127.710874
_cell_angle_beta 49.211691
_cell_angle_gamma 160.975162
_cell_volume 691.516177
_symmetry_space_group_name_H-M "P -1"
_symmetry_group_IT_number 2
_symmetry_cell_setting 'triclinic'
loop_
_space_group_symop_operation_xyz
x,y,z
-x,-y,-z
loop_
_atom_site_type_symbol
_atom_site_label
_atom_site_fract_x
_atom_site_fract_y
_atom_site_fract_z
Si Si1 0.878845 0.175247 0.763083
Si Si2 0.603776 0.406994 0.547942
Si Si3 0.807914 0.826113 0.055700
Si Si4 0.314597 0.687064 0.867547
Si Si5 0.254823 0.763625 0.791290
Si Si6 0.352773 0.411213 0.359677
Si Si7 0.147692 0.920665 0.025399
Si Si8 0.186334 0.786564 0.584800
O O1 0.046381 0.250175 0.525657
O O2 0.562286 0.987034 0.785128
O O3 0.919244 0.138815 0.800655
O O4 0.938218 0.295089 0.964904
O O5 0.436033 0.285597 0.718385
O O6 0.544261 0.309679 0.319988
O O7 0.524723 0.445364 0.661117
O O8 0.939442 0.610273 0.480987
O O9 0.666256 0.678085 0.864572
O O10 0.001607 0.898612 0.067496
O O11 0.000000 0.000000 0.000000
O O12 0.295475 0.710454 0.748431
O O13 0.520383 0.862175 0.014392
O O14 0.000000 0.500000 0.000000
O O15 0.180712 0.719298 0.622256
O O16 0.500000 0.500000 0.500000
O O17 0.080243 0.800979 0.819813
O O18 0.500000 0.000000 0.500000
#
# Coordination Sequence:
#
# PCOD9042126 Si02
#       8
#     2   2   2   2   2   2   2   2
#     4   9  19  40  67  98 125 177 221 277 333 411
#     4  12  27  45  70 104 145 177 232 290 346 410
#     4  12  30  47  67 102 139 188 236 286 349 403
#     4  11  24  42  68 103 140 179 227 285 348 411
#     4   9  20  36  65  95 133 169 225 266 338 409
#     4  12  26  44  74  97 132 177 239 286 344 409
#     4  10  23  44  69  92 144 178 232 283 341 414
#     4  11  22  40  71 101 134 183 222 283 351 412
#
# _framework density 23.137566
#
# number of rings (size 3 to 8) (size 9 to 14) (size 15 to 20)
#    0.000    1.250    1.250    4.125    8.750    2.000 
#    0.000    0.000    0.000    0.000    0.000    0.000 
#    0.000    0.000    0.000    0.000    0.000    0.000 
#
# Total GULP energy -89335.146213 kJ/mol
# GULP energy per Si atom -5583.446638 kJ/mol
# Density = 2.308490 g / cm^3
# Si number density = 23.137566 Si / 1000 Ang^3
#
#
#
# Elastic Constant Matrix: (Units=GPa)
#
#
# Indices 1 2 3 4 5 6 
#
# 1 96.3618 6.5932 -8.5451 13.0766 8.2830 2.3378
# 2 6.5932 69.7993 18.7385 -6.4090 -1.3639 -3.9977
# 3 -8.5451 18.7385 79.6605 -2.8891 -1.5863 -6.7588
# 4 13.0766 -6.4090 -2.8891 38.8798 0.3746 0.6322
# 5 8.2830 -1.3639 -1.5863 0.3746 26.9598 1.9312
# 6 2.3378 -3.9977 -6.7588 0.6322 1.9312 32.6579
#
#
#
# Elastic Compliance Matrix: (Units=1/GPa)
#
#
# Indices 1 2 3 4 5 6 
#
# 1 0.011493 -0.001936 0.001432 -0.004037 -0.003454 -0.000481
# 2 -0.001936 0.015867 -0.003710 0.002961 0.001053 0.001193
# 3 0.001432 -0.003710 0.013771 -0.000108 0.000020 0.002294
# 4 -0.004037 0.002961 -0.000108 0.027548 0.000998 0.000037
# 5 -0.003454 0.001053 0.000020 0.000998 0.038331 -0.001906
# 6 -0.000481 0.001193 0.002294 0.000037 -0.001906 0.031388
#
#
# Mechanical properties :
#
#
# Convention : Reuss Voigt Hill
#
# Bulk Modulus (GPa) = 30.57833 31.04388 30.81110
# Shear Modulus (GPa) = 31.70048 34.96849 33.33449
#
# Velocity S-wave (km/s) = 3.70548 3.89180 3.79978
# Velocity P-wave (km/s) = 5.61712 5.80009 5.70934
#
# Compressibility (1/GPa) = 0.03270290
#
# Stress axis : x y z
#
# Youngs Moduli (GPa) = 87.00581 63.02564 72.61723
#
# Poissons Ratio (x) = 0.12201 -0.10401
# Poissons Ratio (y) = 0.16844 0.26943
# Poissons Ratio (z) = -0.12462 0.23385
#
# Static dielectric constant tensor:
#      x y z
#    x 1.908070 0.009640 -0.037360 
#    y 0.009640 1.925760 -0.058750 
#    z -0.037360 -0.058750 1.883250 
# 
# From -- ./inp_files/319462.got.cif
#   From: 2010.05.17/outbox.cif.g08.bks.cpg/sg2_160_cif.got.tgz:319462.got - 2010.06.03 11:33:40.
