data_PCOD9042614
_publ_section_title
;
Structure prediction by ZEFSAII (Michael W. Deem and Ramdas Pophale) SiO2 
 PCOD9042614
Probable space group: P -1
;
_chemical_formula_sum "Si O2"
_cell_formula_units_Z 16
_cell_length_a 8.670434
_cell_length_b 20.535046
_cell_length_c 5.412951
_cell_angle_alpha 104.534326
_cell_angle_beta 56.541659
_cell_angle_gamma 124.313271
_cell_volume 661.615581
_symmetry_space_group_name_H-M "P -1"
_symmetry_group_IT_number 2
_symmetry_cell_setting 'triclinic'
loop_
_space_group_symop_operation_xyz
x,y,z
-x,-y,-z
loop_
_atom_site_type_symbol
_atom_site_label
_atom_site_fract_x
_atom_site_fract_y
_atom_site_fract_z
Si Si1 0.655934 0.993202 0.547802
Si Si2 0.675354 0.337098 0.398906
Si Si3 0.575678 0.117051 0.950747
Si Si4 0.192411 0.188424 0.694423
Si Si5 0.856178 0.905984 0.858036
Si Si6 0.169878 0.564315 0.156418
Si Si7 0.056414 0.726234 0.084813
Si Si8 0.760791 0.549766 0.296488
O O1 0.900965 0.017681 0.302151
O O2 0.500000 0.000000 0.500000
O O3 0.520376 0.907574 0.711581
O O4 0.683611 0.064570 0.769583
O O5 0.433033 0.264263 0.551245
O O6 0.717947 0.390204 0.651260
O O7 0.721958 0.381388 0.134034
O O8 0.833095 0.302733 0.233583
O O9 0.355061 0.086535 0.961822
O O10 0.745548 0.210005 0.854234
O O11 0.166103 0.144275 0.416701
O O12 0.033088 0.221491 0.886302
O O13 0.154868 0.138376 0.924945
O O14 0.920647 0.543209 0.345475
O O15 0.187727 0.488002 0.021744
O O16 0.859524 0.643729 0.287530
O O17 0.500000 0.500000 0.500000
#
# Coordination Sequence:
#
# PCOD9042614 Si02
#       8
#     2   2   2   2   2   2   2   2
#     4  11  26  47  76 107 151 189 237 305 360 436
#     4  11  24  45  74 101 148 189 242 302 363 426
#     4  11  25  48  73 105 146 191 244 295 366 427
#     4  12  26  44  71 110 145 188 244 303 353 427
#     4  12  27  46  75 106 149 189 242 294 364 428
#     4  10  24  45  69 105 140 192 241 296 369 435
#     4  11  24  45  74 104 143 194 247 299 362 431
#     4  10  23  44  73 103 148 189 244 299 369 427
#
# _framework density 24.183226000000001
#
# number of rings (size 3 to 8) (size 9 to 14) (size 15 to 20)
#    0.000    1.000    2.500    2.625    5.250    9.000 
#    0.000    3.750    0.000    0.000    0.000    0.000 
#    0.000    0.000    0.000    0.000    0.000    0.000 
#
# Total GULP energy -89470.277550 kJ/mol
# GULP energy per Si atom -5591.892347 kJ/mol
# Density = 2.412818 g / cm^3
# Si number density = 24.183226 Si / 1000 Ang^3
#
#
#
# Elastic Constant Matrix: (Units=GPa)
#
#
# Indices 1 2 3 4 5 6 
#
# 1 115.3392 51.4655 50.9614 -13.6635 -15.6894 5.8241
# 2 51.4655 137.5636 41.1369 -13.7413 7.5138 22.2000
# 3 50.9614 41.1369 101.3716 -5.7389 11.2582 8.7955
# 4 -13.6635 -13.7413 -5.7389 44.6987 5.6036 -15.2996
# 5 -15.6894 7.5138 11.2582 5.6036 49.2249 -1.9590
# 6 5.8241 22.2000 8.7955 -15.2996 -1.9590 57.2708
#
#
#
# Elastic Compliance Matrix: (Units=1/GPa)
#
#
# Indices 1 2 3 4 5 6 
#
# 1 0.014222 -0.003853 -0.006331 0.002171 0.006394 0.001818
# 2 -0.003853 0.009879 -0.001461 0.000959 -0.002632 -0.003047
# 3 -0.006331 -0.001461 0.014293 -0.000341 -0.005075 -0.001250
# 4 0.002171 0.000959 -0.000341 0.025683 -0.002051 0.006251
# 5 0.006394 -0.002632 -0.005075 -0.002051 0.024206 0.001429
# 6 0.001818 -0.003047 -0.001250 0.006251 0.001429 0.020368
#
#
# Mechanical properties :
#
#
# Convention : Reuss Voigt Hill
#
# Bulk Modulus (GPa) = 66.20891 71.26688 68.73789
# Shear Modulus (GPa) = 36.50283 44.28627 40.39455
#
# Velocity S-wave (km/s) = 3.88935 4.28399 4.09143
# Velocity P-wave (km/s) = 6.89977 7.34871 7.12778
#
# Compressibility (1/GPa) = 0.01510371
#
# Stress axis : x y z
#
# Youngs Moduli (GPa) = 70.31414 101.22346 69.96491
#
# Poissons Ratio (x) = 0.39005 0.44294
# Poissons Ratio (y) = 0.27095 0.10220
# Poissons Ratio (z) = 0.44515 0.14787
#
# Static dielectric constant tensor:
#      x y z
#    x 1.939630 0.019590 -0.007500 
#    y 0.019590 1.966200 0.032620 
#    z -0.007500 0.032620 2.027950 
# 
# From -- ./inp_files/53234.got.cif
#   From: 2010.05.17/outbox.cif.g08.bks.cpg/sg2_27_cif.got.tgz:53234.got - 2010.06.03 11:33:40.
