data_PCOD9042272
_publ_section_title
;
Structure prediction by ZEFSAII (Michael W. Deem and Ramdas Pophale) SiO2 
 PCOD9042272
Probable space group: P -1
;
_chemical_formula_sum "Si O2"
_cell_formula_units_Z 14
_cell_length_a 14.637781
_cell_length_b 5.338180
_cell_length_c 23.730475
_cell_angle_alpha 106.578673
_cell_angle_beta 20.715418
_cell_angle_gamma 96.327145
_cell_volume 557.479098
_symmetry_space_group_name_H-M "P -1"
_symmetry_group_IT_number 2
_symmetry_cell_setting 'triclinic'
loop_
_space_group_symop_operation_xyz
x,y,z
-x,-y,-z
loop_
_atom_site_type_symbol
_atom_site_label
_atom_site_fract_x
_atom_site_fract_y
_atom_site_fract_z
Si Si1 0.407066 0.340463 0.590029
Si Si2 0.766199 0.176340 0.477365
Si Si3 0.354235 0.516619 0.243940
Si Si4 0.095503 0.510295 0.034720
Si Si5 0.631687 0.225693 0.948488
Si Si6 0.246510 0.344176 0.412839
Si Si7 0.267517 0.060214 0.814214
O O1 0.500000 0.500000 0.500000
O O2 0.565730 0.380822 0.556246
O O3 0.072477 0.478660 0.810740
O O4 0.500000 0.000000 0.500000
O O5 0.886794 0.326860 0.462163
O O6 0.546284 0.086025 0.629717
O O7 0.030798 0.931776 0.273707
O O8 0.315692 0.332757 0.306186
O O9 0.024069 0.729214 0.428420
O O10 0.561237 0.632764 0.161282
O O11 0.544729 0.335091 0.069510
O O12 0.942419 0.836276 0.113971
O O13 0.061705 0.300731 0.994383
O O14 0.500000 0.500000 0.000000
O O15 0.500000 0.000000 0.000000
O O16 0.544291 0.199592 0.267057
#
# Coordination Sequence:
#
# PCOD9042272 Si02
#       7
#     2   2   2   2   2   2   2
#     4  11  27  47  74 108 150 199 246 308 370 444
#     4  11  24  46  71 103 150 192 249 303 382 433
#     4  11  24  46  70 113 142 191 255 304 368 444
#     4  10  23  45  70 107 145 191 251 305 363 453
#     4  12  27  47  72 104 148 195 245 301 370 441
#     4  11  24  44  75 104 150 193 243 314 372 441
#     4  10  23  44  70 104 144 195 239 307 379 435
#
# _framework density 25.113047999999999
#
# number of rings (size 3 to 8) (size 9 to 14) (size 15 to 20)
#    0.000    1.143    2.857    1.714    4.000    5.714 
#    0.000    0.000    0.000    0.000    0.000    0.000 
#    0.000    0.000    0.000    0.000    0.000    0.000 
#
# Total GULP energy -78118.139616 kJ/mol
# GULP energy per Si atom -5579.867115 kJ/mol
# Density = 2.505589 g / cm^3
# Si number density = 25.113048 Si / 1000 Ang^3
#
#
#
# Elastic Constant Matrix: (Units=GPa)
#
#
# Indices 1 2 3 4 5 6 
#
# 1 137.0798 35.8910 38.0837 -7.2953 12.5182 -4.7031
# 2 35.8910 66.1253 27.3749 -13.3212 1.7312 -15.9742
# 3 38.0837 27.3749 187.5177 -24.6913 7.1313 -10.8924
# 4 -7.2953 -13.3212 -24.6913 34.3202 -4.4821 1.1318
# 5 12.5182 1.7312 7.1313 -4.4821 67.3969 -7.5722
# 6 -4.7031 -15.9742 -10.8924 1.1318 -7.5722 33.6747
#
#
#
# Elastic Compliance Matrix: (Units=1/GPa)
#
#
# Indices 1 2 3 4 5 6 
#
# 1 0.008986 -0.004973 -0.001289 -0.001106 -0.001688 -0.001863
# 2 -0.004973 0.021781 -0.000797 0.006766 0.001977 0.009597
# 3 -0.001289 -0.000797 0.006304 0.003908 0.000004 0.001351
# 4 -0.001106 0.006766 0.003908 0.034522 0.002328 0.003682
# 5 -0.001688 0.001977 0.000004 0.002328 0.015722 0.004160
# 6 -0.001863 0.009597 0.001351 0.003682 0.004160 0.035237
#
#
# Mechanical properties :
#
#
# Convention : Reuss Voigt Hill
#
# Bulk Modulus (GPa) = 43.56326 65.93577 54.74951
# Shear Modulus (GPa) = 34.64496 46.36991 40.50743
#
# Velocity S-wave (km/s) = 3.71827 4.30169 4.02058
# Velocity P-wave (km/s) = 5.98486 7.14040 6.58802
#
# Compressibility (1/GPa) = 0.02295512
#
# Stress axis : x y z
#
# Youngs Moduli (GPa) = 111.27887 45.91075 158.63548
#
# Poissons Ratio (x) = 0.22830 0.20445
# Poissons Ratio (y) = 0.55336 0.12638
# Poissons Ratio (z) = 0.14342 0.03657
#
# Static dielectric constant tensor:
#      x y z
#    x 2.040090 -0.055150 -0.100640 
#    y -0.055150 2.622500 0.586510 
#    z -0.100640 0.586510 2.713760 
# 
# From -- ./inp_files/94566.got.cif
#   From: 2010.05.17/outbox.cif.g08.bks.cpg/sg2_48_cif.got.tgz:94566.got - 2010.06.03 11:33:40.
