data_PCOD9042036
_publ_section_title
;
Structure prediction by ZEFSAII (Michael W. Deem and Ramdas Pophale) SiO2 
 PCOD9042036
Probable space group: P -1
;
_chemical_formula_sum "Si O2"
_cell_formula_units_Z 14
_cell_length_a 10.024314
_cell_length_b 7.424335
_cell_length_c 11.408159
_cell_angle_alpha 122.605451
_cell_angle_beta 125.621998
_cell_angle_gamma 86.815209
_cell_volume 538.450794
_symmetry_space_group_name_H-M "P -1"
_symmetry_group_IT_number 2
_symmetry_cell_setting 'triclinic'
loop_
_space_group_symop_operation_xyz
x,y,z
-x,-y,-z
loop_
_atom_site_type_symbol
_atom_site_label
_atom_site_fract_x
_atom_site_fract_y
_atom_site_fract_z
Si Si1 0.922245 0.297291 0.022108
Si Si2 0.038785 0.214833 0.820365
Si Si3 0.613498 0.805602 0.017483
Si Si4 0.784359 0.715462 0.447343
Si Si5 0.490147 0.909544 0.330384
Si Si6 0.767222 0.288552 0.170198
Si Si7 0.435626 0.634499 0.613304
O O1 0.719378 0.217524 0.844328
O O2 0.023571 0.197718 0.948317
O O3 0.019217 0.573784 0.164109
O O4 0.885590 0.232657 0.115154
O O5 0.920572 0.972329 0.622234
O O6 0.238538 0.287917 0.903992
O O7 0.434533 0.739280 0.976442
O O8 0.556209 0.727316 0.825360
O O9 0.716468 0.083725 0.167164
O O10 0.605414 0.749723 0.325734
O O11 0.850259 0.552237 0.344694
O O12 0.734981 0.566067 0.489235
O O13 0.500000 0.000000 0.500000
O O14 0.570053 0.137657 0.370692
O O15 0.500000 0.500000 0.500000
#
# Coordination Sequence:
#
# PCOD9042036 Si02
#       7
#     2   2   2   2   2   2   2
#     4  11  23  44  68 103 136 180 230 281 346 404
#     4  11  25  43  69 102 144 175 227 289 343 403
#     4  10  23  44  69 100 137 176 233 281 338 413
#     4  11  25  44  67 103 141 178 231 280 344 413
#     4  12  22  42  71 100 136 181 234 283 328 412
#     4  10  23  46  68  96 136 184 231 273 339 420
#     4  11  21  40  71 101 131 182 233 280 333 401
#
# _framework density 26.000522
#
# number of rings (size 3 to 8) (size 9 to 14) (size 15 to 20)
#    0.000    1.143    4.286    1.714    0.000    4.000 
#    2.571    0.000    0.000    0.000    0.000    0.000 
#    0.000    0.000    0.000    0.000    0.000    0.000 
#
# Total GULP energy -78335.423054 kJ/mol
# GULP energy per Si atom -5595.387361 kJ/mol
# Density = 2.594134 g / cm^3
# Si number density = 26.000522 Si / 1000 Ang^3
#
#
#
# Elastic Constant Matrix: (Units=GPa)
#
#
# Indices 1 2 3 4 5 6 
#
# 1 75.9637 22.4302 3.9330 -12.5043 -0.1284 2.1208
# 2 22.4302 138.7513 42.7792 25.2346 1.7772 11.0702
# 3 3.9330 42.7792 91.3193 27.4551 3.1816 3.1777
# 4 -12.5043 25.2346 27.4551 42.8198 6.6593 -7.1885
# 5 -0.1284 1.7772 3.1816 6.6593 42.6353 3.3649
# 6 2.1208 11.0702 3.1777 -7.1885 3.3649 43.1308
#
#
#
# Elastic Compliance Matrix: (Units=1/GPa)
#
#
# Indices 1 2 3 4 5 6 
#
# 1 0.015605 -0.003684 -0.001397 0.008082 -0.001093 0.001714
# 2 -0.003684 0.009941 -0.002633 -0.005938 0.000954 -0.003240
# 3 -0.001397 -0.002633 0.014948 -0.008835 0.000518 -0.001869
# 4 0.008082 -0.005938 -0.008835 0.037149 -0.005534 0.008401
# 5 -0.001093 0.000954 0.000518 -0.005534 0.024479 -0.003061
# 6 0.001714 -0.003240 -0.001869 0.008401 -0.003061 0.025709
#
#
# Mechanical properties :
#
#
# Convention : Reuss Voigt Hill
#
# Bulk Modulus (GPa) = 39.89934 49.36879 44.63406
# Shear Modulus (GPa) = 32.97808 41.50999 37.24404
#
# Velocity S-wave (km/s) = 3.56527 3.99996 3.78886
# Velocity P-wave (km/s) = 5.68569 6.35309 6.02864
#
# Compressibility (1/GPa) = 0.02506307
#
# Stress axis : x y z
#
# Youngs Moduli (GPa) = 64.08156 100.59390 66.90069
#
# Poissons Ratio (x) = 0.37063 0.09349
# Poissons Ratio (y) = 0.23610 0.17618
# Poissons Ratio (z) = 0.08955 0.26490
#
# Static dielectric constant tensor:
#      x y z
#    x 2.036910 -0.014070 -0.000880 
#    y -0.014070 2.066130 -0.046270 
#    z -0.000880 -0.046270 2.128890 
# 
# From -- ./inp_files/377192.got.cif
#   From: 2010.05.17/outbox.cif.g08.bks.cpg/sg2_189_cif.got.tgz:377192.got - 2010.06.03 11:33:40.
