data_PCOD9042463
_publ_section_title
;
Structure prediction by ZEFSAII (Michael W. Deem and Ramdas Pophale) SiO2 
 PCOD9042463
Probable space group: P -1
;
_chemical_formula_sum "Si O2"
_cell_formula_units_Z 14
_cell_length_a 11.866858
_cell_length_b 5.244152
_cell_length_c 9.124665
_cell_angle_alpha 98.287163
_cell_angle_beta 100.551498
_cell_angle_gamma 96.147118
_cell_volume 547.187404
_symmetry_space_group_name_H-M "P -1"
_symmetry_group_IT_number 2
_symmetry_cell_setting 'triclinic'
loop_
_space_group_symop_operation_xyz
x,y,z
-x,-y,-z
loop_
_atom_site_type_symbol
_atom_site_label
_atom_site_fract_x
_atom_site_fract_y
_atom_site_fract_z
Si Si1 0.724017 0.941256 0.483396
Si Si2 0.083092 0.357517 0.111085
Si Si3 0.662949 0.051640 0.171117
Si Si4 0.107539 0.054418 0.834881
Si Si5 0.457409 0.331979 0.116364
Si Si6 0.953458 0.313962 0.608278
Si Si7 0.377192 0.544332 0.404840
O O1 0.671514 0.874478 0.303009
O O2 0.857028 0.077142 0.518814
O O3 0.654159 0.167871 0.549298
O O4 0.709056 0.686353 0.557720
O O5 0.114410 0.550985 0.267966
O O6 0.159104 0.240506 0.996546
O O7 0.009355 0.113455 0.152186
O O8 0.000000 0.500000 0.000000
O O9 0.573664 0.246029 0.206014
O O10 0.799201 0.140294 0.188724
O O11 0.615528 0.919027 0.997836
O O12 0.063996 0.224081 0.709045
O O13 0.389929 0.479756 0.230856
O O14 0.500000 0.500000 0.000000
O O15 0.000000 0.500000 0.500000
O O16 0.500000 0.500000 0.500000
#
# Coordination Sequence:
#
# PCOD9042463 Si02
#       7
#     2   2   2   2   2   2   2
#     4  12  29  47  80 113 152 203 256 310 395 446
#     4   9  21  42  65  99 140 190 243 307 368 454
#     4  11  26  45  71 103 141 198 245 310 380 447
#     4  10  23  44  71  97 150 189 253 304 380 452
#     4  11  27  47  73 106 146 189 257 312 386 453
#     4  11  26  44  71 109 154 197 252 310 379 459
#     4  12  27  52  80 109 154 200 256 325 378 455
#
# _framework density 25.585384999999999
#
# number of rings (size 3 to 8) (size 9 to 14) (size 15 to 20)
#    0.000    1.143    1.429    2.143   10.000    5.714 
#    0.000    0.000    0.000    0.000    0.000    0.000 
#    0.000    0.000    0.000    0.000    0.000    0.000 
#
# Total GULP energy -78280.867565 kJ/mol
# GULP energy per Si atom -5591.490540 kJ/mol
# Density = 2.552715 g / cm^3
# Si number density = 25.585385 Si / 1000 Ang^3
#
#
#
# Elastic Constant Matrix: (Units=GPa)
#
#
# Indices 1 2 3 4 5 6 
#
# 1 99.4878 12.0403 28.5361 -4.6322 13.9852 -19.9119
# 2 12.0403 80.1127 25.5551 -17.7096 10.8047 -1.5796
# 3 28.5361 25.5551 152.1705 -1.5271 -5.4935 -4.5573
# 4 -4.6322 -17.7096 -1.5271 56.0146 -5.5331 -8.5898
# 5 13.9852 10.8047 -5.4935 -5.5331 37.1477 5.2372
# 6 -19.9119 -1.5796 -4.5573 -8.5898 5.2372 37.0772
#
#
#
# Elastic Compliance Matrix: (Units=1/GPa)
#
#
# Indices 1 2 3 4 5 6 
#
# 1 0.013354 0.000189 -0.002503 0.001721 -0.006348 0.008167
# 2 0.000189 0.014923 -0.002592 0.004549 -0.004413 0.002096
# 3 -0.002503 -0.002592 0.007540 -0.000707 0.002861 -0.001096
# 4 0.001721 0.004549 -0.000707 0.020304 0.000143 0.005715
# 5 -0.006348 -0.004413 0.002861 0.000143 0.032130 -0.007751
# 6 0.008167 0.002096 -0.001096 0.005715 -0.007751 0.033730
#
#
# Mechanical properties :
#
#
# Convention : Reuss Voigt Hill
#
# Bulk Modulus (GPa) = 38.45674 51.55934 45.00804
# Shear Modulus (GPa) = 35.59696 43.75720 39.67708
#
# Velocity S-wave (km/s) = 3.73406 4.13999 3.94226
# Velocity P-wave (km/s) = 5.80123 6.56112 6.19285
#
# Compressibility (1/GPa) = 0.02600324
#
# Stress axis : x y z
#
# Youngs Moduli (GPa) = 74.88598 67.01087 132.63062
#
# Poissons Ratio (x) = -0.01268 0.33200
# Poissons Ratio (y) = -0.01417 0.34384
# Poissons Ratio (z) = 0.18746 0.17373
#
# Static dielectric constant tensor:
#      x y z
#    x 2.070890 0.003390 -0.019250 
#    y 0.003390 2.015050 0.090070 
#    z -0.019250 0.090070 2.135070 
# 
# From -- ./inp_files/229920.got.cif
#   From: 2010.05.17/outbox.cif.g08.bks.cpg/sg2_115_cif.got.tgz:229920.got - 2010.06.03 11:33:40.
