data_PCOD9042373
_publ_section_title
;
Structure prediction by ZEFSAII (Michael W. Deem and Ramdas Pophale) SiO2 
 PCOD9042373
Probable space group: P -1
;
_chemical_formula_sum "Si O2"
_cell_formula_units_Z 12
_cell_length_a 14.800315
_cell_length_b 15.838955
_cell_length_c 9.098032
_cell_angle_alpha 38.850700
_cell_angle_beta 33.240362
_cell_angle_gamma 26.888703
_cell_volume 524.073087
_symmetry_space_group_name_H-M "P -1"
_symmetry_group_IT_number 2
_symmetry_cell_setting 'triclinic'
loop_
_space_group_symop_operation_xyz
x,y,z
-x,-y,-z
loop_
_atom_site_type_symbol
_atom_site_label
_atom_site_fract_x
_atom_site_fract_y
_atom_site_fract_z
Si Si1 0.099874 0.276099 0.805044
Si Si2 0.665515 0.532495 0.254393
Si Si3 0.493029 0.925042 0.955686
Si Si4 0.277802 0.620202 0.317552
Si Si5 0.852876 0.882637 0.350915
Si Si6 0.441797 0.320202 0.254754
O O1 0.059913 0.213052 0.797509
O O2 0.232728 0.336654 0.493941
O O3 0.865827 0.435398 0.994378
O O4 0.276157 0.096258 0.919037
O O5 0.500000 0.500000 0.500000
O O6 0.514481 0.753259 0.181209
O O7 0.788874 0.420144 0.391374
O O8 0.718912 0.838029 0.673721
O O9 0.500000 0.000000 0.000000
O O10 0.378325 0.451693 0.298483
O O11 0.058163 0.807310 0.280156
O O12 0.465928 0.631778 0.061611
O O13 0.657904 0.104752 0.294334
#
# Coordination Sequence:
#
# PCOD9042373 Si02
#       6
#     2   2   2   2   2   2
#     4  11  26  45  74 100 137 185 233 283 345 409
#     4  12  29  45  69 105 145 181 230 292 350 410
#     4  11  24  47  74 102 141 186 233 280 346 421
#     4  11  25  43  69 101 140 178 226 286 348 406
#     4  11  24  43  75 101 135 182 233 283 338 415
#     4  10  23  44  71 101 135 177 233 280 341 412
#
# _framework density 22.897570999999999
#
# number of rings (size 3 to 8) (size 9 to 14) (size 15 to 20)
#    0.000    1.000    0.000    6.500    9.333    4.000 
#    3.000    0.000    0.000    0.000    0.000    0.000 
#    0.000    0.000    0.000    0.000    0.000    0.000 
#
# Total GULP energy -67186.756584 kJ/mol
# GULP energy per Si atom -5598.896382 kJ/mol
# Density = 2.284545 g / cm^3
# Si number density = 22.897571 Si / 1000 Ang^3
#
#
#
# Elastic Constant Matrix: (Units=GPa)
#
#
# Indices 1 2 3 4 5 6 
#
# 1 64.0428 -8.2999 10.6790 29.6681 -0.8579 -67.1205
# 2 -8.2999 41.1999 13.4111 46.4211 -22.3134 -70.0581
# 3 10.6790 13.4111 95.0613 13.3059 -10.8125 -38.1246
# 4 29.6681 46.4211 13.3059 8.9409 16.4518 47.5524
# 5 -0.8579 -22.3134 -10.8125 16.4518 40.9169 -12.0041
# 6 -67.1205 -70.0581 -38.1246 47.5524 -12.0041 -50.8778
#
#
#
# Elastic Compliance Matrix: (Units=1/GPa)
#
#
# Indices 1 2 3 4 5 6 
#
# 1 0.012460 -0.006179 -0.001989 0.005248 -0.005793 -0.000168
# 2 -0.006179 0.012955 -0.004031 -0.001262 0.003812 -0.008745
# 3 -0.001989 -0.004031 0.011612 0.002149 0.000374 0.001393
# 4 0.005248 -0.001262 0.002149 0.022882 -0.004611 0.015678
# 5 -0.005793 0.003812 0.000374 -0.004611 0.025912 -0.008309
# 6 -0.000168 -0.008745 0.001393 0.015678 -0.008309 0.008179
#
#
# Mechanical properties :
#
#
# Convention : Reuss Voigt Hill
#
# Bulk Modulus (GPa) = 79.17528 25.76492 52.47010
# Shear Modulus (GPa) = 40.78071 12.09693 26.43882
#
# Velocity S-wave (km/s) = 4.22477 2.30099 3.40171
# Velocity P-wave (km/s) = 7.64535 4.28206 6.19627
#
# Compressibility (1/GPa) = 0.01263020
#
# Stress axis : x y z
#
# Youngs Moduli (GPa) = 80.25373 77.19323 86.11771
#
# Poissons Ratio (x) = 0.47696 0.17129
# Poissons Ratio (y) = 0.49587 0.34710
# Poissons Ratio (z) = 0.15963 0.31113
#
# Static dielectric constant tensor:
#      x y z
#    x 1.890650 -0.027190 0.003220 
#    y -0.027190 1.822800 -0.014200 
#    z 0.003220 -0.014200 1.860260 
# 
# From -- ./inp_files/184754.got.cif
#   From: 2010.05.17/outbox.cif.g08.bks.cpg/sg2_93_cif.got.tgz:184754.got - 2010.06.03 11:33:40.
