data_PCOD9042039
_publ_section_title
;
Structure prediction by ZEFSAII (Michael W. Deem and Ramdas Pophale) SiO2 
 PCOD9042039
Probable space group: P -1
;
_chemical_formula_sum "Si O2"
_cell_formula_units_Z 15
_cell_length_a 12.562393
_cell_length_b 11.775801
_cell_length_c 10.004269
_cell_angle_alpha 137.001679
_cell_angle_beta 41.059738
_cell_angle_gamma 137.707567
_cell_volume 601.571432
_symmetry_space_group_name_H-M "P -1"
_symmetry_group_IT_number 2
_symmetry_cell_setting 'triclinic'
loop_
_space_group_symop_operation_xyz
x,y,z
-x,-y,-z
loop_
_atom_site_type_symbol
_atom_site_label
_atom_site_fract_x
_atom_site_fract_y
_atom_site_fract_z
Si Si1 0.000000 0.000000 0.500000
Si Si2 0.432357 0.147368 0.255852
Si Si3 0.304718 0.067108 0.929966
Si Si4 0.007035 0.670412 0.358319
Si Si5 0.637925 0.686598 0.150267
Si Si6 0.679701 0.293932 0.408483
Si Si7 0.955681 0.027354 0.220858
Si Si8 0.625673 0.338887 0.005457
O O1 0.217632 0.057760 0.386816
O O2 0.048053 0.213583 0.595680
O O3 0.551014 0.222292 0.340201
O O4 0.504328 0.320131 0.233386
O O5 0.500000 0.000000 0.000000
O O6 0.310095 0.236714 0.981953
O O7 0.286701 0.879097 0.718656
O O8 0.496451 0.157319 0.892283
O O9 0.116740 0.007806 0.137341
O O10 0.856985 0.468027 0.352524
O O11 0.044839 0.787452 0.563025
O O12 0.187333 0.659221 0.133042
O O13 0.434748 0.653264 0.331805
O O14 0.662280 0.512831 0.028362
O O15 0.766406 0.857727 0.266398
O O16 0.000000 0.000000 0.000000
#
# Coordination Sequence:
#
# PCOD9042039 Si02
#       8
#     1   2   2   2   2   2   2   2
#     4  12  24  46  78 106 142 196 238 300 366 426
#     4  12  25  48  73 109 146 188 243 302 364 430
#     4  11  22  44  71 101 143 188 236 304 363 425
#     4  12  27  45  72 105 142 194 242 298 369 439
#     4  11  24  43  69 105 139 189 242 300 366 427
#     4  12  26  45  71 107 143 192 241 298 365 436
#     4  10  23  44  69 100 137 185 239 299 359 426
#     4  12  25  46  72 106 148 188 245 303 360 439
#
# _framework density 24.934695999999999
#
# number of rings (size 3 to 8) (size 9 to 14) (size 15 to 20)
#    0.000    0.533    2.667    5.600    0.000    5.867 
#    2.400    6.000    0.000    0.000    0.000    0.000 
#    0.000    0.000    0.000    0.000    0.000    0.000 
#
# Total GULP energy -83566.653726 kJ/mol
# GULP energy per Si atom -5571.110248 kJ/mol
# Density = 2.487794 g / cm^3
# Si number density = 24.934696 Si / 1000 Ang^3
#
#
#
# Elastic Constant Matrix: (Units=GPa)
#
#
# Indices 1 2 3 4 5 6 
#
# 1 59.8093 40.1322 2.9535 11.1280 -5.2386 5.0583
# 2 40.1322 166.7604 33.0848 2.0874 -14.5181 14.5028
# 3 2.9535 33.0848 59.5374 2.8903 -25.2474 12.1685
# 4 11.1280 2.0874 2.8903 46.5216 5.9189 -21.8378
# 5 -5.2386 -14.5181 -25.2474 5.9189 45.3390 3.2247
# 6 5.0583 14.5028 12.1685 -21.8378 3.2247 55.6050
#
#
#
# Elastic Compliance Matrix: (Units=1/GPa)
#
#
# Indices 1 2 3 4 5 6 
#
# 1 0.022862 -0.005576 0.006086 -0.009096 0.005850 -0.005869
# 2 -0.005576 0.008181 -0.004666 0.001343 -0.000796 -0.000032
# 3 0.006086 -0.004666 0.029300 -0.010412 0.017657 -0.010862
# 4 -0.009096 0.001343 -0.010412 0.033597 -0.011989 0.016645
# 5 0.005850 -0.000796 0.017657 -0.011989 0.034650 -0.010906
# 6 -0.005869 -0.000032 -0.010862 0.016645 -0.010906 0.028073
#
#
# Mechanical properties :
#
#
# Convention : Reuss Voigt Hill
#
# Bulk Modulus (GPa) = 19.21895 48.71645 33.96770
# Shear Modulus (GPa) = 27.42485 43.48892 35.45688
#
# Velocity S-wave (km/s) = 3.32002 4.18079 3.77502
# Velocity P-wave (km/s) = 4.73510 6.54869 5.71430
#
# Compressibility (1/GPa) = 0.05203198
#
# Stress axis : x y z
#
# Youngs Moduli (GPa) = 43.74143 122.23737 34.12977
#
# Poissons Ratio (x) = 0.68157 -0.20772
# Poissons Ratio (y) = 0.24389 0.15923
# Poissons Ratio (z) = -0.26621 0.57030
#
# Static dielectric constant tensor:
#      x y z
#    x 3.160490 -0.411560 1.410260 
#    y -0.411560 2.142310 -0.543920 
#    z 1.410260 -0.543920 3.776570 
# 
# From -- ./inp_files/429018.got.cif
#   From: 2010.05.17/outbox.cif.g08.bks.cpg/sg2_215_cif.got.tgz:429018.got - 2010.06.03 11:33:40.
