data_PCOD9042581
_publ_section_title
;
Structure prediction by ZEFSAII (Michael W. Deem and Ramdas Pophale) SiO2 
 PCOD9042581
Probable space group: P -1
;
_chemical_formula_sum "Si O2"
_cell_formula_units_Z 16
_cell_length_a 5.113106
_cell_length_b 25.070775
_cell_length_c 7.270584
_cell_angle_alpha 129.767578
_cell_angle_beta 109.710228
_cell_angle_gamma 94.366689
_cell_volume 617.116258
_symmetry_space_group_name_H-M "P -1"
_symmetry_group_IT_number 2
_symmetry_cell_setting 'triclinic'
loop_
_space_group_symop_operation_xyz
x,y,z
-x,-y,-z
loop_
_atom_site_type_symbol
_atom_site_label
_atom_site_fract_x
_atom_site_fract_y
_atom_site_fract_z
Si Si1 0.876717 0.243265 0.249368
Si Si2 0.315394 0.955714 0.534071
Si Si3 0.684607 0.544286 0.465929
Si Si4 0.480317 0.665753 0.519617
Si Si5 0.519683 0.834247 0.480384
Si Si6 0.320131 0.108926 0.949112
Si Si7 0.123283 0.256735 0.750632
Si Si8 0.679868 0.391073 0.050886
O O1 0.728038 0.304784 0.344803
O O2 0.178209 0.268656 0.256146
O O3 0.000000 0.250000 0.500000
O O4 0.607406 0.160134 0.004113
O O5 0.478313 0.908083 0.563899
O O6 0.981721 0.905091 0.266913
O O7 0.500000 0.000000 0.500000
O O8 0.305552 0.025251 0.804353
O O9 0.500000 0.500000 0.500000
O O10 0.521688 0.591917 0.436101
O O11 0.694447 0.474749 0.195647
O O12 0.018279 0.594909 0.733088
O O13 0.355535 0.650153 0.245705
O O14 0.728038 0.804784 0.344804
O O15 0.178209 0.768656 0.256146
O O16 0.644466 0.849847 0.754296
O O17 0.392593 0.339866 0.995887
#
# Coordination Sequence:
#
# PCOD9042581 Si02
#       8
#     2   2   2   2   2   2   2   2
#     4  10  23  44  73 100 128 174 227 275 331 392
#     4  11  27  42  66 100 137 178 222 270 330 401
#     4  11  27  42  66 100 137 178 222 270 330 401
#     4  11  25  45  73  97 131 180 221 273 338 386
#     4  11  25  45  73  97 131 180 221 273 338 386
#     4  10  24  45  66  97 138 172 222 278 326 397
#     4  10  23  44  73 100 128 174 227 275 331 392
#     4  10  24  45  66  97 138 172 222 278 326 397
#
# _framework density 25.927042
#
# number of rings (size 3 to 8) (size 9 to 14) (size 15 to 20)
#    0.000    1.500    0.000    3.750   17.500    3.000 
#    0.000    0.000    0.000    0.000    0.000    0.000 
#    0.000    0.000    0.000    0.000    0.000    0.000 
#
# Total GULP energy -89713.227071 kJ/mol
# GULP energy per Si atom -5607.076692 kJ/mol
# Density = 2.586803 g / cm^3
# Si number density = 25.927042 Si / 1000 Ang^3
#
#
#
# Elastic Constant Matrix: (Units=GPa)
#
#
# Indices 1 2 3 4 5 6 
#
# 1 106.7187 27.8645 37.7388 10.7222 18.6684 -24.0286
# 2 27.8645 141.7074 28.1457 16.3713 0.4263 -38.3520
# 3 37.7388 28.1457 156.4156 7.3964 7.3470 -7.9578
# 4 10.7222 16.3713 7.3964 39.1681 2.0367 -7.5641
# 5 18.6684 0.4263 7.3470 2.0367 44.5557 14.0804
# 6 -24.0286 -38.3520 -7.9578 -7.5641 14.0804 52.1450
#
#
#
# Elastic Compliance Matrix: (Units=1/GPa)
#
#
# Indices 1 2 3 4 5 6 
#
# 1 0.013417 0.000129 -0.002443 -0.001371 -0.007610 0.007760
# 2 0.000129 0.009443 -0.001165 -0.002292 -0.002077 0.007055
# 3 -0.002443 -0.001165 0.007151 -0.000398 0.000190 -0.001001
# 4 -0.001371 -0.002292 -0.000398 0.027371 -0.001194 0.001915
# 5 -0.007610 -0.002077 0.000190 -0.001194 0.029860 -0.013241
# 6 0.007760 0.007055 -0.001001 0.001915 -0.013241 0.031643
#
#
# Mechanical properties :
#
#
# Convention : Reuss Voigt Hill
#
# Bulk Modulus (GPa) = 43.38073 65.81554 54.59814
# Shear Modulus (GPa) = 37.44479 47.91327 42.67903
#
# Velocity S-wave (km/s) = 3.80443 4.30351 4.06164
# Velocity P-wave (km/s) = 6.00554 7.08051 6.56506
#
# Compressibility (1/GPa) = 0.02305171
#
# Stress axis : x y z
#
# Youngs Moduli (GPa) = 74.53199 105.89339 139.83303
#
# Poissons Ratio (x) = -0.01361 0.34164
# Poissons Ratio (y) = -0.00958 0.16296
# Poissons Ratio (z) = 0.18210 0.12341
#
# Static dielectric constant tensor:
#      x y z
#    x 2.061770 -0.022100 -0.044910 
#    y -0.022100 2.006430 0.043090 
#    z -0.044910 0.043090 2.067530 
# 
# From -- ./inp_files/142705.got.cif
#   From: 2010.05.17/outbox.cif.g08.bks.cpg/sg2_72_cif.got.tgz:142705.got - 2010.06.03 11:33:40.
