data_PCOD9042047
_publ_section_title
;
Structure prediction by ZEFSAII (Michael W. Deem and Ramdas Pophale) SiO2 
 PCOD9042047
Probable space group: P -1
;
_chemical_formula_sum "Si O2"
_cell_formula_units_Z 16
_cell_length_a 17.569842
_cell_length_b 16.899768
_cell_length_c 5.308220
_cell_angle_alpha 68.342553
_cell_angle_beta 50.203940
_cell_angle_gamma 33.902409
_cell_volume 625.233573
_symmetry_space_group_name_H-M "P -1"
_symmetry_group_IT_number 2
_symmetry_cell_setting 'triclinic'
loop_
_space_group_symop_operation_xyz
x,y,z
-x,-y,-z
loop_
_atom_site_type_symbol
_atom_site_label
_atom_site_fract_x
_atom_site_fract_y
_atom_site_fract_z
Si Si1 0.627783 0.691606 0.563943
Si Si2 0.012471 0.798409 0.434154
Si Si3 0.107559 0.201954 0.788203
Si Si4 0.498753 0.097497 0.801475
Si Si5 0.288294 0.683753 0.335051
Si Si6 0.712377 0.151770 0.611469
Si Si7 0.446770 0.412753 0.449372
Si Si8 0.156864 0.366918 0.511238
O O1 0.574630 0.821403 0.407717
O O2 0.659005 0.594859 0.404263
O O3 0.824847 0.573481 0.387876
O O4 0.447750 0.783604 0.972568
O O5 0.015349 0.729607 0.276562
O O6 0.190412 0.715539 0.262046
O O7 0.872624 0.971545 0.449904
O O8 0.946135 0.802043 0.830762
O O9 0.141497 0.277021 0.687339
O O10 0.295663 0.026734 0.504299
O O11 0.355594 0.241451 0.121424
O O12 0.500000 0.000000 0.000000
O O13 0.192383 0.832963 0.486423
O O14 0.329693 0.579090 0.569771
O O15 0.463973 0.608455 0.961147
O O16 0.601030 0.269737 0.473724
O O17 0.000000 0.500000 0.500000
#
# Coordination Sequence:
#
# PCOD9042047 Si02
#       8
#     2   2   2   2   2   2   2   2
#     4  11  22  41  71  97 135 184 237 290 364 431
#     4  12  26  45  74 110 147 190 246 309 361 430
#     4  11  27  46  73 108 148 192 246 299 371 434
#     4  10  23  44  69  97 136 191 237 300 354 437
#     4  10  25  43  70 102 142 190 239 306 361 441
#     4  11  23  44  71 104 137 186 244 297 367 437
#     4  10  23  44  69 100 141 191 243 292 372 443
#     4  11  27  44  68 103 142 191 242 303 360 438
#
# _framework density 25.590432
#
# number of rings (size 3 to 8) (size 9 to 14) (size 15 to 20)
#    0.000    1.250    1.250    3.000    8.750    4.000 
#    0.000    0.000    0.000    0.000    0.000    0.000 
#    0.000    0.000    0.000    0.000    0.000    0.000 
#
# Total GULP energy -89247.636908 kJ/mol
# GULP energy per Si atom -5577.977307 kJ/mol
# Density = 2.553219 g / cm^3
# Si number density = 25.590432 Si / 1000 Ang^3
#
#
#
# Elastic Constant Matrix: (Units=GPa)
#
#
# Indices 1 2 3 4 5 6 
#
# 1 174.7215 45.3520 38.4243 -11.6738 -22.5061 -21.1167
# 2 45.3520 105.6156 34.3693 -35.7161 -8.7265 1.8782
# 3 38.4243 34.3693 82.7549 -14.5373 -15.9170 3.9674
# 4 -11.6738 -35.7161 -14.5373 37.4920 -0.7002 1.2254
# 5 -22.5061 -8.7265 -15.9170 -0.7002 20.5728 -2.0668
# 6 -21.1167 1.8782 3.9674 1.2254 -2.0668 35.7905
#
#
#
# Elastic Compliance Matrix: (Units=1/GPa)
#
#
# Indices 1 2 3 4 5 6 
#
# 1 0.008410 -0.002816 -0.001770 -0.000803 0.007187 0.005749
# 2 -0.002816 0.016433 -0.002536 0.013919 0.002141 -0.002595
# 3 -0.001770 -0.002536 0.016594 0.003724 0.009720 -0.002317
# 4 -0.000803 0.013919 0.003724 0.041377 0.009063 -0.002511
# 5 0.007187 0.002141 0.009720 0.009063 0.065865 0.006544
# 6 0.005749 -0.002595 -0.002317 -0.002511 0.006544 0.032189
#
#
# Mechanical properties :
#
#
# Convention : Reuss Voigt Hill
#
# Bulk Modulus (GPa) = 36.77342 66.59813 51.68577
# Shear Modulus (GPa) = 24.48865 35.10082 29.79473
#
# Velocity S-wave (km/s) = 3.09681 3.70758 3.41587
# Velocity P-wave (km/s) = 5.21423 6.66403 5.98321
#
# Compressibility (1/GPa) = 0.02719356
#
# Stress axis : x y z
#
# Youngs Moduli (GPa) = 118.90085 60.85428 60.26297
#
# Poissons Ratio (x) = 0.17134 0.10667
# Poissons Ratio (y) = 0.33477 0.15283
# Poissons Ratio (z) = 0.21047 0.15433
#
# Static dielectric constant tensor:
#      x y z
#    x 2.565020 -0.056510 0.173900 
#    y -0.056510 2.169910 0.118970 
#    z 0.173900 0.118970 2.195220 
# 
# From -- ./inp_files/111624.got.cif
#   From: 2010.05.17/outbox.cif.g08.bks.cpg/sg2_56_cif.got.tgz:111624.got - 2010.06.03 11:33:40.
