data_PCOD9042154
_publ_section_title
;
Structure prediction by ZEFSAII (Michael W. Deem and Ramdas Pophale) SiO2 
 PCOD9042154
Probable space group: P -1
;
_chemical_formula_sum "Si O2"
_cell_formula_units_Z 16
_cell_length_a 13.200607
_cell_length_b 24.394692
_cell_length_c 16.319635
_cell_angle_alpha 20.108597
_cell_angle_beta 155.353086
_cell_angle_gamma 154.781172
_cell_volume 703.800504
_symmetry_space_group_name_H-M "P -1"
_symmetry_group_IT_number 2
_symmetry_cell_setting 'triclinic'
loop_
_space_group_symop_operation_xyz
x,y,z
-x,-y,-z
loop_
_atom_site_type_symbol
_atom_site_label
_atom_site_fract_x
_atom_site_fract_y
_atom_site_fract_z
Si Si1 0.912316 0.254274 0.075675
Si Si2 0.422270 0.517443 0.011713
Si Si3 0.103790 0.040348 0.638289
Si Si4 0.868456 0.252556 0.374853
Si Si5 0.611080 0.903351 0.574453
Si Si6 0.942443 0.168768 0.733967
Si Si7 0.543207 0.556852 0.212406
Si Si8 0.407598 0.297997 0.624671
O O1 0.054884 0.196297 0.336175
O O2 0.663674 0.297783 0.860699
O O3 0.820266 0.083777 0.191626
O O4 0.116155 0.408641 0.955784
O O5 0.543751 0.723062 0.823099
O O6 0.500000 0.500000 0.000000
O O7 0.542485 0.461807 0.258764
O O8 0.292504 0.120619 0.739203
O O9 0.828916 0.927840 0.632967
O O10 0.910320 0.233528 0.528531
O O11 0.160248 0.315411 0.464295
O O12 0.710652 0.067164 0.477749
O O13 0.696063 0.370380 0.066384
O O14 0.340019 0.883797 0.359515
O O15 0.177287 0.297634 0.775217
O O16 0.000000 0.000000 0.000000
O O17 0.505869 0.440975 0.427055
#
# Coordination Sequence:
#
# PCOD9042154 Si02
#       8
#     2   2   2   2   2   2   2   2
#     4  11  23  45  69  97 138 183 228 284 342 410
#     4  12  24  46  72  99 136 182 227 287 351 404
#     4  10  23  44  69  96 140 181 227 282 344 410
#     4  11  25  44  69 102 144 183 230 283 348 408
#     4  11  22  44  71 102 138 185 226 283 345 409
#     4  12  24  41  69 101 136 182 233 280 339 415
#     4  12  25  46  68 100 145 180 231 290 347 407
#     4  11  25  41  70 105 133 182 231 282 342 419
#
# _framework density 22.733713999999999
#
# number of rings (size 3 to 8) (size 9 to 14) (size 15 to 20)
#    0.000    0.750    5.000    2.625    1.750    0.500 
#    0.000    3.750    0.000    0.000    0.000    0.000 
#    0.000    0.000    0.000    0.000    0.000    0.000 
#
# Total GULP energy -89353.813903 kJ/mol
# GULP energy per Si atom -5584.613369 kJ/mol
# Density = 2.268197 g / cm^3
# Si number density = 22.733714 Si / 1000 Ang^3
#
#
#
# Elastic Constant Matrix: (Units=GPa)
#
#
# Indices 1 2 3 4 5 6 
#
# 1 75.0606 31.6655 20.9547 16.0954 -1.2322 7.9062
# 2 31.6655 113.0506 32.5750 18.9559 10.3248 15.7813
# 3 20.9547 32.5750 82.7515 13.4056 4.3206 18.2479
# 4 16.0954 18.9559 13.4056 41.7487 9.7729 1.4451
# 5 -1.2322 10.3248 4.3206 9.7729 19.2813 -1.9487
# 6 7.9062 15.7813 18.2479 1.4451 -1.9487 46.0651
#
#
#
# Elastic Compliance Matrix: (Units=1/GPa)
#
#
# Indices 1 2 3 4 5 6 
#
# 1 0.016816 -0.003683 -0.002162 -0.005587 0.006331 -0.000325
# 2 -0.003683 0.011754 -0.002570 -0.001758 -0.005320 -0.002546
# 3 -0.002162 -0.002570 0.015145 -0.002362 -0.001437 -0.004735
# 4 -0.005587 -0.001758 -0.002362 0.031032 -0.014523 0.000909
# 5 0.006331 -0.005320 -0.001437 -0.014523 0.063248 0.004436
# 6 -0.000325 -0.002546 -0.004735 0.000909 0.004436 0.024671
#
#
# Mechanical properties :
#
#
# Convention : Reuss Voigt Hill
#
# Bulk Modulus (GPa) = 37.19617 49.02813 43.11215
# Shear Modulus (GPa) = 26.53087 33.79685 30.16386
#
# Velocity S-wave (km/s) = 3.41988 3.85988 3.64652
# Velocity P-wave (km/s) = 5.65609 6.44034 6.06091
#
# Compressibility (1/GPa) = 0.02688449
#
# Stress axis : x y z
#
# Youngs Moduli (GPa) = 59.46643 85.07780 66.02654
#
# Poissons Ratio (x) = 0.31336 0.14276
# Poissons Ratio (y) = 0.21903 0.16970
# Poissons Ratio (z) = 0.12858 0.21866
#
# Static dielectric constant tensor:
#      x y z
#    x 1.851240 0.003590 0.007140 
#    y 0.003590 1.885270 -0.055850 
#    z 0.007140 -0.055850 1.632450 
# 
# From -- ./inp_files/447392.got.cif
#   From: 2010.05.17/outbox.cif.g08.bks.cpg/sg2_224_cif.got.tgz:447392.got - 2010.06.03 11:33:40.
