data_PCOD9042019
_publ_section_title
;
Structure prediction by ZEFSAII (Michael W. Deem and Ramdas Pophale) SiO2 
 PCOD9042019
Probable space group: P -1
;
_chemical_formula_sum "Si O2"
_cell_formula_units_Z 12
_cell_length_a 9.770666
_cell_length_b 9.485861
_cell_length_c 9.631563
_cell_angle_alpha 72.217915
_cell_angle_beta 135.333905
_cell_angle_gamma 117.648692
_cell_volume 555.439783
_symmetry_space_group_name_H-M "P -1"
_symmetry_group_IT_number 2
_symmetry_cell_setting 'triclinic'
loop_
_space_group_symop_operation_xyz
x,y,z
-x,-y,-z
loop_
_atom_site_type_symbol
_atom_site_label
_atom_site_fract_x
_atom_site_fract_y
_atom_site_fract_z
Si Si1 0.227264 0.133477 0.112828
Si Si2 0.261822 0.808868 0.855443
Si Si3 0.477103 0.944861 0.237496
Si Si4 0.378901 0.329103 0.896352
Si Si5 0.501685 0.661466 0.524185
Si Si6 0.119779 0.450826 0.476025
O O1 0.303731 0.260412 0.254351
O O2 0.401474 0.051694 0.254801
O O3 0.238980 0.223415 0.949233
O O4 0.000000 0.000000 0.000000
O O5 0.047970 0.665236 0.714706
O O6 0.319760 0.943231 0.736310
O O7 0.292465 0.885068 0.006293
O O8 0.449295 0.742386 0.000222
O O9 0.504384 0.796612 0.376672
O O10 0.248387 0.353063 0.667049
O O11 0.500000 0.500000 0.000000
O O12 0.500000 0.500000 0.500000
O O13 0.287508 0.603559 0.477240
O O14 0.000000 0.500000 0.500000
#
# Coordination Sequence:
#
# PCOD9042019 Si02
#       6
#     2   2   2   2   2   2
#     4  11  26  43  67  99 137 182 222 282 350 400
#     4  10  23  44  68  99 134 185 226 283 350 404
#     4  10  24  46  67  96 142 175 229 288 338 418
#     4  11  21  43  65  99 140 171 231 286 331 417
#     4  12  27  45  70 106 139 177 235 289 341 412
#     4  12  24  40  72 101 135 187 227 279 355 405
#
# _framework density 21.604502
#
# number of rings (size 3 to 8) (size 9 to 14) (size 15 to 20)
#    0.000    1.000    3.333    2.500    7.000    0.667 
#    0.000    3.333    0.000    0.000    0.000    0.000 
#    0.000    0.000    0.000    0.000    0.000    0.000 
#
# Total GULP energy -67145.538057 kJ/mol
# GULP energy per Si atom -5595.461505 kJ/mol
# Density = 2.155533 g / cm^3
# Si number density = 21.604502 Si / 1000 Ang^3
#
#
#
# Elastic Constant Matrix: (Units=GPa)
#
#
# Indices 1 2 3 4 5 6 
#
# 1 67.5066 29.8153 15.4139 1.3064 -4.5422 12.6825
# 2 29.8153 107.2812 26.0798 1.9199 -3.2762 8.5837
# 3 15.4139 26.0798 83.9022 9.6935 -0.5545 15.5445
# 4 1.3064 1.9199 9.6935 64.7573 5.9415 -4.0050
# 5 -4.5422 -3.2762 -0.5545 5.9415 19.9988 9.9947
# 6 12.6825 8.5837 15.5445 -4.0050 9.9947 47.8346
#
#
#
# Elastic Compliance Matrix: (Units=1/GPa)
#
#
# Indices 1 2 3 4 5 6 
#
# 1 0.018321 -0.004238 -0.000925 -0.001009 0.006343 -0.005206
# 2 -0.004238 0.011188 -0.002664 0.000060 0.000877 -0.000196
# 3 -0.000925 -0.002664 0.014095 -0.002561 0.002836 -0.004664
# 4 -0.001009 0.000060 -0.002561 0.016760 -0.007275 0.004012
# 5 0.006343 0.000877 0.002836 -0.007275 0.061984 -0.016321
# 6 -0.005206 -0.000196 -0.004664 0.004012 -0.016321 0.027583
#
#
# Mechanical properties :
#
#
# Convention : Reuss Voigt Hill
#
# Bulk Modulus (GPa) = 35.77878 44.58977 40.18427
# Shear Modulus (GPa) = 28.58738 39.01022 33.79880
#
# Velocity S-wave (km/s) = 3.64155 4.25391 3.95958
# Velocity P-wave (km/s) = 5.85473 6.69414 6.28846
#
# Compressibility (1/GPa) = 0.02794953
#
# Stress axis : x y z
#
# Youngs Moduli (GPa) = 54.58221 89.37974 70.94525
#
# Poissons Ratio (x) = 0.37883 0.06564
# Poissons Ratio (y) = 0.23135 0.18898
# Poissons Ratio (z) = 0.05050 0.23809
#
# Static dielectric constant tensor:
#      x y z
#    x 1.843620 -0.041930 -0.063500 
#    y -0.041930 1.800130 0.023810 
#    z -0.063500 0.023810 1.817520 
# 
# From -- ./inp_files/156481.got.cif
#   From: 2010.05.17/outbox.cif.g08.bks.cpg/sg2_79_cif.got.tgz:156481.got - 2010.06.03 11:33:40.
