data_PCOD9042596
_publ_section_title
;
Structure prediction by ZEFSAII (Michael W. Deem and Ramdas Pophale) SiO2 
 PCOD9042596
Probable space group: P -1
;
_chemical_formula_sum "Si O2"
_cell_formula_units_Z 14
_cell_length_a 16.588875
_cell_length_b 8.238199
_cell_length_c 9.628891
_cell_angle_alpha 130.701439
_cell_angle_beta 136.349856
_cell_angle_gamma 79.772026
_cell_volume 569.396702
_symmetry_space_group_name_H-M "P -1"
_symmetry_group_IT_number 2
_symmetry_cell_setting 'triclinic'
loop_
_space_group_symop_operation_xyz
x,y,z
-x,-y,-z
loop_
_atom_site_type_symbol
_atom_site_label
_atom_site_fract_x
_atom_site_fract_y
_atom_site_fract_z
Si Si1 0.964838 0.287600 0.503679
Si Si2 0.137525 0.856103 0.117062
Si Si3 0.673409 0.098094 0.103335
Si Si4 0.262301 0.376207 0.400582
Si Si5 0.439976 0.422739 0.225446
Si Si6 0.007322 0.145783 0.783844
Si Si7 0.590555 0.148513 0.560910
O O1 0.798125 0.143520 0.183671
O O2 0.972435 0.229443 0.644619
O O3 0.028357 0.143714 0.430296
O O4 0.042366 0.594766 0.761639
O O5 0.065104 0.821471 0.155607
O O6 0.284587 0.883637 0.331222
O O7 0.170361 0.116199 0.230873
O O8 0.722873 0.374850 0.376842
O O9 0.648054 0.885253 0.066002
O O10 0.523663 0.971446 0.771558
O O11 0.419149 0.444892 0.616586
O O12 0.176318 0.321971 0.120571
O O13 0.500000 0.500000 0.500000
O O14 0.356073 0.555223 0.177034
O O15 0.500000 0.000000 0.500000
#
# Coordination Sequence:
#
# PCOD9042596 Si02
#       7
#     2   2   2   2   2   2   2
#     4  11  27  48  77 107 146 199 244 299 366 438
#     4  12  27  47  75 111 151 188 244 309 364 436
#     4  11  26  46  75 106 143 198 246 299 367 432
#     4  12  25  48  72 110 150 189 244 309 362 435
#     4  10  23  44  73 101 143 192 245 291 362 429
#     4  11  26  47  74 110 149 192 248 296 368 436
#     4  11  25  49  72 107 149 190 244 304 366 439
#
# _framework density 24.587427999999999
#
# number of rings (size 3 to 8) (size 9 to 14) (size 15 to 20)
#    0.000    0.857    2.857    3.000    8.000    3.429 
#    0.000    0.000    0.000    0.000    0.000    0.000 
#    0.000    0.000    0.000    0.000    0.000    0.000 
#
# Total GULP energy -78452.217735 kJ/mol
# GULP energy per Si atom -5603.729838 kJ/mol
# Density = 2.453147 g / cm^3
# Si number density = 24.587428 Si / 1000 Ang^3
#
#
#
# Elastic Constant Matrix: (Units=GPa)
#
#
# Indices 1 2 3 4 5 6 
#
# 1 103.2780 21.6176 21.5488 15.9667 1.1193 -28.4886
# 2 21.6176 108.1871 42.4572 30.0215 -2.2826 -21.6642
# 3 21.5488 42.4572 124.0785 19.9353 7.2065 -21.4952
# 4 15.9667 30.0215 19.9353 56.0470 -11.8019 2.3974
# 5 1.1193 -2.2826 7.2065 -11.8019 36.0460 3.1579
# 6 -28.4886 -21.6642 -21.4952 2.3974 3.1579 35.0616
#
#
#
# Elastic Compliance Matrix: (Units=1/GPa)
#
#
# Indices 1 2 3 4 5 6 
#
# 1 0.013945 0.001263 0.000660 -0.006228 -0.003687 0.013274
# 2 0.001263 0.013694 -0.001961 -0.007832 -0.002134 0.009013
# 3 0.000660 -0.001961 0.010641 -0.004080 -0.004178 0.006503
# 4 -0.006228 -0.007832 -0.004080 0.028258 0.011109 -0.015334
# 5 -0.003687 -0.002134 -0.004178 0.011109 0.033124 -0.010619
# 6 0.013274 0.009013 0.006503 -0.015334 -0.010619 0.050867
#
#
# Mechanical properties :
#
#
# Convention : Reuss Voigt Hill
#
# Bulk Modulus (GPa) = 26.17598 56.31009 41.24303
# Shear Modulus (GPa) = 30.61114 42.09224 36.35169
#
# Velocity S-wave (km/s) = 3.53227 4.14205 3.84925
# Velocity P-wave (km/s) = 5.22543 6.76957 6.04699
#
# Compressibility (1/GPa) = 0.03820296
#
# Stress axis : x y z
#
# Youngs Moduli (GPa) = 71.71155 73.02619 93.97868
#
# Poissons Ratio (x) = -0.09223 -0.06206
# Poissons Ratio (y) = -0.09057 0.18433
# Poissons Ratio (z) = -0.04736 0.14324
#
# Static dielectric constant tensor:
#      x y z
#    x 1.924600 0.029110 -0.027720 
#    y 0.029110 2.022110 -0.114510 
#    z -0.027720 -0.114510 2.285770 
# 
# From -- ./inp_files/398310.got.cif
#   From: 2010.05.17/outbox.cif.g08.bks.cpg/sg2_200_cif.got.tgz:398310.got - 2010.06.03 11:33:40.
