data_PCOD9042935
_publ_section_title
;
Structure prediction by ZEFSAII (Michael W. Deem and Ramdas Pophale) SiO2 
 PCOD9042935
Probable space group: P -1
;
_chemical_formula_sum "Si O2"
_cell_formula_units_Z 14
_cell_length_a 11.642591
_cell_length_b 16.473477
_cell_length_c 8.013434
_cell_angle_alpha 122.813789
_cell_angle_beta 74.154191
_cell_angle_gamma 148.987567
_cell_volume 596.967657
_symmetry_space_group_name_H-M "P -1"
_symmetry_group_IT_number 2
_symmetry_cell_setting 'triclinic'
loop_
_space_group_symop_operation_xyz
x,y,z
-x,-y,-z
loop_
_atom_site_type_symbol
_atom_site_label
_atom_site_fract_x
_atom_site_fract_y
_atom_site_fract_z
Si Si1 0.589674 0.107953 0.375226
Si Si2 0.903102 0.626165 0.630449
Si Si3 0.466451 0.244663 0.162728
Si Si4 0.287603 0.712588 0.163338
Si Si5 0.858310 0.800745 0.294670
Si Si6 0.813380 0.100397 0.898847
Si Si7 0.370684 0.380269 0.187477
O O1 0.647218 0.241346 0.615778
O O2 0.457411 0.049558 0.195570
O O3 0.841419 0.225149 0.391854
O O4 0.379526 0.885702 0.276294
O O5 0.686138 0.408463 0.395273
O O6 0.794179 0.656983 0.693727
O O7 0.991545 0.687888 0.857956
O O8 0.245264 0.027983 0.092555
O O9 0.390919 0.296944 0.190136
O O10 0.566297 0.258447 0.977177
O O11 0.000000 0.500000 0.000000
O O12 0.639179 0.618950 0.306915
O O13 0.738692 0.719318 0.065236
O O14 0.000000 0.000000 0.500000
O O15 0.058232 0.855634 0.263891
#
# Coordination Sequence:
#
# PCOD9042935 Si02
#       7
#     2   2   2   2   2   2   2
#     4  11  25  46  68 100 141 178 231 280 338 411
#     4  11  23  44  66  99 139 174 226 281 337 402
#     4  12  25  43  70 105 136 179 229 279 349 398
#     4  11  25  44  67 101 136 186 227 279 341 402
#     4  10  23  45  67 100 136 183 226 276 344 399
#     4  11  26  43  69 102 137 181 224 283 344 403
#     4  10  25  43  69 103 137 175 230 284 332 410
#
# _framework density 23.451858999999999
#
# number of rings (size 3 to 8) (size 9 to 14) (size 15 to 20)
#    0.000    1.143    2.857    1.714    4.000    5.143 
#    0.000    0.000    0.000    0.000    0.000    0.000 
#    0.000    0.000    0.000    0.000    0.000    0.000 
#
# Total GULP energy -78232.023070 kJ/mol
# GULP energy per Si atom -5588.001648 kJ/mol
# Density = 2.339848 g / cm^3
# Si number density = 23.451859 Si / 1000 Ang^3
#
#
#
# Elastic Constant Matrix: (Units=GPa)
#
#
# Indices 1 2 3 4 5 6 
#
# 1 84.7360 51.9515 44.3261 1.5856 1.3635 12.8125
# 2 51.9515 90.7360 34.7963 19.9794 -5.8297 23.3009
# 3 44.3261 34.7963 164.3701 4.0172 -19.0540 19.0323
# 4 1.5856 19.9794 4.0172 35.9285 3.8506 -3.0487
# 5 1.3635 -5.8297 -19.0540 3.8506 25.2045 -1.8659
# 6 12.8125 23.3009 19.0323 -3.0487 -1.8659 35.5998
#
#
#
# Elastic Compliance Matrix: (Units=1/GPa)
#
#
# Indices 1 2 3 4 5 6 
#
# 1 0.022837 -0.015033 -0.004818 0.009284 -0.009440 0.004497
# 2 -0.015033 0.026935 0.001499 -0.016705 0.009696 -0.013943
# 3 -0.004818 0.001499 0.008362 -0.002616 0.007064 -0.003571
# 4 0.009284 -0.016705 -0.002616 0.039231 -0.011467 0.011750
# 5 -0.009440 0.009696 0.007064 -0.011467 0.049141 -0.005132
# 6 0.004497 -0.013943 -0.003571 0.011750 -0.005132 0.038244
#
#
# Mechanical properties :
#
#
# Convention : Reuss Voigt Hill
#
# Bulk Modulus (GPa) = 46.66474 66.88777 56.77625
# Shear Modulus (GPa) = 21.87239 33.26445 27.56842
#
# Velocity S-wave (km/s) = 3.05725 3.77027 3.43232
# Velocity P-wave (km/s) = 5.69242 6.89467 6.32219
#
# Compressibility (1/GPa) = 0.02142946
#
# Stress axis : x y z
#
# Youngs Moduli (GPa) = 43.78913 37.12585 119.58659
#
# Poissons Ratio (x) = 0.55812 0.57615
# Poissons Ratio (y) = 0.65829 -0.17922
# Poissons Ratio (z) = 0.21097 -0.05564
#
# Static dielectric constant tensor:
#      x y z
#    x 1.921960 -0.030860 0.056590 
#    y -0.030860 1.894900 -0.080390 
#    z 0.056590 -0.080390 1.937310 
# 
# From -- ./inp_files/279837.got.cif
#   From: 2010.05.17/outbox.cif.g08.bks.cpg/sg2_140_cif.got.tgz:279837.got - 2010.06.03 11:33:40.
