data_PCOD9042137
_publ_section_title
;
Structure prediction by ZEFSAII (Michael W. Deem and Ramdas Pophale) SiO2 
 PCOD9042137
Probable space group: P -1
;
_chemical_formula_sum "Si O2"
_cell_formula_units_Z 16
_cell_length_a 15.385988
_cell_length_b 15.020753
_cell_length_c 7.941908
_cell_angle_alpha 59.867626
_cell_angle_beta 69.194254
_cell_angle_gamma 27.566562
_cell_volume 715.891460
_symmetry_space_group_name_H-M "P -1"
_symmetry_group_IT_number 2
_symmetry_cell_setting 'triclinic'
loop_
_space_group_symop_operation_xyz
x,y,z
-x,-y,-z
loop_
_atom_site_type_symbol
_atom_site_label
_atom_site_fract_x
_atom_site_fract_y
_atom_site_fract_z
Si Si1 0.790380 0.391616 0.592703
Si Si2 0.235063 0.469976 0.067900
Si Si3 0.579296 0.025226 0.330508
Si Si4 0.005139 0.634498 0.392942
Si Si5 0.919639 0.998396 0.425919
Si Si6 0.966575 0.643875 0.811306
Si Si7 0.705783 0.354798 0.994820
Si Si8 0.388002 0.879523 0.449130
O O1 0.969512 0.268702 0.687575
O O2 0.731435 0.353926 0.782139
O O3 0.605399 0.645125 0.461797
O O4 0.894767 0.252714 0.490243
O O5 0.427093 0.220787 0.121633
O O6 0.151678 0.485709 0.274856
O O7 0.276787 0.548486 0.018262
O O8 0.087808 0.599332 0.894578
O O9 0.592826 0.103143 0.386686
O O10 0.500000 0.000000 0.500000
O O11 0.795112 0.799101 0.329974
O O12 0.024416 0.584154 0.627329
O O13 0.739934 0.099307 0.500195
O O14 0.000000 0.000000 0.500000
O O15 0.853452 0.131451 0.186618
O O16 0.745931 0.898096 0.737572
O O17 0.000000 0.500000 0.000000
O O18 0.500000 0.500000 0.000000
#
# Coordination Sequence:
#
# PCOD9042137 Si02
#       8
#     2   2   2   2   2   2   2   2
#     4  11  22  44  72  91 139 187 220 283 350 399
#     4  11  23  45  67 100 139 177 231 285 343 413
#     4  11  21  39  70  97 128 177 226 280 346 411
#     4  10  23  44  69  94 137 184 218 284 353 400
#     4  12  24  42  69  99 137 180 227 284 345 414
#     4  11  24  44  71 101 138 179 233 292 346 416
#     4  11  22  41  67 101 130 180 231 275 339 415
#     4  11  22  46  65  95 147 177 223 297 346 398
#
# _framework density 22.349758000000001
#
# number of rings (size 3 to 8) (size 9 to 14) (size 15 to 20)
#    0.000    1.000    6.250    2.625    0.000    2.500 
#    2.250    0.625    0.000    0.000    0.000    0.000 
#    0.000    0.000    0.000    0.000    0.000    0.000 
#
# Total GULP energy -89108.742421 kJ/mol
# GULP energy per Si atom -5569.296401 kJ/mol
# Density = 2.229889 g / cm^3
# Si number density = 22.349758 Si / 1000 Ang^3
#
#
#
# Elastic Constant Matrix: (Units=GPa)
#
#
# Indices 1 2 3 4 5 6 
#
# 1 96.2778 51.1139 4.8150 4.0305 -8.8394 -10.7395
# 2 51.1139 99.7299 54.4043 -19.8187 -2.3009 -21.1698
# 3 4.8150 54.4043 107.6462 -18.4794 -7.7616 -7.9614
# 4 4.0305 -19.8187 -18.4794 35.2595 -2.2178 -5.5011
# 5 -8.8394 -2.3009 -7.7616 -2.2178 41.7417 5.4352
# 6 -10.7395 -21.1698 -7.9614 -5.5011 5.4352 34.9212
#
#
#
# Elastic Compliance Matrix: (Units=1/GPa)
#
#
# Indices 1 2 3 4 5 6 
#
# 1 0.017945 -0.014202 0.005062 -0.007717 0.004041 -0.003781
# 2 -0.014202 0.028732 -0.010820 0.013924 -0.004450 0.013469
# 3 0.005062 -0.010820 0.014812 0.001010 0.003546 -0.002019
# 4 -0.007717 0.013924 0.001010 0.039545 -0.000213 0.012561
# 5 0.004041 -0.004450 0.003546 -0.000213 0.025827 -0.004700
# 6 -0.003781 0.013469 -0.002019 0.012561 -0.004700 0.037888
#
#
# Mechanical properties :
#
#
# Convention : Reuss Voigt Hill
#
# Bulk Modulus (GPa) = 46.36298 58.25782 52.31040
# Shear Modulus (GPa) = 23.60059 35.27255 29.43657
#
# Velocity S-wave (km/s) = 3.25309 3.97698 3.63311
# Velocity P-wave (km/s) = 5.90757 6.87106 6.40745
#
# Compressibility (1/GPa) = 0.02156893
#
# Stress axis : x y z
#
# Youngs Moduli (GPa) = 55.72475 34.80472 67.51450
#
# Poissons Ratio (x) = 0.49428 -0.34174
# Poissons Ratio (y) = 0.79138 0.73052
# Poissons Ratio (z) = -0.28207 0.37659
#
# Static dielectric constant tensor:
#      x y z
#    x 1.580350 -0.139180 -0.003790 
#    y -0.139180 1.886020 -0.000470 
#    z -0.003790 -0.000470 1.896600 
# 
# From -- ./inp_files/314800.got.cif
#   From: 2010.05.17/outbox.cif.g08.bks.cpg/sg2_158_cif.got.tgz:314800.got - 2010.06.03 11:33:40.
