data_PCOD9042357
_publ_section_title
;
Structure prediction by ZEFSAII (Michael W. Deem and Ramdas Pophale) SiO2 
 PCOD9042357
Probable space group: P -1
;
_chemical_formula_sum "Si O2"
_cell_formula_units_Z 16
_cell_length_a 9.657957
_cell_length_b 5.265475
_cell_length_c 17.902845
_cell_angle_alpha 94.059570
_cell_angle_beta 98.351946
_cell_angle_gamma 124.952518
_cell_volume 724.859643
_symmetry_space_group_name_H-M "P -1"
_symmetry_group_IT_number 2
_symmetry_cell_setting 'triclinic'
loop_
_space_group_symop_operation_xyz
x,y,z
-x,-y,-z
loop_
_atom_site_type_symbol
_atom_site_label
_atom_site_fract_x
_atom_site_fract_y
_atom_site_fract_z
Si Si1 0.653298 0.540024 0.654827
Si Si2 0.354060 0.974135 0.438365
Si Si3 0.759452 0.868664 0.822206
Si Si4 0.876157 0.469428 0.092695
Si Si5 0.376500 0.655390 0.801436
Si Si6 0.096818 0.861670 0.535746
Si Si7 0.105175 0.321381 0.060027
Si Si8 0.299844 0.052732 0.702506
O O1 0.726808 0.367174 0.614804
O O2 0.765978 0.755767 0.738293
O O3 0.475005 0.250387 0.671216
O O4 0.612292 0.758525 0.611219
O O5 0.258247 0.020856 0.497050
O O6 0.500000 0.000000 0.500000
O O7 0.587663 0.860351 0.817030
O O8 0.741944 0.627752 0.877695
O O9 0.946749 0.190012 0.862698
O O10 0.713030 0.370615 0.127428
O O11 0.958442 0.278276 0.102225
O O12 0.833559 0.439313 0.999667
O O13 0.309783 0.306873 0.762515
O O14 0.306150 0.795804 0.742287
O O15 0.000000 0.500000 0.500000
O O16 0.147617 0.919185 0.627416
O O17 0.000000 0.000000 0.500000
O O18 0.000000 0.000000 0.000000
#
# Coordination Sequence:
#
# PCOD9042357 Si02
#       8
#     2   2   2   2   2   2   2   2
#     4  11  24  42  72 100 132 177 235 288 333 408
#     4  12  25  43  72  95 128 187 231 272 348 409
#     4  10  24  41  70 103 139 181 235 285 345 413
#     4  10  23  44  70  99 144 183 228 285 344 415
#     4  11  26  43  73 102 137 187 228 282 353 408
#     4  12  27  44  65  96 139 176 225 288 346 411
#     4   9  21  44  68 101 142 182 222 292 341 400
#     4  11  25  46  65  99 142 175 221 296 348 398
#
# _framework density 22.073239000000001
#
# number of rings (size 3 to 8) (size 9 to 14) (size 15 to 20)
#    0.000    1.250    1.250    3.375   10.500    3.500 
#    0.000    5.625    0.000    0.000    0.000    0.000 
#    0.000    0.000    0.000    0.000    0.000    0.000 
#
# Total GULP energy -89182.819991 kJ/mol
# GULP energy per Si atom -5573.926249 kJ/mol
# Density = 2.202300 g / cm^3
# Si number density = 22.073239 Si / 1000 Ang^3
#
#
#
# Elastic Constant Matrix: (Units=GPa)
#
#
# Indices 1 2 3 4 5 6 
#
# 1 126.5699 11.9393 40.3504 -13.5434 -2.1327 -31.6310
# 2 11.9393 44.6350 11.1546 1.9133 7.6363 -23.2627
# 3 40.3504 11.1546 109.2267 -8.8272 8.7332 -14.0336
# 4 -13.5434 1.9133 -8.8272 31.9796 -8.9274 -0.7477
# 5 -2.1327 7.6363 8.7332 -8.9274 41.5207 -5.2086
# 6 -31.6310 -23.2627 -14.0336 -0.7477 -5.2086 36.2021
#
#
#
# Elastic Compliance Matrix: (Units=1/GPa)
#
#
# Indices 1 2 3 4 5 6 
#
# 1 0.012245 0.002932 -0.003122 0.005379 0.003405 0.011973
# 2 0.002932 0.035179 -0.001445 -0.001632 -0.003344 0.024092
# 3 -0.003122 -0.001445 0.010737 0.001215 -0.001859 0.000264
# 4 0.005379 -0.001632 0.001215 0.036629 0.008971 0.006169
# 5 0.003405 -0.003344 -0.001859 0.008971 0.027731 0.004281
# 6 0.011973 0.024092 0.000264 0.006169 0.004281 0.054411
#
#
# Mechanical properties :
#
#
# Convention : Reuss Voigt Hill
#
# Bulk Modulus (GPa) = 18.21793 45.25781 31.73787
# Shear Modulus (GPa) = 25.18909 36.40630 30.79769
#
# Velocity S-wave (km/s) = 3.38177 4.06561 3.73936
# Velocity P-wave (km/s) = 4.84972 6.52587 5.74921
#
# Compressibility (1/GPa) = 0.05489099
#
# Stress axis : x y z
#
# Youngs Moduli (GPa) = 81.66800 28.42597 93.13737
#
# Poissons Ratio (x) = -0.08335 0.29078
# Poissons Ratio (y) = -0.23946 0.13457
# Poissons Ratio (z) = 0.25497 0.04107
#
# Static dielectric constant tensor:
#      x y z
#    x 1.867190 0.104370 -0.106240 
#    y 0.104370 2.248090 -0.256790 
#    z -0.106240 -0.256790 2.022990 
# 
# From -- ./inp_files/552706.got.cif
#   From: 2010.05.17/outbox.cif.g08.bks.cpg/sg2_277_cif.got.tgz:552706.got - 2010.06.03 11:33:40.
