data_PCOD9042563
_publ_section_title
;
Structure prediction by ZEFSAII (Michael W. Deem and Ramdas Pophale) SiO2 
 PCOD9042563
Probable space group: P -1
;
_chemical_formula_sum "Si O2"
_cell_formula_units_Z 15
_cell_length_a 4.753351
_cell_length_b 11.422647
_cell_length_c 17.044838
_cell_angle_alpha 133.790565
_cell_angle_beta 97.935969
_cell_angle_gamma 65.028027
_cell_volume 588.584925
_symmetry_space_group_name_H-M "P -1"
_symmetry_group_IT_number 2
_symmetry_cell_setting 'triclinic'
loop_
_space_group_symop_operation_xyz
x,y,z
-x,-y,-z
loop_
_atom_site_type_symbol
_atom_site_label
_atom_site_fract_x
_atom_site_fract_y
_atom_site_fract_z
Si Si1 0.244370 0.140092 0.934441
Si Si2 0.036422 0.247572 0.742939
Si Si3 0.356278 0.634907 0.458840
Si Si4 0.899630 0.847346 0.900616
Si Si5 0.000000 0.500000 0.000000
Si Si6 0.680724 0.083037 0.301452
Si Si7 0.497302 0.809247 0.389934
Si Si8 0.030093 0.382584 0.344471
O O1 0.248380 0.296625 0.952666
O O2 0.555317 0.974031 0.907094
O O3 0.121141 0.030359 0.819885
O O4 0.072631 0.243473 0.055400
O O5 0.178589 0.300985 0.697803
O O6 0.919147 0.397972 0.875907
O O7 0.775647 0.186104 0.676437
O O8 0.317849 0.065991 0.707397
O O9 0.194835 0.796520 0.589751
O O10 0.430824 0.722450 0.425127
O O11 0.160857 0.522655 0.386504
O O12 0.713330 0.492036 0.433379
O O13 0.075582 0.700351 0.772434
O O14 0.000000 0.000000 0.000000
O O15 0.326452 0.219430 0.322453
O O16 0.500000 0.000000 0.500000
#
# Coordination Sequence:
#
# PCOD9042563 Si02
#       8
#     2   2   2   2   1   2   2   2
#     4   9  22  45  68  97 135 181 234 282 353 413
#     4  11  26  47  74 102 140 188 234 292 352 427
#     4  12  26  44  70 104 141 181 232 293 338 416
#     4  10  23  44  72  96 137 186 232 284 350 423
#     4  10  24  48  68 106 140 180 234 302 352 416
#     4  10  23  47  68  98 142 182 229 282 357 409
#     4  12  26  46  73 100 141 190 239 280 354 423
#     4  11  27  43  72 105 137 180 234 291 347 407
#
# _framework density 25.484855
#
# number of rings (size 3 to 8) (size 9 to 14) (size 15 to 20)
#    0.000    1.333    1.333    2.000   11.200    1.600 
#   14.400    0.000    0.000    0.000    0.000    0.000 
#    0.000    0.000    0.000    0.000    0.000    0.000 
#
# Total GULP energy -83550.197119 kJ/mol
# GULP energy per Si atom -5570.013141 kJ/mol
# Density = 2.542685 g / cm^3
# Si number density = 25.484855 Si / 1000 Ang^3
#
#
#
# Elastic Constant Matrix: (Units=GPa)
#
#
# Indices 1 2 3 4 5 6 
#
# 1 88.7897 22.3181 41.1187 0.2993 22.1395 11.2047
# 2 22.3181 121.5645 50.9543 0.2408 11.7320 14.2774
# 3 41.1187 50.9543 223.7475 -2.1953 22.2114 2.5969
# 4 0.2993 0.2408 -2.1953 35.9169 -3.8292 4.6196
# 5 22.1395 11.7320 22.2114 -3.8292 24.7331 3.4538
# 6 11.2047 14.2774 2.5969 4.6196 3.4538 27.6226
#
#
#
# Elastic Compliance Matrix: (Units=1/GPa)
#
#
# Indices 1 2 3 4 5 6 
#
# 1 0.015616 -0.000583 -0.001516 -0.000941 -0.011893 -0.004246
# 2 -0.000583 0.009826 -0.001900 0.000209 -0.001775 -0.004477
# 3 -0.001516 -0.001900 0.005446 -0.000135 -0.002858 0.001465
# 4 -0.000941 0.000209 -0.000135 0.029183 0.006131 -0.005361
# 5 -0.011893 -0.001775 -0.002858 0.006131 0.055711 -0.001981
# 6 -0.004246 -0.004477 0.001465 -0.005361 -0.001981 0.041245
#
#
# Mechanical properties :
#
#
# Convention : Reuss Voigt Hill
#
# Bulk Modulus (GPa) = 43.68970 73.65376 58.67173
# Shear Modulus (GPa) = 28.95914 38.96856 33.96385
#
# Velocity S-wave (km/s) = 3.37460 3.91460 3.65459
# Velocity P-wave (km/s) = 5.68898 7.02822 6.39376
#
# Compressibility (1/GPa) = 0.02288869
#
# Stress axis : x y z
#
# Youngs Moduli (GPa) = 64.03793 101.76686 183.61732
#
# Poissons Ratio (x) = 0.05933 0.27843
# Poissons Ratio (y) = 0.03734 0.34895
# Poissons Ratio (z) = 0.09710 0.19340
#
# Static dielectric constant tensor:
#      x y z
#    x 2.293360 -0.225230 0.263280 
#    y -0.225230 2.397260 -0.380270 
#    z 0.263280 -0.380270 2.338040 
# 
# From -- ./inp_files/549333.got.cif
#   From: 2010.05.17/outbox.cif.g08.bks.cpg/sg2_275_cif.got.tgz:549333.got - 2010.06.03 11:33:40.
