data_PCOD9042945
_publ_section_title
;
Structure prediction by ZEFSAII (Michael W. Deem and Ramdas Pophale) SiO2 
 PCOD9042945
Probable space group: P -1
;
_chemical_formula_sum "Si O2"
_cell_formula_units_Z 10
_cell_length_a 9.501785
_cell_length_b 8.405817
_cell_length_c 11.346972
_cell_angle_alpha 101.639766
_cell_angle_beta 142.234068
_cell_angle_gamma 106.994138
_cell_volume 357.629935
_symmetry_space_group_name_H-M "P -1"
_symmetry_group_IT_number 2
_symmetry_cell_setting 'triclinic'
loop_
_space_group_symop_operation_xyz
x,y,z
-x,-y,-z
loop_
_atom_site_type_symbol
_atom_site_label
_atom_site_fract_x
_atom_site_fract_y
_atom_site_fract_z
Si Si1 0.250523 0.051631 0.582511
Si Si2 0.311908 0.736043 0.878589
Si Si3 0.523466 0.698792 0.784392
Si Si4 0.679916 0.448852 0.749368
Si Si5 0.435710 0.854124 0.554729
O O1 0.331143 0.208321 0.550216
O O2 0.166070 0.829642 0.441725
O O3 0.602057 0.237229 0.923080
O O4 0.000000 0.000000 0.500000
O O5 0.504158 0.708932 0.914608
O O6 0.898269 0.528803 0.552605
O O7 0.500000 0.000000 0.000000
O O8 0.730390 0.653270 0.866382
O O9 0.662384 0.926177 0.832813
O O10 0.614349 0.354618 0.559914
O O11 0.000000 0.500000 0.000000
O O12 0.500000 0.000000 0.500000
#
# Coordination Sequence:
#
# PCOD9042945 Si02
#       5
#     2   2   2   2   2
#     4  11  24  43  71 103 145 187 241 298 354 432
#     4  11  23  43  72 109 140 181 244 302 360 418
#     4  11  24  44  74 103 143 190 241 296 356 433
#     4  11  25  44  67 104 145 189 238 296 362 429
#     4  10  23  45  67 101 144 186 237 288 360 426
#
# _framework density 27.961866000000001
#
# number of rings (size 3 to 8) (size 9 to 14) (size 15 to 20)
#    0.000    1.200    2.000    3.000    5.600    0.800 
#    3.600    5.000    0.000    0.000    0.000    0.000 
#    0.000    0.000    0.000    0.000    0.000    0.000 
#
# Total GULP energy -55751.222511 kJ/mol
# GULP energy per Si atom -5575.122251 kJ/mol
# Density = 2.789822 g / cm^3
# Si number density = 27.961866 Si / 1000 Ang^3
#
#
#
# Elastic Constant Matrix: (Units=GPa)
#
#
# Indices 1 2 3 4 5 6 
#
# 1 295.6785 72.0181 26.8448 -1.5756 -0.4152 -29.9057
# 2 72.0181 92.4743 -12.4418 -5.6184 8.3882 -21.1298
# 3 26.8448 -12.4418 71.4002 -1.4388 5.8125 -2.0404
# 4 -1.5756 -5.6184 -1.4388 31.6826 4.6850 4.2116
# 5 -0.4152 8.3882 5.8125 4.6850 53.8121 -0.2248
# 6 -29.9057 -21.1298 -2.0404 4.2116 -0.2248 70.5477
#
#
#
# Elastic Compliance Matrix: (Units=1/GPa)
#
#
# Indices 1 2 3 4 5 6 
#
# 1 0.004637 -0.003911 -0.002500 -0.000826 0.000990 0.000774
# 2 -0.003911 0.015621 0.004595 0.002862 -0.003198 0.002973
# 3 -0.002500 0.004595 0.016013 0.001715 -0.002612 0.000669
# 4 -0.000826 0.002862 0.001715 0.032813 -0.003500 -0.001413
# 5 0.000990 -0.003198 -0.002612 -0.003500 0.019675 -0.000342
# 6 0.000774 0.002973 0.000669 -0.001413 -0.000342 0.015496
#
#
# Mechanical properties :
#
#
# Convention : Reuss Voigt Hill
#
# Bulk Modulus (GPa) = 30.63748 70.26612 50.45180
# Shear Modulus (GPa) = 42.10025 56.08395 49.09210
#
# Velocity S-wave (km/s) = 3.88446 4.48340 4.19463
# Velocity P-wave (km/s) = 5.57668 7.21006 6.44532
#
# Compressibility (1/GPa) = 0.03263976
#
# Stress axis : x y z
#
# Youngs Moduli (GPa) = 215.66495 64.01727 62.45120
#
# Poissons Ratio (x) = 0.25034 0.15612
# Poissons Ratio (y) = 0.84336 -0.28698
# Poissons Ratio (z) = 0.53914 -0.29417
#
# Static dielectric constant tensor:
#      x y z
#    x 2.167950 0.040430 -0.030990 
#    y 0.040430 2.281240 0.093600 
#    z -0.030990 0.093600 2.419070 
# 
# From -- ./inp_files/21590.got.cif
#   From: 2010.05.17/outbox.cif.g08.bks.cpg/sg2_11_cif.got.tgz:21590.got - 2010.06.03 11:33:40.
