data_PCOD9042207
_publ_section_title
;
Structure prediction by ZEFSAII (Michael W. Deem and Ramdas Pophale) SiO2 
 PCOD9042207
Probable space group: P -1
;
_chemical_formula_sum "Si O2"
_cell_formula_units_Z 16
_cell_length_a 8.467795
_cell_length_b 9.496794
_cell_length_c 24.854803
_cell_angle_alpha 28.583309
_cell_angle_beta 126.441494
_cell_angle_gamma 133.216704
_cell_volume 696.748852
_symmetry_space_group_name_H-M "P -1"
_symmetry_group_IT_number 2
_symmetry_cell_setting 'triclinic'
loop_
_space_group_symop_operation_xyz
x,y,z
-x,-y,-z
loop_
_atom_site_type_symbol
_atom_site_label
_atom_site_fract_x
_atom_site_fract_y
_atom_site_fract_z
Si Si1 0.577036 0.613644 0.234780
Si Si2 0.777476 0.969491 0.314504
Si Si3 0.952977 0.280136 0.721916
Si Si4 0.654004 0.248276 0.991643
Si Si5 0.432727 0.263328 0.118612
Si Si6 0.863832 0.746909 0.794123
Si Si7 0.272853 0.256861 0.507565
Si Si8 0.504072 0.303011 0.433306
O O1 0.788245 0.571817 0.271580
O O2 0.379394 0.405004 0.226529
O O3 0.481950 0.512061 0.309142
O O4 0.662758 0.002783 0.119986
O O5 0.829122 0.994995 0.380042
O O6 0.707077 0.592148 0.407762
O O7 0.590935 0.090490 0.222760
O O8 0.978936 0.182032 0.247603
O O9 0.865148 0.546828 0.602191
O O10 0.809991 0.033961 0.823057
O O11 0.907171 0.062386 0.731669
O O12 0.558940 0.484538 0.917729
O O13 0.870125 0.475015 0.927572
O O14 0.500000 0.000000 0.000000
O O15 0.500000 0.500000 0.000000
O O16 0.500000 0.500000 0.500000
O O17 0.335425 0.160971 0.495050
O O18 0.500000 0.000000 0.500000
#
# Coordination Sequence:
#
# PCOD9042207 Si02
#       8
#     2   2   2   2   2   2   2   2
#     4  11  24  44  69 109 146 185 246 296 356 433
#     4  11  23  47  74 104 147 192 242 299 365 431
#     4  11  23  43  74 101 143 195 235 297 361 434
#     4   9  22  43  68 103 145 187 235 291 356 440
#     4  11  23  39  76 106 141 191 242 299 365 423
#     4  10  24  43  74 102 145 194 240 290 368 430
#     4  10  23  44  70 100 144 181 242 292 358 430
#     4  11  24  43  72 100 140 185 240 301 355 427
#
# _framework density 22.963799000000002
#
# number of rings (size 3 to 8) (size 9 to 14) (size 15 to 20)
#    0.000    1.500    3.750    0.750    5.250    3.500 
#    0.000    8.750    0.000    0.000    0.000    0.000 
#    0.000    0.000    0.000    0.000    0.000    0.000 
#
# Total GULP energy -89249.109208 kJ/mol
# GULP energy per Si atom -5578.069325 kJ/mol
# Density = 2.291153 g / cm^3
# Si number density = 22.963799 Si / 1000 Ang^3
#
#
#
# Elastic Constant Matrix: (Units=GPa)
#
#
# Indices 1 2 3 4 5 6 
#
# 1 131.6038 37.3084 73.1573 -1.5443 -18.0503 -9.9353
# 2 37.3084 56.4063 45.1893 6.7263 -11.1572 -10.6828
# 3 73.1573 45.1893 157.2922 7.9851 -29.4154 -27.1554
# 4 -1.5443 6.7263 7.9851 36.8322 -16.6648 -10.6249
# 5 -18.0503 -11.1572 -29.4154 -16.6648 46.8641 8.5592
# 6 -9.9353 -10.6828 -27.1554 -10.6249 8.5592 47.5844
#
#
#
# Elastic Compliance Matrix: (Units=1/GPa)
#
#
# Indices 1 2 3 4 5 6 
#
# 1 0.011244 -0.004422 -0.003827 0.002850 0.001990 -0.000550
# 2 -0.004422 0.025111 -0.004806 -0.003463 -0.000198 0.001234
# 3 -0.003827 -0.004806 0.010863 0.001269 0.003940 0.003896
# 4 0.002850 -0.003463 0.001269 0.035004 0.012398 0.006127
# 5 0.001990 -0.000198 0.003940 0.012398 0.028905 0.000189
# 6 -0.000550 0.001234 0.003896 0.006127 0.000189 0.024735
#
#
# Mechanical properties :
#
#
# Convention : Reuss Voigt Hill
#
# Bulk Modulus (GPa) = 47.37272 72.95692 60.16482
# Shear Modulus (GPa) = 29.58438 38.89928 34.24183
#
# Velocity S-wave (km/s) = 3.59319 4.12021 3.86569
# Velocity P-wave (km/s) = 6.15539 7.38067 6.79570
#
# Compressibility (1/GPa) = 0.02110919
#
# Stress axis : x y z
#
# Youngs Moduli (GPa) = 88.93361 39.82351 92.05332
#
# Poissons Ratio (x) = 0.17609 0.35229
# Poissons Ratio (y) = 0.39325 0.44239
# Poissons Ratio (z) = 0.34035 0.19138
#
# Static dielectric constant tensor:
#      x y z
#    x 1.886900 0.027220 -0.022690 
#    y 0.027220 1.923420 0.012460 
#    z -0.022690 0.012460 2.009330 
# 
# From -- ./inp_files/311277.got.cif
#   From: 2010.05.17/outbox.cif.g08.bks.cpg/sg2_156_cif.got.tgz:311277.got - 2010.06.03 11:33:40.
