data_PCOD9042156
_publ_section_title
;
Structure prediction by ZEFSAII (Michael W. Deem and Ramdas Pophale) SiO2 
 PCOD9042156
Probable space group: P -1
;
_chemical_formula_sum "Si O2"
_cell_formula_units_Z 12
_cell_length_a 6.839000
_cell_length_b 10.423357
_cell_length_c 9.485634
_cell_angle_alpha 69.171452
_cell_angle_beta 91.876054
_cell_angle_gamma 50.420602
_cell_volume 454.459128
_symmetry_space_group_name_H-M "P -1"
_symmetry_group_IT_number 2
_symmetry_cell_setting 'triclinic'
loop_
_space_group_symop_operation_xyz
x,y,z
-x,-y,-z
loop_
_atom_site_type_symbol
_atom_site_label
_atom_site_fract_x
_atom_site_fract_y
_atom_site_fract_z
Si Si1 0.609632 0.091929 0.260443
Si Si2 0.008668 0.843101 0.128058
Si Si3 0.364220 0.463637 0.648797
Si Si4 0.109765 0.148239 0.180154
Si Si5 0.238436 0.450562 0.933861
Si Si6 0.680794 0.205680 0.516000
O O1 0.360559 0.107744 0.270415
O O2 0.666924 0.132054 0.397651
O O3 0.829226 0.910474 0.236611
O O4 0.503058 0.263815 0.086455
O O5 0.326355 0.658202 0.238034
O O6 0.876468 0.832068 0.994931
O O7 0.000000 0.000000 0.000000
O O8 0.232713 0.429761 0.775090
O O9 0.407754 0.365815 0.539567
O O10 0.229954 0.679410 0.550469
O O11 0.826499 0.356637 0.133371
O O12 0.142776 0.978014 0.304437
O O13 0.000000 0.500000 0.000000
#
# Coordination Sequence:
#
# PCOD9042156 Si02
#       6
#     2   2   2   2   2   2
#     4  11  24  44  69  99 136 175 225 274 334 398
#     4  12  23  42  70  99 129 178 227 277 323 393
#     4  11  25  44  67 103 137 174 226 277 332 400
#     4  11  24  44  67  99 135 178 222 271 336 397
#     4  10  23  44  69  97 132 180 225 274 327 394
#     4  11  25  43  67 101 141 176 216 278 342 397
#
# _framework density 26.405016
#
# number of rings (size 3 to 8) (size 9 to 14) (size 15 to 20)
#    0.000    1.000    3.333    2.000    2.333    6.667 
#    0.000    4.167    0.000    0.000    0.000    0.000 
#    0.000    0.000    0.000    0.000    0.000    0.000 
#
# Total GULP energy -67094.542243 kJ/mol
# GULP energy per Si atom -5591.211854 kJ/mol
# Density = 2.634492 g / cm^3
# Si number density = 26.405016 Si / 1000 Ang^3
#
#
#
# Elastic Constant Matrix: (Units=GPa)
#
#
# Indices 1 2 3 4 5 6 
#
# 1 55.6149 14.6133 16.4894 11.3426 -1.8086 -0.3457
# 2 14.6133 122.6034 70.5395 6.0088 0.9541 4.5350
# 3 16.4894 70.5395 187.9436 24.4767 -8.4661 0.5172
# 4 11.3426 6.0088 24.4767 79.4808 2.8682 -4.6081
# 5 -1.8086 0.9541 -8.4661 2.8682 47.5533 3.3734
# 6 -0.3457 4.5350 0.5172 -4.6081 3.3734 30.4901
#
#
#
# Elastic Compliance Matrix: (Units=1/GPa)
#
#
# Indices 1 2 3 4 5 6 
#
# 1 0.019168 -0.001796 -0.000657 -0.002424 0.000791 0.000042
# 2 -0.001796 0.010682 -0.003972 0.000628 -0.000932 -0.001344
# 3 -0.000657 -0.003972 0.007177 -0.001867 0.001444 0.000020
# 4 -0.002424 0.000628 -0.001867 0.013629 -0.001410 0.002127
# 5 0.000791 -0.000932 0.001444 -0.001410 0.021596 -0.002479
# 6 0.000042 -0.001344 0.000020 0.002127 -0.002479 0.033593
#
#
# Mechanical properties :
#
#
# Convention : Reuss Voigt Hill
#
# Bulk Modulus (GPa) = 41.35880 63.27181 52.31530
# Shear Modulus (GPa) = 39.44711 49.13948 44.29329
#
# Velocity S-wave (km/s) = 3.86933 4.31860 4.10012
# Velocity P-wave (km/s) = 5.97156 6.99150 6.50156
#
# Compressibility (1/GPa) = 0.02417865
#
# Stress axis : x y z
#
# Youngs Moduli (GPa) = 52.17137 93.61863 139.33186
#
# Poissons Ratio (x) = 0.16812 0.09147
# Poissons Ratio (y) = 0.09369 0.55336
# Poissons Ratio (z) = 0.03425 0.37181
#
# Static dielectric constant tensor:
#      x y z
#    x 2.154800 0.035910 0.043020 
#    y 0.035910 2.188630 0.029260 
#    z 0.043020 0.029260 2.104720 
# 
# From -- ./inp_files/176200.got.cif
#   From: 2010.05.17/outbox.cif.g08.bks.cpg/sg2_89_cif.got.tgz:176200.got - 2010.06.03 11:33:40.
