data_PCOD9042869
_publ_section_title
;
Structure prediction by ZEFSAII (Michael W. Deem and Ramdas Pophale) SiO2 
 PCOD9042869
Probable space group: P -1
;
_chemical_formula_sum "Si O2"
_cell_formula_units_Z 16
_cell_length_a 7.572918
_cell_length_b 15.640020
_cell_length_c 9.799295
_cell_angle_alpha 88.527521
_cell_angle_beta 90.123556
_cell_angle_gamma 35.221103
_cell_volume 668.615729
_symmetry_space_group_name_H-M "P -1"
_symmetry_group_IT_number 2
_symmetry_cell_setting 'triclinic'
loop_
_space_group_symop_operation_xyz
x,y,z
-x,-y,-z
loop_
_atom_site_type_symbol
_atom_site_label
_atom_site_fract_x
_atom_site_fract_y
_atom_site_fract_z
Si Si1 0.736505 0.975198 0.203944
Si Si2 0.578196 0.651230 0.930356
Si Si3 0.409136 0.629833 0.209907
Si Si4 0.200148 0.567999 0.546986
Si Si5 0.759825 0.895280 0.617756
Si Si6 0.937534 0.399790 0.756592
Si Si7 0.078393 0.918477 0.736611
Si Si8 0.469789 0.866152 0.074468
O O1 0.075102 0.802503 0.236721
O O2 0.438260 0.041122 0.248909
O O3 0.738331 0.065863 0.281638
O O4 0.683030 0.010443 0.040930
O O5 0.859942 0.512612 0.842557
O O6 0.287032 0.768775 0.825087
O O7 0.521010 0.615590 0.063386
O O8 0.585899 0.743872 0.982925
O O9 0.663349 0.546874 0.330215
O O10 0.339376 0.556331 0.213533
O O11 0.500000 0.500000 0.500000
O O12 0.056074 0.587365 0.406360
O O13 0.975867 0.728740 0.599970
O O14 0.937653 0.915379 0.618583
O O15 0.500000 0.000000 0.500000
O O16 0.239509 0.234941 0.823631
O O17 0.802550 0.055300 0.830464
#
# Coordination Sequence:
#
# PCOD9042869 Si02
#       8
#     2   2   2   2   2   2   2   2
#     4  11  24  42  69 104 132 174 225 282 336 397
#     4  11  22  40  66  99 130 172 219 275 339 394
#     4  11  21  41  67  96 134 170 222 275 333 407
#     4  10  23  45  65  94 137 177 226 273 331 404
#     4  12  26  44  70  99 135 180 232 274 331 407
#     4  11  24  39  66  94 129 180 218 275 337 392
#     4  11  22  44  70  96 138 175 218 284 341 392
#     4  11  22  42  66  97 140 163 224 285 333 399
#
# _framework density 23.930036999999999
#
# number of rings (size 3 to 8) (size 9 to 14) (size 15 to 20)
#    0.000    1.000    2.500    6.000    3.500    1.500 
#    0.000    1.875    0.000    0.000    0.000    0.000 
#    0.000    0.000    0.000    0.000    0.000    0.000 
#
# Total GULP energy -89416.780920 kJ/mol
# GULP energy per Si atom -5588.548807 kJ/mol
# Density = 2.387557 g / cm^3
# Si number density = 23.930037 Si / 1000 Ang^3
#
#
#
# Elastic Constant Matrix: (Units=GPa)
#
#
# Indices 1 2 3 4 5 6 
#
# 1 47.5824 4.9045 -8.7651 -9.0110 2.6604 -6.4526
# 2 4.9045 164.6299 50.5933 2.7113 15.5301 -2.4242
# 3 -8.7651 50.5933 75.6290 -23.0924 8.3188 -5.2109
# 4 -9.0110 2.7113 -23.0924 49.7461 -12.5472 7.7795
# 5 2.6604 15.5301 8.3188 -12.5472 20.3504 -5.8875
# 6 -6.4526 -2.4242 -5.2109 7.7795 -5.8875 27.4817
#
#
#
# Elastic Compliance Matrix: (Units=1/GPa)
#
#
# Indices 1 2 3 4 5 6 
#
# 1 0.024905 -0.003437 0.007738 0.008161 0.002768 0.005294
# 2 -0.003437 0.009474 -0.007979 -0.006656 -0.008003 -0.001315
# 3 0.007738 -0.007979 0.023213 0.013348 0.004606 0.002723
# 4 0.008161 -0.006656 0.013348 0.033041 0.018484 -0.001533
# 5 0.002768 -0.008003 0.004606 0.018484 0.067292 0.010001
# 6 0.005294 -0.001315 0.002723 -0.001533 0.010001 0.040608
#
#
# Mechanical properties :
#
#
# Convention : Reuss Voigt Hill
#
# Bulk Modulus (GPa) = 19.90617 42.36743 31.13680
# Shear Modulus (GPa) = 22.45841 35.58955 29.02398
#
# Velocity S-wave (km/s) = 3.06682 3.86065 3.48640
# Velocity P-wave (km/s) = 4.56914 6.13319 5.40801
#
# Compressibility (1/GPa) = 0.05023567
#
# Stress axis : x y z
#
# Youngs Moduli (GPa) = 40.15332 105.55468 43.07867
#
# Poissons Ratio (x) = 0.36284 -0.33334
# Poissons Ratio (y) = 0.13803 0.34371
# Poissons Ratio (z) = -0.31071 0.84217
#
# Static dielectric constant tensor:
#      x y z
#    x 2.002170 0.013760 0.043720 
#    y 0.013760 1.926320 0.003870 
#    z 0.043720 0.003870 2.042820 
# 
# From -- ./inp_files/217677.got.cif
#   From: 2010.05.17/outbox.cif.g08.bks.cpg/sg2_109_cif.got.tgz:217677.got - 2010.06.03 11:33:40.
