data_PCOD9042894
_publ_section_title
;
Structure prediction by ZEFSAII (Michael W. Deem and Ramdas Pophale) SiO2 
 PCOD9042894
Probable space group: P -1
;
_chemical_formula_sum "Si O2"
_cell_formula_units_Z 14
_cell_length_a 9.461707
_cell_length_b 6.022456
_cell_length_c 17.950036
_cell_angle_alpha 97.394032
_cell_angle_beta 34.550377
_cell_angle_gamma 96.296961
_cell_volume 575.248878
_symmetry_space_group_name_H-M "P -1"
_symmetry_group_IT_number 2
_symmetry_cell_setting 'triclinic'
loop_
_space_group_symop_operation_xyz
x,y,z
-x,-y,-z
loop_
_atom_site_type_symbol
_atom_site_label
_atom_site_fract_x
_atom_site_fract_y
_atom_site_fract_z
Si Si1 0.287623 0.822024 0.103657
Si Si2 0.837480 0.292556 0.536765
Si Si3 0.939436 0.107029 0.642561
Si Si4 0.912281 0.063300 0.180215
Si Si5 0.784344 0.559348 0.993392
Si Si6 0.308378 0.349308 0.803443
Si Si7 0.475067 0.240138 0.471512
O O1 0.246121 0.812414 0.209407
O O2 0.324050 0.598145 0.030186
O O3 0.022398 0.910928 0.191712
O O4 0.500000 0.000000 0.000000
O O5 0.824564 0.148295 0.612753
O O6 0.552862 0.354364 0.646595
O O7 0.000000 0.500000 0.500000
O O8 0.979604 0.154090 0.405725
O O9 0.205813 0.224959 0.547406
O O10 0.700449 0.212498 0.314480
O O11 0.151628 0.194176 0.051748
O O12 0.786153 0.907442 0.166147
O O13 0.064803 0.476639 0.887010
O O14 0.636416 0.556263 0.134544
O O15 0.500000 0.500000 0.500000
O O16 0.500000 0.000000 0.500000
#
# Coordination Sequence:
#
# PCOD9042894 Si02
#       7
#     2   2   2   2   2   2   2
#     4  11  26  45  67 101 142 180 237 292 368 432
#     4  11  27  43  70  97 139 188 233 301 365 427
#     4  11  26  46  64 105 137 183 244 291 366 436
#     4  11  23  42  73  98 134 185 237 295 362 425
#     4  10  24  43  69 101 130 186 232 297 353 431
#     4  10  23  45  66 100 136 176 246 286 360 424
#     4  12  26  45  76 107 146 186 239 304 360 438
#
# _framework density 24.337292000000001
#
# number of rings (size 3 to 8) (size 9 to 14) (size 15 to 20)
#    0.000    1.143    2.857    1.286   10.000    1.714 
#    0.000    0.000    0.000    0.000    0.000    0.000 
#    0.000    0.000    0.000    0.000    0.000    0.000 
#
# Total GULP energy -78209.622936 kJ/mol
# GULP energy per Si atom -5586.401638 kJ/mol
# Density = 2.428190 g / cm^3
# Si number density = 24.337292 Si / 1000 Ang^3
#
#
#
# Elastic Constant Matrix: (Units=GPa)
#
#
# Indices 1 2 3 4 5 6 
#
# 1 92.8875 23.2850 21.8732 17.5781 -1.5452 7.1897
# 2 23.2850 103.0644 12.2123 11.9540 4.5629 33.1876
# 3 21.8732 12.2123 74.3130 12.3262 4.1131 5.1533
# 4 17.5781 11.9540 12.3262 37.7611 6.1856 -2.2072
# 5 -1.5452 4.5629 4.1131 6.1856 46.9841 4.0438
# 6 7.1897 33.1876 5.1533 -2.2072 4.0438 44.6989
#
#
#
# Elastic Compliance Matrix: (Units=1/GPa)
#
#
# Indices 1 2 3 4 5 6 
#
# 1 0.012864 -0.001850 -0.002717 -0.004813 0.001540 -0.000759
# 2 -0.001850 0.013911 -0.000369 -0.004022 0.000027 -0.010189
# 3 -0.002717 -0.000369 0.015012 -0.003450 -0.000817 -0.001116
# 4 -0.004813 -0.004022 -0.003450 0.032173 -0.004229 0.006129
# 5 0.001540 0.000027 -0.000817 -0.004229 0.022166 -0.002388
# 6 -0.000759 -0.010189 -0.001116 0.006129 -0.002388 0.030707
#
#
# Mechanical properties :
#
#
# Convention : Reuss Voigt Hill
#
# Bulk Modulus (GPa) = 31.33344 42.77845 37.05595
# Shear Modulus (GPa) = 33.93464 40.08180 37.00822
#
# Velocity S-wave (km/s) = 3.73815 4.06264 3.90377
# Velocity P-wave (km/s) = 5.61554 6.29462 5.96475
#
# Compressibility (1/GPa) = 0.03191478
#
# Stress axis : x y z
#
# Youngs Moduli (GPa) = 77.73438 71.88725 66.61429
#
# Poissons Ratio (x) = 0.13299 0.18097
# Poissons Ratio (y) = 0.14380 0.02460
# Poissons Ratio (z) = 0.21119 0.02655
#
# Static dielectric constant tensor:
#      x y z
#    x 2.006790 -0.099830 0.029720 
#    y -0.099830 2.002140 0.023550 
#    z 0.029720 0.023550 1.872000 
# 
# From -- ./inp_files/69293.got.cif
#   From: 2010.05.17/outbox.cif.g08.bks.cpg/sg2_35_cif.got.tgz:69293.got - 2010.06.03 11:33:40.
