data_PCOD9042407
_publ_section_title
;
Structure prediction by ZEFSAII (Michael W. Deem and Ramdas Pophale) SiO2 
 PCOD9042407
Probable space group: P -1
;
_chemical_formula_sum "Si O2"
_cell_formula_units_Z 14
_cell_length_a 6.682322
_cell_length_b 7.458859
_cell_length_c 24.453455
_cell_angle_alpha 137.394364
_cell_angle_beta 138.133938
_cell_angle_gamma 61.282719
_cell_volume 544.444656
_symmetry_space_group_name_H-M "P -1"
_symmetry_group_IT_number 2
_symmetry_cell_setting 'triclinic'
loop_
_space_group_symop_operation_xyz
x,y,z
-x,-y,-z
loop_
_atom_site_type_symbol
_atom_site_label
_atom_site_fract_x
_atom_site_fract_y
_atom_site_fract_z
Si Si1 0.827557 0.771958 0.640576
Si Si2 0.368282 0.976384 0.661748
Si Si3 0.445284 0.021667 0.085258
Si Si4 0.777200 0.733628 0.007886
Si Si5 0.366743 0.466093 0.689730
Si Si6 0.666012 0.743468 0.480285
Si Si7 0.377221 0.237731 0.836850
O O1 0.654427 0.699615 0.532890
O O2 0.032342 0.544345 0.640359
O O3 0.614192 0.802704 0.654039
O O4 0.049856 0.061322 0.742911
O O5 0.374980 0.200263 0.666356
O O6 0.461916 0.099787 0.767285
O O7 0.029184 0.819707 0.561188
O O8 0.222631 0.092309 0.008100
O O9 0.462062 0.285888 0.185853
O O10 0.417700 0.795388 0.075710
O O11 0.748001 0.947908 0.098578
O O12 0.441464 0.549437 0.904822
O O13 0.000000 0.500000 0.000000
O O14 0.449492 0.437598 0.636525
O O15 0.500000 0.000000 0.500000
#
# Coordination Sequence:
#
# PCOD9042407 Si02
#       7
#     2   2   2   2   2   2   2
#     4  10  24  43  68  99 142 177 237 280 338 414
#     4  11  23  45  68 101 141 186 226 285 345 401
#     4  10  24  45  67 105 137 174 236 281 345 419
#     4  11  24  45  74  99 139 179 227 291 351 413
#     4  11  22  42  68  97 140 179 229 286 337 404
#     4  11  23  43  66 101 141 187 229 279 345 406
#     4  10  23  44  71 104 138 181 229 282 349 412
#
# _framework density 25.714276000000002
#
# number of rings (size 3 to 8) (size 9 to 14) (size 15 to 20)
#    0.000    1.429    2.857    1.286    4.000    1.143 
#    7.714    5.714    0.000    0.000    0.000    0.000 
#    0.000    0.000    0.000    0.000    0.000    0.000 
#
# Total GULP energy -78166.744233 kJ/mol
# GULP energy per Si atom -5583.338874 kJ/mol
# Density = 2.565575 g / cm^3
# Si number density = 25.714276 Si / 1000 Ang^3
#
#
#
# Elastic Constant Matrix: (Units=GPa)
#
#
# Indices 1 2 3 4 5 6 
#
# 1 101.0426 9.5701 61.1275 -22.5627 -34.8070 16.9088
# 2 9.5701 104.4444 21.8063 -23.3046 -13.8060 10.3862
# 3 61.1275 21.8063 99.8803 9.9258 -34.0140 -3.1187
# 4 -22.5627 -23.3046 9.9258 38.2194 16.5267 -3.2442
# 5 -34.8070 -13.8060 -34.0140 16.5267 51.8728 -5.2336
# 6 16.9088 10.3862 -3.1187 -3.2442 -5.2336 42.6848
#
#
#
# Elastic Compliance Matrix: (Units=1/GPa)
#
#
# Indices 1 2 3 4 5 6 
#
# 1 0.040208 0.014337 -0.035569 0.043690 -0.008438 -0.019729
# 2 0.014337 0.017936 -0.017858 0.026046 -0.006642 -0.010183
# 3 -0.035569 -0.017858 0.049237 -0.052656 0.022540 0.020794
# 4 0.043690 0.026046 -0.052656 0.092519 -0.030193 -0.024162
# 5 -0.008438 -0.006642 0.022540 -0.030193 0.037142 0.008865
# 6 -0.019729 -0.010183 0.020794 -0.024162 0.008865 0.034490
#
#
# Mechanical properties :
#
#
# Convention : Reuss Voigt Hill
#
# Bulk Modulus (GPa) = 34.24603 54.48612 44.36607
# Shear Modulus (GPa) = 13.91030 40.74630 27.32830
#
# Velocity S-wave (km/s) = 2.32837 3.98500 3.26355
# Velocity P-wave (km/s) = 4.53599 6.51219 5.61177
#
# Compressibility (1/GPa) = 0.02920046
#
# Stress axis : x y z
#
# Youngs Moduli (GPa) = 24.87092 55.75506 20.30977
#
# Poissons Ratio (x) = -0.79936 0.72239
# Poissons Ratio (y) = -0.35658 0.36270
# Poissons Ratio (z) = 0.88463 0.99569
#
# Static dielectric constant tensor:
#      x y z
#    x 2.045600 0.025660 0.085070 
#    y 0.025660 2.121910 0.056340 
#    z 0.085070 0.056340 2.131320 
# 
# From -- ./inp_files/604106.got.cif
#   From: 2010.05.17/outbox.cif.g08.bks.cpg/sg2_303_cif.got.tgz:604106.got - 2010.06.03 11:33:40.
