data_PCOD9042435
_publ_section_title
;
Structure prediction by ZEFSAII (Michael W. Deem and Ramdas Pophale) SiO2 
 PCOD9042435
Probable space group: P -1
;
_chemical_formula_sum "Si O2"
_cell_formula_units_Z 16
_cell_length_a 8.852548
_cell_length_b 8.898930
_cell_length_c 11.984300
_cell_angle_alpha 86.421191
_cell_angle_beta 126.617852
_cell_angle_gamma 107.642435
_cell_volume 713.427919
_symmetry_space_group_name_H-M "P -1"
_symmetry_group_IT_number 2
_symmetry_cell_setting 'triclinic'
loop_
_space_group_symop_operation_xyz
x,y,z
-x,-y,-z
loop_
_atom_site_type_symbol
_atom_site_label
_atom_site_fract_x
_atom_site_fract_y
_atom_site_fract_z
Si Si1 0.965755 0.358216 0.078689
Si Si2 0.039587 0.127596 0.414546
Si Si3 0.654531 0.182569 0.548207
Si Si4 0.404509 0.914933 0.845999
Si Si5 0.949293 0.643263 0.415826
Si Si6 0.335104 0.569531 0.878150
Si Si7 0.722610 0.096948 0.816972
Si Si8 0.275974 0.205954 0.299245
O O1 0.814697 0.390606 0.101040
O O2 0.165866 0.333182 0.216251
O O3 0.861511 0.196165 0.970980
O O4 0.000000 0.500000 0.000000
O O5 0.134495 0.285848 0.520896
O O6 0.177684 0.121263 0.374441
O O7 0.830018 0.117947 0.266736
O O8 0.000000 0.000000 0.500000
O O9 0.727100 0.209846 0.707301
O O10 0.511677 0.271781 0.427008
O O11 0.850493 0.229364 0.554657
O O12 0.500000 0.000000 0.500000
O O13 0.436227 0.743452 0.858468
O O14 0.506579 0.026953 0.782518
O O15 0.500000 0.000000 0.000000
O O16 0.795233 0.566522 0.255014
O O17 0.000000 0.500000 0.500000
O O18 0.500000 0.500000 0.000000
O O19 0.767035 0.939241 0.801535
#
# Coordination Sequence:
#
# PCOD9042435 Si02
#       8
#     2   2   2   2   2   2   2   2
#     4  12  26  46  66 104 145 187 241 298 366 436
#     4  12  24  42  73 110 144 187 245 298 367 437
#     4  10  23  44  71 107 142 189 241 291 363 439
#     4  12  24  47  73 105 146 189 252 302 358 445
#     4  12  25  48  74 104 150 192 247 306 359 434
#     4  12  29  49  71 105 146 195 246 306 373 428
#     4  11  23  44  73 102 142 193 238 298 358 441
#     4  11  23  44  71 107 142 186 239 293 362 434
#
# _framework density 22.426932000000001
#
# number of rings (size 3 to 8) (size 9 to 14) (size 15 to 20)
#    0.000    0.500    3.750    4.875    3.500    1.000 
#    4.500    4.375    0.000    0.000    0.000    0.000 
#    0.000    0.000    0.000    0.000    0.000    0.000 
#
# Total GULP energy -89391.524762 kJ/mol
# GULP energy per Si atom -5586.970298 kJ/mol
# Density = 2.237589 g / cm^3
# Si number density = 22.426932 Si / 1000 Ang^3
#
#
#
# Elastic Constant Matrix: (Units=GPa)
#
#
# Indices 1 2 3 4 5 6 
#
# 1 97.5977 17.3034 48.7565 6.6845 -4.0758 -10.6467
# 2 17.3034 64.2691 19.2724 -7.3186 8.7311 -5.5213
# 3 48.7565 19.2724 132.4384 3.9059 18.2955 -18.8144
# 4 6.6845 -7.3186 3.9059 45.2858 -11.8095 -2.9122
# 5 -4.0758 8.7311 18.2955 -11.8095 42.6832 -7.9869
# 6 -10.6467 -5.5213 -18.8144 -2.9122 -7.9869 41.4348
#
#
#
# Elastic Compliance Matrix: (Units=1/GPa)
#
#
# Indices 1 2 3 4 5 6 
#
# 1 0.013577 -0.002689 -0.004906 -0.000865 0.004012 0.001615
# 2 -0.002689 0.017340 -0.001166 0.002728 -0.002396 0.000820
# 3 -0.004906 -0.001166 0.010557 -0.001452 -0.004714 0.002367
# 4 -0.000865 0.002728 -0.001452 0.024864 0.007357 0.002648
# 5 0.004012 -0.002396 -0.004714 0.007357 0.029242 0.004725
# 6 0.001615 0.000820 0.002367 0.002648 0.004725 0.026830
#
#
# Mechanical properties :
#
#
# Convention : Reuss Voigt Hill
#
# Bulk Modulus (GPa) = 41.75312 51.66332 46.70822
# Shear Modulus (GPa) = 33.80284 39.81227 36.80755
#
# Velocity S-wave (km/s) = 3.88653 4.21788 4.05559
# Velocity P-wave (km/s) = 6.22881 6.84156 6.54236
#
# Compressibility (1/GPa) = 0.02395031
#
# Stress axis : x y z
#
# Youngs Moduli (GPa) = 73.65447 57.67074 94.72511
#
# Poissons Ratio (x) = 0.15507 0.46475
# Poissons Ratio (y) = 0.19805 0.11049
# Poissons Ratio (z) = 0.36137 0.06727
#
# Static dielectric constant tensor:
#      x y z
#    x 1.839340 0.019410 0.002000 
#    y 0.019410 1.867380 -0.024150 
#    z 0.002000 -0.024150 1.841520 
# 
# From -- ./inp_files/379320.got.cif
#   From: 2010.05.17/outbox.cif.g08.bks.cpg/sg2_190_cif.got.tgz:379320.got - 2010.06.03 11:33:40.
