data_PCOD9042030
_publ_section_title
;
Structure prediction by ZEFSAII (Michael W. Deem and Ramdas Pophale) SiO2 
 PCOD9042030
Probable space group: P -1
;
_chemical_formula_sum "Si O2"
_cell_formula_units_Z 16
_cell_length_a 14.175823
_cell_length_b 14.590102
_cell_length_c 9.850220
_cell_angle_alpha 134.072934
_cell_angle_beta 29.939835
_cell_angle_gamma 137.519473
_cell_volume 676.967447
_symmetry_space_group_name_H-M "P -1"
_symmetry_group_IT_number 2
_symmetry_cell_setting 'triclinic'
loop_
_space_group_symop_operation_xyz
x,y,z
-x,-y,-z
loop_
_atom_site_type_symbol
_atom_site_label
_atom_site_fract_x
_atom_site_fract_y
_atom_site_fract_z
Si Si1 0.646600 0.212219 0.544328
Si Si2 0.211430 0.032024 0.964841
Si Si3 0.531894 0.474568 0.279114
Si Si4 0.766497 0.833039 0.652391
Si Si5 0.749430 0.961970 0.515738
Si Si6 0.866041 0.242239 0.777310
Si Si7 0.618526 0.296834 0.386888
Si Si8 0.117142 0.588856 0.319216
O O1 0.399815 0.163178 0.808075
O O2 0.721295 0.305827 0.414039
O O3 0.733484 0.279458 0.647731
O O4 0.730071 0.091524 0.289622
O O5 0.236343 0.052890 0.118425
O O6 0.974255 0.009043 0.213611
O O7 0.500000 0.500000 0.500000
O O8 0.407240 0.313144 0.248554
O O9 0.461032 0.579529 0.394021
O O10 0.762291 0.498164 0.985699
O O11 0.756973 0.879968 0.559906
O O12 0.969956 0.804055 0.399501
O O13 0.566450 0.853193 0.547709
O O14 0.718147 0.100542 0.743733
O O15 0.964003 0.350454 0.645067
O O16 0.756112 0.300481 0.087173
O O17 0.000000 0.500000 0.500000
#
# Coordination Sequence:
#
# PCOD9042030 Si02
#       8
#     2   2   2   2   2   2   2   2
#     4  11  26  45  70 101 141 181 231 288 352 412
#     4  10  23  44  68  99 143 176 221 292 354 402
#     4  12  25  47  70  99 145 183 235 289 344 416
#     4  11  22  45  72 103 138 179 233 293 345 412
#     4  11  23  41  74 105 138 175 238 287 348 411
#     4  11  25  45  73 102 136 186 234 290 345 418
#     4  12  26  42  73 102 136 190 234 281 352 419
#     4  12  29  49  71 103 145 187 232 293 347 417
#
# _framework density 23.634816000000001
#
# number of rings (size 3 to 8) (size 9 to 14) (size 15 to 20)
#    0.000    0.750    3.750    3.375    7.000    4.500 
#    0.000    0.000    0.000    0.000    0.000    0.000 
#    0.000    0.000    0.000    0.000    0.000    0.000 
#
# Total GULP energy -89467.349283 kJ/mol
# GULP energy per Si atom -5591.709330 kJ/mol
# Density = 2.358102 g / cm^3
# Si number density = 23.634816 Si / 1000 Ang^3
#
#
#
# Elastic Constant Matrix: (Units=GPa)
#
#
# Indices 1 2 3 4 5 6 
#
# 1 67.2890 -11.6733 9.2475 2.1959 18.8435 -17.3077
# 2 -11.6733 46.8071 0.6269 1.5050 -5.8148 -20.6135
# 3 9.2475 0.6269 116.2366 7.0166 7.9387 -3.3915
# 4 2.1959 1.5050 7.0166 34.9094 2.2671 -1.3227
# 5 18.8435 -5.8148 7.9387 2.2671 24.1293 -4.0638
# 6 -17.3077 -20.6135 -3.3915 -1.3227 -4.0638 34.0976
#
#
#
# Elastic Compliance Matrix: (Units=1/GPa)
#
#
# Indices 1 2 3 4 5 6 
#
# 1 0.026246 0.013620 -0.000623 -0.000476 -0.013621 0.019852
# 2 0.013620 0.038932 -0.000594 -0.001525 0.004279 0.030841
# 3 -0.000623 -0.000594 0.008915 -0.001572 -0.002466 -0.000143
# 4 -0.000476 -0.001525 -0.001572 0.029189 -0.002299 -0.000462
# 5 -0.013621 0.004279 -0.002466 -0.002299 0.054446 0.001827
# 6 0.019852 0.030841 -0.000143 -0.000462 0.001827 0.058235
#
#
# Mechanical properties :
#
#
# Convention : Reuss Voigt Hill
#
# Bulk Modulus (GPa) = 10.11143 25.19275 17.65209
# Shear Modulus (GPa) = 22.30913 34.10268 28.20591
#
# Velocity S-wave (km/s) = 3.07564 3.80267 3.45832
# Velocity P-wave (km/s) = 4.11099 5.47382 4.84061
#
# Compressibility (1/GPa) = 0.09889803
#
# Stress axis : x y z
#
# Youngs Moduli (GPa) = 38.10124 25.68606 112.16955
#
# Poissons Ratio (x) = -0.34984 0.06991
# Poissons Ratio (y) = -0.51893 0.06661
# Poissons Ratio (z) = 0.02375 0.01525
#
# Static dielectric constant tensor:
#      x y z
#    x 1.888670 0.063030 -0.027270 
#    y 0.063030 1.954660 -0.064990 
#    z -0.027270 -0.064990 1.881970 
# 
# From -- ./inp_files/315791.got.cif
#   From: 2010.05.17/outbox.cif.g08.bks.cpg/sg2_158_cif.got.tgz:315791.got - 2010.06.03 11:33:40.
