data_PCOD9042827
_publ_section_title
;
Structure prediction by ZEFSAII (Michael W. Deem and Ramdas Pophale) SiO2 
 PCOD9042827
Probable space group: P -1
;
_chemical_formula_sum "Si O2"
_cell_formula_units_Z 15
_cell_length_a 4.777639
_cell_length_b 9.204843
_cell_length_c 21.439331
_cell_angle_alpha 144.686011
_cell_angle_beta 102.081747
_cell_angle_gamma 81.897285
_cell_volume 532.203233
_symmetry_space_group_name_H-M "P -1"
_symmetry_group_IT_number 2
_symmetry_cell_setting 'triclinic'
loop_
_space_group_symop_operation_xyz
x,y,z
-x,-y,-z
loop_
_atom_site_type_symbol
_atom_site_label
_atom_site_fract_x
_atom_site_fract_y
_atom_site_fract_z
Si Si1 0.320174 0.946591 0.732333
Si Si2 0.175612 0.719304 0.172810
Si Si3 0.152169 0.771677 0.532004
Si Si4 0.497493 0.280481 0.686462
Si Si5 0.653246 0.063997 0.936579
Si Si6 0.500000 0.500000 0.000000
Si Si7 0.144283 0.752167 0.862762
Si Si8 0.550544 0.548783 0.386165
O O1 0.150635 0.808266 0.618986
O O2 0.346731 0.737975 0.713483
O O3 0.625553 0.033039 0.748226
O O4 0.154245 0.208035 0.829387
O O5 0.256254 0.679327 0.235211
O O6 0.297695 0.509582 0.060370
O O7 0.338892 0.552739 0.436612
O O8 0.833518 0.722670 0.475432
O O9 0.319510 0.020985 0.600344
O O10 0.269662 0.492964 0.759461
O O11 0.592692 0.324104 0.635304
O O12 0.358399 0.970194 0.921255
O O13 0.631631 0.238551 0.937851
O O14 0.833157 0.222664 0.052858
O O15 0.835260 0.819784 0.848914
#
# Coordination Sequence:
#
# PCOD9042827 Si02
#       8
#     2   2   2   2   2   1   2   2
#     4  11  25  47  71  99 138 175 232 276 340 405
#     4  11  27  45  68 102 137 186 218 283 337 401
#     4  11  24  45  69 102 135 178 223 281 348 396
#     4  11  25  45  67 102 139 178 226 279 332 410
#     4  10  24  42  71  94 136 172 226 270 335 398
#     4  12  26  48  72 102 142 176 232 274 340 398
#     4  10  23  45  64 101 131 180 214 278 335 393
#     4  12  25  42  73 101 134 178 228 286 334 404
#
# _framework density 28.184721
#
# number of rings (size 3 to 8) (size 9 to 14) (size 15 to 20)
#    0.000    1.067    1.333    4.000    3.733    8.533 
#    0.000    0.000    0.000    0.000    0.000    0.000 
#    0.000    0.000    0.000    0.000    0.000    0.000 
#
# Total GULP energy -84061.617131 kJ/mol
# GULP energy per Si atom -5604.107809 kJ/mol
# Density = 2.812057 g / cm^3
# Si number density = 28.184721 Si / 1000 Ang^3
#
#
#
# Elastic Constant Matrix: (Units=GPa)
#
#
# Indices 1 2 3 4 5 6 
#
# 1 137.8530 26.6653 4.2726 -3.9784 -5.2543 -8.5552
# 2 26.6653 177.3659 36.2069 -10.5268 5.4847 -18.9485
# 3 4.2726 36.2069 88.0616 -2.7048 -22.2177 -1.9178
# 4 -3.9784 -10.5268 -2.7048 49.9538 2.8685 6.8320
# 5 -5.2543 5.4847 -22.2177 2.8685 47.7045 6.1765
# 6 -8.5552 -18.9485 -1.9178 6.8320 6.1765 33.4610
#
#
#
# Elastic Compliance Matrix: (Units=1/GPa)
#
#
# Indices 1 2 3 4 5 6 
#
# 1 0.007570 -0.001114 0.000367 0.000180 0.000979 0.001108
# 2 -0.001114 0.007099 -0.003548 0.000857 -0.003153 0.003939
# 3 0.000367 -0.003548 0.014659 -0.000023 0.007597 -0.002473
# 4 0.000180 0.000857 -0.000023 0.020747 -0.000878 -0.003544
# 5 0.000979 -0.003153 0.007597 -0.000878 0.025758 -0.005675
# 6 0.001108 0.003939 -0.002473 -0.003544 -0.005675 0.034029
#
#
# Mechanical properties :
#
#
# Convention : Reuss Voigt Hill
#
# Bulk Modulus (GPa) = 48.22150 59.73000 53.97575
# Shear Modulus (GPa) = 39.88379 48.63293 44.25836
#
# Velocity S-wave (km/s) = 3.76584 4.15843 3.96700
# Velocity P-wave (km/s) = 6.00458 6.65545 6.33838
#
# Compressibility (1/GPa) = 0.02073764
#
# Stress axis : x y z
#
# Youngs Moduli (GPa) = 132.10899 140.86392 68.21826
#
# Poissons Ratio (x) = 0.15695 -0.02507
# Poissons Ratio (y) = 0.14720 0.24205
# Poissons Ratio (z) = -0.04854 0.49980
#
# Static dielectric constant tensor:
#      x y z
#    x 2.024220 -0.032200 -0.060590 
#    y -0.032200 2.169630 -0.043720 
#    z -0.060590 -0.043720 2.126600 
# 
# From -- ./inp_files/582099.got.cif
#   From: 2010.05.17/outbox.cif.g08.bks.cpg/sg2_292_cif.got.tgz:582099.got - 2010.06.03 11:33:40.
