data_PCOD9042153
_publ_section_title
;
Structure prediction by ZEFSAII (Michael W. Deem and Ramdas Pophale) SiO2 
 PCOD9042153
Probable space group: P -1
;
_chemical_formula_sum "Si O2"
_cell_formula_units_Z 13
_cell_length_a 15.871629
_cell_length_b 8.294242
_cell_length_c 16.937956
_cell_angle_alpha 40.825240
_cell_angle_beta 26.999929
_cell_angle_gamma 58.763216
_cell_volume 563.474136
_symmetry_space_group_name_H-M "P -1"
_symmetry_group_IT_number 2
_symmetry_cell_setting 'triclinic'
loop_
_space_group_symop_operation_xyz
x,y,z
-x,-y,-z
loop_
_atom_site_type_symbol
_atom_site_label
_atom_site_fract_x
_atom_site_fract_y
_atom_site_fract_z
Si Si1 0.946752 0.231910 0.925213
Si Si2 0.487174 0.192747 0.617300
Si Si3 0.815735 0.838039 0.862346
Si Si4 0.000000 0.500000 0.500000
Si Si5 0.798846 0.402668 0.144971
Si Si6 0.462365 0.721340 0.087070
Si Si7 0.752615 0.140848 0.556817
O O1 0.856390 0.307787 0.050569
O O2 0.760038 0.070192 0.076367
O O3 0.146333 0.533213 0.613137
O O4 0.000000 0.000000 0.000000
O O5 0.500000 0.500000 0.500000
O O6 0.586095 0.187299 0.451686
O O7 0.631703 0.156004 0.574819
O O8 0.613881 0.648492 0.041244
O O9 0.035464 0.877462 0.627644
O O10 0.773118 0.668223 0.042453
O O11 0.865682 0.155996 0.720109
O O12 0.213088 0.486545 0.363992
O O13 0.000000 0.500000 0.000000
O O14 0.586771 0.866730 0.847842
O O15 0.500000 0.000000 0.000000
#
# Coordination Sequence:
#
# PCOD9042153 Si02
#       7
#     2   2   2   1   2   2   2
#     4  11  23  43  67 102 138 189 225 283 356 410
#     4  12  24  41  68 107 143 182 233 287 353 418
#     4  10  23  44  69  96 139 176 233 284 342 415
#     4  10  24  44  68 100 126 182 226 284 350 402
#     4  11  22  46  69 102 144 179 230 289 346 422
#     4  10  24  45  66  97 131 179 232 286 345 407
#     4  11  24  45  67  98 142 180 235 291 343 421
#
# _framework density 23.071156999999999
#
# number of rings (size 3 to 8) (size 9 to 14) (size 15 to 20)
#    0.000    1.231    4.615    0.923    4.308    5.538 
#    8.308    0.000    0.000    0.000    0.000    0.000 
#    0.000    0.000    0.000    0.000    0.000    0.000 
#
# Total GULP energy -72376.435376 kJ/mol
# GULP energy per Si atom -5567.418106 kJ/mol
# Density = 2.301865 g / cm^3
# Si number density = 23.071157 Si / 1000 Ang^3
#
#
#
# Elastic Constant Matrix: (Units=GPa)
#
#
# Indices 1 2 3 4 5 6 
#
# 1 122.0405 18.8097 56.8481 6.5934 -30.8552 -24.2854
# 2 18.8097 52.0282 -10.3910 -9.1036 -3.7961 -13.9790
# 3 56.8481 -10.3910 92.1830 -6.4333 -43.9153 -4.3017
# 4 6.5934 -9.1036 -6.4333 34.1954 -1.8017 -1.8768
# 5 -30.8552 -3.7961 -43.9153 -1.8017 54.8146 5.8928
# 6 -24.2854 -13.9790 -4.3017 -1.8768 5.8928 33.7921
#
#
#
# Elastic Compliance Matrix: (Units=1/GPa)
#
#
# Indices 1 2 3 4 5 6 
#
# 1 0.016272 -0.007867 -0.012076 -0.007235 -0.002035 0.006856
# 2 -0.007867 0.029483 0.013074 0.012646 0.007690 0.007568
# 3 -0.012076 0.013074 0.029123 0.012127 0.018057 -0.002038
# 4 -0.007235 0.012646 0.012127 0.036808 0.007480 0.002316
# 5 -0.002035 0.007690 0.018057 0.007480 0.032475 -0.001230
# 6 0.006856 0.007568 -0.002038 0.002316 -0.001230 0.037734
#
#
# Mechanical properties :
#
#
# Convention : Reuss Voigt Hill
#
# Bulk Modulus (GPa) = 16.35612 44.08728 30.22170
# Shear Modulus (GPa) = 23.14663 37.95943 30.55303
#
# Velocity S-wave (km/s) = 3.17088 4.06065 3.64304
# Velocity P-wave (km/s) = 4.52889 6.41373 5.55188
#
# Compressibility (1/GPa) = 0.06113921
#
# Stress axis : x y z
#
# Youngs Moduli (GPa) = 61.45346 33.91797 34.33764
#
# Poissons Ratio (x) = 0.26684 0.41467
# Poissons Ratio (y) = 0.48346 -0.44893
# Poissons Ratio (z) = 0.74212 -0.44344
#
# Static dielectric constant tensor:
#      x y z
#    x 1.819360 -0.079820 -0.013960 
#    y -0.079820 1.944290 -0.005130 
#    z -0.013960 -0.005130 1.859730 
# 
# From -- ./inp_files/236323.got.cif
#   From: 2010.05.17/outbox.cif.g08.bks.cpg/sg2_119_cif.got.tgz:236323.got - 2010.06.03 11:33:40.
