data_PCOD9042258
_publ_section_title
;
Structure prediction by ZEFSAII (Michael W. Deem and Ramdas Pophale) SiO2 
 PCOD9042258
Probable space group: P -1
;
_chemical_formula_sum "Si O2"
_cell_formula_units_Z 16
_cell_length_a 20.623640
_cell_length_b 13.791278
_cell_length_c 5.680710
_cell_angle_alpha 84.950720
_cell_angle_beta 71.349057
_cell_angle_gamma 145.262534
_cell_volume 663.069118
_symmetry_space_group_name_H-M "P -1"
_symmetry_group_IT_number 2
_symmetry_cell_setting 'triclinic'
loop_
_space_group_symop_operation_xyz
x,y,z
-x,-y,-z
loop_
_atom_site_type_symbol
_atom_site_label
_atom_site_fract_x
_atom_site_fract_y
_atom_site_fract_z
Si Si1 0.190274 0.943537 0.582912
Si Si2 0.462219 0.898999 0.820717
Si Si3 0.730829 0.142278 0.239108
Si Si4 0.914445 0.952720 0.807846
Si Si5 0.429992 0.166898 0.897446
Si Si6 0.793359 0.616293 0.328289
Si Si7 0.661481 0.763025 0.257505
Si Si8 0.149796 0.491897 0.054882
O O1 0.234887 0.093702 0.656193
O O2 0.166414 0.818167 0.807226
O O3 0.337682 0.103680 0.220894
O O4 0.035536 0.756200 0.644505
O O5 0.500000 0.000000 0.500000
O O6 0.582288 0.963479 0.629436
O O7 0.276624 0.640167 0.083091
O O8 0.500000 0.000000 0.000000
O O9 0.662022 0.040642 0.074949
O O10 0.821441 0.360632 0.097039
O O11 0.827796 0.760276 0.111931
O O12 0.778925 0.856993 0.924929
O O13 0.000000 0.000000 0.500000
O O14 0.060970 0.196372 0.703163
O O15 0.614341 0.389235 0.676970
O O16 0.401624 0.209228 0.714251
O O17 0.804739 0.533933 0.176203
O O18 0.500000 0.500000 0.500000
#
# Coordination Sequence:
#
# PCOD9042258 Si02
#       8
#     2   2   2   2   2   2   2   2
#     4  11  26  44  69 103 142 191 238 295 370 435
#     4  10  23  44  70 103 141 194 247 301 365 432
#     4  10  24  44  68 100 145 189 240 294 360 436
#     4  11  26  45  71 101 135 181 233 295 367 428
#     4  11  25  43  69 102 139 184 236 285 366 436
#     4  11  24  46  68 102 139 175 240 297 349 440
#     4  11  24  46  67 101 143 179 232 297 361 440
#     4  11  23  47  69 101 144 189 245 306 357 431
#
# _framework density 24.130213999999999
#
# number of rings (size 3 to 8) (size 9 to 14) (size 15 to 20)
#    0.000    1.250    3.750    0.375    7.000    1.000 
#   13.500    0.000    0.000    0.000    0.000    0.000 
#    0.000    0.000    0.000    0.000    0.000    0.000 
#
# Total GULP energy -89335.763460 kJ/mol
# GULP energy per Si atom -5583.485216 kJ/mol
# Density = 2.407529 g / cm^3
# Si number density = 24.130214 Si / 1000 Ang^3
#
#
#
# Elastic Constant Matrix: (Units=GPa)
#
#
# Indices 1 2 3 4 5 6 
#
# 1 68.8870 48.0538 24.7417 -16.3628 -23.3724 2.6005
# 2 48.0538 176.3402 47.3304 -12.9540 -15.7488 -3.9011
# 3 24.7417 47.3304 107.2566 -16.2828 -33.2485 3.0646
# 4 -16.3628 -12.9540 -16.2828 49.1389 0.2557 -7.6707
# 5 -23.3724 -15.7488 -33.2485 0.2557 41.4812 -6.2200
# 6 2.6005 -3.9011 3.0646 -7.6707 -6.2200 41.1813
#
#
#
# Elastic Compliance Matrix: (Units=1/GPa)
#
#
# Indices 1 2 3 4 5 6 
#
# 1 0.023531 -0.005223 0.001965 0.007226 0.012983 0.001180
# 2 -0.005223 0.007671 -0.003008 -0.000573 -0.002315 0.000824
# 3 0.001965 -0.003008 0.014541 0.004803 0.011767 0.001181
# 4 0.007226 -0.000573 0.004803 0.024939 0.008304 0.005032
# 5 0.012983 -0.002315 0.011767 0.008304 0.040793 0.005793
# 6 0.001180 0.000824 0.001181 0.005032 0.005793 0.026011
#
#
# Mechanical properties :
#
#
# Convention : Reuss Voigt Hill
#
# Bulk Modulus (GPa) = 30.11219 65.85952 47.98586
# Shear Modulus (GPa) = 31.03858 41.85080 36.44469
#
# Velocity S-wave (km/s) = 3.59039 4.16910 3.89052
# Velocity P-wave (km/s) = 5.44922 7.10829 6.33332
#
# Compressibility (1/GPa) = 0.03320914
#
# Stress axis : x y z
#
# Youngs Moduli (GPa) = 42.49654 130.35971 68.77184
#
# Poissons Ratio (x) = 0.68091 -0.13511
# Poissons Ratio (y) = 0.22197 0.20689
# Poissons Ratio (z) = -0.08349 0.39217
#
# Static dielectric constant tensor:
#      x y z
#    x 2.095000 0.070490 0.105960 
#    y 0.070490 2.191580 0.093840 
#    z 0.105960 0.093840 1.966770 
# 
# From -- ./inp_files/124290.got.cif
#   From: 2010.05.17/outbox.cif.g08.bks.cpg/sg2_63_cif.got.tgz:124290.got - 2010.06.03 11:33:40.
