data_PCOD9042651
_publ_section_title
;
Structure prediction by ZEFSAII (Michael W. Deem and Ramdas Pophale) SiO2 
 PCOD9042651
Probable space group: P -1
;
_chemical_formula_sum "Si O2"
_cell_formula_units_Z 14
_cell_length_a 11.372135
_cell_length_b 12.470373
_cell_length_c 5.197542
_cell_angle_alpha 76.472931
_cell_angle_beta 59.888818
_cell_angle_gamma 58.460262
_cell_volume 543.023151
_symmetry_space_group_name_H-M "P -1"
_symmetry_group_IT_number 2
_symmetry_cell_setting 'triclinic'
loop_
_space_group_symop_operation_xyz
x,y,z
-x,-y,-z
loop_
_atom_site_type_symbol
_atom_site_label
_atom_site_fract_x
_atom_site_fract_y
_atom_site_fract_z
Si Si1 0.458005 0.862254 0.360632
Si Si2 0.221393 0.811784 0.808309
Si Si3 0.717701 0.861681 0.728261
Si Si4 0.947489 0.616831 0.300839
Si Si5 0.709604 0.456645 0.044022
Si Si6 0.096296 0.040836 0.180688
Si Si7 0.339424 0.388088 0.512769
O O1 0.321457 0.828970 0.460333
O O2 0.543913 0.760769 0.547704
O O3 0.377276 0.011700 0.406204
O O4 0.591728 0.834103 0.022129
O O5 0.043279 0.858733 0.900007
O O6 0.305540 0.668908 0.893561
O O7 0.205730 0.917698 0.966940
O O8 0.843668 0.745127 0.497111
O O9 0.809870 0.899581 0.815686
O O10 0.826456 0.606253 0.249585
O O11 0.000000 0.500000 0.500000
O O12 0.109048 0.602518 0.042844
O O13 0.675253 0.533924 0.772891
O O14 0.621992 0.549671 0.322421
O O15 0.000000 0.000000 0.500000
#
# Coordination Sequence:
#
# PCOD9042651 Si02
#       7
#     2   2   2   2   2   2   2
#     4  11  26  47  69 112 149 197 245 304 372 458
#     4  11  27  43  72 111 147 192 254 305 373 444
#     4  11  25  45  80 105 150 198 244 306 383 435
#     4  10  23  44  73 110 142 188 251 308 360 441
#     4  11  26  46  78 108 148 203 245 315 371 433
#     4  11  24  46  72 108 147 191 249 313 363 448
#     4  11  26  47  72 110 155 195 251 304 374 446
#
# _framework density 25.781587999999999
#
# number of rings (size 3 to 8) (size 9 to 14) (size 15 to 20)
#    0.000    1.143    1.429    3.000   10.000    5.714 
#    0.000    0.000    0.000    0.000    0.000    0.000 
#    0.000    0.000    0.000    0.000    0.000    0.000 
#
# Total GULP energy -78388.210234 kJ/mol
# GULP energy per Si atom -5599.157874 kJ/mol
# Density = 2.572291 g / cm^3
# Si number density = 25.781588 Si / 1000 Ang^3
#
#
#
# Elastic Constant Matrix: (Units=GPa)
#
#
# Indices 1 2 3 4 5 6 
#
# 1 89.1911 47.4523 49.1195 4.3523 -15.6334 6.7656
# 2 47.4523 227.2135 78.7334 -0.2340 4.8333 -12.7315
# 3 49.1195 78.7334 113.2705 4.6459 -5.5498 11.4267
# 4 4.3523 -0.2340 4.6459 46.4186 -0.3089 -4.5360
# 5 -15.6334 4.8333 -5.5498 -0.3089 45.0603 2.8449
# 6 6.7656 -12.7315 11.4267 -4.5360 2.8449 46.0838
#
#
#
# Elastic Compliance Matrix: (Units=1/GPa)
#
#
# Indices 1 2 3 4 5 6 
#
# 1 0.016200 -0.001779 -0.005280 -0.001160 0.005279 -0.002001
# 2 -0.001779 0.006451 -0.004182 0.000927 -0.002026 0.003297
# 3 -0.005280 -0.004182 0.014534 -0.001383 0.000660 -0.004161
# 4 -0.001160 0.000927 -0.001383 0.022082 -0.000709 0.002986
# 5 0.005279 -0.002026 0.000660 -0.000709 0.024512 -0.003081
# 6 -0.002001 0.003297 -0.004161 0.002986 -0.003081 0.024420
#
#
# Mechanical properties :
#
#
# Convention : Reuss Voigt Hill
#
# Bulk Modulus (GPa) = 68.02036 86.69838 77.35937
# Shear Modulus (GPa) = 36.87774 44.47053 40.67414
#
# Velocity S-wave (km/s) = 3.78615 4.15769 3.97626
# Velocity P-wave (km/s) = 6.74936 7.53323 7.15204
#
# Compressibility (1/GPa) = 0.01470148
#
# Stress axis : x y z
#
# Youngs Moduli (GPa) = 61.72753 155.02310 68.80424
#
# Poissons Ratio (x) = 0.27581 0.36332
# Poissons Ratio (y) = 0.10982 0.28775
# Poissons Ratio (z) = 0.32595 0.64832
#
# Static dielectric constant tensor:
#      x y z
#    x 2.114700 -0.023340 -0.043750 
#    y -0.023340 2.012010 -0.005600 
#    z -0.043750 -0.005600 2.023510 
# 
# From -- ./inp_files/69547.got.cif
#   From: 2010.05.17/outbox.cif.g08.bks.cpg/sg2_35_cif.got.tgz:69547.got - 2010.06.03 11:33:40.
