data_PCOD9042486
_publ_section_title
;
Structure prediction by ZEFSAII (Michael W. Deem and Ramdas Pophale) SiO2 
 PCOD9042486
Probable space group: P -1
;
_chemical_formula_sum "Si O2"
_cell_formula_units_Z 12
_cell_length_a 5.589741
_cell_length_b 12.291095
_cell_length_c 15.802287
_cell_angle_alpha 28.775752
_cell_angle_beta 98.999505
_cell_angle_gamma 95.067471
_cell_volume 513.470452
_symmetry_space_group_name_H-M "P -1"
_symmetry_group_IT_number 2
_symmetry_cell_setting 'triclinic'
loop_
_space_group_symop_operation_xyz
x,y,z
-x,-y,-z
loop_
_atom_site_type_symbol
_atom_site_label
_atom_site_fract_x
_atom_site_fract_y
_atom_site_fract_z
Si Si1 0.722421 0.804186 0.554292
Si Si2 0.820199 0.926401 0.659846
Si Si3 0.574188 0.126567 0.835324
Si Si4 0.200666 0.544718 0.548993
Si Si5 0.070866 0.652234 0.191827
Si Si6 0.802505 0.919065 0.846106
O O1 0.803280 0.780496 0.673045
O O2 0.737400 0.560202 0.676902
O O3 0.444852 0.920604 0.457819
O O4 0.930782 0.947930 0.425202
O O5 0.819984 0.802396 0.835402
O O6 0.420491 0.365923 0.653382
O O7 0.835950 0.196510 0.830882
O O8 0.569504 0.961298 0.867306
O O9 0.500000 0.000000 0.000000
O O10 0.000000 0.500000 0.500000
O O11 0.144892 0.465716 0.694791
O O12 0.191997 0.815978 0.359460
O O13 0.995144 0.794585 0.006901
#
# Coordination Sequence:
#
# PCOD9042486 Si02
#       6
#     2   2   2   2   2   2
#     4  10  23  45  71  99 137 174 229 283 338 403
#     4  10  23  44  72 101 131 181 226 280 342 403
#     4  12  25  42  64  97 136 175 224 278 335 406
#     4  12  24  41  63  93 132 178 221 272 342 400
#     4  12  25  42  65  96 136 173 225 283 332 407
#     4  12  24  41  66  98 130 179 225 277 338 404
#
# _framework density 23.370381999999999
#
# number of rings (size 3 to 8) (size 9 to 14) (size 15 to 20)
#    0.000    0.667    5.000    3.000    2.333    2.000 
#    0.000    0.000    0.000    7.000    0.000    0.000 
#    0.000    0.000    0.000    0.000    0.000    0.000 
#
# Total GULP energy -66880.949852 kJ/mol
# GULP energy per Si atom -5573.412488 kJ/mol
# Density = 2.331719 g / cm^3
# Si number density = 23.370382 Si / 1000 Ang^3
#
#
#
# Elastic Constant Matrix: (Units=GPa)
#
#
# Indices 1 2 3 4 5 6 
#
# 1 79.8302 10.3031 29.1412 7.8180 1.0453 -11.4713
# 2 10.3031 102.3964 2.1600 38.0757 -8.5914 -17.8196
# 3 29.1412 2.1600 95.0619 31.7080 -2.5855 -5.1582
# 4 7.8180 38.0757 31.7080 51.9815 -13.2694 -2.4456
# 5 1.0453 -8.5914 -2.5855 -13.2694 40.5564 6.4883
# 6 -11.4713 -17.8196 -5.1582 -2.4456 6.4883 41.1017
#
#
#
# Elastic Compliance Matrix: (Units=1/GPa)
#
#
# Indices 1 2 3 4 5 6 
#
# 1 0.014832 -0.001662 -0.005024 0.001965 -0.000899 0.003047
# 2 -0.001662 0.016644 0.005666 -0.015659 -0.002297 0.006894
# 3 -0.005024 0.005666 0.016726 -0.014151 -0.002671 0.002733
# 4 0.001965 -0.015659 -0.014151 0.041364 0.010415 -0.007200
# 5 -0.000899 -0.002297 -0.002671 0.010415 0.028300 -0.005430
# 6 0.003047 0.006894 0.002733 -0.007200 -0.005430 0.028941
#
#
# Mechanical properties :
#
#
# Convention : Reuss Voigt Hill
#
# Bulk Modulus (GPa) = 21.66237 40.05524 30.85881
# Shear Modulus (GPa) = 30.44438 42.44020 36.44229
#
# Velocity S-wave (km/s) = 3.61320 4.26606 3.95313
# Velocity P-wave (km/s) = 5.16684 6.43756 5.83688
#
# Compressibility (1/GPa) = 0.04616300
#
# Stress axis : x y z
#
# Youngs Moduli (GPa) = 67.42107 60.08332 59.78571
#
# Poissons Ratio (x) = 0.09987 0.30033
# Poissons Ratio (y) = 0.11207 -0.33876
# Poissons Ratio (z) = 0.33869 -0.34044
#
# Static dielectric constant tensor:
#      x y z
#    x 2.106830 -0.050080 -0.035390 
#    y -0.050080 1.967470 -0.030160 
#    z -0.035390 -0.030160 1.936270 
# 
# From -- ./inp_files/29298.got.cif
#   From: 2010.05.17/outbox.cif.g08.bks.cpg/sg2_15_cif.got.tgz:29298.got - 2010.06.03 11:33:40.
