data_PCOD9042175
_publ_section_title
;
Structure prediction by ZEFSAII (Michael W. Deem and Ramdas Pophale) SiO2 
 PCOD9042175
Probable space group: P -1
;
_chemical_formula_sum "Si O2"
_cell_formula_units_Z 15
_cell_length_a 16.462262
_cell_length_b 17.321655
_cell_length_c 9.340700
_cell_angle_alpha 38.973917
_cell_angle_beta 37.566797
_cell_angle_gamma 23.289471
_cell_volume 628.447179
_symmetry_space_group_name_H-M "P -1"
_symmetry_group_IT_number 2
_symmetry_cell_setting 'triclinic'
loop_
_space_group_symop_operation_xyz
x,y,z
-x,-y,-z
loop_
_atom_site_type_symbol
_atom_site_label
_atom_site_fract_x
_atom_site_fract_y
_atom_site_fract_z
Si Si1 0.294271 0.069115 0.317851
Si Si2 0.211103 0.865029 0.200530
Si Si3 0.002543 0.138190 0.853434
Si Si4 0.609921 0.841939 0.448589
Si Si5 0.377036 0.448575 0.067928
Si Si6 0.204026 0.974463 0.340623
Si Si7 0.000000 0.500000 0.000000
Si Si8 0.961798 0.374477 0.951504
O O1 0.354418 0.921902 0.328490
O O2 0.120649 0.136982 0.574034
O O3 0.495501 0.962588 0.285895
O O4 0.172670 0.262590 0.123505
O O5 0.983240 0.965491 0.403679
O O6 0.305438 0.825874 0.282202
O O7 0.393377 0.664294 0.142338
O O8 0.143784 0.029555 0.958789
O O9 0.768633 0.360321 0.903466
O O10 0.000000 0.000000 0.000000
O O11 0.584727 0.713166 0.682569
O O12 0.861717 0.689346 0.305168
O O13 0.500000 0.000000 0.500000
O O14 0.240278 0.517673 0.017164
O O15 0.070514 0.175330 0.154017
O O16 0.916898 0.499414 0.963327
#
# Coordination Sequence:
#
# PCOD9042175 Si02
#       8
#     2   2   2   2   2   2   1   2
#     4  11  23  44  72 103 145 186 234 301 361 420
#     4  11  23  46  71 102 139 186 240 294 365 423
#     4  12  24  47  72 104 146 186 246 307 348 431
#     4  12  24  42  73 105 141 189 241 296 358 426
#     4  12  25  43  74 105 141 194 241 293 367 421
#     4  10  23  44  69  98 146 183 230 303 351 426
#     4  10  24  42  64 100 144 182 230 294 358 426
#     4  11  23  42  63  98 142 184 236 289 349 432
#
# _framework density 23.868354
#
# number of rings (size 3 to 8) (size 9 to 14) (size 15 to 20)
#    0.000    0.800    4.000    3.600    0.000    4.267 
#    0.000    0.000    0.000    0.000    0.000    0.000 
#    0.000    0.000    0.000    0.000    0.000    0.000 
#
# Total GULP energy -83686.944734 kJ/mol
# GULP energy per Si atom -5579.129649 kJ/mol
# Density = 2.381403 g / cm^3
# Si number density = 23.868354 Si / 1000 Ang^3
#
#
#
# Elastic Constant Matrix: (Units=GPa)
#
#
# Indices 1 2 3 4 5 6 
#
# 1 126.1579 27.2202 4.8657 2.3414 28.8733 14.9865
# 2 27.2202 110.9101 39.9394 15.9747 -1.0643 19.0430
# 3 4.8657 39.9394 68.6784 9.9709 8.3356 6.2324
# 4 2.3414 15.9747 9.9709 28.7417 -0.6027 8.2059
# 5 28.8733 -1.0643 8.3356 -0.6027 33.7163 -5.7166
# 6 14.9865 19.0430 6.2324 8.2059 -5.7166 44.0441
#
#
#
# Elastic Compliance Matrix: (Units=1/GPa)
#
#
# Indices 1 2 3 4 5 6 
#
# 1 0.011730 -0.003348 0.002799 0.001015 -0.011611 -0.004636
# 2 -0.003348 0.013512 -0.007409 -0.003906 0.004662 -0.002321
# 3 0.002799 -0.007409 0.020150 -0.002960 -0.007846 -0.001067
# 4 0.001015 -0.003906 -0.002960 0.039515 -0.000515 -0.005666
# 5 -0.011611 0.004662 -0.007846 -0.000515 0.043162 0.008743
# 6 -0.004636 -0.002321 -0.001067 -0.005666 0.008743 0.027627
#
#
# Mechanical properties :
#
#
# Convention : Reuss Voigt Hill
#
# Bulk Modulus (GPa) = 33.92641 49.97744 41.95193
# Shear Modulus (GPa) = 27.55761 36.88182 32.21971
#
# Velocity S-wave (km/s) = 3.40158 3.93519 3.67807
# Velocity P-wave (km/s) = 5.44724 6.45228 5.97094
#
# Compressibility (1/GPa) = 0.02947556
#
# Stress axis : x y z
#
# Youngs Moduli (GPa) = 85.24959 74.00858 49.62860
#
# Poissons Ratio (x) = 0.24781 -0.13890
# Poissons Ratio (y) = 0.28545 0.36768
# Poissons Ratio (z) = -0.23859 0.54830
#
# Static dielectric constant tensor:
#      x y z
#    x 1.966220 0.004150 -0.023400 
#    y 0.004150 1.863700 0.044890 
#    z -0.023400 0.044890 1.957010 
# 
# From -- ./inp_files/97531.got.cif
#   From: 2010.05.17/outbox.cif.g08.bks.cpg/sg2_49_cif.got.tgz:97531.got - 2010.06.03 11:33:40.
