data_PCOD9042057
_publ_section_title
;
Structure prediction by ZEFSAII (Michael W. Deem and Ramdas Pophale) SiO2 
 PCOD9042057
Probable space group: P -1
;
_chemical_formula_sum "Si O2"
_cell_formula_units_Z 13
_cell_length_a 13.766352
_cell_length_b 18.728989
_cell_length_c 16.670456
_cell_angle_alpha 22.351325
_cell_angle_beta 145.609046
_cell_angle_gamma 160.950373
_cell_volume 490.121394
_symmetry_space_group_name_H-M "P -1"
_symmetry_group_IT_number 2
_symmetry_cell_setting 'triclinic'
loop_
_space_group_symop_operation_xyz
x,y,z
-x,-y,-z
loop_
_atom_site_type_symbol
_atom_site_label
_atom_site_fract_x
_atom_site_fract_y
_atom_site_fract_z
Si Si1 0.318718 0.970851 0.540726
Si Si2 0.147875 0.139008 0.672393
Si Si3 0.675418 0.286505 0.035840
Si Si4 0.500000 0.000000 0.500000
Si Si5 0.780816 0.206878 0.911613
Si Si6 0.948071 0.250315 0.683453
Si Si7 0.340246 0.321215 0.797249
O O1 0.362008 0.864206 0.751689
O O2 0.575324 0.249350 0.357347
O O3 0.106378 0.949539 0.442769
O O4 0.086635 0.629611 0.674570
O O5 0.500000 0.500000 0.500000
O O6 0.184516 0.200517 0.728784
O O7 0.072053 0.854519 0.898677
O O8 0.397852 0.982895 0.097183
O O9 0.672059 0.510137 0.811277
O O10 0.000000 0.500000 0.000000
O O11 0.312075 0.967291 0.338509
O O12 0.500000 0.000000 0.000000
O O13 0.000000 0.500000 0.500000
O O14 0.280132 0.464300 0.651504
O O15 0.832209 0.992739 0.937935
#
# Coordination Sequence:
#
# PCOD9042057 Si02
#       7
#     2   2   2   1   2   2   2
#     4  12  24  46  65 100 143 175 238 284 342 411
#     4  11  22  41  69 102 136 178 225 283 348 417
#     4  11  22  42  70 101 136 177 230 287 342 418
#     4  12  26  44  72 100 136 186 232 290 332 418
#     4  11  23  43  71  98 137 189 219 282 361 398
#     4  11  25  48  72  99 135 182 235 292 345 404
#     4  10  23  44  69 101 139 180 226 285 353 404
#
# _framework density 26.524041
#
# number of rings (size 3 to 8) (size 9 to 14) (size 15 to 20)
#    0.000    0.923    6.154    0.923    4.308    0.000 
#    2.769    6.154    0.000    0.000    0.000    0.000 
#    0.000    0.000    0.000    0.000    0.000    0.000 
#
# Total GULP energy -72548.045007 kJ/mol
# GULP energy per Si atom -5580.618847 kJ/mol
# Density = 2.646367 g / cm^3
# Si number density = 26.524041 Si / 1000 Ang^3
#
#
#
# Elastic Constant Matrix: (Units=GPa)
#
#
# Indices 1 2 3 4 5 6 
#
# 1 162.7329 35.6787 52.2169 34.0678 3.2890 19.5108
# 2 35.6787 142.9349 36.6649 37.0030 -2.0390 -0.9214
# 3 52.2169 36.6649 121.3615 26.5593 13.8262 -5.5334
# 4 34.0678 37.0030 26.5593 50.5759 6.0289 1.2043
# 5 3.2890 -2.0390 13.8262 6.0289 69.3118 28.1671
# 6 19.5108 -0.9214 -5.5334 1.2043 28.1671 55.1751
#
#
#
# Elastic Compliance Matrix: (Units=1/GPa)
#
#
# Indices 1 2 3 4 5 6 
#
# 1 0.008573 -0.000256 -0.003195 -0.004089 0.002405 -0.004495
# 2 -0.000256 0.008940 -0.001500 -0.005719 0.001242 -0.000420
# 3 -0.003195 -0.001500 0.011163 -0.002283 -0.003590 0.004107
# 4 -0.004089 -0.005719 -0.002283 0.028191 -0.002746 0.001908
# 5 0.002405 0.001242 -0.003590 -0.002746 0.019891 -0.011284
# 6 -0.004495 -0.000420 0.004107 0.001908 -0.011284 0.025837
#
#
# Mechanical properties :
#
#
# Convention : Reuss Voigt Hill
#
# Bulk Modulus (GPa) = 53.26590 75.12781 64.19685
# Shear Modulus (GPa) = 42.10283 55.17714 48.63999
#
# Velocity S-wave (km/s) = 3.98847 4.56594 4.28694
# Velocity P-wave (km/s) = 6.42933 7.49554 6.98281
#
# Compressibility (1/GPa) = 0.01877374
#
# Stress axis : x y z
#
# Youngs Moduli (GPa) = 116.64807 111.85114 89.57768
#
# Poissons Ratio (x) = 0.02868 0.28622
# Poissons Ratio (y) = 0.02991 0.13435
# Poissons Ratio (z) = 0.37272 0.16776
#
# Static dielectric constant tensor:
#      x y z
#    x 2.067820 0.108660 0.129730 
#    y 0.108660 2.313530 -0.058100 
#    z 0.129730 -0.058100 1.985380 
# 
# From -- ./inp_files/168305.got.cif
#   From: 2010.05.17/outbox.cif.g08.bks.cpg/sg2_85_cif.got.tgz:168305.got - 2010.06.03 11:33:40.
