data_PCOD9042307
_publ_section_title
;
Structure prediction by ZEFSAII (Michael W. Deem and Ramdas Pophale) SiO2 
 PCOD9042307
Probable space group: P -1
;
_chemical_formula_sum "Si O2"
_cell_formula_units_Z 16
_cell_length_a 14.235761
_cell_length_b 6.851197
_cell_length_c 22.468471
_cell_angle_alpha 101.341441
_cell_angle_beta 160.348526
_cell_angle_gamma 75.490540
_cell_volume 708.241969
_symmetry_space_group_name_H-M "P -1"
_symmetry_group_IT_number 2
_symmetry_cell_setting 'triclinic'
loop_
_space_group_symop_operation_xyz
x,y,z
-x,-y,-z
loop_
_atom_site_type_symbol
_atom_site_label
_atom_site_fract_x
_atom_site_fract_y
_atom_site_fract_z
Si Si1 0.757825 0.560965 0.193096
Si Si2 0.949093 0.087299 0.631980
Si Si3 0.832582 0.973752 0.770609
Si Si4 0.595155 0.540480 0.232311
Si Si5 0.129722 0.321734 0.988006
Si Si6 0.321169 0.290487 0.234446
Si Si7 0.191898 0.196276 0.377214
Si Si8 0.071581 0.170991 0.510212
O O1 0.686769 0.551945 0.219539
O O2 0.807146 0.785338 0.222117
O O3 0.037738 0.401674 0.328946
O O4 0.500000 0.500000 0.000000
O O5 0.647843 0.235151 0.446392
O O6 0.943232 0.984988 0.686127
O O7 0.961956 0.908416 0.580693
O O8 0.525676 0.123633 0.586545
O O9 0.827081 0.862881 0.824024
O O10 0.855389 0.807630 0.721859
O O11 0.067217 0.112432 0.913007
O O12 0.309740 0.454439 0.065067
O O13 0.633892 0.751391 0.298531
O O14 0.827196 0.364037 0.390261
O O15 0.282786 0.268085 0.139783
O O16 0.832161 0.478498 0.830700
O O17 0.000000 0.000000 0.500000
#
# Coordination Sequence:
#
# PCOD9042307 Si02
#       8
#     2   2   2   2   2   2   2   2
#     4  12  27  43  65  98 137 172 218 271 326 387
#     4  11  23  44  71  92 130 176 220 268 327 387
#     4  10  23  44  70  93 130 176 222 271 329 382
#     4  11  26  41  65 102 133 172 216 268 328 394
#     4  11  24  41  66 101 138 165 216 276 332 388
#     4  10  24  42  67  99 126 173 219 277 329 383
#     4  10  24  45  67  96 128 175 228 267 316 399
#     4  11  22  43  67  93 129 175 219 261 323 391
#
# _framework density 22.591149000000001
#
# number of rings (size 3 to 8) (size 9 to 14) (size 15 to 20)
#    0.000    1.250    2.500    1.875    5.250    7.500 
#    0.000    3.750    0.000    0.000    0.000    0.000 
#    0.000    0.000    0.000    0.000    0.000    0.000 
#
# Total GULP energy -89457.824326 kJ/mol
# GULP energy per Si atom -5591.114020 kJ/mol
# Density = 2.253973 g / cm^3
# Si number density = 22.591149 Si / 1000 Ang^3
#
#
#
# Elastic Constant Matrix: (Units=GPa)
#
#
# Indices 1 2 3 4 5 6 
#
# 1 82.8346 22.7170 12.5776 20.2326 4.1038 4.1236
# 2 22.7170 88.8133 39.7500 31.3526 2.0695 7.5860
# 3 12.5776 39.7500 42.5630 26.8274 4.4513 3.6548
# 4 20.2326 31.3526 26.8274 45.9790 5.6336 6.7738
# 5 4.1038 2.0695 4.4513 5.6336 20.3104 3.4448
# 6 4.1236 7.5860 3.6548 6.7738 3.4448 32.1947
#
#
#
# Elastic Compliance Matrix: (Units=1/GPa)
#
#
# Indices 1 2 3 4 5 6 
#
# 1 0.013827 -0.002349 0.001536 -0.005182 -0.001429 -0.000149
# 2 -0.002349 0.020584 -0.016516 -0.003436 0.003341 -0.002309
# 3 0.001536 -0.016516 0.050526 -0.018644 -0.004938 0.002410
# 4 -0.005182 -0.003436 -0.018644 0.038391 -0.004486 -0.004008
# 5 -0.001429 0.003341 -0.004938 -0.004486 0.052307 -0.004697
# 6 -0.000149 -0.002309 0.002410 -0.004008 -0.004697 0.032696
#
#
# Mechanical properties :
#
#
# Convention : Reuss Voigt Hill
#
# Bulk Modulus (GPa) = 19.88842 40.47780 30.18311
# Shear Modulus (GPa) = 19.24939 28.97457 24.11198
#
# Velocity S-wave (km/s) = 2.92220 3.58517 3.27053
# Velocity P-wave (km/s) = 4.49538 5.92405 5.25846
#
# Compressibility (1/GPa) = 0.05028050
#
# Stress axis : x y z
#
# Youngs Moduli (GPa) = 72.32164 48.58031 19.79186
#
# Poissons Ratio (x) = 0.11411 -0.03040
# Poissons Ratio (y) = 0.16988 0.32688
# Poissons Ratio (z) = -0.11110 0.80234
#
# Static dielectric constant tensor:
#      x y z
#    x 1.854490 -0.013810 0.029560 
#    y -0.013810 1.831480 0.002060 
#    z 0.029560 0.002060 1.903930 
# 
# From -- ./inp_files/364601.got.cif
#   From: 2010.05.17/outbox.cif.g08.bks.cpg/sg2_183_cif.got.tgz:364601.got - 2010.06.03 11:33:40.
