data_PCOD9042763
_publ_section_title
;
Structure prediction by ZEFSAII (Michael W. Deem and Ramdas Pophale) SiO2 
 PCOD9042763
Probable space group: P -1
;
_chemical_formula_sum "Si O2"
_cell_formula_units_Z 14
_cell_length_a 17.942415
_cell_length_b 9.062999
_cell_length_c 12.509075
_cell_angle_alpha 38.505516
_cell_angle_beta 145.240293
_cell_angle_gamma 140.437190
_cell_volume 673.437631
_symmetry_space_group_name_H-M "P -1"
_symmetry_group_IT_number 2
_symmetry_cell_setting 'triclinic'
loop_
_space_group_symop_operation_xyz
x,y,z
-x,-y,-z
loop_
_atom_site_type_symbol
_atom_site_label
_atom_site_fract_x
_atom_site_fract_y
_atom_site_fract_z
Si Si1 0.148309 0.562219 0.582454
Si Si2 0.855887 0.763346 0.446570
Si Si3 0.293294 0.156685 0.448332
Si Si4 0.847821 0.517852 0.802641
Si Si5 0.660949 0.080343 0.977856
Si Si6 0.432489 0.586388 0.971802
Si Si7 0.465485 0.584558 0.251002
O O1 0.131071 0.413830 0.534601
O O2 0.265336 0.484365 0.826834
O O3 0.000000 0.500000 0.500000
O O4 0.222500 0.867224 0.494243
O O5 0.823160 0.591521 0.611641
O O6 0.747081 0.903068 0.211577
O O7 0.000000 0.000000 0.500000
O O8 0.169033 0.263151 0.265973
O O9 0.396216 0.329379 0.381758
O O10 0.388947 0.242497 0.620009
O O11 0.734993 0.260185 0.864425
O O12 0.000000 0.500000 0.000000
O O13 0.638861 0.257778 0.945421
O O14 0.505048 0.890925 0.875113
O O15 0.500000 0.500000 0.000000
O O16 0.476415 0.524390 0.175049
#
# Coordination Sequence:
#
# PCOD9042763 Si02
#       7
#     2   2   2   2   2   2   2
#     4  12  28  44  67 104 146 184 233 297 353 423
#     4  12  25  45  73 102 143 189 236 294 358 421
#     4  10  23  45  69 105 138 180 240 287 357 417
#     4  11  24  42  71 101 138 185 238 286 352 428
#     4  11  23  44  72 104 136 183 237 290 348 429
#     4  12  25  43  67 106 142 182 236 288 357 417
#     4  10  23  44  76 101 137 186 230 295 350 425
#
# _framework density 20.788858999999999
#
# number of rings (size 3 to 8) (size 9 to 14) (size 15 to 20)
#    0.000    0.857    4.286    2.143    4.000    1.143 
#    0.000    2.857    0.000    0.000    0.000    0.000 
#    0.000    0.000    0.000    0.000    0.000    0.000 
#
# Total GULP energy -78182.007263 kJ/mol
# GULP energy per Si atom -5584.429090 kJ/mol
# Density = 2.074154 g / cm^3
# Si number density = 20.788859 Si / 1000 Ang^3
#
#
#
# Elastic Constant Matrix: (Units=GPa)
#
#
# Indices 1 2 3 4 5 6 
#
# 1 127.8520 48.2829 75.3714 12.7521 -11.9466 -3.9936
# 2 48.2829 119.9847 50.4924 12.0969 -9.8126 -3.5987
# 3 75.3714 50.4924 111.9970 -2.1508 -3.3422 -2.6892
# 4 12.7521 12.0969 -2.1508 25.4149 5.6860 4.2605
# 5 -11.9466 -9.8126 -3.3422 5.6860 47.8975 3.8835
# 6 -3.9936 -3.5987 -2.6892 4.2605 3.8835 39.1810
#
#
#
# Elastic Compliance Matrix: (Units=1/GPa)
#
#
# Indices 1 2 3 4 5 6 
#
# 1 0.015354 -0.000619 -0.010081 -0.009399 0.003998 0.001442
# 2 -0.000619 0.011466 -0.004772 -0.006299 0.002520 0.001098
# 3 -0.010081 -0.004772 0.017929 0.009752 -0.003320 -0.000967
# 4 -0.009399 -0.006299 0.009752 0.050722 -0.008527 -0.005538
# 5 0.003998 0.002520 -0.003320 -0.008527 0.023250 -0.000966
# 6 0.001442 0.001098 -0.000967 -0.005538 -0.000966 0.026402
#
#
# Mechanical properties :
#
#
# Convention : Reuss Voigt Hill
#
# Bulk Modulus (GPa) = 72.43153 78.68080 75.55616
# Shear Modulus (GPa) = 27.67506 34.87780 31.27643
#
# Velocity S-wave (km/s) = 3.65258 4.10044 3.88297
# Velocity P-wave (km/s) = 7.25986 7.76839 7.51843
#
# Compressibility (1/GPa) = 0.01380614
#
# Stress axis : x y z
#
# Youngs Moduli (GPa) = 65.12992 87.21672 55.77473
#
# Poissons Ratio (x) = 0.05395 0.56224
# Poissons Ratio (y) = 0.04029 0.26617
# Poissons Ratio (z) = 0.65654 0.41622
#
# Static dielectric constant tensor:
#      x y z
#    x 1.763710 0.006240 0.050640 
#    y 0.006240 1.744020 -0.002350 
#    z 0.050640 -0.002350 1.818510 
# 
# From -- ./inp_files/278462.got.cif
#   From: 2010.05.17/outbox.cif.g08.bks.cpg/sg2_140_cif.got.tgz:278462.got - 2010.06.03 11:33:40.
