data_PCOD9042293
_publ_section_title
;
Structure prediction by ZEFSAII (Michael W. Deem and Ramdas Pophale) SiO2 
 PCOD9042293
Probable space group: P -1
;
_chemical_formula_sum "Si O2"
_cell_formula_units_Z 16
_cell_length_a 11.233961
_cell_length_b 19.166718
_cell_length_c 17.034094
_cell_angle_alpha 158.649743
_cell_angle_beta 41.448386
_cell_angle_gamma 149.053304
_cell_volume 662.500525
_symmetry_space_group_name_H-M "P -1"
_symmetry_group_IT_number 2
_symmetry_cell_setting 'triclinic'
loop_
_space_group_symop_operation_xyz
x,y,z
-x,-y,-z
loop_
_atom_site_type_symbol
_atom_site_label
_atom_site_fract_x
_atom_site_fract_y
_atom_site_fract_z
Si Si1 0.080279 0.947505 0.623725
Si Si2 0.423266 0.567896 0.703165
Si Si3 0.141967 0.880240 0.992763
Si Si4 0.238987 0.099577 0.526377
Si Si5 0.732907 0.480627 0.674744
Si Si6 0.286950 0.716895 0.076015
Si Si7 0.295648 0.927952 0.643544
Si Si8 0.218010 0.510829 0.520887
O O1 0.271491 0.981994 0.622966
O O2 0.832266 0.652533 0.441278
O O3 0.173741 0.011055 0.555680
O O4 0.005690 0.110895 0.857689
O O5 0.555391 0.460157 0.541021
O O6 0.368634 0.636460 0.882884
O O7 0.613271 0.833644 0.842763
O O8 0.203168 0.696954 0.773240
O O9 0.959546 0.761949 0.884888
O O10 0.472989 0.396617 0.716759
O O11 0.316028 0.961746 0.298077
O O12 0.000000 0.000000 0.500000
O O13 0.704141 0.295316 0.562116
O O14 0.774688 0.435434 0.518943
O O15 0.467491 0.822443 0.170789
O O16 0.000000 0.500000 0.000000
O O17 0.025746 0.784922 0.657720
#
# Coordination Sequence:
#
# PCOD9042293 Si02
#       8
#     2   2   2   2   2   2   2   2
#     4  12  26  45  71 112 151 192 241 304 373 431
#     4  12  25  46  74 107 149 191 246 301 361 442
#     4  11  24  43  70 110 144 191 239 300 377 421
#     4  11  25  50  71 102 149 195 250 302 354 452
#     4  10  23  44  70 107 142 194 248 294 362 434
#     4  11  24  46  73 103 137 196 247 288 364 433
#     4  10  23  44  72 108 145 184 242 312 357 431
#     4  11  23  46  76 109 149 189 244 305 359 434
#
# _framework density 24.150925000000001
#
# number of rings (size 3 to 8) (size 9 to 14) (size 15 to 20)
#    0.000    1.000    2.500    4.875    1.750    4.000 
#    6.750    0.000    0.000    0.000    0.000    0.000 
#    0.000    0.000    0.000    0.000    0.000    0.000 
#
# Total GULP energy -89407.864205 kJ/mol
# GULP energy per Si atom -5587.991513 kJ/mol
# Density = 2.409596 g / cm^3
# Si number density = 24.150925 Si / 1000 Ang^3
#
#
#
# Elastic Constant Matrix: (Units=GPa)
#
#
# Indices 1 2 3 4 5 6 
#
# 1 156.7758 44.3199 53.1955 -4.6167 18.7548 23.2520
# 2 44.3199 88.1883 27.6841 -2.2060 15.8735 10.8764
# 3 53.1955 27.6841 134.1015 -16.6206 -4.7129 12.6634
# 4 -4.6167 -2.2060 -16.6206 35.9830 9.7333 9.3779
# 5 18.7548 15.8735 -4.7129 9.7333 48.0268 7.4036
# 6 23.2520 10.8764 12.6634 9.3779 7.4036 46.9057
#
#
#
# Elastic Compliance Matrix: (Units=1/GPa)
#
#
# Indices 1 2 3 4 5 6 
#
# 1 0.008809 -0.002765 -0.002595 0.001206 -0.002585 -0.002858
# 2 -0.002765 0.014107 -0.001726 0.001010 -0.003797 -0.001037
# 3 -0.002595 -0.001726 0.009597 0.003971 0.002032 -0.002019
# 4 0.001206 0.001010 0.003971 0.033462 -0.006018 -0.007644
# 5 -0.002585 -0.003797 0.002032 -0.006018 0.024671 -0.001078
# 6 -0.002858 -0.001037 -0.002019 -0.007644 -0.001078 0.025220
#
#
# Mechanical properties :
#
#
# Convention : Reuss Voigt Hill
#
# Bulk Modulus (GPa) = 54.51907 69.94052 62.22980
# Shear Modulus (GPa) = 36.72352 43.10752 39.91552
#
# Velocity S-wave (km/s) = 3.90370 4.22942 4.06982
# Velocity P-wave (km/s) = 6.55300 7.27140 6.92153
#
# Compressibility (1/GPa) = 0.01834220
#
# Stress axis : x y z
#
# Youngs Moduli (GPa) = 113.51605 70.88553 104.19946
#
# Poissons Ratio (x) = 0.19597 0.27042
# Poissons Ratio (y) = 0.31382 0.17984
# Poissons Ratio (z) = 0.29460 0.12234
#
# Static dielectric constant tensor:
#      x y z
#    x 1.988790 0.025060 -0.024180 
#    y 0.025060 1.951240 0.044280 
#    z -0.024180 0.044280 2.004780 
# 
# From -- ./inp_files/570791.got.cif
#   From: 2010.05.17/outbox.cif.g08.bks.cpg/sg2_286_cif.got.tgz:570791.got - 2010.06.03 11:33:40.
