data_PCOD9042292
_publ_section_title
;
Structure prediction by ZEFSAII (Michael W. Deem and Ramdas Pophale) SiO2 
 PCOD9042292
Probable space group: P -1
;
_chemical_formula_sum "Si O2"
_cell_formula_units_Z 16
_cell_length_a 11.131261
_cell_length_b 10.134119
_cell_length_c 8.948146
_cell_angle_alpha 41.400956
_cell_angle_beta 89.922636
_cell_angle_gamma 73.338769
_cell_volume 602.033385
_symmetry_space_group_name_H-M "P -1"
_symmetry_group_IT_number 2
_symmetry_cell_setting 'triclinic'
loop_
_space_group_symop_operation_xyz
x,y,z
-x,-y,-z
loop_
_atom_site_type_symbol
_atom_site_label
_atom_site_fract_x
_atom_site_fract_y
_atom_site_fract_z
Si Si1 0.525234 0.266352 0.122089
Si Si2 0.280097 0.110074 0.821656
Si Si3 0.137158 0.560623 0.527303
Si Si4 0.629506 0.415029 0.363357
Si Si5 0.921597 0.041679 0.166610
Si Si6 0.563401 0.015509 0.764589
Si Si7 0.053989 0.342595 0.990115
Si Si8 0.204913 0.937271 0.544267
O O1 0.492008 0.357426 0.874557
O O2 0.500000 0.500000 0.000000
O O3 0.664251 0.098234 0.331491
O O4 0.420146 0.160155 0.218487
O O5 0.160763 0.356891 0.589232
O O6 0.211025 0.948438 0.920719
O O7 0.410584 0.081191 0.755316
O O8 0.335029 0.079093 0.017517
O O9 0.285406 0.549954 0.537034
O O10 0.040423 0.819106 0.291922
O O11 0.099312 0.467467 0.758936
O O12 0.573963 0.235726 0.533373
O O13 0.745118 0.301812 0.332426
O O14 0.903996 0.007868 0.372902
O O15 0.954375 0.252918 0.988168
O O16 0.161612 0.116057 0.260433
O O17 0.000000 0.500000 0.000000
#
# Coordination Sequence:
#
# PCOD9042292 Si02
#       8
#     2   2   2   2   2   2   2   2
#     4  10  23  44  70 107 139 181 240 296 356 425
#     4  11  26  48  73 100 147 190 246 291 347 432
#     4  12  25  47  71 105 142 194 241 286 356 434
#     4  11  24  45  75 103 141 186 237 294 365 420
#     4  12  25  48  69 109 145 184 242 296 351 437
#     4  11  24  51  71 102 147 190 233 304 356 412
#     4  12  25  45  75 104 144 189 229 298 372 413
#     4  11  22  45  70 104 147 176 230 304 355 424
#
# _framework density 26.576602000000001
#
# number of rings (size 3 to 8) (size 9 to 14) (size 15 to 20)
#    0.000    0.750    5.000    2.250    0.000    3.000 
#    9.000    0.000    0.000    0.000    0.000    0.000 
#    0.000    0.000    0.000    0.000    0.000    0.000 
#
# Total GULP energy -89378.171092 kJ/mol
# GULP energy per Si atom -5586.135693 kJ/mol
# Density = 2.651611 g / cm^3
# Si number density = 26.576602 Si / 1000 Ang^3
#
#
#
# Elastic Constant Matrix: (Units=GPa)
#
#
# Indices 1 2 3 4 5 6 
#
# 1 152.0556 48.1711 57.6612 -14.7218 -19.5045 41.7028
# 2 48.1711 99.7542 19.7410 -25.2785 -10.2670 18.2746
# 3 57.6612 19.7410 122.7941 -17.9004 -12.2728 0.5155
# 4 -14.7218 -25.2785 -17.9004 41.2258 10.2101 -3.1788
# 5 -19.5045 -10.2670 -12.2728 10.2101 52.1341 -12.6608
# 6 41.7028 18.2746 0.5155 -3.1788 -12.6608 64.1984
#
#
#
# Elastic Compliance Matrix: (Units=1/GPa)
#
#
# Indices 1 2 3 4 5 6 
#
# 1 0.011166 -0.003475 -0.004683 -0.000916 0.001100 -0.006055
# 2 -0.003475 0.013679 0.000480 0.007314 -0.000248 -0.001327
# 3 -0.004683 0.000480 0.010838 0.003321 0.001016 0.003183
# 4 -0.000916 0.007314 0.003321 0.030874 -0.004373 -0.000847
# 5 0.001100 -0.000248 0.001016 -0.004373 0.021456 0.003363
# 6 -0.006055 -0.001327 0.003183 -0.000847 0.003363 0.020484
#
#
# Mechanical properties :
#
#
# Convention : Reuss Voigt Hill
#
# Bulk Modulus (GPa) = 49.19692 69.52783 59.36237
# Shear Modulus (GPa) = 38.27626 48.11370 43.19498
#
# Velocity S-wave (km/s) = 3.79915 4.25947 4.03588
# Velocity P-wave (km/s) = 6.14786 7.09992 6.64097
#
# Compressibility (1/GPa) = 0.02032648
#
# Stress axis : x y z
#
# Youngs Moduli (GPa) = 89.55451 73.10593 92.26773
#
# Poissons Ratio (x) = 0.25405 0.43209
# Poissons Ratio (y) = 0.31121 -0.04426
# Poissons Ratio (z) = 0.41938 -0.03507
#
# Static dielectric constant tensor:
#      x y z
#    x 2.108650 -0.045610 0.028970 
#    y -0.045610 2.291480 0.002220 
#    z 0.028970 0.002220 2.125890 
# 
# From -- ./inp_files/422627.got.cif
#   From: 2010.05.17/outbox.cif.g08.bks.cpg/sg2_212_cif.got.tgz:422627.got - 2010.06.03 11:33:40.
