data_PCOD9042393
_publ_section_title
;
Structure prediction by ZEFSAII (Michael W. Deem and Ramdas Pophale) SiO2 
 PCOD9042393
Probable space group: P -1
;
_chemical_formula_sum "Si O2"
_cell_formula_units_Z 16
_cell_length_a 11.134071
_cell_length_b 13.432143
_cell_length_c 8.932023
_cell_angle_alpha 73.432749
_cell_angle_beta 100.559736
_cell_angle_gamma 149.220448
_cell_volume 650.003429
_symmetry_space_group_name_H-M "P -1"
_symmetry_group_IT_number 2
_symmetry_cell_setting 'triclinic'
loop_
_space_group_symop_operation_xyz
x,y,z
-x,-y,-z
loop_
_atom_site_type_symbol
_atom_site_label
_atom_site_fract_x
_atom_site_fract_y
_atom_site_fract_z
Si Si1 0.530189 0.267544 0.039981
Si Si2 0.204129 0.762329 0.210871
Si Si3 0.279070 0.407934 0.548037
Si Si4 0.691718 0.019907 0.132720
Si Si5 0.837499 0.640737 0.755163
Si Si6 0.454194 0.390504 0.178136
Si Si7 0.734499 0.289641 0.324766
Si Si8 0.232345 0.915609 0.447993
O O1 0.354043 0.107812 0.936880
O O2 0.729148 0.485419 0.919801
O O3 0.408167 0.247609 0.149677
O O4 0.659014 0.263320 0.148300
O O5 0.441872 0.868281 0.210760
O O6 0.223661 0.863736 0.298534
O O7 0.973117 0.527822 0.298123
O O8 0.205908 0.817582 0.025301
O O9 0.500000 0.500000 0.500000
O O10 0.263204 0.476556 0.375303
O O11 0.339577 0.473649 0.707089
O O12 0.997273 0.175273 0.565877
O O13 0.885098 0.143812 0.249491
O O14 0.742567 0.688003 0.744894
O O15 0.500000 0.500000 0.000000
O O16 0.778168 0.201910 0.412851
O O17 0.501108 0.152048 0.426041
#
# Coordination Sequence:
#
# PCOD9042393 Si02
#       8
#     2   2   2   2   2   2   2   2
#     4  11  22  43  71 102 143 190 245 295 364 431
#     4  11  24  43  63 103 148 185 242 297 358 425
#     4  10  23  46  75 106 143 188 233 304 363 424
#     4  11  25  39  69 106 141 194 240 294 359 428
#     4  10  23  44  71 102 146 186 241 306 358 426
#     4   9  21  42  75 104 139 186 239 299 365 427
#     4  11  24  41  68 103 137 195 233 299 350 429
#     4  11  25  42  69 103 145 187 243 290 368 431
#
# _framework density 24.615252999999999
#
# number of rings (size 3 to 8) (size 9 to 14) (size 15 to 20)
#    0.000    1.500    2.500    1.125    7.000    1.000 
#    0.000    2.500    0.000    9.750    0.000    0.000 
#    0.000    0.000    0.000    0.000    0.000    0.000 
#
# Total GULP energy -89174.985936 kJ/mol
# GULP energy per Si atom -5573.436621 kJ/mol
# Density = 2.455923 g / cm^3
# Si number density = 24.615253 Si / 1000 Ang^3
#
#
#
# Elastic Constant Matrix: (Units=GPa)
#
#
# Indices 1 2 3 4 5 6 
#
# 1 101.2330 62.0901 38.7020 5.3881 -6.5503 26.3068
# 2 62.0901 159.5377 43.3132 -11.2559 -2.4682 31.6280
# 3 38.7020 43.3132 91.0056 19.0840 -5.7898 12.1171
# 4 5.3881 -11.2559 19.0840 54.0957 1.4920 -0.7799
# 5 -6.5503 -2.4682 -5.7898 1.4920 27.6135 6.9410
# 6 26.3068 31.6280 12.1171 -0.7799 6.9410 34.8113
#
#
#
# Elastic Compliance Matrix: (Units=1/GPa)
#
#
# Indices 1 2 3 4 5 6 
#
# 1 0.016043 -0.003647 -0.003301 -0.001457 0.005053 -0.008701
# 2 -0.003647 0.009786 -0.003121 0.003415 0.000443 -0.005060
# 3 -0.003301 -0.003121 0.015355 -0.005820 0.002641 -0.000672
# 4 -0.001457 0.003415 -0.005820 0.021484 -0.002683 0.001040
# 5 0.005053 0.000443 0.002641 -0.002683 0.041540 -0.013483
# 6 -0.008701 -0.005060 -0.000672 0.001040 -0.013483 0.042845
#
#
# Mechanical properties :
#
#
# Convention : Reuss Voigt Hill
#
# Bulk Modulus (GPa) = 47.51461 71.10965 59.31213
# Shear Modulus (GPa) = 28.70162 37.14883 32.92523
#
# Velocity S-wave (km/s) = 3.41839 3.88903 3.66128
# Velocity P-wave (km/s) = 5.90977 7.00837 6.48238
#
# Compressibility (1/GPa) = 0.02104616
#
# Stress axis : x y z
#
# Youngs Moduli (GPa) = 62.33340 102.18955 65.12330
#
# Poissons Ratio (x) = 0.37269 0.21498
# Poissons Ratio (y) = 0.22733 0.20323
# Poissons Ratio (z) = 0.20577 0.31890
#
# Static dielectric constant tensor:
#      x y z
#    x 2.009840 0.012420 -0.049090 
#    y 0.012420 1.989800 -0.022440 
#    z -0.049090 -0.022440 2.069760 
# 
# From -- ./inp_files/272558.got.cif
#   From: 2010.05.17/outbox.cif.g08.bks.cpg/sg2_137_cif.got.tgz:272558.got - 2010.06.03 11:33:40.
