data_PCOD9042816
_publ_section_title
;
Structure prediction by ZEFSAII (Michael W. Deem and Ramdas Pophale) SiO2 
 PCOD9042816
Probable space group: P -1
;
_chemical_formula_sum "Si O2"
_cell_formula_units_Z 16
_cell_length_a 16.253276
_cell_length_b 9.382087
_cell_length_c 12.460093
_cell_angle_alpha 23.335498
_cell_angle_beta 113.550956
_cell_angle_gamma 105.466415
_cell_volume 663.149774
_symmetry_space_group_name_H-M "P -1"
_symmetry_group_IT_number 2
_symmetry_cell_setting 'triclinic'
loop_
_space_group_symop_operation_xyz
x,y,z
-x,-y,-z
loop_
_atom_site_type_symbol
_atom_site_label
_atom_site_fract_x
_atom_site_fract_y
_atom_site_fract_z
Si Si1 0.305692 0.685770 0.122232
Si Si2 0.622835 0.576117 0.878339
Si Si3 0.436507 0.543567 0.729830
Si Si4 0.262916 0.659504 0.695561
Si Si5 0.066372 0.448460 0.736015
Si Si6 0.177808 0.885317 0.294295
Si Si7 0.653030 0.541221 0.460833
Si Si8 0.890549 0.867724 0.241021
O O1 0.321668 0.071637 0.817750
O O2 0.194628 0.780401 0.019910
O O3 0.339897 0.409994 0.232441
O O4 0.353677 0.547170 0.356818
O O5 0.534077 0.409302 0.934566
O O6 0.586197 0.005768 0.598092
O O7 0.696572 0.338091 0.166660
O O8 0.354505 0.431156 0.831605
O O9 0.434049 0.429895 0.683444
O O10 0.165749 0.545323 0.731672
O O11 0.224618 0.972950 0.367647
O O12 0.075271 0.144275 0.855246
O O13 0.974908 0.769038 0.437959
O O14 0.079039 0.197602 0.020754
O O15 0.262148 0.795912 0.312317
O O16 0.149754 0.496783 0.537365
#
# Coordination Sequence:
#
# PCOD9042816 Si02
#       8
#     2   2   2   2   2   2   2   2
#     4  11  24  43  65  98 139 166 209 275 335 380
#     4  11  25  42  64  90 127 170 215 268 332 387
#     4  10  24  42  67  91 119 171 226 266 312 401
#     4  10  20  36  59  87 120 162 210 264 311 379
#     4  10  17  33  59  90 122 163 217 260 312 375
#     4   9  17  31  59  88 122 166 213 264 304 374
#     4  10  22  41  67  94 130 171 213 269 328 379
#     4   9  19  32  56  92 125 163 212 262 315 379
#
# _framework density 24.127279000000001
#
# number of rings (size 3 to 8) (size 9 to 14) (size 15 to 20)
#    0.000    2.000    1.250    3.000    7.000    1.000 
#    0.000    0.625    0.000    1.500    0.000    0.000 
#    0.000    0.000    0.000    0.000    0.000    0.000 
#
# Total GULP energy -89098.451566 kJ/mol
# GULP energy per Si atom -5568.653223 kJ/mol
# Density = 2.407236 g / cm^3
# Si number density = 24.127279 Si / 1000 Ang^3
#
#
#
# Elastic Constant Matrix: (Units=GPa)
#
#
# Indices 1 2 3 4 5 6 
#
# 1 84.3111 43.5934 10.7531 20.1995 8.0738 24.7125
# 2 43.5934 116.9379 51.7662 55.2008 12.3990 9.7078
# 3 10.7531 51.7662 68.3782 31.8223 3.2848 4.2320
# 4 20.1995 55.2008 31.8223 46.5784 2.7812 7.4969
# 5 8.0738 12.3990 3.2848 2.7812 29.7816 15.0329
# 6 24.7125 9.7078 4.2320 7.4969 15.0329 45.9950
#
#
#
# Elastic Compliance Matrix: (Units=1/GPa)
#
#
# Indices 1 2 3 4 5 6 
#
# 1 0.017835 -0.008047 0.003333 0.000846 0.002722 -0.009218
# 2 -0.008047 0.026123 -0.008021 -0.022443 -0.008781 0.006076
# 3 0.003333 -0.008021 0.024013 -0.008199 0.001249 -0.001379
# 4 0.000846 -0.022443 -0.008199 0.053844 0.008237 -0.006432
# 5 0.002722 -0.008781 0.001249 0.008237 0.043265 -0.015207
# 6 -0.009218 0.006076 -0.001379 -0.006432 -0.015207 0.031557
#
#
# Mechanical properties :
#
#
# Convention : Reuss Voigt Hill
#
# Bulk Modulus (GPa) = 23.52801 53.53917 38.53359
# Shear Modulus (GPa) = 21.16193 35.37196 28.26695
#
# Velocity S-wave (km/s) = 2.96479 3.83307 3.42654
# Velocity P-wave (km/s) = 4.63603 6.46748 5.62677
#
# Compressibility (1/GPa) = 0.04250254
#
# Stress axis : x y z
#
# Youngs Moduli (GPa) = 56.06912 38.28087 41.64353
#
# Poissons Ratio (x) = 0.30805 -0.13882
# Poissons Ratio (y) = 0.45119 0.33401
# Poissons Ratio (z) = -0.18690 0.30704
#
# Static dielectric constant tensor:
#      x y z
#    x 2.144360 0.025240 -0.160940 
#    y 0.025240 1.932600 0.025350 
#    z -0.160940 0.025350 2.133100 
# 
# From -- ./inp_files/468805.got.cif
#   From: 2010.05.17/outbox.cif.g08.bks.cpg/sg2_235_cif.got.tgz:468805.got - 2010.06.03 11:33:40.
