data_PCOD9042772
_publ_section_title
;
Structure prediction by ZEFSAII (Michael W. Deem and Ramdas Pophale) SiO2 
 PCOD9042772
Probable space group: P -1
;
_chemical_formula_sum "Si O2"
_cell_formula_units_Z 10
_cell_length_a 13.975558
_cell_length_b 8.069904
_cell_length_c 5.485450
_cell_angle_alpha 70.195297
_cell_angle_beta 106.238556
_cell_angle_gamma 134.802271
_cell_volume 412.224738
_symmetry_space_group_name_H-M "P -1"
_symmetry_group_IT_number 2
_symmetry_cell_setting 'triclinic'
loop_
_space_group_symop_operation_xyz
x,y,z
-x,-y,-z
loop_
_atom_site_type_symbol
_atom_site_label
_atom_site_fract_x
_atom_site_fract_y
_atom_site_fract_z
Si Si1 0.885526 0.892563 0.270289
Si Si2 0.216825 0.862057 0.988070
Si Si3 0.786577 0.502236 0.059344
Si Si4 0.608507 0.472121 0.560395
Si Si5 0.358137 0.967088 0.542382
O O1 0.894722 0.757299 0.133318
O O2 0.734518 0.673497 0.379550
O O3 0.882846 0.093043 0.091471
O O4 0.000000 0.000000 0.500000
O O5 0.166612 0.600614 0.037354
O O6 0.300006 0.993377 0.731795
O O7 0.303196 0.966446 0.244907
O O8 0.707159 0.298845 0.311073
O O9 0.680774 0.500289 0.846903
O O10 0.500000 0.500000 0.500000
O O11 0.516458 0.194286 0.557046
#
# Coordination Sequence:
#
# PCOD9042772 Si02
#       5
#     2   2   2   2   2
#     4  12  28  46  71 105 148 196 244 294 361 434
#     4  10  24  48  70 111 145 186 236 305 359 435
#     4  10  25  44  75 105 145 189 240 300 362 428
#     4  12  23  44  74 109 145 187 241 303 363 430
#     4  10  23  44  76 106 145 180 243 297 368 417
#
# _framework density 24.258609
#
# number of rings (size 3 to 8) (size 9 to 14) (size 15 to 20)
#    1.200    0.000    2.000    3.000    2.800    4.800 
#    0.000    2.000    0.000    0.000    0.000    0.000 
#    0.000    0.000    0.000    0.000    0.000    0.000 
#
# Total GULP energy -55823.298545 kJ/mol
# GULP energy per Si atom -5582.329855 kJ/mol
# Density = 2.420339 g / cm^3
# Si number density = 24.258609 Si / 1000 Ang^3
#
#
#
# Elastic Constant Matrix: (Units=GPa)
#
#
# Indices 1 2 3 4 5 6 
#
# 1 77.5568 29.2393 116.0958 -53.1515 5.0055 50.9783
# 2 29.2393 152.5411 69.0963 3.6329 5.7637 19.6206
# 3 116.0958 69.0963 111.1589 90.8734 -8.0642 -65.6982
# 4 -53.1515 3.6329 90.8734 -12.5746 1.2057 41.6311
# 5 5.0055 5.7637 -8.0642 1.2057 35.3506 -16.1642
# 6 50.9783 19.6206 -65.6982 41.6311 -16.1642 -9.6154
#
#
#
# Elastic Compliance Matrix: (Units=1/GPa)
#
#
# Indices 1 2 3 4 5 6 
#
# 1 0.006460 -0.002343 0.000846 -0.003295 0.002307 0.005543
# 2 -0.002343 0.007976 -0.000999 -0.003956 -0.002267 -0.002636
# 3 0.000846 -0.000999 0.003292 0.002808 -0.001644 -0.005122
# 4 -0.003295 -0.003956 0.002808 0.018681 0.009978 0.019384
# 5 0.002307 -0.002267 -0.001644 0.009978 0.031653 0.008829
# 6 0.005543 -0.002636 -0.005122 0.019384 0.008829 0.024085
#
#
# Mechanical properties :
#
#
# Convention : Reuss Voigt Hill
#
# Bulk Modulus (GPa) = 78.52032 85.56884 82.04458
# Shear Modulus (GPa) = 49.31704 11.08715 30.20209
#
# Velocity S-wave (km/s) = 4.51374 2.14017 3.53229
# Velocity P-wave (km/s) = 7.72032 6.43873 7.10847
#
# Compressibility (1/GPa) = 0.01273556
#
# Stress axis : x y z
#
# Youngs Moduli (GPa) = 154.79449 125.37142 303.80447
#
# Poissons Ratio (x) = 0.29379 -0.25712
# Poissons Ratio (y) = 0.36274 0.30357
# Poissons Ratio (z) = -0.13101 0.12527
#
# Static dielectric constant tensor:
#      x y z
#    x 2.230390 -0.051360 -0.229600 
#    y -0.051360 1.964020 -0.040030 
#    z -0.229600 -0.040030 1.999260 
# 
# From -- ./inp_files/15965.got.cif
#   From: 2010.05.17/outbox.cif.g08.bks.cpg/sg2_8_cif.got.tgz:15965.got - 2010.06.03 11:33:40.
