data_PCOD9042738
_publ_section_title
;
Structure prediction by ZEFSAII (Michael W. Deem and Ramdas Pophale) SiO2 
 PCOD9042738
Probable space group: P -1
;
_chemical_formula_sum "Si O2"
_cell_formula_units_Z 12
_cell_length_a 8.359499
_cell_length_b 7.727679
_cell_length_c 11.857316
_cell_angle_alpha 54.802423
_cell_angle_beta 95.232918
_cell_angle_gamma 125.589841
_cell_volume 473.382134
_symmetry_space_group_name_H-M "P -1"
_symmetry_group_IT_number 2
_symmetry_cell_setting 'triclinic'
loop_
_space_group_symop_operation_xyz
x,y,z
-x,-y,-z
loop_
_atom_site_type_symbol
_atom_site_label
_atom_site_fract_x
_atom_site_fract_y
_atom_site_fract_z
Si Si1 0.677862 0.223215 0.273048
Si Si2 0.764883 0.024206 0.991596
Si Si3 0.312416 0.594558 0.035519
Si Si4 0.352244 0.580537 0.438195
Si Si5 0.157864 0.313626 0.742328
Si Si6 0.074029 0.262788 0.335359
O O1 0.736229 0.407943 0.096123
O O2 0.654226 0.376367 0.311622
O O3 0.871208 0.237212 0.314945
O O4 0.482263 0.904243 0.351761
O O5 0.794532 0.886988 0.148407
O O6 0.738546 0.228996 0.969825
O O7 0.558659 0.771049 0.005958
O O8 0.953253 0.186204 0.852520
O O9 0.172805 0.305744 0.202278
O O10 0.500000 0.500000 0.500000
O O11 0.158346 0.376995 0.588672
O O12 0.262069 0.516538 0.330532
O O13 0.000000 0.000000 0.500000
#
# Coordination Sequence:
#
# PCOD9042738 Si02
#       6
#     2   2   2   2   2   2
#     4  12  26  45  75 108 141 193 236 296 356 425
#     4  10  23  44  75 105 143 196 233 295 355 422
#     4  11  23  48  73 104 143 188 246 283 353 434
#     4  12  25  48  72 102 148 189 238 297 351 429
#     4  11  25  44  70 113 147 183 242 295 363 415
#     4  12  26  44  75 109 138 192 242 290 358 425
#
# _framework density 25.349499000000002
#
# number of rings (size 3 to 8) (size 9 to 14) (size 15 to 20)
#    0.000    0.667    3.333    5.000    0.000    2.667 
#    3.000    0.000    0.000    0.000    0.000    0.000 
#    0.000    0.000    0.000    0.000    0.000    0.000 
#
# Total GULP energy -67301.164834 kJ/mol
# GULP energy per Si atom -5608.430403 kJ/mol
# Density = 2.529180 g / cm^3
# Si number density = 25.349499 Si / 1000 Ang^3
#
#
#
# Elastic Constant Matrix: (Units=GPa)
#
#
# Indices 1 2 3 4 5 6 
#
# 1 32.7677 11.3777 23.8528 -0.1845 4.8532 14.5175
# 2 11.3777 85.2259 29.2377 -2.4378 1.5315 14.5834
# 3 23.8528 29.2377 175.5306 10.7595 4.0096 0.2620
# 4 -0.1845 -2.4378 10.7595 57.5103 4.4187 4.3432
# 5 4.8532 1.5315 4.0096 4.4187 25.6447 3.6977
# 6 14.5175 14.5834 0.2620 4.3432 3.6977 29.1718
#
#
#
# Elastic Compliance Matrix: (Units=1/GPa)
#
#
# Indices 1 2 3 4 5 6 
#
# 1 0.045908 0.000116 -0.006320 0.003436 -0.005023 -0.022723
# 2 0.000116 0.013818 -0.002409 0.001558 0.000301 -0.007214
# 3 -0.006320 -0.002409 0.007062 -0.001779 -0.000116 0.004566
# 4 0.003436 0.001558 -0.001779 0.018389 -0.002936 -0.004839
# 5 -0.005023 0.000301 -0.000116 -0.002936 0.040795 -0.002384
# 6 -0.022723 -0.007214 0.004566 -0.004839 -0.002384 0.050176
#
#
# Mechanical properties :
#
#
# Convention : Reuss Voigt Hill
#
# Bulk Modulus (GPa) = 20.17641 46.94005 33.55823
# Shear Modulus (GPa) = 23.82147 37.73578 30.77863
#
# Velocity S-wave (km/s) = 3.06881 3.86245 3.48828
# Velocity P-wave (km/s) = 4.53138 6.20070 5.43057
#
# Compressibility (1/GPa) = 0.04956282
#
# Stress axis : x y z
#
# Youngs Moduli (GPa) = 21.78251 72.36887 141.60302
#
# Poissons Ratio (x) = -0.00840 0.89490
# Poissons Ratio (y) = -0.00253 0.34113
# Poissons Ratio (z) = 0.13766 0.17434
#
# Static dielectric constant tensor:
#      x y z
#    x 1.987090 -0.015010 -0.019280 
#    y -0.015010 2.005420 -0.058980 
#    z -0.019280 -0.058980 1.996890 
# 
# From -- ./inp_files/151797.got.cif
#   From: 2010.05.17/outbox.cif.g08.bks.cpg/sg2_76_cif.got.tgz:151797.got - 2010.06.03 11:33:40.
