data_PCOD9042911
_publ_section_title
;
Structure prediction by ZEFSAII (Michael W. Deem and Ramdas Pophale) SiO2 
 PCOD9042911
Probable space group: P -1
;
_chemical_formula_sum "Si O2"
_cell_formula_units_Z 12
_cell_length_a 20.525312
_cell_length_b 11.378971
_cell_length_c 8.596387
_cell_angle_alpha 43.056903
_cell_angle_beta 34.776072
_cell_angle_gamma 23.924134
_cell_volume 462.628669
_symmetry_space_group_name_H-M "P -1"
_symmetry_group_IT_number 2
_symmetry_cell_setting 'triclinic'
loop_
_space_group_symop_operation_xyz
x,y,z
-x,-y,-z
loop_
_atom_site_type_symbol
_atom_site_label
_atom_site_fract_x
_atom_site_fract_y
_atom_site_fract_z
Si Si1 0.695033 0.872039 0.266355
Si Si2 0.994976 0.380337 0.893096
Si Si3 0.743368 0.185866 0.419228
Si Si4 0.334300 0.085385 0.174106
Si Si5 0.124348 0.833450 0.129906
Si Si6 0.509061 0.339979 0.982715
O O1 0.809662 0.750110 0.323313
O O2 0.500000 0.000000 0.500000
O O3 0.853121 0.597471 0.105767
O O4 0.627674 0.152727 0.085555
O O5 0.866237 0.583495 0.798990
O O6 0.036544 0.127593 0.048152
O O7 0.587866 0.394709 0.660550
O O8 0.702826 0.054664 0.539403
O O9 0.767803 0.291427 0.130384
O O10 0.944911 0.926219 0.367430
O O11 0.424106 0.905120 0.012196
O O12 0.500000 0.000000 0.000000
O O13 0.280241 0.607295 0.174338
#
# Coordination Sequence:
#
# PCOD9042911 Si02
#       6
#     2   2   2   2   2   2
#     4  10  23  45  66  87 127 169 217 266 310 372
#     4  10  24  41  64  97 122 164 222 263 309 375
#     4   9  23  39  60  93 139 162 203 256 318 386
#     4   9  21  40  62  88 131 166 208 254 311 373
#     4  11  22  38  66  95 130 169 201 262 324 376
#     4   9  22  40  61  91 131 163 209 258 317 374
#
# _framework density 25.93873
#
# number of rings (size 3 to 8) (size 9 to 14) (size 15 to 20)
#    1.000    1.333    0.000    0.500    7.000    5.333 
#    0.000    1.667    0.000    0.000    0.000    0.000 
#    0.000    0.000    0.000    0.000    0.000    0.000 
#
# Total GULP energy -66944.346590 kJ/mol
# GULP energy per Si atom -5578.695549 kJ/mol
# Density = 2.587969 g / cm^3
# Si number density = 25.938730 Si / 1000 Ang^3
#
#
#
# Elastic Constant Matrix: (Units=GPa)
#
#
# Indices 1 2 3 4 5 6 
#
# 1 112.0206 27.7726 39.8558 19.2366 -29.5810 -10.6821
# 2 27.7726 114.5838 13.0319 19.6817 -8.0105 -27.5038
# 3 39.8558 13.0319 94.9446 23.2738 -29.4683 -12.9190
# 4 19.2366 19.6817 23.2738 28.8677 -9.2825 -3.6857
# 5 -29.5810 -8.0105 -29.4683 -9.2825 44.8811 11.7035
# 6 -10.6821 -27.5038 -12.9190 -3.6857 11.7035 36.4116
#
#
#
# Elastic Compliance Matrix: (Units=1/GPa)
#
#
# Indices 1 2 3 4 5 6 
#
# 1 0.012244 -0.001976 -0.002463 -0.003112 0.005697 -0.000920
# 2 -0.001976 0.012483 0.001724 -0.008050 -0.002032 0.009299
# 3 -0.002463 0.001724 0.016251 -0.010161 0.006403 0.003259
# 4 -0.003112 -0.008050 -0.010161 0.050200 0.001813 -0.006101
# 5 0.005697 -0.002032 0.006403 0.001813 0.032282 -0.007785
# 6 -0.000920 0.009299 0.003259 -0.006101 -0.007785 0.037259
#
#
# Mechanical properties :
#
#
# Convention : Reuss Voigt Hill
#
# Bulk Modulus (GPa) = 28.13000 53.65218 40.89109
# Shear Modulus (GPa) = 28.09011 38.09131 33.09071
#
# Velocity S-wave (km/s) = 3.29438 3.83627 3.57561
# Velocity P-wave (km/s) = 5.03377 6.35230 5.73108
#
# Compressibility (1/GPa) = 0.03554923
#
# Stress axis : x y z
#
# Youngs Moduli (GPa) = 81.67288 80.10973 61.53292
#
# Poissons Ratio (x) = 0.15827 0.15155
# Poissons Ratio (y) = 0.16135 -0.10608
# Poissons Ratio (z) = 0.20115 -0.13810
#
# Static dielectric constant tensor:
#      x y z
#    x 2.100250 -0.058130 0.061120 
#    y -0.058130 2.119240 -0.020120 
#    z 0.061120 -0.020120 2.157330 
# 
# From -- ./inp_files/476693.got.cif
#   From: 2010.05.17/outbox.cif.g08.bks.cpg/sg2_239_cif.got.tgz:476693.got - 2010.06.03 11:33:40.
