data_PCOD9042205
_publ_section_title
;
Structure prediction by ZEFSAII (Michael W. Deem and Ramdas Pophale) SiO2 
 PCOD9042205
Probable space group: P -1
;
_chemical_formula_sum "Si O2"
_cell_formula_units_Z 16
_cell_length_a 16.593337
_cell_length_b 26.791848
_cell_length_c 14.011320
_cell_angle_alpha 18.815003
_cell_angle_beta 156.883440
_cell_angle_gamma 158.054382
_cell_volume 704.350118
_symmetry_space_group_name_H-M "P -1"
_symmetry_group_IT_number 2
_symmetry_cell_setting 'triclinic'
loop_
_space_group_symop_operation_xyz
x,y,z
-x,-y,-z
loop_
_atom_site_type_symbol
_atom_site_label
_atom_site_fract_x
_atom_site_fract_y
_atom_site_fract_z
Si Si1 0.739631 0.391105 0.379295
Si Si2 0.534938 0.827512 0.347353
Si Si3 0.696369 0.501316 0.783317
Si Si4 0.690711 0.066659 0.793076
Si Si5 0.663165 0.628907 0.719876
Si Si6 0.242944 0.847910 0.497369
Si Si7 0.842330 0.152955 0.391525
Si Si8 0.965667 0.034584 0.549664
O O1 0.611021 0.302863 0.494841
O O2 0.693687 0.236835 0.534227
O O3 0.000000 0.500000 0.500000
O O4 0.654547 0.512673 0.010434
O O5 0.509092 0.725213 0.406311
O O6 0.795973 0.897853 0.539433
O O7 0.500000 0.000000 0.000000
O O8 0.500000 0.500000 0.500000
O O9 0.609797 0.528232 0.744467
O O10 0.947502 0.659439 0.744844
O O11 0.736685 0.330312 0.141356
O O12 0.827292 0.129698 0.727077
O O13 0.433238 0.907649 0.792339
O O14 0.829247 0.006989 0.123616
O O15 0.923928 0.775965 0.719615
O O16 0.110982 0.873551 0.398454
O O17 0.500000 0.000000 0.500000
O O18 0.850808 0.038678 0.518286
#
# Coordination Sequence:
#
# PCOD9042205 Si02
#       8
#     2   2   2   2   2   2   2   2
#     4  12  24  46  69 103 150 187 240 303 362 433
#     4  12  25  46  74 106 145 192 241 297 366 440
#     4  11  25  47  72 106 145 190 248 302 362 438
#     4  11  23  47  70 102 148 187 243 306 358 436
#     4  11  25  44  70 105 143 188 244 294 369 426
#     4  10  23  44  70 100 141 188 241 302 364 422
#     4  10  24  44  73  98 143 189 244 294 362 421
#     4  11  24  44  73 103 138 190 242 293 364 441
#
# _framework density 22.715973999999999
#
# number of rings (size 3 to 8) (size 9 to 14) (size 15 to 20)
#    0.000    1.000    2.500    3.375    7.000    0.500 
#    6.750    0.000    0.000    0.000    0.000    0.000 
#    0.000    0.000    0.000    0.000    0.000    0.000 
#
# Total GULP energy -89305.630954 kJ/mol
# GULP energy per Si atom -5581.601935 kJ/mol
# Density = 2.266427 g / cm^3
# Si number density = 22.715974 Si / 1000 Ang^3
#
#
#
# Elastic Constant Matrix: (Units=GPa)
#
#
# Indices 1 2 3 4 5 6 
#
# 1 144.8785 3.3670 30.4911 -26.0454 -3.3630 -1.0447
# 2 3.3670 91.5042 27.3647 -2.4169 -13.2872 2.5187
# 3 30.4911 27.3647 95.0112 -4.4362 -22.4988 7.4355
# 4 -26.0454 -2.4169 -4.4362 27.2771 2.2096 -5.4370
# 5 -3.3630 -13.2872 -22.4988 2.2096 25.9698 -7.7968
# 6 -1.0447 2.5187 7.4355 -5.4370 -7.7968 36.4933
#
#
#
# Elastic Compliance Matrix: (Units=1/GPa)
#
#
# Indices 1 2 3 4 5 6 
#
# 1 0.009103 0.000581 -0.003172 0.008715 -0.001457 0.001854
# 2 0.000581 0.012343 -0.002776 0.001015 0.004128 0.000764
# 3 -0.003172 -0.002776 0.014927 -0.001912 0.011000 -0.000875
# 4 0.008715 0.001015 -0.001912 0.046320 -0.001824 0.007080
# 5 -0.001457 0.004128 0.011000 -0.001824 0.052639 0.008407
# 6 0.001854 0.000764 -0.000875 0.007080 0.008407 0.030432
#
#
# Mechanical properties :
#
#
# Convention : Reuss Voigt Hill
#
# Bulk Modulus (GPa) = 39.00416 50.42661 44.71538
# Shear Modulus (GPa) = 27.02088 35.95945 31.49016
#
# Velocity S-wave (km/s) = 3.45267 3.98301 3.72729
# Velocity P-wave (km/s) = 5.75345 6.58783 6.18473
#
# Compressibility (1/GPa) = 0.02563829
#
# Stress axis : x y z
#
# Youngs Moduli (GPa) = 109.85890 81.02082 66.99420
#
# Poissons Ratio (x) = -0.04709 0.21249
# Poissons Ratio (y) = -0.06385 0.18599
# Poissons Ratio (z) = 0.34844 0.22493
#
# Static dielectric constant tensor:
#      x y z
#    x 1.851560 -0.053780 0.012910 
#    y -0.053780 1.796580 -0.020900 
#    z 0.012910 -0.020900 1.865990 
# 
# From -- ./inp_files/539483.got.cif
#   From: 2010.05.17/outbox.cif.g08.bks.cpg/sg2_270_cif.got.tgz:539483.got - 2010.06.03 11:33:40.
