data_PCOD9042240
_publ_section_title
;
Structure prediction by ZEFSAII (Michael W. Deem and Ramdas Pophale) SiO2 
 PCOD9042240
Probable space group: P -1
;
_chemical_formula_sum "Si O2"
_cell_formula_units_Z 11
_cell_length_a 9.022123
_cell_length_b 9.368245
_cell_length_c 4.939268
_cell_angle_alpha 109.099746
_cell_angle_beta 79.280391
_cell_angle_gamma 105.515223
_cell_volume 377.887137
_symmetry_space_group_name_H-M "P -1"
_symmetry_group_IT_number 2
_symmetry_cell_setting 'triclinic'
loop_
_space_group_symop_operation_xyz
x,y,z
-x,-y,-z
loop_
_atom_site_type_symbol
_atom_site_label
_atom_site_fract_x
_atom_site_fract_y
_atom_site_fract_z
Si Si1 0.500000 0.000000 0.500000
Si Si2 0.149640 0.938305 0.325783
Si Si3 0.293591 0.112104 0.880217
Si Si4 0.926334 0.425810 0.762798
Si Si5 0.288170 0.441166 0.893118
Si Si6 0.395936 0.657273 0.478491
O O1 0.471506 0.113099 0.850875
O O2 0.588536 0.162492 0.414637
O O3 0.120718 0.760074 0.299204
O O4 0.289224 0.036368 0.526113
O O5 0.000000 0.000000 0.500000
O O6 0.187354 0.993694 0.043433
O O7 0.243076 0.272721 0.990088
O O8 0.904191 0.558013 0.094405
O O9 0.728223 0.437417 0.761502
O O10 0.000000 0.500000 0.500000
O O11 0.335688 0.583605 0.734737
O O12 0.443463 0.380301 0.696160
#
# Coordination Sequence:
#
# PCOD9042240 Si02
#       6
#     1   2   2   2   2   2
#     4  12  26  48  78 104 154 190 250 302 358 448
#     4  12  26  47  73 109 146 190 246 301 372 434
#     4  12  26  47  73 109 144 196 241 303 368 430
#     4  10  23  44  70 102 144 186 243 297 362 431
#     4  10  23  45  67 105 144 183 248 291 372 426
#     4  10  24  44  68 105 139 195 234 301 363 422
#
# _framework density 29.109219
#
# number of rings (size 3 to 8) (size 9 to 14) (size 15 to 20)
#    1.091    0.000    1.818    3.818    0.000    5.091 
#    0.000    0.000    0.000    0.000    0.000    0.000 
#    0.000    0.000    0.000    0.000    0.000    0.000 
#
# Total GULP energy -61324.015435 kJ/mol
# GULP energy per Si atom -5574.910494 kJ/mol
# Density = 2.904296 g / cm^3
# Si number density = 29.109219 Si / 1000 Ang^3
#
#
#
# Elastic Constant Matrix: (Units=GPa)
#
#
# Indices 1 2 3 4 5 6 
#
# 1 145.7897 92.7318 53.3694 4.9161 -41.8225 -5.3420
# 2 92.7318 386.8257 119.0922 -16.4354 -7.1137 -26.2256
# 3 53.3694 119.0922 171.1364 -32.0010 -30.1573 -7.7791
# 4 4.9161 -16.4354 -32.0010 58.6033 1.6991 -6.4786
# 5 -41.8225 -7.1137 -30.1573 1.6991 82.9872 26.6042
# 6 -5.3420 -26.2256 -7.7791 -6.4786 26.6042 70.8558
#
#
#
# Elastic Compliance Matrix: (Units=1/GPa)
#
#
# Indices 1 2 3 4 5 6 
#
# 1 0.010306 -0.002247 -0.001309 -0.002637 0.005367 -0.002455
# 2 -0.002247 0.003928 -0.002281 0.000320 -0.002242 0.001905
# 3 -0.001309 -0.002281 0.009061 0.004290 0.002509 -0.000498
# 4 -0.002637 0.000320 0.004290 0.020032 -0.000983 0.002591
# 5 0.005367 -0.002242 0.002509 -0.000983 0.017702 -0.006886
# 6 -0.002455 0.001905 -0.000498 0.002591 -0.006886 0.017401
#
#
# Mechanical properties :
#
#
# Convention : Reuss Voigt Hill
#
# Bulk Modulus (GPa) = 86.06110 137.12652 111.59381
# Shear Modulus (GPa) = 53.20384 71.72650 62.46517
#
# Velocity S-wave (km/s) = 4.27984 4.96930 4.63740
# Velocity P-wave (km/s) = 7.35199 8.95182 8.19106
#
# Compressibility (1/GPa) = 0.01161965
#
# Stress axis : x y z
#
# Youngs Moduli (GPa) = 97.02744 254.60259 110.36841
#
# Poissons Ratio (x) = 0.57220 0.14447
# Poissons Ratio (y) = 0.21806 0.25175
# Poissons Ratio (z) = 0.12701 0.58076
#
# Static dielectric constant tensor:
#      x y z
#    x 3.975790 -0.388680 0.224770 
#    y -0.388680 2.254340 -0.031010 
#    z 0.224770 -0.031010 2.278180 
# 
# From -- ./inp_files/19585.got.cif
#   From: 2010.05.17/outbox.cif.g08.bks.cpg/sg2_10_cif.got.tgz:19585.got - 2010.06.03 11:33:40.
