data_PCOD9042470
_publ_section_title
;
Structure prediction by ZEFSAII (Michael W. Deem and Ramdas Pophale) SiO2 
 PCOD9042470
Probable space group: P -1
;
_chemical_formula_sum "Si O2"
_cell_formula_units_Z 16
_cell_length_a 11.486295
_cell_length_b 7.765702
_cell_length_c 12.450124
_cell_angle_alpha 104.062235
_cell_angle_beta 47.699248
_cell_angle_gamma 128.757463
_cell_volume 609.120872
_symmetry_space_group_name_H-M "P -1"
_symmetry_group_IT_number 2
_symmetry_cell_setting 'triclinic'
loop_
_space_group_symop_operation_xyz
x,y,z
-x,-y,-z
loop_
_atom_site_type_symbol
_atom_site_label
_atom_site_fract_x
_atom_site_fract_y
_atom_site_fract_z
Si Si1 0.692163 0.498711 0.522312
Si Si2 0.389203 0.828092 0.642940
Si Si3 0.878598 0.146779 0.913746
Si Si4 0.118214 0.221824 0.228970
Si Si5 0.142843 0.723055 0.271786
Si Si6 0.445785 0.671969 0.190893
Si Si7 0.746796 0.957062 0.575073
Si Si8 0.002373 0.213750 0.063975
O O1 0.643130 0.393374 0.418276
O O2 0.545592 0.338690 0.687585
O O3 0.718133 0.727026 0.547845
O O4 0.902909 0.544914 0.420523
O O5 0.544967 0.914783 0.656310
O O6 0.197011 0.812963 0.785550
O O7 0.500000 0.000000 0.500000
O O8 0.959480 0.034966 0.782913
O O9 0.834573 0.260946 0.868259
O O10 0.662802 0.908646 0.054566
O O11 0.034318 0.312542 0.937701
O O12 0.341847 0.412776 0.172887
O O13 0.123073 0.303833 0.116185
O O14 0.939503 0.158499 0.411480
O O15 0.273648 0.675248 0.246848
O O16 0.212932 0.960813 0.315115
O O17 0.000000 0.000000 0.000000
#
# Coordination Sequence:
#
# PCOD9042470 Si02
#       8
#     2   2   2   2   2   2   2   2
#     4  12  25  44  70 107 143 187 240 294 354 421
#     4  12  24  43  72 106 141 183 243 295 347 424
#     4  11  24  45  66  96 143 188 229 289 361 431
#     4  11  22  43  69  99 140 187 233 290 357 425
#     4  12  24  43  71 101 143 182 238 295 360 419
#     4  12  25  41  69 107 135 186 242 294 355 421
#     4  12  24  43  70 106 146 183 238 298 355 410
#     4  10  23  44  71  98 140 188 227 283 362 421
#
# _framework density 26.267363
#
# number of rings (size 3 to 8) (size 9 to 14) (size 15 to 20)
#    0.000    0.500    3.750    5.625    0.000    0.000 
#    0.000    3.750    0.000    0.000    0.000    0.000 
#    0.000    0.000    0.000    0.000    0.000    0.000 
#
# Total GULP energy -89432.218643 kJ/mol
# GULP energy per Si atom -5589.513665 kJ/mol
# Density = 2.620758 g / cm^3
# Si number density = 26.267363 Si / 1000 Ang^3
#
#
#
# Elastic Constant Matrix: (Units=GPa)
#
#
# Indices 1 2 3 4 5 6 
#
# 1 98.1134 7.7657 31.2257 4.2707 24.1153 4.1549
# 2 7.7657 73.6638 17.3403 3.2516 21.4364 -11.9219
# 3 31.2257 17.3403 104.3896 2.3177 20.1303 -3.8384
# 4 4.2707 3.2516 2.3177 32.7693 15.9481 8.5936
# 5 24.1153 21.4364 20.1303 15.9481 50.4319 12.6603
# 6 4.1549 -11.9219 -3.8384 8.5936 12.6603 49.1020
#
#
#
# Elastic Compliance Matrix: (Units=1/GPa)
#
#
# Indices 1 2 3 4 5 6 
#
# 1 0.012322 0.000976 -0.002782 0.001173 -0.005623 0.000222
# 2 0.000976 0.017431 -0.001182 0.001126 -0.009333 0.006267
# 3 -0.002782 -0.001182 0.011289 0.000907 -0.003346 0.001535
# 4 0.001173 0.001126 0.000907 0.036989 -0.012333 -0.003049
# 5 -0.005623 -0.009333 -0.003346 -0.012333 0.033887 -0.008631
# 6 0.000222 0.006267 0.001535 -0.003049 -0.008631 0.024747
#
#
# Mechanical properties :
#
#
# Convention : Reuss Voigt Hill
#
# Bulk Modulus (GPa) = 28.51652 43.20334 35.85993
# Shear Modulus (GPa) = 32.39799 41.11632 36.75715
#
# Velocity S-wave (km/s) = 3.51578 3.96068 3.74484
# Velocity P-wave (km/s) = 5.23075 6.11549 5.69034
#
# Compressibility (1/GPa) = 0.03506739
#
# Stress axis : x y z
#
# Youngs Moduli (GPa) = 81.15585 57.36870 88.57865
#
# Poissons Ratio (x) = -0.05601 0.24638
# Poissons Ratio (y) = -0.07923 0.10472
# Poissons Ratio (z) = 0.22574 0.06783
#
# Static dielectric constant tensor:
#      x y z
#    x 2.048600 0.005050 0.008140 
#    y 0.005050 2.234640 0.056880 
#    z 0.008140 0.056880 2.054210 
# 
# From -- ./inp_files/419594.got.cif
#   From: 2010.05.17/outbox.cif.g08.bks.cpg/sg2_210_cif.got.tgz:419594.got - 2010.06.03 11:33:40.
