data_PCOD9042903
_publ_section_title
;
Structure prediction by ZEFSAII (Michael W. Deem and Ramdas Pophale) SiO2 
 PCOD9042903
Probable space group: P -1
;
_chemical_formula_sum "Si O2"
_cell_formula_units_Z 12
_cell_length_a 6.101013
_cell_length_b 7.012818
_cell_length_c 18.052457
_cell_angle_alpha 50.744599
_cell_angle_beta 58.400281
_cell_angle_gamma 85.823483
_cell_volume 468.565194
_symmetry_space_group_name_H-M "P -1"
_symmetry_group_IT_number 2
_symmetry_cell_setting 'triclinic'
loop_
_space_group_symop_operation_xyz
x,y,z
-x,-y,-z
loop_
_atom_site_type_symbol
_atom_site_label
_atom_site_fract_x
_atom_site_fract_y
_atom_site_fract_z
Si Si1 0.775029 0.209021 0.739732
Si Si2 0.413810 0.388616 0.125178
Si Si3 0.533435 0.772449 0.467559
Si Si4 0.100611 0.513545 0.729077
Si Si5 0.268777 0.269400 0.890881
Si Si6 0.967384 0.189694 0.523384
O O1 0.518103 0.189992 0.841262
O O2 0.881477 0.489882 0.605190
O O3 0.003877 0.260384 0.751882
O O4 0.671890 0.928360 0.785900
O O5 0.677351 0.570316 0.082433
O O6 0.156565 0.432740 0.202078
O O7 0.500000 0.500000 0.000000
O O8 0.500000 0.500000 0.500000
O O9 0.326334 0.730626 0.584475
O O10 0.843572 0.847449 0.432119
O O11 0.371769 0.883603 0.406585
O O12 0.259461 0.469718 0.780800
O O13 0.000000 0.000000 0.000000
O O14 0.000000 0.000000 0.500000
#
# Coordination Sequence:
#
# PCOD9042903 Si02
#       6
#     2   2   2   2   2   2
#     4  10  23  45  66 103 143 187 242 301 370 442
#     4  11  24  43  71 104 144 193 243 299 374 444
#     4  11  24  50  75 108 147 195 250 314 375 446
#     4  10  23  45  66 102 144 185 240 305 365 442
#     4  11  22  41  71 101 143 185 239 304 368 442
#     4  11  24  50  75 108 149 194 250 317 374 442
#
# _framework density 25.610098000000001
#
# number of rings (size 3 to 8) (size 9 to 14) (size 15 to 20)
#    0.000    1.333    1.667    3.000    0.000    6.667 
#   33.000    0.000    0.000    0.000    0.000    0.000 
#    0.000    0.000    0.000    0.000    0.000    0.000 
#
# Total GULP energy -66903.307285 kJ/mol
# GULP energy per Si atom -5575.275607 kJ/mol
# Density = 2.555181 g / cm^3
# Si number density = 25.610098 Si / 1000 Ang^3
#
#
#
# Elastic Constant Matrix: (Units=GPa)
#
#
# Indices 1 2 3 4 5 6 
#
# 1 175.0271 69.9723 33.1777 8.3417 10.1789 38.5948
# 2 69.9723 199.6308 51.2157 -10.1369 5.2853 29.5572
# 3 33.1777 51.2157 139.7972 -2.3669 1.4530 28.0490
# 4 8.3417 -10.1369 -2.3669 33.5040 10.8415 -2.9891
# 5 10.1789 5.2853 1.4530 10.8415 35.8686 13.7008
# 6 38.5948 29.5572 28.0490 -2.9891 13.7008 57.7758
#
#
#
# Elastic Compliance Matrix: (Units=1/GPa)
#
#
# Indices 1 2 3 4 5 6 
#
# 1 0.007675 -0.002186 -0.000233 -0.003207 0.000741 -0.004238
# 2 -0.002186 0.006457 -0.001649 0.002562 -0.000760 -0.000730
# 3 -0.000233 -0.001649 0.008491 -0.000640 0.001500 -0.003512
# 4 -0.003207 0.002562 -0.000640 0.035991 -0.012610 0.005994
# 5 0.000741 -0.000760 0.001500 -0.012610 0.035297 -0.009857
# 6 -0.004238 -0.000730 -0.003512 0.005994 -0.009857 0.024865
#
#
# Mechanical properties :
#
#
# Convention : Reuss Voigt Hill
#
# Bulk Modulus (GPa) = 69.02075 91.46515 80.24295
# Shear Modulus (GPa) = 37.95365 49.43564 43.69464
#
# Velocity S-wave (km/s) = 3.85383 4.39831 4.13504
# Velocity P-wave (km/s) = 6.84191 7.84764 7.36197
#
# Compressibility (1/GPa) = 0.01448840
#
# Stress axis : x y z
#
# Youngs Moduli (GPa) = 130.28504 154.87881 117.77513
#
# Poissons Ratio (x) = 0.33851 0.02739
# Poissons Ratio (y) = 0.28476 0.19422
# Poissons Ratio (z) = 0.03030 0.25540
#
# Static dielectric constant tensor:
#      x y z
#    x 9.527660 1.190120 7.394150 
#    y 1.190120 2.282730 1.187370 
#    z 7.394150 1.187370 9.683830 
# 
# From -- ./inp_files/120252.got.cif
#   From: 2010.05.17/outbox.cif.g08.bks.cpg/sg2_61_cif.got.tgz:120252.got - 2010.06.03 11:33:40.
