data_PCOD9042405
_publ_section_title
;
Structure prediction by ZEFSAII (Michael W. Deem and Ramdas Pophale) SiO2 
 PCOD9042405
Probable space group: P -1
;
_chemical_formula_sum "Si O2"
_cell_formula_units_Z 14
_cell_length_a 9.446911
_cell_length_b 14.185366
_cell_length_c 11.370878
_cell_angle_alpha 102.383818
_cell_angle_beta 138.297904
_cell_angle_gamma 112.043011
_cell_volume 560.988144
_symmetry_space_group_name_H-M "P -1"
_symmetry_group_IT_number 2
_symmetry_cell_setting 'triclinic'
loop_
_space_group_symop_operation_xyz
x,y,z
-x,-y,-z
loop_
_atom_site_type_symbol
_atom_site_label
_atom_site_fract_x
_atom_site_fract_y
_atom_site_fract_z
Si Si1 0.629955 0.754447 0.591434
Si Si2 0.388792 0.091123 0.773293
Si Si3 0.996530 0.805529 0.610952
Si Si4 0.314714 0.377484 0.236966
Si Si5 0.831051 0.539877 0.373947
Si Si6 0.226177 0.573984 0.937679
Si Si7 0.480265 0.889801 0.399207
O O1 0.879509 0.779387 0.666182
O O2 0.766766 0.761948 0.803408
O O3 0.670970 0.875591 0.589153
O O4 0.174543 0.579706 0.285621
O O5 0.384562 0.040723 0.630564
O O6 0.709500 0.292231 0.034531
O O7 0.000000 0.000000 0.500000
O O8 0.324257 0.995359 0.814008
O O9 0.067080 0.725341 0.583272
O O10 0.589861 0.687790 0.272234
O O11 0.500000 0.500000 0.500000
O O12 0.533555 0.447285 0.269063
O O13 0.949702 0.298365 0.946711
O O14 0.742611 0.489018 0.168223
O O15 0.000000 0.500000 0.500000
O O16 0.500000 0.000000 0.500000
#
# Coordination Sequence:
#
# PCOD9042405 Si02
#       7
#     2   2   2   2   2   2   2
#     4  12  24  47  79 106 148 199 257 304 381 455
#     4  10  23  44  71 103 148 190 248 301 380 445
#     4  11  24  43  74 105 141 201 245 304 384 453
#     4  12  27  47  76 112 148 200 256 311 376 454
#     4  12  26  42  70 107 150 185 253 318 364 441
#     4  11  23  43  74 107 142 193 254 311 367 450
#     4  12  29  47  76 112 155 201 250 317 382 451
#
# _framework density 24.955964000000002
#
# number of rings (size 3 to 8) (size 9 to 14) (size 15 to 20)
#    0.000    0.571    5.714    2.571    6.000    0.571 
#    0.000    2.857    0.000    0.000    0.000    0.000 
#    0.000    0.000    0.000    0.000    0.000    0.000 
#
# Total GULP energy -78104.607481 kJ/mol
# GULP energy per Si atom -5578.900534 kJ/mol
# Density = 2.489916 g / cm^3
# Si number density = 24.955964 Si / 1000 Ang^3
#
#
#
# Elastic Constant Matrix: (Units=GPa)
#
#
# Indices 1 2 3 4 5 6 
#
# 1 174.9952 18.4489 32.2005 37.1490 -13.7329 17.1401
# 2 18.4489 153.1125 7.6584 13.5682 -12.1539 3.8447
# 3 32.2005 7.6584 41.1280 7.4708 -10.2968 7.2048
# 4 37.1490 13.5682 7.4708 33.8590 -5.6740 10.2475
# 5 -13.7329 -12.1539 -10.2968 -5.6740 35.0616 0.3983
# 6 17.1401 3.8447 7.2048 10.2475 0.3983 50.9856
#
#
#
# Elastic Compliance Matrix: (Units=1/GPa)
#
#
# Indices 1 2 3 4 5 6 
#
# 1 0.008381 -0.000010 -0.004893 -0.007848 0.000579 -0.000553
# 2 -0.000010 0.006911 -0.000374 -0.002355 0.001901 -0.000006
# 3 -0.004893 -0.000374 0.030315 0.000867 0.007029 -0.002840
# 4 -0.007848 -0.002355 0.000867 0.041106 0.003080 -0.005592
# 5 0.000579 0.001901 0.007029 0.003080 0.031994 -0.002200
# 6 -0.000553 -0.000006 -0.002840 -0.005592 -0.002200 0.021342
#
#
# Mechanical properties :
#
#
# Convention : Reuss Voigt Hill
#
# Bulk Modulus (GPa) = 28.52854 53.98348 41.25601
# Shear Modulus (GPa) = 30.80941 44.70977 37.75959
#
# Velocity S-wave (km/s) = 3.51743 4.23726 3.89401
# Velocity P-wave (km/s) = 5.28704 6.75408 6.06508
#
# Compressibility (1/GPa) = 0.03505262
#
# Stress axis : x y z
#
# Youngs Moduli (GPa) = 119.31207 144.70046 32.98732
#
# Poissons Ratio (x) = 0.00143 0.16141
# Poissons Ratio (y) = 0.00118 0.01235
# Poissons Ratio (z) = 0.58379 0.05416
#
# Static dielectric constant tensor:
#      x y z
#    x 2.045690 -0.057580 -0.004140 
#    y -0.057580 2.084460 0.010460 
#    z -0.004140 0.010460 2.074210 
# 
# From -- ./inp_files/397574.got.cif
#   From: 2010.05.17/outbox.cif.g08.bks.cpg/sg2_199_cif.got.tgz:397574.got - 2010.06.03 11:33:40.
