data_PCOD9042813
_publ_section_title
;
Structure prediction by ZEFSAII (Michael W. Deem and Ramdas Pophale) SiO2 
 PCOD9042813
Probable space group: P -1
;
_chemical_formula_sum "Si O2"
_cell_formula_units_Z 16
_cell_length_a 7.482318
_cell_length_b 8.397811
_cell_length_c 11.673429
_cell_angle_alpha 79.160003
_cell_angle_beta 53.325810
_cell_angle_gamma 85.888181
_cell_volume 577.034322
_symmetry_space_group_name_H-M "P -1"
_symmetry_group_IT_number 2
_symmetry_cell_setting 'triclinic'
loop_
_space_group_symop_operation_xyz
x,y,z
-x,-y,-z
loop_
_atom_site_type_symbol
_atom_site_label
_atom_site_fract_x
_atom_site_fract_y
_atom_site_fract_z
Si Si1 0.893950 0.111922 0.126290
Si Si2 0.713430 0.628338 0.884651
Si Si3 0.377092 0.084040 0.270531
Si Si4 0.012265 0.660327 0.122913
Si Si5 0.145176 0.662008 0.410431
Si Si6 0.465682 0.316352 0.579453
Si Si7 0.182748 0.071908 0.585017
Si Si8 0.399057 0.794583 0.119011
O O1 0.628695 0.101966 0.213274
O O2 0.910401 0.049301 0.261522
O O3 0.962051 0.291574 0.026173
O O4 0.000000 0.000000 0.000000
O O5 0.922324 0.519458 0.839411
O O6 0.711101 0.741710 0.757736
O O7 0.500000 0.500000 0.000000
O O8 0.645231 0.765846 0.983706
O O9 0.236049 0.022305 0.442055
O O10 0.389842 0.954179 0.179191
O O11 0.210896 0.773328 0.095062
O O12 0.761294 0.692428 0.255073
O O13 0.293825 0.707530 0.455603
O O14 0.339206 0.643098 0.245660
O O15 0.000000 0.500000 0.500000
O O16 0.994231 0.791202 0.390587
O O17 0.500000 0.500000 0.500000
O O18 0.401578 0.175653 0.532591
#
# Coordination Sequence:
#
# PCOD9042813 Si02
#       8
#     2   2   2   2   2   2   2   2
#     4  12  24  49  81 116 177 225 283 347 427 507
#     4  10  23  44  84 125 168 224 291 353 428 502
#     4  12  27  47  84 127 179 225 290 356 427 513
#     4  11  24  49  85 127 167 226 289 360 425 513
#     4  12  26  48  85 118 168 221 281 352 433 506
#     4  12  25  49  82 123 174 218 282 353 440 503
#     4  12  28  50  82 128 176 226 282 355 427 517
#     4  11  23  48  82 124 164 228 288 346 433 505
#
# _framework density 27.727988
#
# number of rings (size 3 to 8) (size 9 to 14) (size 15 to 20)
#    0.000    0.500    6.250    1.500    5.250    0.500 
#    0.000    3.750    0.000    0.000    0.000    0.000 
#    0.000    0.000    0.000    0.000    0.000    0.000 
#
# Total GULP energy -89474.165464 kJ/mol
# GULP energy per Si atom -5592.135341 kJ/mol
# Density = 2.766488 g / cm^3
# Si number density = 27.727988 Si / 1000 Ang^3
#
#
#
# Elastic Constant Matrix: (Units=GPa)
#
#
# Indices 1 2 3 4 5 6 
#
# 1 172.6240 49.2468 42.6334 -25.2918 5.4120 -11.1117
# 2 49.2468 151.2429 88.9743 -14.4128 29.3158 -15.4719
# 3 42.6334 88.9743 205.4294 -25.3425 27.2925 -16.8536
# 4 -25.2918 -14.4128 -25.3425 49.7047 -11.8097 11.5133
# 5 5.4120 29.3158 27.2925 -11.8097 49.2781 -2.7700
# 6 -11.1117 -15.4719 -16.8536 11.5133 -2.7700 39.6671
#
#
#
# Elastic Compliance Matrix: (Units=1/GPa)
#
#
# Indices 1 2 3 4 5 6 
#
# 1 0.006857 -0.001975 -0.000359 0.003004 0.001353 0.000221
# 2 -0.001975 0.010159 -0.003432 -0.001256 -0.004113 0.002028
# 3 -0.000359 -0.003432 0.006893 0.001839 -0.001247 0.000868
# 4 0.003004 -0.001256 0.001839 0.024729 0.005005 -0.005695
# 5 0.001353 -0.004113 -0.001247 0.005005 0.024397 -0.001504
# 6 0.000221 0.002028 0.000868 -0.005695 -0.001504 0.027980
#
#
# Mechanical properties :
#
#
# Convention : Reuss Voigt Hill
#
# Bulk Modulus (GPa) = 80.79827 99.00058 89.89942
# Shear Modulus (GPa) = 42.85525 50.95942 46.90733
#
# Velocity S-wave (km/s) = 3.93563 4.29165 4.11749
# Velocity P-wave (km/s) = 7.06081 7.76784 7.42275
#
# Compressibility (1/GPa) = 0.01237650
#
# Stress axis : x y z
#
# Youngs Moduli (GPa) = 145.83919 98.43293 145.08265
#
# Poissons Ratio (x) = 0.19442 0.05203
# Poissons Ratio (y) = 0.28805 0.49797
# Poissons Ratio (z) = 0.05231 0.33785
#
# Static dielectric constant tensor:
#      x y z
#    x 2.407560 0.082750 0.074600 
#    y 0.082750 2.383740 0.076030 
#    z 0.074600 0.076030 2.269140 
# 
# From -- ./inp_files/554983.got.cif
#   From: 2010.05.17/outbox.cif.g08.bks.cpg/sg2_278_cif.got.tgz:554983.got - 2010.06.03 11:33:40.
