data_PCOD9042658
_publ_section_title
;
Structure prediction by ZEFSAII (Michael W. Deem and Ramdas Pophale) SiO2 
 PCOD9042658
Probable space group: P -1
;
_chemical_formula_sum "Si O2"
_cell_formula_units_Z 15
_cell_length_a 12.074749
_cell_length_b 11.185231
_cell_length_c 5.055220
_cell_angle_alpha 102.225648
_cell_angle_beta 92.118903
_cell_angle_gamma 52.402246
_cell_volume 524.922517
_symmetry_space_group_name_H-M "P -1"
_symmetry_group_IT_number 2
_symmetry_cell_setting 'triclinic'
loop_
_space_group_symop_operation_xyz
x,y,z
-x,-y,-z
loop_
_atom_site_type_symbol
_atom_site_label
_atom_site_fract_x
_atom_site_fract_y
_atom_site_fract_z
Si Si1 0.983712 0.798033 0.189322
Si Si2 0.794512 0.095906 0.000460
Si Si3 0.461617 0.890052 0.838670
Si Si4 0.601828 0.455031 0.233797
Si Si5 0.716011 0.872837 0.483557
Si Si6 0.700832 0.637018 0.075156
Si Si7 0.920440 0.630922 0.778348
Si Si8 0.000000 0.000000 0.500000
O O1 0.860371 0.807932 0.318416
O O2 0.084362 0.797512 0.395515
O O3 0.010659 0.689647 0.900328
O O4 0.913615 0.979481 0.178307
O O5 0.668329 0.086007 0.011535
O O6 0.726223 0.270881 0.140990
O O7 0.873474 0.029718 0.701768
O O8 0.396641 0.955661 0.569374
O O9 0.592486 0.716238 0.854410
O O10 0.500000 0.000000 0.000000
O O11 0.500000 0.500000 0.500000
O O12 0.670041 0.539897 0.204788
O O13 0.500000 0.500000 0.000000
O O14 0.668947 0.774368 0.321293
O O15 0.778538 0.793879 0.735463
O O16 0.854877 0.571610 0.940787
O O17 0.000000 0.500000 0.500000
#
# Coordination Sequence:
#
# PCOD9042658 Si02
#       8
#     2   2   2   2   2   2   2   1
#     4  10  24  46  70 112 147 212 272 329 414 493
#     4  11  25  46  77 111 161 212 274 342 417 514
#     4   9  19  43  74 110 148 197 271 336 410 494
#     4  12  29  51  76 115 167 222 284 348 427 505
#     4   9  21  41  73 105 147 199 262 340 413 495
#     4  10  23  44  73 115 151 214 269 340 431 490
#     4  11  25  46  77 117 166 209 278 352 428 516
#     4  12  26  46  74 108 164 214 274 338 412 504
#
# _framework density 28.575645999999999
#
# number of rings (size 3 to 8) (size 9 to 14) (size 15 to 20)
#    0.000    1.600    1.333    2.000    3.733    5.867 
#    0.000    4.000    0.000    4.800    0.000    0.000 
#    0.000    0.000    0.000    0.000    0.000    0.000 
#
# Total GULP energy -83692.886811 kJ/mol
# GULP energy per Si atom -5579.525787 kJ/mol
# Density = 2.851061 g / cm^3
# Si number density = 28.575646 Si / 1000 Ang^3
#
#
#
# Elastic Constant Matrix: (Units=GPa)
#
#
# Indices 1 2 3 4 5 6 
#
# 1 193.0474 47.5286 59.3373 4.6722 -13.2712 45.7260
# 2 47.5286 199.2918 60.5931 -9.5975 10.2002 23.9916
# 3 59.3373 60.5931 156.5139 1.0176 -5.4543 24.8768
# 4 4.6722 -9.5975 1.0176 53.5521 2.4581 0.3712
# 5 -13.2712 10.2002 -5.4543 2.4581 71.2024 -9.3933
# 6 45.7260 23.9916 24.8768 0.3712 -9.3933 63.6462
#
#
#
# Elastic Compliance Matrix: (Units=1/GPa)
#
#
# Indices 1 2 3 4 5 6 
#
# 1 0.006864 -0.000735 -0.001669 -0.000707 0.000769 -0.003884
# 2 -0.000735 0.006055 -0.001929 0.001256 -0.001355 -0.001207
# 3 -0.001669 -0.001929 0.007964 -0.000364 0.000440 -0.001120
# 4 -0.000707 0.001256 -0.000364 0.019014 -0.001007 -0.000083
# 5 0.000769 -0.001355 0.000440 -0.001007 0.014709 0.001963
# 6 -0.003884 -0.001207 -0.001120 -0.000083 0.001963 0.019686
#
#
# Mechanical properties :
#
#
# Convention : Reuss Voigt Hill
#
# Bulk Modulus (GPa) = 81.85132 98.19679 90.02405
# Shear Modulus (GPa) = 57.45114 63.10642 60.27878
#
# Velocity S-wave (km/s) = 4.48872 4.70446 4.59785
# Velocity P-wave (km/s) = 7.45457 7.99673 7.73041
#
# Compressibility (1/GPa) = 0.01221727
#
# Stress axis : x y z
#
# Youngs Moduli (GPa) = 145.68487 165.15879 125.56070
#
# Poissons Ratio (x) = 0.12146 0.20954
# Poissons Ratio (y) = 0.10714 0.24217
# Poissons Ratio (z) = 0.24312 0.31855
#
# Static dielectric constant tensor:
#      x y z
#    x 2.692120 -0.239120 0.420460 
#    y -0.239120 2.451030 -0.088460 
#    z 0.420460 -0.088460 2.815100 
# 
# From -- ./inp_files/67564.got.cif
#   From: 2010.05.17/outbox.cif.g08.bks.cpg/sg2_34_cif.got.tgz:67564.got - 2010.06.03 11:33:40.
