data_PCOD9042090
_publ_section_title
;
Structure prediction by ZEFSAII (Michael W. Deem and Ramdas Pophale) SiO2 
 PCOD9042090
Probable space group: P -1
;
_chemical_formula_sum "Si O2"
_cell_formula_units_Z 16
_cell_length_a 7.883853
_cell_length_b 5.696139
_cell_length_c 24.602980
_cell_angle_alpha 95.370374
_cell_angle_beta 138.535514
_cell_angle_gamma 64.753916
_cell_volume 612.782557
_symmetry_space_group_name_H-M "P -1"
_symmetry_group_IT_number 2
_symmetry_cell_setting 'triclinic'
loop_
_space_group_symop_operation_xyz
x,y,z
-x,-y,-z
loop_
_atom_site_type_symbol
_atom_site_label
_atom_site_fract_x
_atom_site_fract_y
_atom_site_fract_z
Si Si1 0.435712 0.167523 0.211642
Si Si2 0.851826 0.591266 0.026232
Si Si3 0.146257 0.675140 0.430543
Si Si4 0.273462 0.074505 0.283668
Si Si5 0.896209 0.668183 0.235122
Si Si6 0.154601 0.677464 0.657214
Si Si7 0.572041 0.561336 0.399512
Si Si8 0.191749 0.015959 0.886217
O O1 0.455200 0.114088 0.280142
O O2 0.572428 0.362348 0.239770
O O3 0.085950 0.329132 0.113911
O O4 0.639942 0.893980 0.218460
O O5 0.841038 0.852340 0.059570
O O6 0.494778 0.706776 0.945801
O O7 0.000000 0.500000 0.000000
O O8 0.500000 0.500000 0.500000
O O9 0.170719 0.640659 0.500922
O O10 0.008541 0.491013 0.373172
O O11 0.036471 0.983739 0.388358
O O12 0.991813 0.350906 0.248145
O O13 0.113460 0.954618 0.206610
O O14 0.483688 0.881025 0.378943
O O15 0.234425 0.613861 0.326513
O O16 0.783308 0.795070 0.150349
O O17 0.300388 0.556635 0.631315
#
# Coordination Sequence:
#
# PCOD9042090 Si02
#       8
#     2   2   2   2   2   2   2   2
#     4  12  24  46  73 109 146 202 253 316 384 464
#     4  11  22  43  73 102 150 190 259 317 390 456
#     4  12  28  50  78 118 156 197 259 319 380 460
#     4  11  24  47  72 107 153 197 256 311 387 455
#     4  11  23  45  72 104 149 195 253 306 386 451
#     4  12  26  49  77 110 156 207 252 313 390 456
#     4  11  25  47  75 108 150 200 248 315 376 456
#     4  10  23  44  69 103 146 201 243 326 382 462
#
# _framework density 26.110403000000002
#
# number of rings (size 3 to 8) (size 9 to 14) (size 15 to 20)
#    0.000    0.750    3.750    3.375    1.750    1.500 
#   15.750    1.250    0.000    0.000    0.000    0.000 
#    0.000    0.000    0.000    0.000    0.000    0.000 
#
# Total GULP energy -89387.184408 kJ/mol
# GULP energy per Si atom -5586.699026 kJ/mol
# Density = 2.605097 g / cm^3
# Si number density = 26.110403 Si / 1000 Ang^3
#
#
#
# Elastic Constant Matrix: (Units=GPa)
#
#
# Indices 1 2 3 4 5 6 
#
# 1 98.6460 40.9212 6.7417 5.3883 6.1943 -13.8221
# 2 40.9212 130.9069 26.1578 -12.9630 8.8283 -16.9403
# 3 6.7417 26.1578 101.4707 -8.6475 3.0548 12.3662
# 4 5.3883 -12.9630 -8.6475 41.2497 -4.7926 -2.3808
# 5 6.1943 8.8283 3.0548 -4.7926 44.1130 -1.3477
# 6 -13.8221 -16.9403 12.3662 -2.3808 -1.3477 52.6890
#
#
#
# Elastic Compliance Matrix: (Units=1/GPa)
#
#
# Indices 1 2 3 4 5 6 
#
# 1 0.012194 -0.003706 -0.000295 -0.002848 -0.001201 0.001917
# 2 -0.003706 0.010034 -0.002399 0.003201 -0.000884 0.002939
# 3 -0.000295 -0.002399 0.011028 0.001379 -0.000196 -0.003380
# 4 -0.002848 0.003201 0.001379 0.026277 0.002556 0.001211
# 5 -0.001201 -0.000884 -0.000196 0.002556 0.023311 0.000158
# 6 0.001917 0.002939 -0.003380 0.001211 0.000158 0.021279
#
#
# Mechanical properties :
#
#
# Convention : Reuss Voigt Hill
#
# Bulk Modulus (GPa) = 48.88447 53.18501 51.03474
# Shear Modulus (GPa) = 40.40664 44.75720 42.58192
#
# Velocity S-wave (km/s) = 3.93813 4.14472 4.04275
# Velocity P-wave (km/s) = 6.28024 6.58168 6.43272
#
# Compressibility (1/GPa) = 0.02045639
#
# Stress axis : x y z
#
# Youngs Moduli (GPa) = 82.00487 99.66316 90.67485
#
# Poissons Ratio (x) = 0.36934 0.02676
# Poissons Ratio (y) = 0.30390 0.21754
# Poissons Ratio (z) = 0.02420 0.23910
#
# Static dielectric constant tensor:
#      x y z
#    x 2.212790 0.085250 -0.102110 
#    y 0.085250 2.136310 -0.055250 
#    z -0.102110 -0.055250 2.174040 
# 
# From -- ./inp_files/616358.got.cif
#   From: 2010.05.17/outbox.cif.g08.bks.cpg/sg2_309_cif.got.tgz:616358.got - 2010.06.03 11:33:40.
