data_PCOD9042133
_publ_section_title
;
Structure prediction by ZEFSAII (Michael W. Deem and Ramdas Pophale) SiO2 
 PCOD9042133
Probable space group: P -1
;
_chemical_formula_sum "Si O2"
_cell_formula_units_Z 12
_cell_length_a 6.861591
_cell_length_b 8.827524
_cell_length_c 12.772216
_cell_angle_alpha 102.924897
_cell_angle_beta 52.918573
_cell_angle_gamma 74.856708
_cell_volume 517.644640
_symmetry_space_group_name_H-M "P -1"
_symmetry_group_IT_number 2
_symmetry_cell_setting 'triclinic'
loop_
_space_group_symop_operation_xyz
x,y,z
-x,-y,-z
loop_
_atom_site_type_symbol
_atom_site_label
_atom_site_fract_x
_atom_site_fract_y
_atom_site_fract_z
Si Si1 0.413244 0.039426 0.812272
Si Si2 0.501552 0.715940 0.042161
Si Si3 0.654244 0.651901 0.741321
Si Si4 0.444752 0.868464 0.426437
Si Si5 0.967309 0.337080 0.869300
Si Si6 0.264823 0.609639 0.504941
O O1 0.614524 0.043979 0.655964
O O2 0.102159 0.192680 0.897093
O O3 0.453676 0.844955 0.781424
O O4 0.487513 0.109696 0.902978
O O5 0.565117 0.665245 0.892142
O O6 0.746907 0.543961 0.998886
O O7 0.203175 0.728154 0.159028
O O8 0.652174 0.497422 0.649124
O O9 0.967970 0.625961 0.633491
O O10 0.244734 0.801473 0.525730
O O11 0.756421 0.688081 0.283070
O O12 0.500000 0.000000 0.500000
O O13 0.500000 0.500000 0.500000
#
# Coordination Sequence:
#
# PCOD9042133 Si02
#       6
#     2   2   2   2   2   2
#     4  10  24  42  65 102 130 174 223 273 334 389
#     4  11  22  42  69  97 138 171 223 274 331 403
#     4  11  26  42  68 104 132 179 221 274 340 391
#     4  10  23  44  69  94 130 176 224 275 323 393
#     4   9  24  40  65  98 131 174 226 265 339 384
#     4  11  25  45  68  95 141 178 221 274 336 401
#
# _framework density 23.181927999999999
#
# number of rings (size 3 to 8) (size 9 to 14) (size 15 to 20)
#    1.000    0.667    0.000    3.000    7.000    4.000 
#    0.000    0.000    0.000    0.000    0.000    0.000 
#    0.000    0.000    0.000    0.000    0.000    0.000 
#
# Total GULP energy -67040.986912 kJ/mol
# GULP energy per Si atom -5586.748909 kJ/mol
# Density = 2.312917 g / cm^3
# Si number density = 23.181928 Si / 1000 Ang^3
#
#
#
# Elastic Constant Matrix: (Units=GPa)
#
#
# Indices 1 2 3 4 5 6 
#
# 1 98.8068 24.5157 26.2441 2.1040 4.2962 2.9953
# 2 24.5157 98.5378 7.6592 5.5892 9.1012 -2.0827
# 3 26.2441 7.6592 35.4978 -4.3576 12.0459 -2.1291
# 4 2.1040 5.5892 -4.3576 31.3469 -0.5878 7.0430
# 5 4.2962 9.1012 12.0459 -0.5878 41.9655 6.7030
# 6 2.9953 -2.0827 -2.1291 7.0430 6.7030 40.2849
#
#
#
# Elastic Compliance Matrix: (Units=1/GPa)
#
#
# Indices 1 2 3 4 5 6 
#
# 1 0.013598 -0.002751 -0.010606 -0.001425 0.002530 -0.001886
# 2 -0.002751 0.011199 0.000301 -0.002177 -0.002520 0.001599
# 3 -0.010606 0.000301 0.040619 0.005219 -0.011189 0.003900
# 4 -0.001425 -0.002177 0.005219 0.034432 0.000535 -0.005840
# 5 0.002530 -0.002520 -0.011189 0.000535 0.028247 -0.005703
# 6 -0.001886 0.001599 0.003900 -0.005840 -0.005703 0.027222
#
#
# Mechanical properties :
#
#
# Convention : Reuss Voigt Hill
#
# Bulk Modulus (GPa) = 25.44306 38.85340 32.14823
# Shear Modulus (GPa) = 25.70281 34.34768 30.02525
#
# Velocity S-wave (km/s) = 3.33339 3.85341 3.60279
# Velocity P-wave (km/s) = 5.08080 6.04937 5.58612
#
# Compressibility (1/GPa) = 0.03930344
#
# Stress axis : x y z
#
# Youngs Moduli (GPa) = 73.53968 89.28971 24.61926
#
# Poissons Ratio (x) = 0.24567 0.26112
# Poissons Ratio (y) = 0.20234 -0.00742
# Poissons Ratio (z) = 0.77999 -0.02692
#
# Static dielectric constant tensor:
#      x y z
#    x 1.869720 -0.023190 -0.020660 
#    y -0.023190 1.855510 -0.001870 
#    z -0.020660 -0.001870 1.887340 
# 
# From -- ./inp_files/65071.got.cif
#   From: 2010.05.17/outbox.cif.g08.bks.cpg/sg2_33_cif.got.tgz:65071.got - 2010.06.03 11:33:40.
