data_PCOD9042877
_publ_section_title
;
Structure prediction by ZEFSAII (Michael W. Deem and Ramdas Pophale) SiO2 
 PCOD9042877
Probable space group: P -1
;
_chemical_formula_sum "Si O2"
_cell_formula_units_Z 14
_cell_length_a 14.326349
_cell_length_b 11.315161
_cell_length_c 11.857494
_cell_angle_alpha 63.659604
_cell_angle_beta 159.592533
_cell_angle_gamma 113.845167
_cell_volume 600.243298
_symmetry_space_group_name_H-M "P -1"
_symmetry_group_IT_number 2
_symmetry_cell_setting 'triclinic'
loop_
_space_group_symop_operation_xyz
x,y,z
-x,-y,-z
loop_
_atom_site_type_symbol
_atom_site_label
_atom_site_fract_x
_atom_site_fract_y
_atom_site_fract_z
Si Si1 0.488296 0.716158 0.509670
Si Si2 0.765733 0.529057 0.630987
Si Si3 0.515942 0.106972 0.374310
Si Si4 0.072943 0.906899 0.347161
Si Si5 0.085204 0.636980 0.599360
Si Si6 0.875429 0.801237 0.717600
Si Si7 0.630933 0.558293 0.239166
O O1 0.472450 0.558863 0.555859
O O2 0.526783 0.756570 0.665589
O O3 0.711627 0.777547 0.658069
O O4 0.192433 0.773486 0.112743
O O5 0.761908 0.687463 0.558743
O O6 0.806655 0.481734 0.566695
O O7 0.000000 0.500000 0.000000
O O8 0.790786 0.098106 0.620665
O O9 0.500000 0.000000 0.500000
O O10 0.248506 0.086844 0.009755
O O11 0.149512 0.764232 0.545295
O O12 0.166190 0.048920 0.435793
O O13 0.000000 0.500000 0.500000
O O14 0.829480 0.667132 0.374337
O O15 0.366160 0.600720 0.990485
O O16 0.500000 0.500000 0.000000
#
# Coordination Sequence:
#
# PCOD9042877 Si02
#       7
#     2   2   2   2   2   2   2
#     4  11  23  37  63  96 134 171 219 271 334 388
#     4  10  25  44  71 100 136 177 221 272 338 399
#     4  12  22  37  61  99 133 172 221 280 331 394
#     4  12  23  39  62  90 136 174 219 273 339 390
#     4  10  24  41  63  92 128 171 225 277 328 386
#     4  11  22  42  58  95 134 173 215 268 330 407
#     4  10  23  45  65  97 130 169 225 280 324 386
#
# _framework density 23.323875999999998
#
# number of rings (size 3 to 8) (size 9 to 14) (size 15 to 20)
#    0.000    1.143    2.857    2.571    8.000    4.571 
#    0.000    1.429    0.000    0.000    0.000    0.000 
#    0.000    0.000    0.000    0.000    0.000    0.000 
#
# Total GULP energy -77944.378323 kJ/mol
# GULP energy per Si atom -5567.455594 kJ/mol
# Density = 2.327079 g / cm^3
# Si number density = 23.323876 Si / 1000 Ang^3
#
#
#
# Elastic Constant Matrix: (Units=GPa)
#
#
# Indices 1 2 3 4 5 6 
#
# 1 81.4915 29.3846 27.5385 7.4499 4.7459 14.2286
# 2 29.3846 181.5088 17.2224 12.5672 -14.2777 11.5674
# 3 27.5385 17.2224 86.6231 9.8955 9.7715 10.5214
# 4 7.4499 12.5672 9.8955 29.6649 4.0858 -5.1745
# 5 4.7459 -14.2777 9.7715 4.0858 44.7562 7.9126
# 6 14.2286 11.5674 10.5214 -5.1745 7.9126 40.3879
#
#
#
# Elastic Compliance Matrix: (Units=1/GPa)
#
#
# Indices 1 2 3 4 5 6 
#
# 1 0.015080 -0.001689 -0.003624 -0.002531 -0.000385 -0.004134
# 2 -0.001689 0.006392 -0.000487 -0.002887 0.002952 -0.002057
# 3 -0.003624 -0.000487 0.013698 -0.003556 -0.002047 -0.002207
# 4 -0.002531 -0.002887 -0.003556 0.038937 -0.004952 0.008603
# 5 -0.000385 0.002952 -0.002047 -0.004952 0.025242 -0.005756
# 6 -0.004134 -0.002057 -0.002207 0.008603 -0.005756 0.029610
#
#
# Mechanical properties :
#
#
# Convention : Reuss Voigt Hill
#
# Bulk Modulus (GPa) = 42.42573 55.32382 48.87478
# Shear Modulus (GPa) = 33.68857 41.32701 37.50779
#
# Velocity S-wave (km/s) = 3.80462 4.21393 4.01450
# Velocity P-wave (km/s) = 6.12614 6.88822 6.51833
#
# Compressibility (1/GPa) = 0.02357060
#
# Stress axis : x y z
#
# Youngs Moduli (GPa) = 66.31098 156.44049 73.00133
#
# Poissons Ratio (x) = 0.26425 0.26454
# Poissons Ratio (y) = 0.11201 0.03557
# Poissons Ratio (z) = 0.24030 0.07623
#
# Static dielectric constant tensor:
#      x y z
#    x 1.915130 -0.043350 -0.045750 
#    y -0.043350 1.990930 -0.080930 
#    z -0.045750 -0.080930 1.966990 
# 
# From -- ./inp_files/67355.got.cif
#   From: 2010.05.17/outbox.cif.g08.bks.cpg/sg2_34_cif.got.tgz:67355.got - 2010.06.03 11:33:40.
