data_PCOD9042837
_publ_section_title
;
Structure prediction by ZEFSAII (Michael W. Deem and Ramdas Pophale) SiO2 
 PCOD9042837
Probable space group: P -1
;
_chemical_formula_sum "Si O2"
_cell_formula_units_Z 16
_cell_length_a 13.416041
_cell_length_b 7.253490
_cell_length_c 10.745804
_cell_angle_alpha 88.468246
_cell_angle_beta 129.652325
_cell_angle_gamma 64.604240
_cell_volume 655.984554
_symmetry_space_group_name_H-M "P -1"
_symmetry_group_IT_number 2
_symmetry_cell_setting 'triclinic'
loop_
_space_group_symop_operation_xyz
x,y,z
-x,-y,-z
loop_
_atom_site_type_symbol
_atom_site_label
_atom_site_fract_x
_atom_site_fract_y
_atom_site_fract_z
Si Si1 0.972967 0.808601 0.969121
Si Si2 0.308636 0.062758 0.426891
Si Si3 0.654403 0.285832 0.189360
Si Si4 0.883403 0.392794 0.314714
Si Si5 0.241865 0.175087 0.655401
Si Si6 0.411590 0.586039 0.581611
Si Si7 0.181106 0.373737 0.997685
Si Si8 0.644149 0.605104 0.699768
O O1 0.859969 0.871923 0.759924
O O2 0.891822 0.759491 0.016528
O O3 0.137718 0.560386 0.074955
O O4 0.000000 0.000000 0.000000
O O5 0.290063 0.141142 0.551063
O O6 0.348988 0.192056 0.365221
O O7 0.420787 0.786853 0.518732
O O8 0.807187 0.255348 0.248738
O O9 0.660780 0.330341 0.342117
O O10 0.660282 0.060251 0.189305
O O11 0.500000 0.500000 0.000000
O O12 0.765375 0.616264 0.298315
O O13 0.059278 0.252079 0.512223
O O14 0.887248 0.496644 0.185417
O O15 0.601792 0.428054 0.736947
O O16 0.330451 0.520552 0.420613
O O17 0.361477 0.273810 0.159433
#
# Coordination Sequence:
#
# PCOD9042837 Si02
#       8
#     2   2   2   2   2   2   2   2
#     4  11  24  41  64  95 130 167 213 275 333 390
#     4   9  18  40  65  89 126 169 212 266 329 388
#     4  11  23  42  69  99 132 175 222 278 327 383
#     4  11  24  44  66  94 135 179 224 268 320 403
#     4  10  23  45  64  95 129 180 225 265 331 390
#     4   8  18  36  63  98 127 167 211 266 328 389
#     4  11  24  42  63  96 130 169 218 272 329 388
#     4   9  18  38  65  91 133 162 213 270 326 390
#
# _framework density 24.390819
#
# number of rings (size 3 to 8) (size 9 to 14) (size 15 to 20)
#    0.750    1.250    1.250    1.875    0.000    3.000 
#   13.500    0.000    0.000    0.000    0.000    0.000 
#    0.000    0.000    0.000    0.000    0.000    0.000 
#
# Total GULP energy -89116.287079 kJ/mol
# GULP energy per Si atom -5569.767942 kJ/mol
# Density = 2.433530 g / cm^3
# Si number density = 24.390819 Si / 1000 Ang^3
#
#
#
# Elastic Constant Matrix: (Units=GPa)
#
#
# Indices 1 2 3 4 5 6 
#
# 1 44.8920 13.8169 15.1117 -4.2993 -1.1792 8.1049
# 2 13.8169 98.4796 40.1765 -8.7669 -5.8996 11.7352
# 3 15.1117 40.1765 89.2030 -16.5285 2.1294 2.1274
# 4 -4.2993 -8.7669 -16.5285 37.4000 1.3837 3.1494
# 5 -1.1792 -5.8996 2.1294 1.3837 36.7340 1.9765
# 6 8.1049 11.7352 2.1274 3.1494 1.9765 43.4278
#
#
#
# Elastic Compliance Matrix: (Units=1/GPa)
#
#
# Indices 1 2 3 4 5 6 
#
# 1 0.024721 -0.001492 -0.003177 0.001408 0.000911 -0.004198
# 2 -0.001492 0.013225 -0.005570 0.000641 0.002546 -0.003185
# 3 -0.003177 -0.005570 0.015216 0.005041 -0.002127 0.001084
# 4 0.001408 0.000641 0.005041 0.029553 -0.001108 -0.002776
# 5 0.000911 0.002546 -0.002127 -0.001108 0.027931 -0.001945
# 6 -0.004198 -0.003185 0.001084 -0.002776 -0.001945 0.024908
#
#
# Mechanical properties :
#
#
# Convention : Reuss Voigt Hill
#
# Bulk Modulus (GPa) = 30.59496 41.19831 35.89663
# Shear Modulus (GPa) = 29.95349 34.41033 32.18191
#
# Velocity S-wave (km/s) = 3.50818 3.76012 3.63633
# Velocity P-wave (km/s) = 5.38336 5.98155 5.69032
#
# Compressibility (1/GPa) = 0.03268512
#
# Stress axis : x y z
#
# Youngs Moduli (GPa) = 40.45134 75.61350 65.71968
#
# Poissons Ratio (x) = 0.11284 0.20876
# Poissons Ratio (y) = 0.06036 0.36604
# Poissons Ratio (z) = 0.12850 0.42115
#
# Static dielectric constant tensor:
#      x y z
#    x 2.014030 -0.080300 0.119970 
#    y -0.080300 1.977040 -0.043150 
#    z 0.119970 -0.043150 2.111550 
# 
# From -- ./inp_files/124214.got.cif
#   From: 2010.05.17/outbox.cif.g08.bks.cpg/sg2_63_cif.got.tgz:124214.got - 2010.06.03 11:33:40.
