data_PCOD9042908
_publ_section_title
;
Structure prediction by ZEFSAII (Michael W. Deem and Ramdas Pophale) SiO2 
 PCOD9042908
Probable space group: P -1
;
_chemical_formula_sum "Si O2"
_cell_formula_units_Z 15
_cell_length_a 11.960061
_cell_length_b 11.874047
_cell_length_c 7.589933
_cell_angle_alpha 53.480789
_cell_angle_beta 139.995676
_cell_angle_gamma 118.557579
_cell_volume 556.347487
_symmetry_space_group_name_H-M "P -1"
_symmetry_group_IT_number 2
_symmetry_cell_setting 'triclinic'
loop_
_space_group_symop_operation_xyz
x,y,z
-x,-y,-z
loop_
_atom_site_type_symbol
_atom_site_label
_atom_site_fract_x
_atom_site_fract_y
_atom_site_fract_z
Si Si1 0.448187 0.659765 0.616842
Si Si2 0.610798 0.648002 0.288133
Si Si3 0.182406 0.287690 0.869317
Si Si4 0.321368 0.910840 0.403331
Si Si5 0.140646 0.713998 0.951541
Si Si6 0.000000 0.000000 0.000000
Si Si7 0.856390 0.567298 0.977958
Si Si8 0.645845 0.102688 0.165879
O O1 0.462247 0.492917 0.769978
O O2 0.634263 0.737418 0.785806
O O3 0.345947 0.746177 0.560485
O O4 0.333368 0.694252 0.279744
O O5 0.693523 0.606206 0.616111
O O6 0.759797 0.697773 0.278825
O O7 0.468816 0.764297 0.038568
O O8 0.044533 0.166580 0.861505
O O9 0.142886 0.419547 0.823405
O O10 0.273011 0.955156 0.502552
O O11 0.500000 0.000000 0.500000
O O12 0.149756 0.961637 0.057934
O O13 0.108178 0.592235 0.880750
O O14 0.182714 0.860934 0.774723
O O15 0.005313 0.671615 0.978221
O O16 0.500000 0.000000 0.000000
#
# Coordination Sequence:
#
# PCOD9042908 Si02
#       8
#     2   2   2   2   2   1   2   2
#     4  11  22  45  75 102 145 191 241 315 362 440
#     4  11  25  45  74 113 138 193 255 300 379 442
#     4  12  24  44  73 100 147 190 248 306 367 436
#     4  12  25  47  71 105 148 191 246 301 374 441
#     4  10  23  45  66 106 144 186 245 295 377 442
#     4  12  28  44  68 108 140 200 244 294 374 442
#     4  10  24  44  71 101 149 190 234 317 364 433
#     4  12  26  43  72 102 143 192 245 304 368 450
#
# _framework density 26.961566000000001
#
# number of rings (size 3 to 8) (size 9 to 14) (size 15 to 20)
#    0.000    0.800    2.667    3.600    5.600    3.200 
#    0.000    4.000    0.000    0.000    0.000    0.000 
#    0.000    0.000    0.000    0.000    0.000    0.000 
#
# Total GULP energy -83506.477041 kJ/mol
# GULP energy per Si atom -5567.098469 kJ/mol
# Density = 2.690020 g / cm^3
# Si number density = 26.961566 Si / 1000 Ang^3
#
#
#
# Elastic Constant Matrix: (Units=GPa)
#
#
# Indices 1 2 3 4 5 6 
#
# 1 116.9269 33.1073 4.3454 8.5143 8.1132 5.1551
# 2 33.1073 131.9329 19.4639 5.4781 3.8862 -0.3324
# 3 4.3454 19.4639 53.5669 11.3531 13.2799 -8.6108
# 4 8.5143 5.4781 11.3531 33.7368 2.4201 14.0955
# 5 8.1132 3.8862 13.2799 2.4201 36.1068 7.7627
# 6 5.1551 -0.3324 -8.6108 14.0955 7.7627 63.0478
#
#
#
# Elastic Compliance Matrix: (Units=1/GPa)
#
#
# Indices 1 2 3 4 5 6 
#
# 1 0.009499 -0.002394 0.001152 -0.002303 -0.002179 0.000151
# 2 -0.002394 0.008625 -0.003319 0.000432 0.000891 -0.000418
# 3 0.001152 -0.003319 0.025666 -0.010590 -0.010138 0.007010
# 4 -0.002303 0.000432 -0.010590 0.037679 0.004028 -0.010175
# 5 -0.002179 0.000891 -0.010138 0.004028 0.032870 -0.006150
# 6 0.000151 -0.000418 0.007010 -0.010175 -0.006150 0.019836
#
#
# Mechanical properties :
#
#
# Convention : Reuss Voigt Hill
#
# Bulk Modulus (GPa) = 28.84566 46.25109 37.54837
# Shear Modulus (GPa) = 32.28872 42.94561 37.61717
#
# Velocity S-wave (km/s) = 3.46437 3.99538 3.73931
# Velocity P-wave (km/s) = 5.16957 6.20288 5.70965
#
# Compressibility (1/GPa) = 0.03466726
#
# Stress axis : x y z
#
# Youngs Moduli (GPa) = 105.26890 115.94588 38.96260
#
# Poissons Ratio (x) = 0.27752 -0.04487
# Poissons Ratio (y) = 0.25196 0.12933
# Poissons Ratio (z) = -0.12123 0.38487
#
# Static dielectric constant tensor:
#      x y z
#    x 2.533510 -0.083160 0.187720 
#    y -0.083160 2.142160 -0.223650 
#    z 0.187720 -0.223650 2.083000 
# 
# From -- ./inp_files/257280.got.cif
#   From: 2010.05.17/outbox.cif.g08.bks.cpg/sg2_129_cif.got.tgz:257280.got - 2010.06.03 11:33:40.
