data_PCOD9042169
_publ_section_title
;
Structure prediction by ZEFSAII (Michael W. Deem and Ramdas Pophale) SiO2 
 PCOD9042169
Probable space group: P -1
;
_chemical_formula_sum "Si O2"
_cell_formula_units_Z 14
_cell_length_a 22.189344
_cell_length_b 14.219349
_cell_length_c 11.839544
_cell_angle_alpha 149.809761
_cell_angle_beta 148.281590
_cell_angle_gamma 20.510261
_cell_volume 640.054656
_symmetry_space_group_name_H-M "P -1"
_symmetry_group_IT_number 2
_symmetry_cell_setting 'triclinic'
loop_
_space_group_symop_operation_xyz
x,y,z
-x,-y,-z
loop_
_atom_site_type_symbol
_atom_site_label
_atom_site_fract_x
_atom_site_fract_y
_atom_site_fract_z
Si Si1 0.194736 0.071958 0.624831
Si Si2 0.065558 0.639216 0.952306
Si Si3 0.553991 0.771032 0.935281
Si Si4 0.458145 0.337343 0.738207
Si Si5 0.022023 0.192434 0.257644
Si Si6 0.358060 0.211535 0.657176
Si Si7 0.065388 0.878858 0.604525
O O1 0.121974 0.375825 0.826575
O O2 0.182129 0.034043 0.432703
O O3 0.065939 0.104114 0.526668
O O4 0.396148 0.819209 0.726219
O O5 0.977231 0.715990 0.769158
O O6 0.247359 0.525940 0.094335
O O7 0.948742 0.913027 0.129584
O O8 0.567751 0.838301 0.152129
O O9 0.500000 0.000000 0.000000
O O10 0.444238 0.243965 0.737226
O O11 0.267089 0.560518 0.604492
O O12 0.597892 0.050922 0.587483
O O13 0.500000 0.500000 0.000000
O O14 0.847775 0.479710 0.343237
O O15 0.000000 0.000000 0.000000
O O16 0.000000 0.000000 0.500000
#
# Coordination Sequence:
#
# PCOD9042169 Si02
#       7
#     2   2   2   2   2   2   2
#     4  11  23  43  70  97 135 179 220 284 348 400
#     4  10  23  44  69  98 136 174 224 282 349 404
#     4   9  22  43  67 103 130 176 220 277 350 402
#     4  11  26  46  68  96 134 190 232 273 336 403
#     4  11  20  44  69 102 133 171 228 288 339 410
#     4  10  23  46  68  96 141 172 229 282 332 412
#     4  12  28  45  65 103 137 179 238 281 331 415
#
# _framework density 21.873131000000001
#
# number of rings (size 3 to 8) (size 9 to 14) (size 15 to 20)
#    0.000    1.429    2.857    0.429    8.000    1.143 
#    7.714    0.000    0.000    0.000    0.000    0.000 
#    0.000    0.000    0.000    0.000    0.000    0.000 
#
# Total GULP energy -78325.542737 kJ/mol
# GULP energy per Si atom -5594.681624 kJ/mol
# Density = 2.182335 g / cm^3
# Si number density = 21.873131 Si / 1000 Ang^3
#
#
#
# Elastic Constant Matrix: (Units=GPa)
#
#
# Indices 1 2 3 4 5 6 
#
# 1 88.5846 38.9837 29.2997 -7.4193 -10.3542 10.1253
# 2 38.9837 90.2839 43.7345 4.4585 -7.3556 -3.9616
# 3 29.2997 43.7345 100.0964 5.3802 1.9483 -11.4504
# 4 -7.4193 4.4585 5.3802 52.7249 2.9721 -8.4308
# 5 -10.3542 -7.3556 1.9483 2.9721 47.2595 -1.4980
# 6 10.1253 -3.9616 -11.4504 -8.4308 -1.4980 34.1876
#
#
#
# Elastic Compliance Matrix: (Units=1/GPa)
#
#
# Indices 1 2 3 4 5 6 
#
# 1 0.015823 -0.005514 -0.003033 0.001945 0.002429 -0.005755
# 2 -0.005514 0.016295 -0.005292 -0.001476 0.001685 0.001459
# 3 -0.003033 -0.005292 0.013792 -0.000531 -0.001875 0.004691
# 4 0.001945 -0.001476 -0.000531 0.020109 -0.000920 0.003994
# 5 0.002429 0.001685 -0.001875 -0.000920 0.022076 -0.000411
# 6 -0.005755 0.001459 0.004691 0.003994 -0.000411 0.033662
#
#
# Mechanical properties :
#
#
# Convention : Reuss Voigt Hill
#
# Bulk Modulus (GPa) = 54.84766 55.88898 55.36832
# Shear Modulus (GPa) = 32.15191 37.96421 35.05806
#
# Velocity S-wave (km/s) = 3.83812 4.17064 4.00783
# Velocity P-wave (km/s) = 6.69114 6.98564 6.83998
#
# Compressibility (1/GPa) = 0.01823232
#
# Stress axis : x y z
#
# Youngs Moduli (GPa) = 63.20021 61.36948 72.50577
#
# Poissons Ratio (x) = 0.33838 0.21988
# Poissons Ratio (y) = 0.34847 0.38372
# Poissons Ratio (z) = 0.19166 0.32478
#
# Static dielectric constant tensor:
#      x y z
#    x 1.781280 -0.011380 0.030540 
#    y -0.011380 1.826910 -0.012010 
#    z 0.030540 -0.012010 1.728190 
# 
# From -- ./inp_files/277950.got.cif
#   From: 2010.05.17/outbox.cif.g08.bks.cpg/sg2_139_cif.got.tgz:277950.got - 2010.06.03 11:33:40.
