data_PCOD9042131
_publ_section_title
;
Structure prediction by ZEFSAII (Michael W. Deem and Ramdas Pophale) SiO2 
 PCOD9042131
Probable space group: P -1
;
_chemical_formula_sum "Si O2"
_cell_formula_units_Z 16
_cell_length_a 9.892643
_cell_length_b 11.578552
_cell_length_c 8.794248
_cell_angle_alpha 63.526766
_cell_angle_beta 52.337177
_cell_angle_gamma 52.665383
_cell_volume 629.483449
_symmetry_space_group_name_H-M "P -1"
_symmetry_group_IT_number 2
_symmetry_cell_setting 'triclinic'
loop_
_space_group_symop_operation_xyz
x,y,z
-x,-y,-z
loop_
_atom_site_type_symbol
_atom_site_label
_atom_site_fract_x
_atom_site_fract_y
_atom_site_fract_z
Si Si1 0.831334 0.710517 0.929640
Si Si2 0.453819 0.851490 0.930051
Si Si3 0.792233 0.202479 0.114234
Si Si4 0.592189 0.840862 0.306327
Si Si5 0.516279 0.391733 0.417487
Si Si6 0.083023 0.018412 0.273716
Si Si7 0.941270 0.727152 0.327276
Si Si8 0.073514 0.548273 0.610855
O O1 0.655101 0.730029 0.929629
O O2 0.869167 0.848988 0.814249
O O3 0.024148 0.582496 0.801516
O O4 0.750663 0.728373 0.144463
O O5 0.370751 0.818764 0.852609
O O6 0.477407 0.997678 0.803454
O O7 0.284428 0.887868 0.149984
O O8 0.681945 0.350532 0.203080
O O9 0.927369 0.071322 0.211526
O O10 0.933339 0.217284 0.885974
O O11 0.450460 0.770491 0.461976
O O12 0.716560 0.824455 0.381850
O O13 0.500000 0.500000 0.500000
O O14 0.298528 0.470400 0.457817
O O15 0.000000 0.000000 0.500000
O O16 0.977193 0.701992 0.496079
O O17 0.004247 0.562368 0.323146
#
# Coordination Sequence:
#
# PCOD9042131 Si02
#       8
#     2   2   2   2   2   2   2   2
#     4  11  24  44  73  98 138 191 226 285 350 409
#     4  11  26  44  69 108 139 182 231 285 354 418
#     4  12  26  44  72 106 140 185 226 297 350 403
#     4  10  23  45  69  96 142 182 232 279 347 427
#     4  11  27  44  70 103 136 183 243 285 344 413
#     4  11  25  45  69 103 143 182 229 283 349 422
#     4  10  23  44  69  93 140 177 238 277 352 401
#     4  10  25  45  68  97 135 185 233 287 342 409
#
# _framework density 25.417666000000001
#
# number of rings (size 3 to 8) (size 9 to 14) (size 15 to 20)
#    0.000    1.250    2.500    2.625   12.250    3.000 
#    0.000    0.000    0.000    0.000    0.000    0.000 
#    0.000    0.000    0.000    0.000    0.000    0.000 
#
# Total GULP energy -89540.402943 kJ/mol
# GULP energy per Si atom -5596.275184 kJ/mol
# Density = 2.535981 g / cm^3
# Si number density = 25.417666 Si / 1000 Ang^3
#
#
#
# Elastic Constant Matrix: (Units=GPa)
#
#
# Indices 1 2 3 4 5 6 
#
# 1 113.4658 17.5963 13.5090 -6.0106 3.7529 7.1536
# 2 17.5963 58.7095 11.8354 19.2259 -2.5156 -0.2794
# 3 13.5090 11.8354 116.3399 0.4482 -0.0325 0.6104
# 4 -6.0106 19.2259 0.4482 42.3843 -3.7886 4.2764
# 5 3.7529 -2.5156 -0.0325 -3.7886 32.5467 -0.2264
# 6 7.1536 -0.2794 0.6104 4.2764 -0.2264 38.3481
#
#
#
# Elastic Compliance Matrix: (Units=1/GPa)
#
#
# Indices 1 2 3 4 5 6 
#
# 1 0.009868 -0.003955 -0.000745 0.003331 -0.001072 -0.002236
# 2 -0.003955 0.022132 -0.001762 -0.010713 0.000933 0.002127
# 3 -0.000745 -0.001762 0.008859 0.000611 0.000029 -0.000083
# 4 0.003331 -0.010713 0.000611 0.029518 0.002197 -0.003988
# 5 -0.001072 0.000933 0.000029 0.002197 0.031178 0.000145
# 6 -0.002236 0.002127 -0.000083 -0.003988 0.000145 0.026956
#
#
# Mechanical properties :
#
#
# Convention : Reuss Voigt Hill
#
# Bulk Modulus (GPa) = 35.79635 41.59962 38.69798
# Shear Modulus (GPa) = 33.16842 39.02747 36.09794
#
# Velocity S-wave (km/s) = 3.61631 3.92273 3.77263
# Velocity P-wave (km/s) = 5.61700 6.07610 5.85106
#
# Compressibility (1/GPa) = 0.02793581
#
# Stress axis : x y z
#
# Youngs Moduli (GPa) = 101.33672 45.18402 112.87535
#
# Poissons Ratio (x) = 0.17870 0.08408
# Poissons Ratio (y) = 0.40077 0.19887
# Poissons Ratio (z) = 0.07549 0.07961
#
# Static dielectric constant tensor:
#      x y z
#    x 2.055720 -0.007930 0.011880 
#    y -0.007930 2.006120 -0.024210 
#    z 0.011880 -0.024210 2.028320 
# 
# From -- ./inp_files/185715.got.cif
#   From: 2010.05.17/outbox.cif.g08.bks.cpg/sg2_93_cif.got.tgz:185715.got - 2010.06.03 11:33:40.
