data_PCOD9042514
_publ_section_title
;
Structure prediction by ZEFSAII (Michael W. Deem and Ramdas Pophale) SiO2 
 PCOD9042514
Probable space group: P -1
;
_chemical_formula_sum "Si O2"
_cell_formula_units_Z 16
_cell_length_a 13.210556
_cell_length_b 11.111124
_cell_length_c 8.603634
_cell_angle_alpha 87.280391
_cell_angle_beta 146.073908
_cell_angle_gamma 79.005564
_cell_volume 641.289386
_symmetry_space_group_name_H-M "P -1"
_symmetry_group_IT_number 2
_symmetry_cell_setting 'triclinic'
loop_
_space_group_symop_operation_xyz
x,y,z
-x,-y,-z
loop_
_atom_site_type_symbol
_atom_site_label
_atom_site_fract_x
_atom_site_fract_y
_atom_site_fract_z
Si Si1 0.674781 0.034048 0.985972
Si Si2 0.334017 0.560644 0.152642
Si Si3 0.391427 0.798435 0.822016
Si Si4 0.712723 0.997035 0.571516
Si Si5 0.853779 0.143700 0.967838
Si Si6 0.809440 0.749171 0.326035
Si Si7 0.044216 0.454399 0.236406
Si Si8 0.785887 0.397342 0.335566
O O1 0.603552 0.163263 0.994811
O O2 0.850290 0.039881 0.102272
O O3 0.756251 0.898621 0.197051
O O4 0.474871 0.039688 0.644258
O O5 0.500000 0.500000 0.500000
O O6 0.229201 0.714945 0.063525
O O7 0.177132 0.495665 0.979473
O O8 0.369745 0.552087 0.011834
O O9 0.261136 0.717321 0.639988
O O10 0.309339 0.940322 0.629484
O O11 0.612860 0.726270 0.041357
O O12 0.942334 0.890114 0.867003
O O13 0.703574 0.118851 0.659366
O O14 0.856776 0.699143 0.568387
O O15 0.002588 0.662443 0.480048
O O16 0.180599 0.514480 0.493212
O O17 0.000000 0.500000 0.000000
#
# Coordination Sequence:
#
# PCOD9042514 Si02
#       8
#     2   2   2   2   2   2   2   2
#     4  11  23  42  71 108 138 188 232 294 370 429
#     4  11  26  47  73 107 146 194 248 302 360 439
#     4  11  24  40  73 106 138 189 237 293 364 438
#     4  10  24  41  66 107 146 186 237 295 365 439
#     4  11  24  44  69 101 150 188 236 299 367 434
#     4  10  23  44  72 103 143 183 234 301 352 438
#     4  11  28  49  73 103 142 194 243 305 363 427
#     4  11  25  49  72 102 144 193 246 292 367 427
#
# _framework density 24.949733999999999
#
# number of rings (size 3 to 8) (size 9 to 14) (size 15 to 20)
#    0.000    1.250    1.250    4.125   10.500    5.500 
#    0.000    0.000    0.000    0.000    0.000    0.000 
#    0.000    0.000    0.000    0.000    0.000    0.000 
#
# Total GULP energy -89264.568809 kJ/mol
# GULP energy per Si atom -5579.035551 kJ/mol
# Density = 2.489295 g / cm^3
# Si number density = 24.949734 Si / 1000 Ang^3
#
#
#
# Elastic Constant Matrix: (Units=GPa)
#
#
# Indices 1 2 3 4 5 6 
#
# 1 83.8347 23.4797 26.8347 -2.0544 1.0168 13.7618
# 2 23.4797 89.3043 39.6813 23.0885 -7.6893 -4.8149
# 3 26.8347 39.6813 115.3828 7.6365 2.8565 -2.0169
# 4 -2.0544 23.0885 7.6365 47.7907 5.3338 -10.8346
# 5 1.0168 -7.6893 2.8565 5.3338 41.5528 6.8998
# 6 13.7618 -4.8149 -2.0169 -10.8346 6.8998 29.6208
#
#
#
# Elastic Compliance Matrix: (Units=1/GPa)
#
#
# Indices 1 2 3 4 5 6 
#
# 1 0.014919 -0.003455 -0.002483 0.001012 0.000257 -0.007352
# 2 -0.003455 0.016518 -0.004464 -0.007899 0.004452 0.000060
# 3 -0.002483 -0.004464 0.010797 0.000994 -0.001965 0.001984
# 4 0.001012 -0.007899 0.000994 0.027648 -0.006764 0.010002
# 5 0.000257 0.004452 -0.001965 -0.006764 0.027274 -0.008357
# 6 -0.007352 0.000060 0.001984 0.010002 -0.008357 0.042926
#
#
# Mechanical properties :
#
#
# Convention : Reuss Voigt Hill
#
# Bulk Modulus (GPa) = 46.66257 52.05700 49.35979
# Shear Modulus (GPa) = 29.75658 37.02795 33.39227
#
# Velocity S-wave (km/s) = 3.45724 3.85658 3.66236
# Velocity P-wave (km/s) = 5.88896 6.38287 6.14088
#
# Compressibility (1/GPa) = 0.02143045
#
# Stress axis : x y z
#
# Youngs Moduli (GPa) = 67.02704 60.53989 92.61804
#
# Poissons Ratio (x) = 0.20916 0.23002
# Poissons Ratio (y) = 0.23157 0.41341
# Poissons Ratio (z) = 0.16646 0.27023
#
# Static dielectric constant tensor:
#      x y z
#    x 2.034130 -0.032040 -0.045100 
#    y -0.032040 1.991900 -0.038230 
#    z -0.045100 -0.038230 2.081030 
# 
# From -- ./inp_files/307441.got.cif
#   From: 2010.05.17/outbox.cif.g08.bks.cpg/sg2_154_cif.got.tgz:307441.got - 2010.06.03 11:33:40.
