data_PCOD9042655
_publ_section_title
;
Structure prediction by ZEFSAII (Michael W. Deem and Ramdas Pophale) SiO2 
 PCOD9042655
Probable space group: P -1
;
_chemical_formula_sum "Si O2"
_cell_formula_units_Z 10
_cell_length_a 5.912761
_cell_length_b 10.997449
_cell_length_c 9.391893
_cell_angle_alpha 114.567785
_cell_angle_beta 96.118949
_cell_angle_gamma 127.468999
_cell_volume 382.260666
_symmetry_space_group_name_H-M "P -1"
_symmetry_group_IT_number 2
_symmetry_cell_setting 'triclinic'
loop_
_space_group_symop_operation_xyz
x,y,z
-x,-y,-z
loop_
_atom_site_type_symbol
_atom_site_label
_atom_site_fract_x
_atom_site_fract_y
_atom_site_fract_z
Si Si1 0.970972 0.068715 0.886816
Si Si2 0.376618 0.653919 0.562292
Si Si3 0.022704 0.663005 0.127577
Si Si4 0.660211 0.589222 0.347146
Si Si5 0.233232 0.016242 0.632715
O O1 0.009356 0.244052 0.958999
O O2 0.225349 0.104651 0.815503
O O3 0.609601 0.878510 0.708969
O O4 0.000000 0.000000 0.000000
O O5 0.428570 0.614429 0.389357
O O6 0.489202 0.594497 0.661205
O O7 0.000000 0.500000 0.500000
O O8 0.386142 0.843052 0.306026
O O9 0.755480 0.588833 0.194150
O O10 0.000000 0.500000 0.000000
O O11 0.012681 0.790636 0.531564
O O12 0.000000 0.000000 0.500000
#
# Coordination Sequence:
#
# PCOD9042655 Si02
#       5
#     2   2   2   2   2
#     4  11  27  49  74 110 157 198 254 319 388 451
#     4  10  23  44  79 107 144 197 254 318 373 451
#     4  12  28  47  78 112 156 205 252 317 385 453
#     4  10  23  44  73 112 143 193 260 305 373 458
#     4  11  24  46  79 109 147 203 261 312 376 456
#
# _framework density 26.160159
#
# number of rings (size 3 to 8) (size 9 to 14) (size 15 to 20)
#    0.000    1.200    2.000    1.800    8.400    3.200 
#    7.200    0.000    0.000    0.000    0.000    0.000 
#    0.000    0.000    0.000    0.000    0.000    0.000 
#
# Total GULP energy -55953.430227 kJ/mol
# GULP energy per Si atom -5595.343023 kJ/mol
# Density = 2.610062 g / cm^3
# Si number density = 26.160159 Si / 1000 Ang^3
#
#
#
# Elastic Constant Matrix: (Units=GPa)
#
#
# Indices 1 2 3 4 5 6 
#
# 1 112.6737 81.3859 62.4165 -7.9597 -10.1984 14.9681
# 2 81.3859 169.1117 60.0112 3.2102 -22.5769 -12.6812
# 3 62.4165 60.0112 105.5289 1.8000 -21.0941 -5.1162
# 4 -7.9597 3.2102 1.8000 72.0183 -1.6914 4.0684
# 5 -10.1984 -22.5769 -21.0941 -1.6914 46.2983 7.1925
# 6 14.9681 -12.6812 -5.1162 4.0684 7.1925 82.8632
#
#
#
# Elastic Compliance Matrix: (Units=1/GPa)
#
#
# Indices 1 2 3 4 5 6 
#
# 1 0.019043 -0.007036 -0.007948 0.002852 -0.001980 -0.004976
# 2 -0.007036 0.010208 -0.000990 -0.001296 0.002523 0.002617
# 3 -0.007948 -0.000990 0.015776 -0.001229 0.004611 0.001918
# 4 0.002852 -0.001296 -0.001229 0.014379 0.000196 -0.001512
# 5 -0.001980 0.002523 0.004611 0.000196 0.024676 -0.001123
# 6 -0.004976 0.002617 0.001918 -0.001512 -0.001123 0.013657
#
#
# Mechanical properties :
#
#
# Convention : Reuss Voigt Hill
#
# Bulk Modulus (GPa) = 76.45852 88.32683 82.39268
# Shear Modulus (GPa) = 37.29992 52.46932 44.88462
#
# Velocity S-wave (km/s) = 3.78011 4.48336 4.14667
# Velocity P-wave (km/s) = 6.95290 7.78703 7.38176
#
# Compressibility (1/GPa) = 0.01307899
#
# Stress axis : x y z
#
# Youngs Moduli (GPa) = 52.51171 97.95811 63.38742
#
# Poissons Ratio (x) = 0.68922 0.50381
# Poissons Ratio (y) = 0.36946 0.06278
# Poissons Ratio (z) = 0.41737 0.09703
#
# Static dielectric constant tensor:
#      x y z
#    x 2.331870 -0.119860 0.079340 
#    y -0.119860 2.052690 -0.031390 
#    z 0.079340 -0.031390 2.148310 
# 
# From -- ./inp_files/65326.got.cif
#   From: 2010.05.17/outbox.cif.g08.bks.cpg/sg2_33_cif.got.tgz:65326.got - 2010.06.03 11:33:40.
