data_PCOD9042289
_publ_section_title
;
Structure prediction by ZEFSAII (Michael W. Deem and Ramdas Pophale) SiO2 
 PCOD9042289
Probable space group: P -1
;
_chemical_formula_sum "Si O2"
_cell_formula_units_Z 14
_cell_length_a 21.087665
_cell_length_b 8.932266
_cell_length_c 7.024161
_cell_angle_alpha 51.944771
_cell_angle_beta 129.235035
_cell_angle_gamma 145.680414
_cell_volume 564.236443
_symmetry_space_group_name_H-M "P -1"
_symmetry_group_IT_number 2
_symmetry_cell_setting 'triclinic'
loop_
_space_group_symop_operation_xyz
x,y,z
-x,-y,-z
loop_
_atom_site_type_symbol
_atom_site_label
_atom_site_fract_x
_atom_site_fract_y
_atom_site_fract_z
Si Si1 0.465435 0.588744 0.589874
Si Si2 0.872223 0.146687 0.232078
Si Si3 0.721236 0.250975 0.925342
Si Si4 0.198109 0.221932 0.307190
Si Si5 0.531139 0.289008 0.052368
Si Si6 0.679178 0.200144 0.431277
Si Si7 0.120400 0.754122 0.273349
O O1 0.335017 0.394918 0.419185
O O2 0.458579 0.637984 0.761581
O O3 0.560149 0.882209 0.446431
O O4 0.516039 0.460700 0.780602
O O5 0.997037 0.442076 0.292320
O O6 0.847422 0.902400 0.468973
O O7 0.775910 0.133655 0.139681
O O8 0.861802 0.141818 0.989890
O O9 0.803860 0.558075 0.912574
O O10 0.707427 0.264564 0.660748
O O11 0.591974 0.028342 0.942980
O O12 0.128962 0.955356 0.259244
O O13 0.642798 0.345984 0.171143
O O14 0.780833 0.241414 0.502556
#
# Coordination Sequence:
#
# PCOD9042289 Si02
#       7
#     2   2   2   2   2   2   2
#     4  10  19  31  63  93 118 162 208 239 308 363
#     4  10  23  47  63  85 127 164 203 257 304 363
#     4  10  19  35  65  93 119 161 209 249 302 362
#     4  12  21  40  68  93 118 163 209 254 303 360
#     4  10  17  33  58  95 121 162 201 243 305 371
#     4  10  19  37  57  88 131 159 194 252 304 369
#     4  10  25  42  63  92 125 162 204 254 310 359
#
# _framework density 24.812291999999999
#
# number of rings (size 3 to 8) (size 9 to 14) (size 15 to 20)
#    0.000    1.714    4.286    1.286    2.000    1.143 
#    0.000   12.857    0.000    0.000    0.000    0.000 
#    0.000    0.000    0.000    0.000    0.000    0.000 
#
# Total GULP energy -78471.006809 kJ/mol
# GULP energy per Si atom -5605.071915 kJ/mol
# Density = 2.475582 g / cm^3
# Si number density = 24.812292 Si / 1000 Ang^3
#
#
#
# Elastic Constant Matrix: (Units=GPa)
#
#
# Indices 1 2 3 4 5 6 
#
# 1 46.8454 10.1131 6.1928 1.5711 -17.3721 -10.8723
# 2 10.1131 58.2130 16.7823 -13.2387 -5.5157 -5.0483
# 3 6.1928 16.7823 51.9726 -19.3677 -4.6532 -7.0075
# 4 1.5711 -13.2387 -19.3677 30.5677 -3.9429 12.6463
# 5 -17.3721 -5.5157 -4.6532 -3.9429 27.5715 -3.0433
# 6 -10.8723 -5.0483 -7.0075 12.6463 -3.0433 29.0927
#
#
#
# Elastic Compliance Matrix: (Units=1/GPa)
#
#
# Indices 1 2 3 4 5 6 
#
# 1 0.035099 -0.004066 -0.002071 -0.009699 0.021595 0.018388
# 2 -0.004066 0.020698 -0.003230 0.008243 0.001983 -0.002082
# 3 -0.002071 -0.003230 0.027176 0.017303 0.004911 -0.001796
# 4 -0.009699 0.008243 0.017303 0.057659 0.004204 -0.022651
# 5 0.021595 0.001983 0.004911 0.004204 0.053174 0.013332
# 6 0.018388 -0.002082 -0.001796 -0.022651 0.013332 0.051691
#
#
# Mechanical properties :
#
#
# Convention : Reuss Voigt Hill
#
# Bulk Modulus (GPa) = 15.56671 24.80084 20.18378
# Shear Modulus (GPa) = 17.50423 25.70923 21.60673
#
# Velocity S-wave (km/s) = 2.65894 3.22242 2.95415
# Velocity P-wave (km/s) = 3.96409 4.88492 4.44840
#
# Compressibility (1/GPa) = 0.06423965
#
# Stress axis : x y z
#
# Youngs Moduli (GPa) = 28.49050 48.31406 36.79681
#
# Poissons Ratio (x) = 0.19642 0.07621
# Poissons Ratio (y) = 0.11583 0.11886
# Poissons Ratio (z) = 0.05901 0.15607
#
# Static dielectric constant tensor:
#      x y z
#    x 1.980210 -0.050450 -0.049230 
#    y -0.050450 1.895800 0.037270 
#    z -0.049230 0.037270 1.985010 
# 
# From -- ./inp_files/236827.got.cif
#   From: 2010.05.17/outbox.cif.g08.bks.cpg/sg2_119_cif.got.tgz:236827.got - 2010.06.03 11:33:40.
