data_PCOD9042041
_publ_section_title
;
Structure prediction by ZEFSAII (Michael W. Deem and Ramdas Pophale) SiO2 
 PCOD9042041
Probable space group: P -1
;
_chemical_formula_sum "Si O2"
_cell_formula_units_Z 14
_cell_length_a 11.629064
_cell_length_b 18.619393
_cell_length_c 17.519538
_cell_angle_alpha 158.998097
_cell_angle_beta 150.201130
_cell_angle_gamma 25.898493
_cell_volume 584.274956
_symmetry_space_group_name_H-M "P -1"
_symmetry_group_IT_number 2
_symmetry_cell_setting 'triclinic'
loop_
_space_group_symop_operation_xyz
x,y,z
-x,-y,-z
loop_
_atom_site_type_symbol
_atom_site_label
_atom_site_fract_x
_atom_site_fract_y
_atom_site_fract_z
Si Si1 0.953303 0.126751 0.018020
Si Si2 0.179009 0.144377 0.454490
Si Si3 0.183018 0.245777 0.018046
Si Si4 0.942187 0.955320 0.546663
Si Si5 0.331539 0.520697 0.264064
Si Si6 0.609151 0.465479 0.858171
Si Si7 0.778275 0.653526 0.691699
O O1 0.669830 0.363485 0.095921
O O2 0.176895 0.193136 0.192069
O O3 0.924366 0.979669 0.787156
O O4 0.000000 0.000000 0.000000
O O5 0.053014 0.407071 0.614712
O O6 0.500000 0.000000 0.500000
O O7 0.074170 0.139881 0.474644
O O8 0.331226 0.338481 0.141860
O O9 0.275116 0.220246 0.132144
O O10 0.162554 0.035804 0.761244
O O11 0.861930 0.433601 0.020052
O O12 0.672796 0.200254 0.620482
O O13 0.047976 0.757818 0.348412
O O14 0.369537 0.444701 0.123515
O O15 0.561381 0.579701 0.474339
#
# Coordination Sequence:
#
# PCOD9042041 Si02
#       7
#     2   2   2   2   2   2   2
#     4  12  27  49  69 101 141 181 225 289 350 395
#     4  12  25  44  75  99 135 185 235 279 338 402
#     4  10  23  44  69 100 138 179 228 278 336 404
#     4  10  24  41  72 101 132 182 228 277 340 399
#     4  12  24  44  70 103 144 180 223 281 346 405
#     4  10  24  46  68  99 141 175 234 279 333 409
#     4  12  26  45  70 104 140 178 231 284 336 417
#
# _framework density 23.961321000000002
#
# number of rings (size 3 to 8) (size 9 to 14) (size 15 to 20)
#    0.857    0.000    2.857    3.857    0.000    8.000 
#    0.000    0.000    0.000    0.000    0.000    0.000 
#    0.000    0.000    0.000    0.000    0.000    0.000 
#
# Total GULP energy -78379.840644 kJ/mol
# GULP energy per Si atom -5598.560046 kJ/mol
# Density = 2.390678 g / cm^3
# Si number density = 23.961321 Si / 1000 Ang^3
#
#
#
# Elastic Constant Matrix: (Units=GPa)
#
#
# Indices 1 2 3 4 5 6 
#
# 1 94.4828 1.1830 26.5790 13.3365 18.3802 11.7975
# 2 1.1830 56.5457 -1.5981 4.8315 9.9221 -0.5864
# 3 26.5790 -1.5981 82.2129 3.2712 26.0870 -3.4489
# 4 13.3365 4.8315 3.2712 41.6208 -0.4396 -1.3695
# 5 18.3802 9.9221 26.0870 -0.4396 46.6263 17.6945
# 6 11.7975 -0.5864 -3.4489 -1.3695 17.6945 31.8155
#
#
#
# Elastic Compliance Matrix: (Units=1/GPa)
#
#
# Indices 1 2 3 4 5 6 
#
# 1 0.013081 0.000138 -0.003861 -0.004073 -0.001266 -0.004738
# 2 0.000138 0.019398 0.003107 -0.002462 -0.007793 0.004871
# 3 -0.003861 0.003107 0.018229 -0.000338 -0.013500 0.010959
# 4 -0.004073 -0.002462 -0.000338 0.025712 0.002027 0.001408
# 5 -0.001266 -0.007793 -0.013500 0.002027 0.040023 -0.023309
# 6 -0.004738 0.004871 0.010959 0.001408 -0.023309 0.047490
#
#
# Mechanical properties :
#
#
# Convention : Reuss Voigt Hill
#
# Bulk Modulus (GPa) = 20.21129 31.72992 25.97060
# Shear Modulus (GPa) = 27.52437 37.81769 32.67103
#
# Velocity S-wave (km/s) = 3.39292 3.97707 3.69655
# Velocity P-wave (km/s) = 4.87878 5.86177 5.39272
#
# Compressibility (1/GPa) = 0.04947731
#
# Stress axis : x y z
#
# Youngs Moduli (GPa) = 76.44490 51.55156 54.85680
#
# Poissons Ratio (x) = -0.00713 0.21182
# Poissons Ratio (y) = -0.01057 -0.17046
# Poissons Ratio (z) = 0.29518 -0.16019
#
# Static dielectric constant tensor:
#      x y z
#    x 1.861180 -0.038730 -0.000210 
#    y -0.038730 1.969950 0.040770 
#    z -0.000210 0.040770 1.898230 
# 
# From -- ./inp_files/570412.got.cif
#   From: 2010.05.17/outbox.cif.g08.bks.cpg/sg2_286_cif.got.tgz:570412.got - 2010.06.03 11:33:40.
