data_PCOD9042573
_publ_section_title
;
Structure prediction by ZEFSAII (Michael W. Deem and Ramdas Pophale) SiO2 
 PCOD9042573
Probable space group: P -1
;
_chemical_formula_sum "Si O2"
_cell_formula_units_Z 12
_cell_length_a 12.840309
_cell_length_b 4.735604
_cell_length_c 7.945940
_cell_angle_alpha 83.887671
_cell_angle_beta 78.970345
_cell_angle_gamma 114.167184
_cell_volume 423.362264
_symmetry_space_group_name_H-M "P -1"
_symmetry_group_IT_number 2
_symmetry_cell_setting 'triclinic'
loop_
_space_group_symop_operation_xyz
x,y,z
-x,-y,-z
loop_
_atom_site_type_symbol
_atom_site_label
_atom_site_fract_x
_atom_site_fract_y
_atom_site_fract_z
Si Si1 0.335698 0.817118 0.034676
Si Si2 0.905831 0.171822 0.963137
Si Si3 0.610887 0.685804 0.766201
Si Si4 0.411229 0.704834 0.652383
Si Si5 0.199739 0.672214 0.506685
Si Si6 0.073355 0.040316 0.688415
O O1 0.203173 0.775229 0.068988
O O2 0.342503 0.560405 0.174744
O O3 0.414438 0.160315 0.067642
O O4 0.373349 0.787064 0.837740
O O5 0.953948 0.037521 0.803273
O O6 0.000000 0.500000 0.000000
O O7 0.865871 0.917542 0.143436
O O8 0.496399 0.543757 0.690198
O O9 0.713680 0.002435 0.631520
O O10 0.293338 0.583091 0.586487
O O11 0.500000 0.000000 0.500000
O O12 0.112010 0.309167 0.513291
O O13 0.109339 0.773942 0.626398
#
# Coordination Sequence:
#
# PCOD9042573 Si02
#       6
#     2   2   2   2   2   2
#     4  12  25  45  68  99 140 171 219 283 335 391
#     4  11  24  41  72 102 127 176 227 276 332 395
#     4  11  27  44  66 101 141 177 216 271 345 388
#     4  10  23  44  72  99 132 181 227 267 324 401
#     4  11  23  44  69  99 135 178 224 273 318 400
#     4  11  22  40  70  98 129 167 236 271 320 386
#
# _framework density 28.344522000000001
#
# number of rings (size 3 to 8) (size 9 to 14) (size 15 to 20)
#    0.000    1.000    3.333    2.000    7.000    1.333 
#    0.000   12.500    0.000    0.000    0.000    0.000 
#    0.000    0.000    0.000    0.000    0.000    0.000 
#
# Total GULP energy -67096.839706 kJ/mol
# GULP energy per Si atom -5591.403309 kJ/mol
# Density = 2.828001 g / cm^3
# Si number density = 28.344522 Si / 1000 Ang^3
#
#
#
# Elastic Constant Matrix: (Units=GPa)
#
#
# Indices 1 2 3 4 5 6 
#
# 1 195.8017 22.5166 42.5452 -23.1249 25.2647 -26.9725
# 2 22.5166 101.9956 37.6246 -24.7790 -10.8965 -13.9759
# 3 42.5452 37.6246 124.7237 -27.3866 5.4311 -13.0030
# 4 -23.1249 -24.7790 -27.3866 53.3430 -0.6464 12.1985
# 5 25.2647 -10.8965 5.4311 -0.6464 34.5984 0.4886
# 6 -26.9725 -13.9759 -13.0030 12.1985 0.4886 45.6559
#
#
#
# Elastic Compliance Matrix: (Units=1/GPa)
#
#
# Indices 1 2 3 4 5 6 
#
# 1 0.006670 -0.000859 -0.001239 0.001091 -0.004970 0.003087
# 2 -0.000859 0.012695 -0.002762 0.003822 0.005109 0.001516
# 3 -0.001239 -0.002762 0.010097 0.003244 -0.001496 0.000448
# 4 0.001091 0.003822 0.003244 0.023474 0.000387 -0.003538
# 5 -0.004970 0.005109 -0.001496 0.000387 0.034415 -0.002270
# 6 0.003087 0.001516 0.000448 -0.003538 -0.002270 0.025288
#
#
# Mechanical properties :
#
#
# Convention : Reuss Voigt Hill
#
# Bulk Modulus (GPa) = 50.64689 69.76599 60.20644
# Shear Modulus (GPa) = 38.77785 48.04177 43.40981
#
# Velocity S-wave (km/s) = 3.70278 4.12141 3.91769
# Velocity P-wave (km/s) = 6.01564 6.87859 6.46154
#
# Compressibility (1/GPa) = 0.01974455
#
# Stress axis : x y z
#
# Youngs Moduli (GPa) = 149.91468 78.77264 99.03498
#
# Poissons Ratio (x) = 0.06764 0.12266
# Poissons Ratio (y) = 0.12873 0.27351
# Poissons Ratio (z) = 0.18568 0.21755
#
# Static dielectric constant tensor:
#      x y z
#    x 2.260650 0.052160 -0.055160 
#    y 0.052160 2.170040 0.006290 
#    z -0.055160 0.006290 2.323370 
# 
# From -- ./inp_files/86261.got.cif
#   From: 2010.05.17/outbox.cif.g08.bks.cpg/sg2_44_cif.got.tgz:86261.got - 2010.06.03 11:33:40.
