data_PCOD9042765
_publ_section_title
;
Structure prediction by ZEFSAII (Michael W. Deem and Ramdas Pophale) SiO2 
 PCOD9042765
Probable space group: P -1
;
_chemical_formula_sum "Si O2"
_cell_formula_units_Z 16
_cell_length_a 9.483840
_cell_length_b 13.922707
_cell_length_c 9.092664
_cell_angle_alpha 130.741274
_cell_angle_beta 62.699213
_cell_angle_gamma 88.809244
_cell_volume 711.108638
_symmetry_space_group_name_H-M "P -1"
_symmetry_group_IT_number 2
_symmetry_cell_setting 'triclinic'
loop_
_space_group_symop_operation_xyz
x,y,z
-x,-y,-z
loop_
_atom_site_type_symbol
_atom_site_label
_atom_site_fract_x
_atom_site_fract_y
_atom_site_fract_z
Si Si1 0.796647 0.589913 0.129253
Si Si2 0.293421 0.594949 0.230724
Si Si3 0.317154 0.527432 0.692153
Si Si4 0.938057 0.380594 0.366107
Si Si5 0.220037 0.034779 0.312100
Si Si6 0.530471 0.912768 0.548841
Si Si7 0.155119 0.045793 0.003313
Si Si8 0.837306 0.212223 0.754745
O O1 0.674618 0.601901 0.343519
O O2 0.691135 0.751619 0.281599
O O3 0.795311 0.486244 0.897992
O O4 0.000000 0.500000 0.000000
O O5 0.226853 0.602490 0.433743
O O6 0.233554 0.749556 0.339548
O O7 0.500000 0.500000 0.000000
O O8 0.500000 0.500000 0.500000
O O9 0.149436 0.583297 0.716870
O O10 0.270556 0.648867 0.957258
O O11 0.000000 0.500000 0.500000
O O12 0.085645 0.212604 0.150994
O O13 0.396084 0.028934 0.292712
O O14 0.200722 0.036407 0.147082
O O15 0.045197 0.172589 0.599705
O O16 0.192787 0.907649 0.270124
O O17 0.500000 0.000000 0.500000
O O18 0.336026 0.938836 0.722816
O O19 0.000000 0.000000 0.000000
#
# Coordination Sequence:
#
# PCOD9042765 Si02
#       8
#     2   2   2   2   2   2   2   2
#     4  11  26  48  74 101 147 193 244 304 376 453
#     4  11  24  43  72 103 140 186 252 301 364 446
#     4  11  25  44  71 104 142 190 248 303 369 444
#     4  12  27  44  74 109 149 192 251 316 376 444
#     4  11  25  48  75 102 150 197 247 310 380 454
#     4  12  31  47  78 114 153 197 255 315 389 455
#     4  12  30  50  78 111 156 201 257 317 389 459
#     4  10  23  44  76 102 140 196 250 299 382 445
#
# _framework density 22.500077999999998
#
# number of rings (size 3 to 8) (size 9 to 14) (size 15 to 20)
#    0.000    0.750    1.250    4.875   17.500    1.000 
#    0.000    0.000    0.000    0.000    0.000    0.000 
#    0.000    0.000    0.000    0.000    0.000    0.000 
#
# Total GULP energy -89394.713533 kJ/mol
# GULP energy per Si atom -5587.169596 kJ/mol
# Density = 2.244887 g / cm^3
# Si number density = 22.500078 Si / 1000 Ang^3
#
#
#
# Elastic Constant Matrix: (Units=GPa)
#
#
# Indices 1 2 3 4 5 6 
#
# 1 109.3958 19.4627 20.9224 4.7513 -8.1537 -6.7867
# 2 19.4627 144.2142 28.1166 10.0024 1.7646 -19.5460
# 3 20.9224 28.1166 86.7547 -1.2831 -15.4578 2.3717
# 4 4.7513 10.0024 -1.2831 47.2930 -1.0104 -3.9209
# 5 -8.1537 1.7646 -15.4578 -1.0104 43.2799 -7.8833
# 6 -6.7867 -19.5460 2.3717 -3.9209 -7.8833 25.9873
#
#
#
# Elastic Compliance Matrix: (Units=1/GPa)
#
#
# Indices 1 2 3 4 5 6 
#
# 1 0.009949 -0.000549 -0.002010 -0.000672 0.001668 0.002774
# 2 -0.000549 0.008507 -0.002881 -0.001316 -0.000380 0.006204
# 3 -0.002010 -0.002881 0.013783 0.001068 0.004230 -0.002506
# 4 -0.000672 -0.001316 0.001068 0.021745 0.001253 0.002398
# 5 0.001668 -0.000380 0.004230 0.001253 0.026427 0.007969
# 6 0.002774 0.006204 -0.002506 0.002398 0.007969 0.046879
#
#
# Mechanical properties :
#
#
# Convention : Reuss Voigt Hill
#
# Bulk Modulus (GPa) = 46.81938 53.04091 49.93014
# Shear Modulus (GPa) = 34.41397 41.43624 37.92510
#
# Velocity S-wave (km/s) = 3.91513 4.29605 4.11000
# Velocity P-wave (km/s) = 6.42584 6.94499 6.69045
#
# Compressibility (1/GPa) = 0.02135868
#
# Stress axis : x y z
#
# Youngs Moduli (GPa) = 100.51498 117.55383 72.55105
#
# Poissons Ratio (x) = 0.06449 0.14583
# Poissons Ratio (y) = 0.05515 0.20905
# Poissons Ratio (z) = 0.20204 0.33873
#
# Static dielectric constant tensor:
#      x y z
#    x 2.152330 0.148810 -0.183250 
#    y 0.148810 1.955570 -0.025490 
#    z -0.183250 -0.025490 1.905180 
# 
# From -- ./inp_files/208908.got.cif
#   From: 2010.05.17/outbox.cif.g08.bks.cpg/sg2_105_cif.got.tgz:208908.got - 2010.06.03 11:33:40.
