data_PCOD9042392
_publ_section_title
;
Structure prediction by ZEFSAII (Michael W. Deem and Ramdas Pophale) SiO2 
 PCOD9042392
Probable space group: P -1
;
_chemical_formula_sum "Si O2"
_cell_formula_units_Z 16
_cell_length_a 21.021844
_cell_length_b 18.657671
_cell_length_c 12.423327
_cell_angle_alpha 154.842146
_cell_angle_beta 153.826784
_cell_angle_gamma 19.475119
_cell_volume 656.311787
_symmetry_space_group_name_H-M "P -1"
_symmetry_group_IT_number 2
_symmetry_cell_setting 'triclinic'
loop_
_space_group_symop_operation_xyz
x,y,z
-x,-y,-z
loop_
_atom_site_type_symbol
_atom_site_label
_atom_site_fract_x
_atom_site_fract_y
_atom_site_fract_z
Si Si1 0.241855 0.922345 0.663633
Si Si2 0.190847 0.905385 0.799462
Si Si3 0.168993 0.283313 0.709050
Si Si4 0.046660 0.791933 0.851668
Si Si5 0.024558 0.633652 0.807090
Si Si6 0.832828 0.627441 0.830026
Si Si7 0.441499 0.812098 0.594319
Si Si8 0.541908 0.512352 0.958518
O O1 0.284114 0.804654 0.684135
O O2 0.395378 0.793064 0.620146
O O3 0.019731 0.030740 0.439183
O O4 0.235263 0.126711 0.956472
O O5 0.349394 0.724002 0.885761
O O6 0.148584 0.139556 0.074973
O O7 0.186208 0.440661 0.879726
O O8 0.141092 0.167847 0.417337
O O9 0.957216 0.458439 0.688080
O O10 0.329153 0.079758 0.759178
O O11 0.055517 0.770188 0.963625
O O12 0.261944 0.530129 0.795363
O O13 0.000000 0.000000 0.000000
O O14 0.000000 0.500000 0.500000
O O15 0.660248 0.658396 0.665732
O O16 0.000000 0.500000 0.000000
O O17 0.364112 0.722405 0.281620
O O18 0.500000 0.500000 0.000000
#
# Coordination Sequence:
#
# PCOD9042392 Si02
#       8
#     2   2   2   2   2   2   2   2
#     4  11  25  46  72 103 149 199 248 303 368 442
#     4  11  25  47  72 108 151 193 249 312 369 440
#     4  11  24  44  71 105 149 187 239 310 373 437
#     4  11  22  43  69  99 143 193 242 300 369 444
#     4  10  23  44  71 102 145 192 237 304 379 434
#     4  12  24  44  67 105 143 185 246 307 364 432
#     4  12  26  44  74 108 142 197 249 300 376 451
#     4  12  26  42  71 109 144 190 252 307 369 442
#
# _framework density 24.378657
#
# number of rings (size 3 to 8) (size 9 to 14) (size 15 to 20)
#    0.000    0.750    3.750    3.375    3.500    1.500 
#    0.000    1.250    0.000    0.000    0.000    0.000 
#    0.000    0.000    0.000    0.000    0.000    0.000 
#
# Total GULP energy -89084.120064 kJ/mol
# GULP energy per Si atom -5567.757504 kJ/mol
# Density = 2.432317 g / cm^3
# Si number density = 24.378657 Si / 1000 Ang^3
#
#
#
# Elastic Constant Matrix: (Units=GPa)
#
#
# Indices 1 2 3 4 5 6 
#
# 1 182.2763 38.6224 23.9626 -8.4422 -18.2953 19.9616
# 2 38.6224 102.8660 17.7018 -3.2125 2.0884 24.8459
# 3 23.9626 17.7018 60.0293 -2.0756 -6.2911 7.7561
# 4 -8.4422 -3.2125 -2.0756 38.2364 -3.0142 -1.5562
# 5 -18.2953 2.0884 -6.2911 -3.0142 36.2071 -0.9019
# 6 19.9616 24.8459 7.7561 -1.5562 -0.9019 45.2714
#
#
#
# Elastic Compliance Matrix: (Units=1/GPa)
#
#
# Indices 1 2 3 4 5 6 
#
# 1 0.006647 -0.001892 -0.001505 0.001424 0.003287 -0.001520
# 2 -0.001892 0.012216 -0.002363 0.000083 -0.002201 -0.005506
# 3 -0.001505 -0.002363 0.018395 0.000627 0.002596 -0.001117
# 4 0.001424 0.000083 0.000627 0.026758 0.003056 0.000200
# 5 0.003287 -0.002201 0.002596 0.003056 0.030113 0.000019
# 6 -0.001520 -0.005506 -0.001117 0.000200 0.000019 0.025980
#
#
# Mechanical properties :
#
#
# Convention : Reuss Voigt Hill
#
# Bulk Modulus (GPa) = 38.85599 56.19390 47.52495
# Shear Modulus (GPa) = 35.66131 41.60197 38.63164
#
# Velocity S-wave (km/s) = 3.82882 4.13545 3.98509
# Velocity P-wave (km/s) = 5.95983 6.77518 6.38054
#
# Compressibility (1/GPa) = 0.02573606
#
# Stress axis : x y z
#
# Youngs Moduli (GPa) = 150.43618 81.86247 54.36394
#
# Poissons Ratio (x) = 0.15487 0.08184
# Poissons Ratio (y) = 0.28459 0.12849
# Poissons Ratio (z) = 0.22647 0.19348
#
# Static dielectric constant tensor:
#      x y z
#    x 2.077560 -0.119800 -0.102810 
#    y -0.119800 2.054210 -0.036010 
#    z -0.102810 -0.036010 2.063670 
# 
# From -- ./inp_files/472521.got.cif
#   From: 2010.05.17/outbox.cif.g08.bks.cpg/sg2_237_cif.got.tgz:472521.got - 2010.06.03 11:33:40.
