data_PCOD9042006
_publ_section_title
;
Structure prediction by ZEFSAII (Michael W. Deem and Ramdas Pophale) SiO2 
 PCOD9042006
Probable space group: P -1
;
_chemical_formula_sum "Si O2"
_cell_formula_units_Z 14
_cell_length_a 12.663280
_cell_length_b 6.793385
_cell_length_c 10.987328
_cell_angle_alpha 112.242816
_cell_angle_beta 113.363847
_cell_angle_gamma 45.259385
_cell_volume 609.126377
_symmetry_space_group_name_H-M "P -1"
_symmetry_group_IT_number 2
_symmetry_cell_setting 'triclinic'
loop_
_space_group_symop_operation_xyz
x,y,z
-x,-y,-z
loop_
_atom_site_type_symbol
_atom_site_label
_atom_site_fract_x
_atom_site_fract_y
_atom_site_fract_z
Si Si1 0.494380 0.218200 0.130247
Si Si2 0.716501 0.312534 0.225589
Si Si3 0.934678 0.299463 0.159125
Si Si4 0.144724 0.684225 0.140941
Si Si5 0.716546 0.662350 0.499724
Si Si6 0.538960 0.206047 0.424026
Si Si7 0.990269 0.707233 0.311413
O O1 0.587561 0.298576 0.131210
O O2 0.320401 0.475591 0.141923
O O3 0.565427 0.121869 0.275521
O O4 0.500000 0.000000 0.000000
O O5 0.793859 0.329430 0.148943
O O6 0.661182 0.566570 0.347679
O O7 0.850366 0.030939 0.295972
O O8 0.927911 0.545637 0.259256
O O9 0.937505 0.299310 0.014694
O O10 0.081085 0.998293 0.204526
O O11 0.093364 0.606049 0.213043
O O12 0.607749 0.744981 0.583162
O O13 0.890232 0.403124 0.551230
O O14 0.680653 0.942578 0.502769
O O15 0.500000 0.500000 0.500000
#
# Coordination Sequence:
#
# PCOD9042006 Si02
#       7
#     2   2   2   2   2   2   2
#     4  12  26  46  75 102 144 184 233 301 358 407
#     4  11  26  44  68 110 144 177 237 298 345 423
#     4  10  24  43  68 102 140 184 233 289 355 422
#     4  10  23  44  68  98 137 186 235 288 352 423
#     4  11  25  43  73 102 138 191 237 283 358 417
#     4  11  25  47  72 103 145 183 239 293 348 423
#     4  11  23  44  72  99 140 187 236 284 357 415
#
# _framework density 22.983734999999999
#
# number of rings (size 3 to 8) (size 9 to 14) (size 15 to 20)
#    0.000    1.143    2.857    1.714    6.000    3.429 
#    0.000    0.000    0.000    0.000    0.000    0.000 
#    0.000    0.000    0.000    0.000    0.000    0.000 
#
# Total GULP energy -78299.418020 kJ/mol
# GULP energy per Si atom -5592.815573 kJ/mol
# Density = 2.293142 g / cm^3
# Si number density = 22.983735 Si / 1000 Ang^3
#
#
#
# Elastic Constant Matrix: (Units=GPa)
#
#
# Indices 1 2 3 4 5 6 
#
# 1 114.8756 66.4624 39.9019 9.4520 4.6329 2.6562
# 2 66.4624 82.5017 14.3823 12.7692 5.8870 7.2507
# 3 39.9019 14.3823 85.9391 19.1584 1.4459 20.7850
# 4 9.4520 12.7692 19.1584 30.3004 0.8675 0.9296
# 5 4.6329 5.8870 1.4459 0.8675 31.5145 4.2805
# 6 2.6562 7.2507 20.7850 0.9296 4.2805 38.9196
#
#
#
# Elastic Compliance Matrix: (Units=1/GPa)
#
#
# Indices 1 2 3 4 5 6 
#
# 1 0.021574 -0.017221 -0.010404 0.006903 -0.000645 0.007198
# 2 -0.017221 0.027072 0.007684 -0.010619 -0.001561 -0.007546
# 3 -0.010404 0.007684 0.020848 -0.012848 0.001076 -0.011667
# 4 0.006903 -0.010619 -0.012848 0.043239 -0.000638 0.007406
# 5 -0.000645 -0.001561 0.001076 -0.000638 0.032604 -0.003810
# 6 0.007198 -0.007546 -0.011667 0.007406 -0.003810 0.033082
#
#
# Mechanical properties :
#
#
# Convention : Reuss Voigt Hill
#
# Bulk Modulus (GPa) = 33.76889 58.31217 46.04053
# Shear Modulus (GPa) = 21.91338 30.98490 26.44914
#
# Velocity S-wave (km/s) = 3.09112 3.67566 3.39599
# Velocity P-wave (km/s) = 5.24065 6.59091 5.95418
#
# Compressibility (1/GPa) = 0.02961305
#
# Stress axis : x y z
#
# Youngs Moduli (GPa) = 46.35296 36.93786 47.96511
#
# Poissons Ratio (x) = 0.63610 0.49901
# Poissons Ratio (y) = 0.79823 -0.36855
# Poissons Ratio (z) = 0.48224 -0.28382
#
# Static dielectric constant tensor:
#      x y z
#    x 1.852240 -0.001100 -0.018340 
#    y -0.001100 1.882060 -0.034340 
#    z -0.018340 -0.034340 1.906320 
# 
# From -- ./inp_files/131732.got.cif
#   From: 2010.05.17/outbox.cif.g08.bks.cpg/sg2_66_cif.got.tgz:131732.got - 2010.06.03 11:33:40.
