data_PCOD9042087
_publ_section_title
;
Structure prediction by ZEFSAII (Michael W. Deem and Ramdas Pophale) SiO2 
 PCOD9042087
Probable space group: P -1
;
_chemical_formula_sum "Si O2"
_cell_formula_units_Z 12
_cell_length_a 8.083936
_cell_length_b 5.399502
_cell_length_c 12.936970
_cell_angle_alpha 101.247128
_cell_angle_beta 101.214184
_cell_angle_gamma 116.941941
_cell_volume 467.184734
_symmetry_space_group_name_H-M "P -1"
_symmetry_group_IT_number 2
_symmetry_cell_setting 'triclinic'
loop_
_space_group_symop_operation_xyz
x,y,z
-x,-y,-z
loop_
_atom_site_type_symbol
_atom_site_label
_atom_site_fract_x
_atom_site_fract_y
_atom_site_fract_z
Si Si1 0.041633 0.812767 0.791054
Si Si2 0.995764 0.357753 0.598567
Si Si3 0.285672 0.734889 0.982285
Si Si4 0.605452 0.848205 0.554276
Si Si5 0.699561 0.928129 0.801812
Si Si6 0.676421 0.623341 0.212400
O O1 0.928123 0.519397 0.686129
O O2 0.900517 0.937982 0.804151
O O3 0.122441 0.766412 0.903356
O O4 0.234032 0.031788 0.763504
O O5 0.000000 0.500000 0.500000
O O6 0.191879 0.403438 0.682942
O O7 0.828869 0.015118 0.552663
O O8 0.281329 0.461660 0.904067
O O9 0.500000 0.000000 0.000000
O O10 0.267587 0.797154 0.103813
O O11 0.500000 0.500000 0.500000
O O12 0.607714 0.915383 0.680121
O O13 0.500000 0.000000 0.500000
O O14 0.547695 0.616150 0.812059
#
# Coordination Sequence:
#
# PCOD9042087 Si02
#       6
#     2   2   2   2   2   2
#     4  11  23  45  70 108 140 189 249 301 373 445
#     4  11  25  47  71 100 150 193 243 312 371 448
#     4   9  22  44  67 106 143 188 242 299 373 446
#     4  12  27  48  73 112 147 196 257 310 378 451
#     4  11  23  45  71 105 144 190 245 308 364 445
#     4  10  23  44  69 103 142 189 241 299 374 441
#
# _framework density 25.685770000000002
#
# number of rings (size 3 to 8) (size 9 to 14) (size 15 to 20)
#    0.000    1.333    1.667    2.500    2.333    4.000 
#   15.000    0.000    0.000    0.000    0.000    0.000 
#    0.000    0.000    0.000    0.000    0.000    0.000 
#
# Total GULP energy -67206.724821 kJ/mol
# GULP energy per Si atom -5600.560402 kJ/mol
# Density = 2.562731 g / cm^3
# Si number density = 25.685770 Si / 1000 Ang^3
#
#
#
# Elastic Constant Matrix: (Units=GPa)
#
#
# Indices 1 2 3 4 5 6 
#
# 1 64.0016 21.2312 31.2962 3.0667 7.6110 17.3649
# 2 21.2312 155.5396 42.7857 17.4584 5.4042 28.9433
# 3 31.2962 42.7857 208.5542 0.9336 -8.1721 -11.4100
# 4 3.0667 17.4584 0.9336 31.2033 6.8071 7.2433
# 5 7.6110 5.4042 -8.1721 6.8071 25.1423 1.6757
# 6 17.3649 28.9433 -11.4100 7.2433 1.6757 42.4554
#
#
#
# Elastic Compliance Matrix: (Units=1/GPa)
#
#
# Indices 1 2 3 4 5 6 
#
# 1 0.021010 0.000101 -0.004013 0.001914 -0.007553 -0.009770
# 2 0.000101 0.008463 -0.002107 -0.003046 -0.001323 -0.005806
# 3 -0.004013 -0.002107 0.006226 -0.000467 0.003505 0.004692
# 4 0.001914 -0.003046 -0.000467 0.036796 -0.009724 -0.004726
# 5 -0.007553 -0.001323 0.003505 -0.009724 0.045797 0.004785
# 6 -0.009770 -0.005806 0.004692 -0.004726 0.004785 0.033386
#
#
# Mechanical properties :
#
#
# Convention : Reuss Voigt Hill
#
# Bulk Modulus (GPa) = 42.26194 68.74682 55.50438
# Shear Modulus (GPa) = 29.13688 41.94567 35.54128
#
# Velocity S-wave (km/s) = 3.37168 4.04546 3.72384
# Velocity P-wave (km/s) = 5.62555 6.97450 6.33603
#
# Compressibility (1/GPa) = 0.02366195
#
# Stress axis : x y z
#
# Youngs Moduli (GPa) = 47.59560 118.15780 160.62846
#
# Poissons Ratio (x) = -0.01199 0.64456
# Poissons Ratio (y) = -0.00483 0.33850
# Poissons Ratio (z) = 0.19099 0.24900
#
# Static dielectric constant tensor:
#      x y z
#    x 2.092530 -0.181570 0.032720 
#    y -0.181570 2.577480 -0.156330 
#    z 0.032720 -0.156330 2.052650 
# 
# From -- ./inp_files/26639.got.cif
#   From: 2010.05.17/outbox.cif.g08.bks.cpg/sg2_14_cif.got.tgz:26639.got - 2010.06.03 11:33:40.
