data_PCOD9042348
_publ_section_title
;
Structure prediction by ZEFSAII (Michael W. Deem and Ramdas Pophale) SiO2 
 PCOD9042348
Probable space group: P -1
;
_chemical_formula_sum "Si O2"
_cell_formula_units_Z 16
_cell_length_a 9.507734
_cell_length_b 8.795136
_cell_length_c 10.833858
_cell_angle_alpha 60.886788
_cell_angle_beta 66.053230
_cell_angle_gamma 73.857062
_cell_volume 719.669704
_symmetry_space_group_name_H-M "P -1"
_symmetry_group_IT_number 2
_symmetry_cell_setting 'triclinic'
loop_
_space_group_symop_operation_xyz
x,y,z
-x,-y,-z
loop_
_atom_site_type_symbol
_atom_site_label
_atom_site_fract_x
_atom_site_fract_y
_atom_site_fract_z
Si Si1 0.175000 0.940492 0.715820
Si Si2 0.940438 0.149185 0.865916
Si Si3 0.312481 0.378114 0.858016
Si Si4 0.359714 0.658478 0.123149
Si Si5 0.639700 0.808799 0.325759
Si Si6 0.699090 0.280433 0.452220
Si Si7 0.155583 0.596841 0.013280
Si Si8 0.821334 0.496050 0.533526
O O1 0.218783 0.885006 0.584461
O O2 0.137052 0.762849 0.864972
O O3 0.322526 0.006060 0.708197
O O4 0.036354 0.090180 0.733919
O O5 0.757727 0.163386 0.899967
O O6 0.954783 0.337316 0.856958
O O7 0.000000 0.000000 0.000000
O O8 0.468268 0.329311 0.899294
O O9 0.302536 0.228622 0.819169
O O10 0.328675 0.554481 0.699455
O O11 0.171752 0.429015 0.984300
O O12 0.279918 0.537315 0.297140
O O13 0.322492 0.592680 0.025253
O O14 0.463948 0.767657 0.418212
O O15 0.739456 0.668644 0.430906
O O16 0.798883 0.344340 0.502754
O O17 0.000000 0.500000 0.500000
#
# Coordination Sequence:
#
# PCOD9042348 Si02
#       8
#     2   2   2   2   2   2   2   2
#     4  10  19  36  58  80 113 156 191 221 281 340
#     4   8  17  33  52  77 106 149 184 224 280 327
#     4  10  17  34  57  85 106 150 190 233 280 327
#     4  10  17  33  59  78 115 142 190 230 285 327
#     4  11  20  35  58  87 117 148 188 234 278 335
#     4  10  20  37  59  83 116 152 188 228 279 342
#     4   8  19  32  59  79 107 152 190 231 282 328
#     4  11  21  36  60  88 113 147 186 237 287 330
#
# _framework density 22.232417999999999
#
# number of rings (size 3 to 8) (size 9 to 14) (size 15 to 20)
#    0.750    1.500    2.500    2.250    0.000    0.000 
#    0.000    3.750    8.250    0.000    0.000    0.000 
#    0.000    0.000    0.000    0.000    0.000    0.000 
#
# Total GULP energy -89151.423755 kJ/mol
# GULP energy per Si atom -5571.963985 kJ/mol
# Density = 2.218182 g / cm^3
# Si number density = 22.232418 Si / 1000 Ang^3
#
#
#
# Elastic Constant Matrix: (Units=GPa)
#
#
# Indices 1 2 3 4 5 6 
#
# 1 120.8781 31.9013 27.1766 7.4225 -9.3695 -6.3260
# 2 31.9013 91.5736 39.2504 30.9090 -10.6316 6.0728
# 3 27.1766 39.2504 43.9427 17.0121 1.5750 -9.7604
# 4 7.4225 30.9090 17.0121 34.8735 -7.1273 -0.5773
# 5 -9.3695 -10.6316 1.5750 -7.1273 23.5423 -2.4352
# 6 -6.3260 6.0728 -9.7604 -0.5773 -2.4352 30.2317
#
#
#
# Elastic Compliance Matrix: (Units=1/GPa)
#
#
# Indices 1 2 3 4 5 6 
#
# 1 0.010302 -0.001458 -0.006283 0.003184 0.004917 0.000877
# 2 -0.001458 0.025678 -0.020682 -0.010944 0.007874 -0.011715
# 3 -0.006283 -0.020682 0.053502 -0.009467 -0.016360 0.018614
# 4 0.003184 -0.010944 -0.009467 0.044504 0.010588 0.001511
# 5 0.004917 0.007874 -0.016360 0.010588 0.052141 -0.001433
# 6 0.000877 -0.011715 0.018614 0.001511 -0.001433 0.041538
#
#
# Mechanical properties :
#
#
# Convention : Reuss Voigt Hill
#
# Bulk Modulus (GPa) = 30.64058 50.33902 40.48980
# Shear Modulus (GPa) = 16.92687 28.26725 22.59706
#
# Velocity S-wave (km/s) = 2.76227 3.56960 3.19156
# Velocity P-wave (km/s) = 4.89749 6.29926 5.64208
#
# Compressibility (1/GPa) = 0.03263646
#
# Stress axis : x y z
#
# Youngs Moduli (GPa) = 97.07254 38.94458 18.69081
#
# Poissons Ratio (x) = 0.05676 0.11744
# Poissons Ratio (y) = 0.14149 0.38656
# Poissons Ratio (z) = 0.60993 0.80544
#
# Static dielectric constant tensor:
#      x y z
#    x 1.847010 0.004640 -0.016450 
#    y 0.004640 1.866880 0.024550 
#    z -0.016450 0.024550 1.855490 
# 
# From -- ./inp_files/270468.got.cif
#   From: 2010.05.17/outbox.cif.g08.bks.cpg/sg2_136_cif.got.tgz:270468.got - 2010.06.03 11:33:40.
