data_PCOD9042501
_publ_section_title
;
Structure prediction by ZEFSAII (Michael W. Deem and Ramdas Pophale) SiO2 
 PCOD9042501
Probable space group: P -1
;
_chemical_formula_sum "Si O2"
_cell_formula_units_Z 14
_cell_length_a 14.458732
_cell_length_b 11.113824
_cell_length_c 7.973063
_cell_angle_alpha 102.365800
_cell_angle_beta 143.409743
_cell_angle_gamma 57.797489
_cell_volume 585.342969
_symmetry_space_group_name_H-M "P -1"
_symmetry_group_IT_number 2
_symmetry_cell_setting 'triclinic'
loop_
_space_group_symop_operation_xyz
x,y,z
-x,-y,-z
loop_
_atom_site_type_symbol
_atom_site_label
_atom_site_fract_x
_atom_site_fract_y
_atom_site_fract_z
Si Si1 0.304066 0.178719 0.423632
Si Si2 0.398638 0.855215 0.366151
Si Si3 0.905406 0.349099 0.732298
Si Si4 0.264697 0.099416 0.679076
Si Si5 0.064861 0.601399 0.565336
Si Si6 0.334519 0.480895 0.232644
Si Si7 0.969054 0.029439 0.664917
O O1 0.484526 0.180351 0.650265
O O2 0.164304 0.558626 0.515922
O O3 0.211181 0.217053 0.482926
O O4 0.130138 0.283063 0.069351
O O5 0.543322 0.706143 0.649262
O O6 0.096581 0.798875 0.333483
O O7 0.375960 0.002837 0.450431
O O8 0.130865 0.216227 0.670532
O O9 0.791519 0.449296 0.760156
O O10 0.185723 0.999094 0.510250
O O11 0.817645 0.092899 0.970114
O O12 0.500000 0.000000 0.000000
O O13 0.000000 0.500000 0.500000
O O14 0.211521 0.572239 0.915649
O O15 0.500000 0.500000 0.500000
O O16 0.000000 0.000000 0.500000
#
# Coordination Sequence:
#
# PCOD9042501 Si02
#       7
#     2   2   2   2   2   2   2
#     4  10  23  44  72 102 136 186 244 295 360 419
#     4  10  24  42  72 100 139 188 236 296 359 430
#     4  11  26  47  75 102 147 197 237 304 366 428
#     4  12  26  43  72 107 141 186 248 299 360 428
#     4  12  28  48  71 107 151 193 244 299 364 442
#     4  12  28  48  71 107 151 191 242 295 371 444
#     4  11  23  46  73 103 143 183 244 304 355 425
#
# _framework density 23.917601000000001
#
# number of rings (size 3 to 8) (size 9 to 14) (size 15 to 20)
#    0.000    0.857    2.857    2.571   10.000    2.857 
#    0.000    0.000    0.000    0.000    0.000    0.000 
#    0.000    0.000    0.000    0.000    0.000    0.000 
#
# Total GULP energy -78358.576433 kJ/mol
# GULP energy per Si atom -5597.041174 kJ/mol
# Density = 2.386316 g / cm^3
# Si number density = 23.917601 Si / 1000 Ang^3
#
#
#
# Elastic Constant Matrix: (Units=GPa)
#
#
# Indices 1 2 3 4 5 6 
#
# 1 110.6678 8.4405 54.6668 -4.4474 3.4344 -11.1564
# 2 8.4405 71.7268 30.4478 -14.1511 -9.6097 6.2907
# 3 54.6668 30.4478 155.3825 -9.3542 13.2566 -2.9744
# 4 -4.4474 -14.1511 -9.3542 26.3707 -2.3030 -1.9027
# 5 3.4344 -9.6097 13.2566 -2.3030 52.1017 17.0802
# 6 -11.1564 6.2907 -2.9744 -1.9027 17.0802 38.1754
#
#
#
# Elastic Compliance Matrix: (Units=1/GPa)
#
#
# Indices 1 2 3 4 5 6 
#
# 1 0.011314 0.000008 -0.003798 0.000737 -0.000872 0.003436
# 2 0.000008 0.018753 -0.003837 0.008864 0.006787 -0.005982
# 3 -0.003798 -0.003837 0.008850 0.000277 -0.003247 0.001679
# 4 0.000737 0.008864 0.000277 0.043168 0.003656 -0.000708
# 5 -0.000872 0.006787 -0.003247 0.003656 0.025739 -0.012960
# 6 0.003436 -0.005982 0.001679 -0.000708 -0.012960 0.034079
#
#
# Mechanical properties :
#
#
# Convention : Reuss Voigt Hill
#
# Bulk Modulus (GPa) = 42.26104 58.32079 50.29092
# Shear Modulus (GPa) = 30.29483 39.61103 34.95293
#
# Velocity S-wave (km/s) = 3.56284 4.07399 3.82696
# Velocity P-wave (km/s) = 5.88497 6.82399 6.37180
#
# Compressibility (1/GPa) = 0.02366245
#
# Stress axis : x y z
#
# Youngs Moduli (GPa) = 88.38228 53.32586 112.99924
#
# Poissons Ratio (x) = -0.00042 0.42913
# Poissons Ratio (y) = -0.00070 0.43362
# Poissons Ratio (z) = 0.33565 0.20463
#
# Static dielectric constant tensor:
#      x y z
#    x 1.940940 -0.027990 -0.028140 
#    y -0.027990 2.010050 -0.020540 
#    z -0.028140 -0.020540 1.895070 
# 
# From -- ./inp_files/317332.got.cif
#   From: 2010.05.17/outbox.cif.g08.bks.cpg/sg2_159_cif.got.tgz:317332.got - 2010.06.03 11:33:40.
