data_PCOD9042080
_publ_section_title
;
Structure prediction by ZEFSAII (Michael W. Deem and Ramdas Pophale) SiO2 
 PCOD9042080
Probable space group: P -1
;
_chemical_formula_sum "Si O2"
_cell_formula_units_Z 14
_cell_length_a 7.962033
_cell_length_b 14.991505
_cell_length_c 14.049831
_cell_angle_alpha 27.947951
_cell_angle_beta 54.060539
_cell_angle_gamma 70.866497
_cell_volume 550.142862
_symmetry_space_group_name_H-M "P -1"
_symmetry_group_IT_number 2
_symmetry_cell_setting 'triclinic'
loop_
_space_group_symop_operation_xyz
x,y,z
-x,-y,-z
loop_
_atom_site_type_symbol
_atom_site_label
_atom_site_fract_x
_atom_site_fract_y
_atom_site_fract_z
Si Si1 0.990515 0.153859 0.579172
Si Si2 0.821037 0.311700 0.307552
Si Si3 0.344283 0.071244 0.422202
Si Si4 0.455695 0.287158 0.581120
Si Si5 0.539127 0.154000 0.956818
Si Si6 0.689657 0.407795 0.857148
Si Si7 0.168897 0.433718 0.650627
O O1 0.935870 0.293318 0.386305
O O2 0.130408 0.054789 0.570945
O O3 0.163199 0.329416 0.433105
O O4 0.733192 0.964003 0.879400
O O5 0.588081 0.330208 0.394566
O O6 0.745865 0.087479 0.488926
O O7 0.000000 0.500000 0.000000
O O8 0.500000 0.000000 0.500000
O O9 0.512792 0.312028 0.095356
O O10 0.222588 0.293260 0.688780
O O11 0.659596 0.488326 0.388006
O O12 0.419486 0.047787 0.843677
O O13 0.554123 0.294679 0.912067
O O14 0.735987 0.331602 0.654710
O O15 0.893923 0.336107 0.861103
#
# Coordination Sequence:
#
# PCOD9042080 Si02
#       7
#     2   2   2   2   2   2   2
#     4  11  25  47  72  98 146 184 233 300 347 427
#     4  11  23  45  73 100 141 185 235 289 355 418
#     4  12  27  44  69 107 139 187 237 293 359 417
#     4  10  23  44  69 103 136 185 236 284 348 429
#     4  11  24  46  70 102 137 186 236 285 364 410
#     4  12  24  46  67 105 140 176 244 286 350 431
#     4  11  24  42  73 101 143 186 229 293 349 423
#
# _framework density 25.447935000000001
#
# number of rings (size 3 to 8) (size 9 to 14) (size 15 to 20)
#    0.000    0.857    5.714    2.571    2.000    2.857 
#    0.000    0.000    0.000    0.000    0.000    0.000 
#    0.000    0.000    0.000    0.000    0.000    0.000 
#
# Total GULP energy -78401.612707 kJ/mol
# GULP energy per Si atom -5600.115193 kJ/mol
# Density = 2.539001 g / cm^3
# Si number density = 25.447935 Si / 1000 Ang^3
#
#
#
# Elastic Constant Matrix: (Units=GPa)
#
#
# Indices 1 2 3 4 5 6 
#
# 1 50.5923 10.2031 4.1540 -7.4445 -6.4644 -0.4372
# 2 10.2031 168.9948 17.3383 -15.2123 -14.8222 -16.8564
# 3 4.1540 17.3383 97.4576 -5.8102 0.2134 8.9978
# 4 -7.4445 -15.2123 -5.8102 45.5707 7.9584 -8.2331
# 5 -6.4644 -14.8222 0.2134 7.9584 28.2757 2.8186
# 6 -0.4372 -16.8564 8.9978 -8.2331 2.8186 41.0487
#
#
#
# Elastic Compliance Matrix: (Units=1/GPa)
#
#
# Indices 1 2 3 4 5 6 
#
# 1 0.020790 -0.000596 -0.000672 0.002535 0.003694 0.000379
# 2 -0.000596 0.006848 -0.001380 0.002183 0.002513 0.003374
# 3 -0.000672 -0.001380 0.010822 0.000444 -0.000804 -0.002802
# 4 0.002535 0.002183 0.000444 0.025341 -0.006042 0.006324
# 5 0.003694 0.002513 -0.000804 -0.006042 0.039502 -0.002677
# 6 0.000379 0.003374 -0.002802 0.006324 -0.002677 0.027817
#
#
# Mechanical properties :
#
#
# Convention : Reuss Voigt Hill
#
# Bulk Modulus (GPa) = 30.15342 42.27064 36.21203
# Shear Modulus (GPa) = 33.90518 42.00230 37.95374
#
# Velocity S-wave (km/s) = 3.65408 4.06707 3.86609
# Velocity P-wave (km/s) = 5.44774 6.22104 5.84719
#
# Compressibility (1/GPa) = 0.03316373
#
# Stress axis : x y z
#
# Youngs Moduli (GPa) = 48.10107 146.01994 92.40549
#
# Poissons Ratio (x) = 0.08707 0.06209
# Poissons Ratio (y) = 0.02868 0.12750
# Poissons Ratio (z) = 0.03232 0.20147
#
# Static dielectric constant tensor:
#      x y z
#    x 2.176050 0.025990 0.027390 
#    y 0.025990 1.991280 -0.014470 
#    z 0.027390 -0.014470 2.017890 
# 
# From -- ./inp_files/504899.got.cif
#   From: 2010.05.17/outbox.cif.g08.bks.cpg/sg2_253_cif.got.tgz:504899.got - 2010.06.03 11:33:40.
