data_PCOD9042934
_publ_section_title
;
Structure prediction by ZEFSAII (Michael W. Deem and Ramdas Pophale) SiO2 
 PCOD9042934
Probable space group: P -1
;
_chemical_formula_sum "Si O2"
_cell_formula_units_Z 16
_cell_length_a 8.580122
_cell_length_b 13.415610
_cell_length_c 8.809264
_cell_angle_alpha 87.635140
_cell_angle_beta 131.556357
_cell_angle_gamma 79.308686
_cell_volume 726.760066
_symmetry_space_group_name_H-M "P -1"
_symmetry_group_IT_number 2
_symmetry_cell_setting 'triclinic'
loop_
_space_group_symop_operation_xyz
x,y,z
-x,-y,-z
loop_
_atom_site_type_symbol
_atom_site_label
_atom_site_fract_x
_atom_site_fract_y
_atom_site_fract_z
Si Si1 0.047169 0.210923 0.500972
Si Si2 0.904123 0.222410 0.064166
Si Si3 0.654484 0.933836 0.734564
Si Si4 0.052903 0.590504 0.432609
Si Si5 0.501854 0.571685 0.850744
Si Si6 0.538904 0.115327 0.871251
Si Si7 0.161974 0.561892 0.155047
Si Si8 0.578647 0.193174 0.220792
O O1 0.289004 0.131800 0.656343
O O2 0.965823 0.247552 0.274580
O O3 0.107489 0.297066 0.643377
O O4 0.838161 0.174386 0.423522
O O5 0.101264 0.123003 0.155002
O O6 0.672185 0.197664 0.903436
O O7 0.896031 0.320536 0.947805
O O8 0.542248 0.845976 0.719416
O O9 0.500000 0.000000 0.500000
O O10 0.662975 0.008219 0.877004
O O11 0.256439 0.610567 0.643389
O O12 0.129006 0.561980 0.313705
O O13 0.000000 0.500000 0.500000
O O14 0.623427 0.502177 0.793255
O O15 0.546409 0.683223 0.896943
O O16 0.500000 0.500000 0.000000
O O17 0.558650 0.125245 0.064451
O O18 0.000000 0.500000 0.000000
#
# Coordination Sequence:
#
# PCOD9042934 Si02
#       8
#     2   2   2   2   2   2   2   2
#     4  10  23  45  67 100 134 183 231 285 356 419
#     4  11  25  47  69 101 143 176 240 296 355 425
#     4  12  25  47  70 101 138 183 234 301 352 415
#     4  11  25  40  66  99 138 185 233 282 345 420
#     4  11  23  45  71 103 142 182 226 289 356 422
#     4  11  24  45  72  96 135 185 228 289 358 418
#     4  12  25  43  67 103 141 185 230 290 354 426
#     4  10  25  45  69 102 139 180 234 285 348 432
#
# _framework density 22.015519000000001
#
# number of rings (size 3 to 8) (size 9 to 14) (size 15 to 20)
#    0.000    1.000    1.250    5.625    7.000    2.500 
#    4.500    0.000    0.000    0.000    0.000    0.000 
#    0.000    0.000    0.000    0.000    0.000    0.000 
#
# Total GULP energy -89199.156296 kJ/mol
# GULP energy per Si atom -5574.947269 kJ/mol
# Density = 2.196541 g / cm^3
# Si number density = 22.015519 Si / 1000 Ang^3
#
#
#
# Elastic Constant Matrix: (Units=GPa)
#
#
# Indices 1 2 3 4 5 6 
#
# 1 99.6501 34.2608 22.1357 -4.6594 -21.5365 -1.1410
# 2 34.2608 93.8437 29.7942 10.2563 -20.8141 -11.1056
# 3 22.1357 29.7942 67.6142 14.7031 -1.6063 8.4912
# 4 -4.6594 10.2563 14.7031 28.6871 -4.5457 -3.8585
# 5 -21.5365 -20.8141 -1.6063 -4.5457 40.3190 4.2854
# 6 -1.1410 -11.1056 8.4912 -3.8585 4.2854 59.1145
#
#
#
# Elastic Compliance Matrix: (Units=1/GPa)
#
#
# Indices 1 2 3 4 5 6 
#
# 1 0.013723 -0.002815 -0.004593 0.006653 0.006405 0.000366
# 2 -0.002815 0.015304 -0.005713 -0.001686 0.005647 0.003122
# 3 -0.004593 -0.005713 0.021725 -0.011304 -0.005319 -0.004635
# 4 0.006653 -0.001686 -0.011304 0.043923 0.006780 0.003811
# 5 0.006405 0.005647 -0.005319 0.006780 0.031681 0.000094
# 6 0.000366 0.003122 -0.004635 0.003811 0.000094 0.018418
#
#
# Mechanical properties :
#
#
# Convention : Reuss Voigt Hill
#
# Bulk Modulus (GPa) = 40.80117 48.16548 44.48333
# Shear Modulus (GPa) = 27.90409 37.28529 32.59469
#
# Velocity S-wave (km/s) = 3.56402 4.11979 3.85194
# Velocity P-wave (km/s) = 5.95898 6.67501 6.32713
#
# Compressibility (1/GPa) = 0.02450910
#
# Stress axis : x y z
#
# Youngs Moduli (GPa) = 72.87188 65.34276 46.03033
#
# Poissons Ratio (x) = 0.18395 0.21140
# Poissons Ratio (y) = 0.20514 0.26299
# Poissons Ratio (z) = 0.33468 0.37333
#
# Static dielectric constant tensor:
#      x y z
#    x 0.417120 2.058630 -0.161410 
#    y 2.058630 -1.315450 0.256060 
#    z -0.161410 0.256060 1.773490 
# 
# From -- ./inp_files/187975.got.cif
#   From: 2010.05.17/outbox.cif.g08.bks.cpg/sg2_94_cif.got.tgz:187975.got - 2010.06.03 11:33:40.
