data_PCOD9042575
_publ_section_title
;
Structure prediction by ZEFSAII (Michael W. Deem and Ramdas Pophale) SiO2 
 PCOD9042575
Probable space group: P -1
;
_chemical_formula_sum "Si O2"
_cell_formula_units_Z 16
_cell_length_a 8.432388
_cell_length_b 26.660313
_cell_length_c 14.689302
_cell_angle_alpha 158.007991
_cell_angle_beta 49.147915
_cell_angle_gamma 141.379014
_cell_volume 736.092745
_symmetry_space_group_name_H-M "P -1"
_symmetry_group_IT_number 2
_symmetry_cell_setting 'triclinic'
loop_
_space_group_symop_operation_xyz
x,y,z
-x,-y,-z
loop_
_atom_site_type_symbol
_atom_site_label
_atom_site_fract_x
_atom_site_fract_y
_atom_site_fract_z
Si Si1 0.528057 0.393816 0.105837
Si Si2 0.208828 0.327424 0.824024
Si Si3 0.695020 0.868886 0.418785
Si Si4 0.709680 0.986954 0.948001
Si Si5 0.813481 0.372870 0.136500
Si Si6 0.410844 0.039238 0.840735
Si Si7 0.154117 0.249834 0.517306
Si Si8 0.798285 0.640537 0.668305
O O1 0.684128 0.582655 0.323825
O O2 0.271001 0.343177 0.175154
O O3 0.451151 0.269563 0.840648
O O4 0.706369 0.385720 0.100609
O O5 0.275313 0.205550 0.626952
O O6 0.084075 0.286183 0.701792
O O7 0.028118 0.341634 0.984539
O O8 0.500000 0.500000 0.000000
O O9 0.561368 0.958011 0.635088
O O10 0.000000 0.000000 0.500000
O O11 0.002607 0.171547 0.134390
O O12 0.624824 0.941816 0.008748
O O13 0.500000 0.000000 0.000000
O O14 0.697292 0.830610 0.653802
O O15 0.571399 0.212698 0.014742
O O16 0.922933 0.543355 0.438792
O O17 0.115464 0.901055 0.682747
O O18 0.500000 0.500000 0.500000
#
# Coordination Sequence:
#
# PCOD9042575 Si02
#       8
#     2   2   2   2   2   2   2   2
#     4  11  25  45  71 101 138 186 231 284 346 416
#     4  12  27  45  69 102 142 182 234 289 349 409
#     4  12  27  45  69 102 142 182 234 289 349 409
#     4  12  28  46  75 109 141 181 231 299 352 412
#     4  11  25  45  71 101 138 186 231 284 346 416
#     4  12  26  46  73 102 141 185 234 284 347 424
#     4  12  26  46  73 102 141 185 234 284 347 424
#     4  10  23  44  72  99 138 179 229 279 343 422
#
# _framework density 21.736391999999999
#
# number of rings (size 3 to 8) (size 9 to 14) (size 15 to 20)
#    0.000    0.500    2.500    5.625   10.500    2.000 
#    0.000    1.875    0.000    0.000    0.000    0.000 
#    0.000    0.000    0.000    0.000    0.000    0.000 
#
# Total GULP energy -89447.263448 kJ/mol
# GULP energy per Si atom -5590.453965 kJ/mol
# Density = 2.168692 g / cm^3
# Si number density = 21.736392 Si / 1000 Ang^3
#
#
#
# Elastic Constant Matrix: (Units=GPa)
#
#
# Indices 1 2 3 4 5 6 
#
# 1 53.0594 8.5099 3.6549 5.9339 -20.3421 -8.1275
# 2 8.5099 107.1302 50.4702 9.6693 -11.4910 -20.3296
# 3 3.6549 50.4702 93.0854 10.0247 -24.2896 -10.3955
# 4 5.9339 9.6693 10.0247 56.3667 -5.7179 -5.8963
# 5 -20.3421 -11.4910 -24.2896 -5.7179 40.0019 -1.4648
# 6 -8.1275 -20.3296 -10.3955 -5.8963 -1.4648 38.7137
#
#
#
# Elastic Compliance Matrix: (Units=1/GPa)
#
#
# Indices 1 2 3 4 5 6 
#
# 1 0.025826 -0.001199 0.004550 -0.001062 0.015636 0.006444
# 2 -0.001199 0.013585 -0.006923 -0.000541 -0.000809 0.004910
# 3 0.004550 -0.006923 0.017532 -0.001065 0.010902 0.002278
# 4 -0.001062 -0.000541 -0.001065 0.018492 0.001377 0.002075
# 5 0.015636 -0.000809 0.010902 0.001377 0.039809 0.007501
# 6 0.006444 0.004910 0.002278 0.002075 0.007501 0.030973
#
#
# Mechanical properties :
#
#
# Convention : Reuss Voigt Hill
#
# Bulk Modulus (GPa) = 20.08097 42.06057 31.07077
# Shear Modulus (GPa) = 29.41858 39.72578 34.57218
#
# Velocity S-wave (km/s) = 3.68288 4.27970 3.99246
# Velocity P-wave (km/s) = 5.22908 6.61917 5.96476
#
# Compressibility (1/GPa) = 0.04979840
#
# Stress axis : x y z
#
# Youngs Moduli (GPa) = 38.72056 73.61005 57.03998
#
# Poissons Ratio (x) = 0.08829 -0.25955
# Poissons Ratio (y) = 0.04644 0.39489
# Poissons Ratio (z) = -0.17619 0.50961
#
# Static dielectric constant tensor:
#      x y z
#    x 1.774820 0.008170 0.027750 
#    y 0.008170 1.734980 0.012640 
#    z 0.027750 0.012640 1.660500 
# 
# From -- ./inp_files/509009.got.cif
#   From: 2010.05.17/outbox.cif.g08.bks.cpg/sg2_255_cif.got.tgz:509009.got - 2010.06.03 11:33:40.
