data_PCOD9042657
_publ_section_title
;
Structure prediction by ZEFSAII (Michael W. Deem and Ramdas Pophale) SiO2 
 PCOD9042657
Probable space group: P -1
;
_chemical_formula_sum "Si O2"
_cell_formula_units_Z 13
_cell_length_a 15.461362
_cell_length_b 5.122062
_cell_length_c 8.205124
_cell_angle_alpha 121.490601
_cell_angle_beta 121.097453
_cell_angle_gamma 54.729897
_cell_volume 430.303021
_symmetry_space_group_name_H-M "P -1"
_symmetry_group_IT_number 2
_symmetry_cell_setting 'triclinic'
loop_
_space_group_symop_operation_xyz
x,y,z
-x,-y,-z
loop_
_atom_site_type_symbol
_atom_site_label
_atom_site_fract_x
_atom_site_fract_y
_atom_site_fract_z
Si Si1 0.922981 0.327212 0.932841
Si Si2 0.500000 0.500000 0.500000
Si Si3 0.600491 0.120790 0.738029
Si Si4 0.754917 0.457757 0.058215
Si Si5 0.597191 0.183482 0.146094
Si Si6 0.248848 0.538766 0.443852
Si Si7 0.077719 0.651368 0.545657
O O1 0.850076 0.239483 0.700299
O O2 0.823613 0.570688 0.031982
O O3 0.000000 0.500000 0.000000
O O4 0.000000 0.000000 0.000000
O O5 0.573677 0.123637 0.508170
O O6 0.352605 0.303636 0.352376
O O7 0.495465 0.565523 0.730096
O O8 0.710154 0.196109 0.864196
O O9 0.569917 0.187418 0.928334
O O10 0.848189 0.285089 0.225021
O O11 0.647114 0.790806 0.115186
O O12 0.696448 0.285915 0.325611
O O13 0.174551 0.408149 0.439595
O O14 0.000000 0.500000 0.500000
O O15 0.000000 0.000000 0.500000
#
# Coordination Sequence:
#
# PCOD9042657 Si02
#       7
#     2   1   2   2   2   2   2
#     4  12  28  50  78 114 158 204 270 333 393 466
#     4   8  20  40  70  96 160 186 252 288 396 432
#     4  10  23  44  73 112 153 200 253 316 383 477
#     4  12  25  48  79 116 150 207 259 326 394 460
#     4  10  23  44  73 112 153 200 253 316 383 477
#     4  12  25  48  78 110 154 216 253 316 410 474
#     4  12  28  50  78 114 158 204 270 333 393 466
#
# _framework density 30.211268
#
# number of rings (size 3 to 8) (size 9 to 14) (size 15 to 20)
#    0.923    0.000    0.000    6.462    0.000    6.154 
#    0.000    1.538    0.000    0.000    0.000    0.000 
#    0.000    0.000    0.000    0.000    0.000    0.000 
#
# Total GULP energy -72573.048039 kJ/mol
# GULP energy per Si atom -5582.542157 kJ/mol
# Density = 3.014251 g / cm^3
# Si number density = 30.211268 Si / 1000 Ang^3
#
#
#
# Elastic Constant Matrix: (Units=GPa)
#
#
# Indices 1 2 3 4 5 6 
#
# 1 189.0968 31.7838 79.6465 15.5460 -0.0424 -17.7340
# 2 31.7838 120.7309 80.6298 7.6656 -18.3974 -14.0566
# 3 79.6465 80.6298 274.1754 -33.1225 2.3067 -3.5717
# 4 15.5460 7.6656 -33.1225 69.8103 -0.9384 -21.2975
# 5 -0.0424 -18.3974 2.3067 -0.9384 57.8979 9.9334
# 6 -17.7340 -14.0566 -3.5717 -21.2975 9.9334 62.0255
#
#
#
# Elastic Compliance Matrix: (Units=1/GPa)
#
#
# Indices 1 2 3 4 5 6 
#
# 1 0.006451 -0.000069 -0.002095 -0.002119 -0.000140 0.001003
# 2 -0.000069 0.011638 -0.003751 -0.002724 0.003652 0.000882
# 3 -0.002095 -0.003751 0.005829 0.003748 -0.001434 0.000403
# 4 -0.002119 -0.002724 0.003748 0.018571 -0.001683 0.005639
# 5 -0.000140 0.003652 -0.001434 -0.001683 0.018961 -0.002909
# 6 0.001003 0.000882 0.000403 0.005639 -0.002909 0.019034
#
#
# Mechanical properties :
#
#
# Convention : Reuss Voigt Hill
#
# Bulk Modulus (GPa) = 82.72876 107.56927 95.14901
# Shear Modulus (GPa) = 51.89710 64.07630 57.98670
#
# Velocity S-wave (km/s) = 4.14914 4.61036 4.38582
# Velocity P-wave (km/s) = 7.09906 8.00147 7.56374
#
# Compressibility (1/GPa) = 0.01208769
#
# Stress axis : x y z
#
# Youngs Moduli (GPa) = 155.02273 85.92410 171.55103
#
# Poissons Ratio (x) = 0.00592 0.35947
# Poissons Ratio (y) = 0.01067 0.64347
# Poissons Ratio (z) = 0.32483 0.32229
#
# Static dielectric constant tensor:
#      x y z
#    x 2.402660 -0.403190 -0.314140 
#    y -0.403190 3.010820 0.036490 
#    z -0.314140 0.036490 2.319700 
# 
# From -- ./inp_files/287281.got.cif
#   From: 2010.05.17/outbox.cif.g08.bks.cpg/sg2_144_cif.got.tgz:287281.got - 2010.06.03 11:33:40.
