data_PCOD9042426
_publ_section_title
;
Structure prediction by ZEFSAII (Michael W. Deem and Ramdas Pophale) SiO2 
 PCOD9042426
Probable space group: P -1
;
_chemical_formula_sum "Si O2"
_cell_formula_units_Z 16
_cell_length_a 19.550978
_cell_length_b 9.348738
_cell_length_c 5.070517
_cell_angle_alpha 108.822187
_cell_angle_beta 108.705387
_cell_angle_gamma 53.306961
_cell_volume 693.329722
_symmetry_space_group_name_H-M "P -1"
_symmetry_group_IT_number 2
_symmetry_cell_setting 'triclinic'
loop_
_space_group_symop_operation_xyz
x,y,z
-x,-y,-z
loop_
_atom_site_type_symbol
_atom_site_label
_atom_site_fract_x
_atom_site_fract_y
_atom_site_fract_z
Si Si1 0.755292 0.099397 0.006657
Si Si2 0.225906 0.309689 0.628283
Si Si3 0.298170 0.530273 0.105725
Si Si4 0.624500 0.003799 0.652883
Si Si5 0.862258 0.872562 0.491799
Si Si6 0.545466 0.827639 0.756197
Si Si7 0.041177 0.801475 0.810881
Si Si8 0.155312 0.614283 0.344215
O O1 0.673861 0.077549 0.914706
O O2 0.817304 0.970770 0.769951
O O3 0.719142 0.302043 0.987267
O O4 0.813709 0.019653 0.290237
O O5 0.258425 0.425534 0.865333
O O6 0.184174 0.416802 0.368056
O O7 0.310657 0.110752 0.571804
O O8 0.157666 0.281049 0.667971
O O9 0.398330 0.372380 0.174701
O O10 0.241320 0.603241 0.346681
O O11 0.529609 0.149189 0.511979
O O12 0.611622 0.859757 0.700408
O O13 0.962717 0.792679 0.597763
O O14 0.500000 0.000000 0.000000
O O15 0.895022 0.251330 0.391583
O O16 0.093213 0.676977 0.051235
O O17 0.000000 0.000000 0.000000
#
# Coordination Sequence:
#
# PCOD9042426 Si02
#       8
#     2   2   2   2   2   2   2   2
#     4  11  27  45  74 102 147 187 238 293 354 430
#     4  11  24  45  75 101 146 188 241 293 354 433
#     4  12  25  44  73 107 144 189 242 293 359 416
#     4  10  23  44  71 106 141 190 236 288 361 424
#     4  11  27  48  72 104 142 193 237 291 365 425
#     4  11  22  41  74 104 143 188 239 290 354 427
#     4  12  27  46  72 105 150 187 235 299 366 424
#     4  12  26  44  73 105 142 186 243 294 351 425
#
# _framework density 23.077043
#
# number of rings (size 3 to 8) (size 9 to 14) (size 15 to 20)
#    0.000    0.750    3.750    2.625    7.000    1.500 
#    0.000    0.625    0.000    0.000    0.000    0.000 
#    0.000    0.000    0.000    0.000    0.000    0.000 
#
# Total GULP energy -89500.376604 kJ/mol
# GULP energy per Si atom -5593.773538 kJ/mol
# Density = 2.302452 g / cm^3
# Si number density = 23.077043 Si / 1000 Ang^3
#
#
#
# Elastic Constant Matrix: (Units=GPa)
#
#
# Indices 1 2 3 4 5 6 
#
# 1 93.1433 32.4883 27.1732 -7.4780 3.3912 -8.1486
# 2 32.4883 114.3371 35.9788 -29.8042 7.9804 -0.5589
# 3 27.1732 35.9788 104.7380 -18.8018 -10.1816 -9.3609
# 4 -7.4780 -29.8042 -18.8018 46.7797 -2.6303 0.0650
# 5 3.3912 7.9804 -10.1816 -2.6303 32.1386 -3.0640
# 6 -8.1486 -0.5589 -9.3609 0.0650 -3.0640 33.3578
#
#
#
# Elastic Compliance Matrix: (Units=1/GPa)
#
#
# Indices 1 2 3 4 5 6 
#
# 1 0.012629 -0.002998 -0.002318 -0.000892 -0.001178 0.002278
# 2 -0.002998 0.012279 -0.002824 0.006026 -0.003290 -0.001633
# 3 -0.002318 -0.002824 0.012526 0.003169 0.005498 0.003400
# 4 -0.000892 0.006026 0.003169 0.026450 0.001851 0.000891
# 5 -0.001178 -0.003290 0.005498 0.001851 0.034365 0.004353
# 6 0.002278 -0.001633 0.003400 0.000891 0.004353 0.031859
#
#
# Mechanical properties :
#
#
# Convention : Reuss Voigt Hill
#
# Bulk Modulus (GPa) = 47.27240 55.94435 51.60838
# Shear Modulus (GPa) = 32.58608 36.89376 34.73992
#
# Velocity S-wave (km/s) = 3.76181 4.00274 3.88414
# Velocity P-wave (km/s) = 6.27673 6.75704 6.52131
#
# Compressibility (1/GPa) = 0.02115399
#
# Stress axis : x y z
#
# Youngs Moduli (GPa) = 79.18540 81.43840 79.83212
#
# Poissons Ratio (x) = 0.24418 0.18501
# Poissons Ratio (y) = 0.23743 0.22546
# Poissons Ratio (z) = 0.18351 0.22999
#
# Static dielectric constant tensor:
#      x y z
#    x 1.901480 -0.020350 -0.002920 
#    y -0.020350 1.894100 0.016930 
#    z -0.002920 0.016930 1.957290 
# 
# From -- ./inp_files/43869.got.cif
#   From: 2010.05.17/outbox.cif.g08.bks.cpg/sg2_22_cif.got.tgz:43869.got - 2010.06.03 11:33:40.
