data_PCOD9042444
_publ_section_title
;
Structure prediction by ZEFSAII (Michael W. Deem and Ramdas Pophale) SiO2 
 PCOD9042444
Probable space group: P -1
;
_chemical_formula_sum "Si O2"
_cell_formula_units_Z 10
_cell_length_a 10.511675
_cell_length_b 18.974860
_cell_length_c 11.057013
_cell_angle_alpha 159.162403
_cell_angle_beta 139.156080
_cell_angle_gamma 30.093178
_cell_volume 376.184869
_symmetry_space_group_name_H-M "P -1"
_symmetry_group_IT_number 2
_symmetry_cell_setting 'triclinic'
loop_
_space_group_symop_operation_xyz
x,y,z
-x,-y,-z
loop_
_atom_site_type_symbol
_atom_site_label
_atom_site_fract_x
_atom_site_fract_y
_atom_site_fract_z
Si Si1 0.750769 0.382074 0.413225
Si Si2 0.734985 0.939857 0.646809
Si Si3 0.523696 0.751288 0.628422
Si Si4 0.955028 0.156321 0.596737
Si Si5 0.571801 0.747960 0.381056
O O1 0.500000 0.500000 0.500000
O O2 0.729560 0.542229 0.541371
O O3 0.958338 0.336156 0.583207
O O4 0.783441 0.139845 0.990481
O O5 0.662729 0.911953 0.686299
O O6 0.500000 0.000000 0.500000
O O7 0.249436 0.840286 0.616327
O O8 0.591301 0.650765 0.376129
O O9 0.500000 0.000000 0.000000
O O10 0.772394 0.474118 0.006712
O O11 0.000000 0.000000 0.500000
O O12 0.258762 0.969207 0.473553
#
# Coordination Sequence:
#
# PCOD9042444 Si02
#       5
#     2   2   2   2   2
#     4  11  27  49  71 112 148 192 257 309 376 458
#     4  11  27  48  77 104 149 202 246 313 380 453
#     4  11  24  45  74 108 150 193 242 323 371 445
#     4  10  23  44  71 110 146 189 251 306 371 456
#     4  11  25  48  75 110 143 199 256 303 383 445
#
# _framework density 26.582671000000001
#
# number of rings (size 3 to 8) (size 9 to 14) (size 15 to 20)
#    0.000    1.200    0.000    4.800   11.200    1.600 
#   14.400    0.000    0.000    0.000    0.000    0.000 
#    0.000    0.000    0.000    0.000    0.000    0.000 
#
# Total GULP energy -55805.772340 kJ/mol
# GULP energy per Si atom -5580.577234 kJ/mol
# Density = 2.652217 g / cm^3
# Si number density = 26.582671 Si / 1000 Ang^3
#
#
#
# Elastic Constant Matrix: (Units=GPa)
#
#
# Indices 1 2 3 4 5 6 
#
# 1 129.5470 39.8944 40.5713 10.2716 15.0717 -11.1460
# 2 39.8944 202.2065 54.0021 -2.6067 -4.1524 -11.8708
# 3 40.5713 54.0021 133.2754 10.4575 21.5923 -5.0583
# 4 10.2716 -2.6067 10.4575 32.7641 1.7260 2.1315
# 5 15.0717 -4.1524 21.5923 1.7260 45.2809 8.1695
# 6 -11.1460 -11.8708 -5.0583 2.1315 8.1695 47.1087
#
#
#
# Elastic Compliance Matrix: (Units=1/GPa)
#
#
# Indices 1 2 3 4 5 6 
#
# 1 0.009359 -0.001391 -0.001540 -0.002554 -0.002827 0.002304
# 2 -0.001391 0.005956 -0.002419 0.001544 0.002015 0.000493
# 3 -0.001540 -0.002419 0.009935 -0.002708 -0.004524 0.001000
# 4 -0.002554 0.001544 -0.002708 0.032377 0.001450 -0.002222
# 5 -0.002827 0.002015 -0.004524 0.001450 0.026263 -0.005267
# 6 0.002304 0.000493 0.001000 -0.002222 -0.005267 0.023018
#
#
# Mechanical properties :
#
#
# Convention : Reuss Voigt Hill
#
# Bulk Modulus (GPa) = 68.71868 81.55160 75.13514
# Shear Modulus (GPa) = 40.83011 47.06815 43.94913
#
# Velocity S-wave (km/s) = 3.92339 4.21245 4.07049
# Velocity P-wave (km/s) = 6.81404 7.37596 7.10056
#
# Compressibility (1/GPa) = 0.01455208
#
# Stress axis : x y z
#
# Youngs Moduli (GPa) = 106.84334 167.89628 100.65017
#
# Poissons Ratio (x) = 0.23356 0.15496
# Poissons Ratio (y) = 0.14863 0.24345
# Poissons Ratio (z) = 0.16450 0.40610
#
# Static dielectric constant tensor:
#      x y z
#    x 2.073510 -0.010510 -0.066530 
#    y -0.010510 2.355130 0.083750 
#    z -0.066530 0.083750 2.441410 
# 
# From -- ./inp_files/68061.got.cif
#   From: 2010.05.17/outbox.cif.g08.bks.cpg/sg2_35_cif.got.tgz:68061.got - 2010.06.03 11:33:40.
