data_PCOD9042220
_publ_section_title
;
Structure prediction by ZEFSAII (Michael W. Deem and Ramdas Pophale) SiO2 
 PCOD9042220
Probable space group: P -1
;
_chemical_formula_sum "Si O2"
_cell_formula_units_Z 14
_cell_length_a 12.892704
_cell_length_b 15.473214
_cell_length_c 5.209829
_cell_angle_alpha 57.774248
_cell_angle_beta 127.157079
_cell_angle_gamma 135.996019
_cell_volume 566.202660
_symmetry_space_group_name_H-M "P -1"
_symmetry_group_IT_number 2
_symmetry_cell_setting 'triclinic'
loop_
_space_group_symop_operation_xyz
x,y,z
-x,-y,-z
loop_
_atom_site_type_symbol
_atom_site_label
_atom_site_fract_x
_atom_site_fract_y
_atom_site_fract_z
Si Si1 0.719906 0.221141 0.471382
Si Si2 0.321518 0.592609 0.609986
Si Si3 0.769072 0.571607 0.748154
Si Si4 0.322845 0.295739 0.922626
Si Si5 0.573233 0.961161 0.961460
Si Si6 0.842901 0.968377 0.182964
Si Si7 0.984490 0.759775 0.150278
O O1 0.718595 0.308546 0.543524
O O2 0.573689 0.178292 0.129351
O O3 0.895363 0.276534 0.531292
O O4 0.652309 0.081952 0.698072
O O5 0.229282 0.506527 0.361537
O O6 0.275162 0.511111 0.931484
O O7 0.511822 0.655430 0.765526
O O8 0.654176 0.610481 0.418841
O O9 0.934224 0.705598 0.868604
O O10 0.251318 0.160052 0.911516
O O11 0.183226 0.285963 0.896176
O O12 0.722700 0.956689 0.238459
O O13 0.500000 0.000000 0.000000
O O14 0.000000 0.000000 0.500000
O O15 0.909293 0.089596 0.913236
#
# Coordination Sequence:
#
# PCOD9042220 Si02
#       7
#     2   2   2   2   2   2   2
#     4  10  25  46  66 106 141 189 244 294 363 429
#     4  12  28  48  77 103 145 197 248 290 356 436
#     4  12  27  48  73 108 146 194 244 300 352 427
#     4  12  25  47  73 105 145 190 241 306 359 426
#     4  10  23  44  70 101 144 189 234 300 361 435
#     4  11  23  42  72 109 141 183 241 300 373 424
#     4  11  26  45  70 106 147 186 238 306 364 428
#
# _framework density 24.726126000000001
#
# number of rings (size 3 to 8) (size 9 to 14) (size 15 to 20)
#    0.000    0.857    4.286    1.286    6.000    2.286 
#    0.000    0.000    0.000    0.000    0.000    0.000 
#    0.000    0.000    0.000    0.000    0.000    0.000 
#
# Total GULP energy -78212.212693 kJ/mol
# GULP energy per Si atom -5586.586621 kJ/mol
# Density = 2.466985 g / cm^3
# Si number density = 24.726126 Si / 1000 Ang^3
#
#
#
# Elastic Constant Matrix: (Units=GPa)
#
#
# Indices 1 2 3 4 5 6 
#
# 1 166.4636 50.4335 48.6299 16.2470 26.9796 -3.7868
# 2 50.4335 133.2374 17.8794 6.3214 -4.9256 -39.6979
# 3 48.6299 17.8794 57.0162 9.5026 17.4959 -2.5083
# 4 16.2470 6.3214 9.5026 26.0680 -0.3078 -5.5272
# 5 26.9796 -4.9256 17.4959 -0.3078 49.4862 4.4725
# 6 -3.7868 -39.6979 -2.5083 -5.5272 4.4725 37.7167
#
#
#
# Elastic Compliance Matrix: (Units=1/GPa)
#
#
# Indices 1 2 3 4 5 6 
#
# 1 0.009656 -0.003982 -0.005453 -0.003900 -0.003418 -0.003751
# 2 -0.003982 0.013192 -0.001458 0.002700 0.002801 0.013451
# 3 -0.005453 -0.001458 0.025470 -0.005710 -0.006168 -0.000493
# 4 -0.003900 0.002700 -0.005710 0.043971 0.003960 0.008044
# 5 -0.003418 0.002801 -0.006168 0.003960 0.024568 -0.000139
# 6 -0.003751 0.013451 -0.000493 0.008044 -0.000139 0.041457
#
#
# Mechanical properties :
#
#
# Convention : Reuss Voigt Hill
#
# Bulk Modulus (GPa) = 37.69155 65.62252 51.65703
# Shear Modulus (GPa) = 26.46291 38.63915 32.55103
#
# Velocity S-wave (km/s) = 3.27500 3.95737 3.63225
# Velocity P-wave (km/s) = 5.43853 6.89046 6.20709
#
# Compressibility (1/GPa) = 0.02653115
#
# Stress axis : x y z
#
# Youngs Moduli (GPa) = 103.55997 75.80578 39.26238
#
# Poissons Ratio (x) = 0.30187 0.21411
# Poissons Ratio (y) = 0.41239 0.05723
# Poissons Ratio (z) = 0.56474 0.11051
#
# Static dielectric constant tensor:
#      x y z
#    x 1.920420 0.066630 -0.131760 
#    y 0.066630 1.967360 -0.014380 
#    z -0.131760 -0.014380 1.931670 
# 
# From -- ./inp_files/77269.got.cif
#   From: 2010.05.17/outbox.cif.g08.bks.cpg/sg2_39_cif.got.tgz:77269.got - 2010.06.03 11:33:40.
