data_PCOD9042265
_publ_section_title
;
Structure prediction by ZEFSAII (Michael W. Deem and Ramdas Pophale) SiO2 
 PCOD9042265
Probable space group: P -1
;
_chemical_formula_sum "Si O2"
_cell_formula_units_Z 12
_cell_length_a 18.121367
_cell_length_b 9.035336
_cell_length_c 6.166160
_cell_angle_alpha 104.701742
_cell_angle_beta 57.136457
_cell_angle_gamma 140.400626
_cell_volume 514.458169
_symmetry_space_group_name_H-M "P -1"
_symmetry_group_IT_number 2
_symmetry_cell_setting 'triclinic'
loop_
_space_group_symop_operation_xyz
x,y,z
-x,-y,-z
loop_
_atom_site_type_symbol
_atom_site_label
_atom_site_fract_x
_atom_site_fract_y
_atom_site_fract_z
Si Si1 0.939459 0.938456 0.318533
Si Si2 0.226509 0.901018 0.855931
Si Si3 0.605157 0.692976 0.590046
Si Si4 0.750976 0.397053 0.502844
Si Si5 0.503845 0.270817 0.849336
Si Si6 0.997543 0.664815 0.471148
O O1 0.827558 0.650722 0.384351
O O2 0.924771 0.101430 0.426031
O O3 0.000000 0.000000 0.500000
O O4 0.000000 0.000000 0.000000
O O5 0.218609 0.716977 0.716037
O O6 0.264494 0.066811 0.662257
O O7 0.359886 0.080496 0.873031
O O8 0.087226 0.771582 0.146623
O O9 0.500000 0.500000 0.500000
O O10 0.601232 0.543660 0.705160
O O11 0.539146 0.743921 0.845307
O O12 0.589574 0.229413 0.696670
O O13 0.834025 0.485040 0.629374
O O14 0.000000 0.500000 0.500000
#
# Coordination Sequence:
#
# PCOD9042265 Si02
#       6
#     2   2   2   2   2   2
#     4  10  24  47  70 106 144 191 242 302 364 435
#     4  11  24  45  70 104 139 187 236 290 362 429
#     4   9  22  43  70 101 142 185 228 293 358 434
#     4  11  25  44  70 104 142 186 241 299 361 430
#     4  10  23  44  70 104 139 183 237 289 362 429
#     4  11  26  47  72 103 141 189 241 297 365 435
#
# _framework density 23.325510000000001
#
# number of rings (size 3 to 8) (size 9 to 14) (size 15 to 20)
#    0.000    1.667    0.000    2.000    9.333    4.667 
#   15.000    0.000    0.000    0.000    0.000    0.000 
#    0.000    0.000    0.000    0.000    0.000    0.000 
#
# Total GULP energy -66860.184144 kJ/mol
# GULP energy per Si atom -5571.682012 kJ/mol
# Density = 2.327242 g / cm^3
# Si number density = 23.325510 Si / 1000 Ang^3
#
#
#
# Elastic Constant Matrix: (Units=GPa)
#
#
# Indices 1 2 3 4 5 6 
#
# 1 102.5949 10.8512 26.7519 -4.0848 -6.0839 19.7884
# 2 10.8512 118.5993 20.4496 18.4165 4.7339 -8.3746
# 3 26.7519 20.4496 111.8520 6.4488 22.9858 6.6136
# 4 -4.0848 18.4165 6.4488 37.1550 -6.5332 4.1566
# 5 -6.0839 4.7339 22.9858 -6.5332 29.0148 -1.8259
# 6 19.7884 -8.3746 6.6136 4.1566 -1.8259 36.6740
#
#
#
# Elastic Compliance Matrix: (Units=1/GPa)
#
#
# Indices 1 2 3 4 5 6 
#
# 1 0.012990 -0.002065 -0.004051 0.005166 0.006994 -0.006987
# 2 -0.002065 0.010069 -0.000705 -0.006013 -0.002613 0.004092
# 3 -0.004051 -0.000705 0.012742 -0.004346 -0.011831 -0.000369
# 4 0.005166 -0.006013 -0.004346 0.034207 0.012793 -0.006617
# 5 0.006994 -0.002613 -0.011831 0.012793 0.048531 -0.001271
# 6 -0.006987 0.004092 -0.000369 -0.006617 -0.001271 0.032725
#
#
# Mechanical properties :
#
#
# Convention : Reuss Voigt Hill
#
# Bulk Modulus (GPa) = 45.12945 49.90574 47.51759
# Shear Modulus (GPa) = 29.02042 38.90168 33.96105
#
# Velocity S-wave (km/s) = 3.53108 4.08827 3.81985
# Velocity P-wave (km/s) = 6.00120 6.61264 6.31433
#
# Compressibility (1/GPa) = 0.02215848
#
# Stress axis : x y z
#
# Youngs Moduli (GPa) = 76.98273 99.31241 78.48119
#
# Poissons Ratio (x) = 0.20505 0.31795
# Poissons Ratio (y) = 0.15895 0.05536
# Poissons Ratio (z) = 0.31188 0.07005
#
# Static dielectric constant tensor:
#      x y z
#    x 3.723630 1.732620 -1.616280 
#    y 1.732620 3.533120 -1.622290 
#    z -1.616280 -1.622290 3.418930 
# 
# From -- ./inp_files/19535.got.cif
#   From: 2010.05.17/outbox.cif.g08.bks.cpg/sg2_10_cif.got.tgz:19535.got - 2010.06.03 11:33:40.
