data_PCOD9042834
_publ_section_title
;
Structure prediction by ZEFSAII (Michael W. Deem and Ramdas Pophale) SiO2 
 PCOD9042834
Probable space group: P -1
;
_chemical_formula_sum "Si O2"
_cell_formula_units_Z 16
_cell_length_a 10.841433
_cell_length_b 15.663957
_cell_length_c 9.187338
_cell_angle_alpha 99.811476
_cell_angle_beta 109.198882
_cell_angle_gamma 27.880564
_cell_volume 662.970913
_symmetry_space_group_name_H-M "P -1"
_symmetry_group_IT_number 2
_symmetry_cell_setting 'triclinic'
loop_
_space_group_symop_operation_xyz
x,y,z
-x,-y,-z
loop_
_atom_site_type_symbol
_atom_site_label
_atom_site_fract_x
_atom_site_fract_y
_atom_site_fract_z
Si Si1 0.139580 0.326764 0.044840
Si Si2 0.491831 0.904407 0.133203
Si Si3 0.391246 0.700761 0.109097
Si Si4 0.696276 0.629671 0.439340
Si Si5 0.087606 0.259403 0.538946
Si Si6 0.333650 0.934201 0.625751
Si Si7 0.948912 0.310161 0.173705
Si Si8 0.807230 0.068618 0.143245
O O1 0.389620 0.190085 0.220517
O O2 0.906129 0.410327 0.065870
O O3 0.000000 0.500000 0.000000
O O4 0.277456 0.193601 0.924196
O O5 0.172966 0.118874 0.120511
O O6 0.128912 0.137204 0.576476
O O7 0.422503 0.859656 0.000749
O O8 0.564951 0.677367 0.249006
O O9 0.621103 0.487622 0.142482
O O10 0.258015 0.803298 0.929268
O O11 0.119114 0.853223 0.152495
O O12 0.667563 0.823522 0.322746
O O13 0.457572 0.820032 0.493902
O O14 0.792679 0.484781 0.519315
O O15 0.000000 0.500000 0.500000
O O16 0.100141 0.247514 0.365073
O O17 0.220618 0.928917 0.694464
#
# Coordination Sequence:
#
# PCOD9042834 Si02
#       8
#     2   2   2   2   2   2   2   2
#     4  11  22  37  57  94 126 164 206 257 317 378
#     4  11  22  37  63  90 128 165 201 257 320 371
#     4  10  23  45  64  90 124 163 220 263 306 386
#     4  11  24  40  69  98 127 167 208 266 325 372
#     4  11  24  39  62 102 128 163 209 263 319 378
#     4  11  23  41  63  95 130 166 212 261 321 377
#     4  11  22  37  63  90 128 160 207 266 314 373
#     4  10  24  43  65  88 123 173 214 256 316 382
#
# _framework density 24.133790000000001
#
# number of rings (size 3 to 8) (size 9 to 14) (size 15 to 20)
#    0.000    1.250    1.250    5.250    5.250    1.000 
#    0.000    2.500    0.000    0.000    0.000    0.000 
#    0.000    0.000    0.000    0.000    0.000    0.000 
#
# Total GULP energy -89180.068932 kJ/mol
# GULP energy per Si atom -5573.754308 kJ/mol
# Density = 2.407886 g / cm^3
# Si number density = 24.133790 Si / 1000 Ang^3
#
#
#
# Elastic Constant Matrix: (Units=GPa)
#
#
# Indices 1 2 3 4 5 6 
#
# 1 35.3906 7.4039 28.3845 1.9379 -18.6045 -2.2943
# 2 7.4039 132.5831 35.0856 7.0581 -19.8352 0.6062
# 3 28.3845 35.0856 109.7234 10.1900 -5.2374 1.8263
# 4 1.9379 7.0581 10.1900 34.7632 -0.8638 -5.3859
# 5 -18.6045 -19.8352 -5.2374 -0.8638 34.2912 -2.1223
# 6 -2.2943 0.6062 1.8263 -5.3859 -2.1223 42.1907
#
#
#
# Elastic Compliance Matrix: (Units=1/GPa)
#
#
# Indices 1 2 3 4 5 6 
#
# 1 0.056016 0.005449 -0.014980 0.001790 0.031636 0.005436
# 2 0.005449 0.009516 -0.004016 -0.000765 0.007867 0.000631
# 3 -0.014980 -0.004016 0.014188 -0.003059 -0.008496 -0.002189
# 4 0.001790 -0.000765 -0.003059 0.030392 0.001086 0.004175
# 5 0.031636 0.007867 -0.008496 0.001086 0.049892 0.004623
# 6 0.005436 0.000631 -0.002189 0.004175 0.004623 0.024849
#
#
# Mechanical properties :
#
#
# Convention : Reuss Voigt Hill
#
# Bulk Modulus (GPa) = 19.00230 46.60502 32.80366
# Shear Modulus (GPa) = 21.78751 36.03723 28.91237
#
# Velocity S-wave (km/s) = 3.00789 3.86842 3.46497
# Velocity P-wave (km/s) = 4.46699 6.26945 5.44334
#
# Compressibility (1/GPa) = 0.05262520
#
# Stress axis : x y z
#
# Youngs Moduli (GPa) = 17.85211 105.08873 70.48109
#
# Poissons Ratio (x) = -0.57261 1.05579
# Poissons Ratio (y) = -0.09727 0.28307
# Poissons Ratio (z) = 0.26742 0.42207
#
# Static dielectric constant tensor:
#      x y z
#    x 2.123920 0.055850 0.025510 
#    y 0.055850 1.953420 0.017880 
#    z 0.025510 0.017880 1.936190 
# 
# From -- ./inp_files/457313.got.cif
#   From: 2010.05.17/outbox.cif.g08.bks.cpg/sg2_229_cif.got.tgz:457313.got - 2010.06.03 11:33:40.
