data_PCOD9042384
_publ_section_title
;
Structure prediction by ZEFSAII (Michael W. Deem and Ramdas Pophale) SiO2 
 PCOD9042384
Probable space group: P -1
;
_chemical_formula_sum "Si O2"
_cell_formula_units_Z 16
_cell_length_a 15.269399
_cell_length_b 14.925121
_cell_length_c 13.857336
_cell_angle_alpha 19.350512
_cell_angle_beta 40.698796
_cell_angle_gamma 40.206325
_cell_volume 665.001621
_symmetry_space_group_name_H-M "P -1"
_symmetry_group_IT_number 2
_symmetry_cell_setting 'triclinic'
loop_
_space_group_symop_operation_xyz
x,y,z
-x,-y,-z
loop_
_atom_site_type_symbol
_atom_site_label
_atom_site_fract_x
_atom_site_fract_y
_atom_site_fract_z
Si Si1 0.144471 0.346772 0.664379
Si Si2 0.696576 0.229918 0.846765
Si Si3 0.519987 0.622827 0.962405
Si Si4 0.300348 0.950943 0.579790
Si Si5 0.839966 0.338514 0.335140
Si Si6 0.094288 0.168655 0.689064
Si Si7 0.423913 0.789076 0.226458
Si Si8 0.142576 0.166063 0.302624
O O1 0.246560 0.493309 0.489615
O O2 0.175209 0.298115 0.573172
O O3 0.999112 0.568546 0.556597
O O4 0.175116 0.034678 0.995384
O O5 0.621516 0.265148 0.976747
O O6 0.582220 0.196887 0.898043
O O7 0.617246 0.356364 0.204166
O O8 0.500000 0.500000 0.000000
O O9 0.596749 0.872156 0.643828
O O10 0.187300 0.964127 0.744529
O O11 0.226169 0.109734 0.387593
O O12 0.733932 0.214222 0.612801
O O13 0.982982 0.324871 0.284989
O O14 0.864389 0.129903 0.435958
O O15 0.793332 0.646475 0.016881
O O16 0.000000 0.000000 0.000000
O O17 0.500000 0.500000 0.500000
O O18 0.500000 0.000000 0.000000
#
# Coordination Sequence:
#
# PCOD9042384 Si02
#       8
#     2   2   2   2   2   2   2   2
#     4  11  24  44  73 101 144 183 231 292 358 423
#     4  12  26  47  72 104 140 194 242 291 353 430
#     4  12  27  47  71 101 148 188 242 292 347 427
#     4  12  27  43  74 104 136 189 241 287 359 426
#     4  10  23  46  69  99 143 176 231 296 360 419
#     4  11  25  45  73 106 149 181 230 304 359 425
#     4  12  28  46  74 104 145 188 243 301 368 427
#     4  10  23  44  71 102 135 183 229 298 355 427
#
# _framework density 24.060091
#
# number of rings (size 3 to 8) (size 9 to 14) (size 15 to 20)
#    0.000    0.750    1.250    4.875   10.500    0.000 
#    4.500    0.000    0.000    0.000    0.000    0.000 
#    0.000    0.000    0.000    0.000    0.000    0.000 
#
# Total GULP energy -89505.491303 kJ/mol
# GULP energy per Si atom -5594.093206 kJ/mol
# Density = 2.400533 g / cm^3
# Si number density = 24.060091 Si / 1000 Ang^3
#
#
#
# Elastic Constant Matrix: (Units=GPa)
#
#
# Indices 1 2 3 4 5 6 
#
# 1 122.1669 -5.6602 16.9440 -14.1748 -3.5301 8.5286
# 2 -5.6602 45.6850 23.6126 -7.8093 -2.5433 -7.4258
# 3 16.9440 23.6126 131.9745 -18.1646 -11.9454 -4.0672
# 4 -14.1748 -7.8093 -18.1646 37.4164 -6.3359 2.8169
# 5 -3.5301 -2.5433 -11.9454 -6.3359 40.7477 -9.0913
# 6 8.5286 -7.4258 -4.0672 2.8169 -9.0913 19.9537
#
#
#
# Elastic Compliance Matrix: (Units=1/GPa)
#
#
# Indices 1 2 3 4 5 6 
#
# 1 0.009110 0.001687 -0.001066 0.003625 0.000283 -0.003866
# 2 0.001687 0.026477 -0.003777 0.004210 0.003428 0.009330
# 3 -0.001066 -0.003777 0.009274 0.003740 0.003411 0.001967
# 4 0.003625 0.004210 0.003740 0.031947 0.006466 -0.000785
# 5 0.000283 0.003428 0.003411 0.006466 0.030049 0.014628
# 6 -0.003866 0.009330 0.001967 -0.000785 0.014628 0.062417
#
#
# Mechanical properties :
#
#
# Convention : Reuss Voigt Hill
#
# Bulk Modulus (GPa) = 25.94096 41.06880 33.50488
# Shear Modulus (GPa) = 26.53421 37.28555 31.90988
#
# Velocity S-wave (km/s) = 3.32449 3.94087 3.64573
# Velocity P-wave (km/s) = 5.05386 6.14928 5.62828
#
# Compressibility (1/GPa) = 0.03854908
#
# Stress axis : x y z
#
# Youngs Moduli (GPa) = 109.76722 37.76878 107.83040
#
# Poissons Ratio (x) = -0.06370 0.11495
# Poissons Ratio (y) = -0.18514 0.40723
# Poissons Ratio (z) = 0.11702 0.14264
#
# Static dielectric constant tensor:
#      x y z
#    x 1.810420 0.216670 0.057750 
#    y 0.216670 1.561320 -0.040690 
#    z 0.057750 -0.040690 1.890410 
# 
# From -- ./inp_files/534001.got.cif
#   From: 2010.05.17/outbox.cif.g08.bks.cpg/sg2_268_cif.got.tgz:534001.got - 2010.06.03 11:33:40.
