data_PCOD9042985
_publ_section_title
;
Structure prediction by ZEFSAII (Michael W. Deem and Ramdas Pophale) SiO2 
 PCOD9042985
Probable space group: P -1
;
_chemical_formula_sum "Si O2"
_cell_formula_units_Z 16
_cell_length_a 13.430723
_cell_length_b 8.501294
_cell_length_c 12.155558
_cell_angle_alpha 49.612247
_cell_angle_beta 42.224486
_cell_angle_gamma 51.787197
_cell_volume 683.831933
_symmetry_space_group_name_H-M "P -1"
_symmetry_group_IT_number 2
_symmetry_cell_setting 'triclinic'
loop_
_space_group_symop_operation_xyz
x,y,z
-x,-y,-z
loop_
_atom_site_type_symbol
_atom_site_label
_atom_site_fract_x
_atom_site_fract_y
_atom_site_fract_z
Si Si1 0.557526 0.430692 0.138011
Si Si2 0.701139 0.722119 0.525734
Si Si3 0.623454 0.132538 0.819262
Si Si4 0.911361 0.743315 0.762332
Si Si5 0.825196 0.475539 0.750956
Si Si6 0.207891 0.575187 0.851652
Si Si7 0.731649 0.391449 0.453677
Si Si8 0.939763 0.967191 0.185824
O O1 0.469537 0.245722 0.299441
O O2 0.430103 0.658483 0.155516
O O3 0.670124 0.409910 0.160509
O O4 0.663532 0.448097 0.941241
O O5 0.806808 0.580901 0.598794
O O6 0.704008 0.586125 0.474165
O O7 0.775611 0.912217 0.350284
O O8 0.631841 0.233080 0.645858
O O9 0.790565 0.972557 0.773811
O O10 0.500000 0.000000 0.000000
O O11 0.874855 0.631243 0.729458
O O12 0.088848 0.735472 0.620671
O O13 0.876506 0.592584 0.955871
O O14 0.940311 0.239370 0.768577
O O15 0.288811 0.526340 0.690590
O O16 0.085944 0.806945 0.836716
O O17 0.000000 0.000000 0.000000
#
# Coordination Sequence:
#
# PCOD9042985 Si02
#       8
#     2   2   2   2   2   2   2   2
#     4  10  23  45  67  94 131 172 219 267 320 388
#     4  11  25  42  69  97 131 170 224 260 322 389
#     4  11  22  40  67  93 131 169 213 266 327 377
#     4  11  22  43  68  96 130 169 217 270 321 383
#     4  11  22  42  71  90 134 169 214 271 322 372
#     4  11  24  42  71  93 136 170 213 268 331 375
#     4  11  25  42  67 100 129 169 221 269 316 391
#     4  12  23  43  68  99 129 177 211 266 327 385
#
# _framework density 23.397563000000002
#
# number of rings (size 3 to 8) (size 9 to 14) (size 15 to 20)
#    0.000    1.000    6.250    1.500    1.750    4.500 
#    0.000    0.000    2.750    0.000    0.000    0.000 
#    0.000    0.000    0.000    0.000    0.000    0.000 
#
# Total GULP energy -89515.863905 kJ/mol
# GULP energy per Si atom -5594.741494 kJ/mol
# Density = 2.334431 g / cm^3
# Si number density = 23.397563 Si / 1000 Ang^3
#
#
#
# Elastic Constant Matrix: (Units=GPa)
#
#
# Indices 1 2 3 4 5 6 
#
# 1 67.4103 11.2005 32.1498 -10.9164 14.2334 7.9179
# 2 11.2005 96.7200 16.7767 -1.1121 4.1122 -11.0017
# 3 32.1498 16.7767 188.3714 -24.2967 2.9007 20.0055
# 4 -10.9164 -1.1121 -24.2967 24.0851 5.5125 -2.8835
# 5 14.2334 4.1122 2.9007 5.5125 51.4274 12.0290
# 6 7.9179 -11.0017 20.0055 -2.8835 12.0290 24.9642
#
#
#
# Elastic Compliance Matrix: (Units=1/GPa)
#
#
# Indices 1 2 3 4 5 6 
#
# 1 0.018505 -0.001734 -0.001760 0.007519 -0.005264 -0.001818
# 2 -0.001734 0.011836 -0.001638 -0.000412 -0.002225 0.008103
# 3 -0.001760 -0.001638 0.007025 0.005315 0.000973 -0.005648
# 4 0.007519 -0.000412 0.005315 0.052709 -0.008819 0.003512
# 5 -0.005264 -0.002225 0.000973 -0.008819 0.025053 -0.013182
# 6 -0.001818 0.008103 -0.005648 0.003512 -0.013182 0.055489
#
#
# Mechanical properties :
#
#
# Convention : Reuss Voigt Hill
#
# Bulk Modulus (GPa) = 36.89714 52.52842 44.71278
# Shear Modulus (GPa) = 26.32779 39.58699 32.95739
#
# Velocity S-wave (km/s) = 3.35809 4.11777 3.75718
# Velocity P-wave (km/s) = 5.55334 6.71618 6.16225
#
# Compressibility (1/GPa) = 0.02710237
#
# Stress axis : x y z
#
# Youngs Moduli (GPa) = 54.04046 84.49134 142.34355
#
# Poissons Ratio (x) = 0.14652 0.25050
# Poissons Ratio (y) = 0.09372 0.23309
# Poissons Ratio (z) = 0.09510 0.13836
#
# Static dielectric constant tensor:
#      x y z
#    x 1.949770 -0.001720 -0.022400 
#    y -0.001720 1.890230 0.013260 
#    z -0.022400 0.013260 1.903830 
# 
# From -- ./inp_files/446743.got.cif
#   From: 2010.05.17/outbox.cif.g08.bks.cpg/sg2_224_cif.got.tgz:446743.got - 2010.06.03 11:33:40.
