data_PCOD9042170
_publ_section_title
;
Structure prediction by ZEFSAII (Michael W. Deem and Ramdas Pophale) SiO2 
 PCOD9042170
Probable space group: P -1
;
_chemical_formula_sum "Si O2"
_cell_formula_units_Z 16
_cell_length_a 12.371491
_cell_length_b 8.782916
_cell_length_c 8.241447
_cell_angle_alpha 108.282518
_cell_angle_beta 65.928601
_cell_angle_gamma 127.555725
_cell_volume 645.553372
_symmetry_space_group_name_H-M "P -1"
_symmetry_group_IT_number 2
_symmetry_cell_setting 'triclinic'
loop_
_space_group_symop_operation_xyz
x,y,z
-x,-y,-z
loop_
_atom_site_type_symbol
_atom_site_label
_atom_site_fract_x
_atom_site_fract_y
_atom_site_fract_z
Si Si1 0.779107 0.021649 0.404431
Si Si2 0.977067 0.590811 0.201782
Si Si3 0.169021 0.008707 0.262912
Si Si4 0.766616 0.405536 0.840659
Si Si5 0.298634 0.679483 0.513099
Si Si6 0.455659 0.354188 0.726910
Si Si7 0.931791 0.819241 0.862783
Si Si8 0.472058 0.252547 0.057358
O O1 0.689873 0.119433 0.459514
O O2 0.932019 0.174723 0.283868
O O3 0.812763 0.988285 0.554748
O O4 0.698510 0.814196 0.298393
O O5 0.110037 0.631440 0.242505
O O6 0.824057 0.448161 0.324750
O O7 0.026724 0.810009 0.225688
O O8 0.000000 0.500000 0.000000
O O9 0.149189 0.161659 0.233436
O O10 0.321343 0.059282 0.122954
O O11 0.746925 0.419511 0.667650
O O12 0.825951 0.616280 0.945734
O O13 0.616673 0.258030 0.968331
O O14 0.439061 0.679136 0.455807
O O15 0.502638 0.575292 0.781728
O O16 0.460962 0.304422 0.895613
O O17 0.000000 0.000000 0.000000
#
# Coordination Sequence:
#
# PCOD9042170 Si02
#       8
#     2   2   2   2   2   2   2   2
#     4  12  24  42  68 101 140 179 226 282 341 405
#     4  12  26  43  68 101 136 175 226 287 340 399
#     4  12  26  42  65 107 135 173 228 286 341 392
#     4  11  22  46  71  93 137 186 220 272 347 402
#     4  11  23  45  69  96 137 184 225 272 342 417
#     4  10  23  44  72  99 133 187 228 269 345 405
#     4  12  24  42  72  97 135 183 232 279 334 409
#     4  10  23  44  69  98 137 177 231 277 327 412
#
# _framework density 24.784939000000001
#
# number of rings (size 3 to 8) (size 9 to 14) (size 15 to 20)
#    0.000    0.750    2.500    6.375    1.750    3.000 
#    0.000    0.000    0.000    0.000    0.000    0.000 
#    0.000    0.000    0.000    0.000    0.000    0.000 
#
# Total GULP energy -89452.363230 kJ/mol
# GULP energy per Si atom -5590.772702 kJ/mol
# Density = 2.472853 g / cm^3
# Si number density = 24.784939 Si / 1000 Ang^3
#
#
#
# Elastic Constant Matrix: (Units=GPa)
#
#
# Indices 1 2 3 4 5 6 
#
# 1 64.6568 21.5101 25.8930 -3.9639 -12.4698 2.8513
# 2 21.5101 80.0105 28.6998 7.6717 4.7078 6.0210
# 3 25.8930 28.6998 105.2985 -7.2027 -24.6444 14.1163
# 4 -3.9639 7.6717 -7.2027 35.2813 11.2930 -8.8141
# 5 -12.4698 4.7078 -24.6444 11.2930 34.3338 -0.0888
# 6 2.8513 6.0210 14.1163 -8.8141 -0.0888 37.1955
#
#
#
# Elastic Compliance Matrix: (Units=1/GPa)
#
#
# Indices 1 2 3 4 5 6 
#
# 1 0.019052 -0.004885 -0.001958 0.001012 0.005852 0.000327
# 2 -0.004885 0.016322 -0.004795 -0.003358 -0.006353 -0.001259
# 3 -0.001958 -0.004795 0.014304 -0.000767 0.010454 -0.004659
# 4 0.001012 -0.003358 -0.000767 0.034849 -0.011162 0.008989
# 5 0.005852 -0.006353 0.010454 -0.011162 0.043282 -0.005929
# 6 0.000327 -0.001259 -0.004659 0.008989 -0.005929 0.030948
#
#
# Mechanical properties :
#
#
# Convention : Reuss Voigt Hill
#
# Bulk Modulus (GPa) = 37.87857 44.68575 41.28216
# Shear Modulus (GPa) = 26.20049 32.95299 29.57674
#
# Velocity S-wave (km/s) = 3.25486 3.65027 3.45822
# Velocity P-wave (km/s) = 5.42600 5.98619 5.71297
#
# Compressibility (1/GPa) = 0.02640015
#
# Stress axis : x y z
#
# Youngs Moduli (GPa) = 52.48777 61.26565 69.90954
#
# Poissons Ratio (x) = 0.29931 0.13691
# Poissons Ratio (y) = 0.25643 0.33524
# Poissons Ratio (z) = 0.10280 0.29379
#
# Static dielectric constant tensor:
#      x y z
#    x 2.084040 -0.043340 -0.032080 
#    y -0.043340 1.980590 0.024600 
#    z -0.032080 0.024600 1.942180 
# 
# From -- ./inp_files/244459.got.cif
#   From: 2010.05.17/outbox.cif.g08.bks.cpg/sg2_123_cif.got.tgz:244459.got - 2010.06.03 11:33:40.
