data_PCOD9042623
_publ_section_title
;
Structure prediction by ZEFSAII (Michael W. Deem and Ramdas Pophale) SiO2 
 PCOD9042623
Probable space group: P -1
;
_chemical_formula_sum "Si O2"
_cell_formula_units_Z 13
_cell_length_a 7.654996
_cell_length_b 12.113116
_cell_length_c 8.984161
_cell_angle_alpha 130.011002
_cell_angle_beta 101.680873
_cell_angle_gamma 58.483929
_cell_volume 532.430460
_symmetry_space_group_name_H-M "P -1"
_symmetry_group_IT_number 2
_symmetry_cell_setting 'triclinic'
loop_
_space_group_symop_operation_xyz
x,y,z
-x,-y,-z
loop_
_atom_site_type_symbol
_atom_site_label
_atom_site_fract_x
_atom_site_fract_y
_atom_site_fract_z
Si Si1 0.342750 0.045821 0.323280
Si Si2 0.783712 0.965561 0.399698
Si Si3 0.500000 0.500000 0.500000
Si Si4 0.760394 0.148050 0.058129
Si Si5 0.180114 0.664867 0.044509
Si Si6 0.355936 0.656024 0.371073
Si Si7 0.816414 0.565031 0.402951
O O1 0.202864 0.032308 0.417079
O O2 0.262993 0.241344 0.468132
O O3 0.583021 0.950699 0.328825
O O4 0.338921 0.961963 0.097333
O O5 0.973640 0.811118 0.216827
O O6 0.736458 0.145736 0.487175
O O7 0.296373 0.560384 0.394681
O O8 0.362679 0.709657 0.718114
O O9 0.756976 0.249123 0.997726
O O10 0.000000 0.000000 0.000000
O O11 0.339958 0.598689 0.154291
O O12 0.137661 0.536172 0.832663
O O13 0.596587 0.569582 0.413722
O O14 0.000000 0.500000 0.500000
#
# Coordination Sequence:
#
# PCOD9042623 Si02
#       7
#     2   2   1   2   2   2   2
#     4  10  24  45  70 100 150 185 242 299 381 436
#     4  10  23  44  73 105 138 192 242 309 369 444
#     4  12  28  42  74 108 150 186 252 310 366 428
#     4  12  26  47  74 111 145 199 248 309 367 448
#     4  12  24  45  79 103 145 194 254 303 365 444
#     4  11  24  44  70 108 141 190 250 304 363 436
#     4  11  25  44  68 105 151 190 236 307 370 438
#
# _framework density 24.416335
#
# number of rings (size 3 to 8) (size 9 to 14) (size 15 to 20)
#    0.000    0.923    3.077    2.769    2.154    1.846 
#    0.000    3.846    0.000    0.000    0.000    0.000 
#    0.000    0.000    0.000    0.000    0.000    0.000 
#
# Total GULP energy -72447.992775 kJ/mol
# GULP energy per Si atom -5572.922521 kJ/mol
# Density = 2.436076 g / cm^3
# Si number density = 24.416335 Si / 1000 Ang^3
#
#
#
# Elastic Constant Matrix: (Units=GPa)
#
#
# Indices 1 2 3 4 5 6 
#
# 1 77.8236 33.4157 51.7659 -0.5065 -6.8502 -15.2009
# 2 33.4157 144.2746 74.9804 -11.4551 -0.1499 8.2656
# 3 51.7659 74.9804 240.7562 16.8366 -3.2153 -17.7283
# 4 -0.5065 -11.4551 16.8366 50.5935 -3.5648 8.2241
# 5 -6.8502 -0.1499 -3.2153 -3.5648 49.3083 -0.3375
# 6 -15.2009 8.2656 -17.7283 8.2241 -0.3375 38.3481
#
#
#
# Elastic Compliance Matrix: (Units=1/GPa)
#
#
# Indices 1 2 3 4 5 6 
#
# 1 0.017178 -0.003364 -0.002057 -0.000851 0.002227 0.006785
# 2 -0.003364 0.009997 -0.003117 0.004188 -0.000377 -0.005831
# 3 -0.002057 -0.003117 0.006042 -0.003291 -0.000116 0.003355
# 4 -0.000851 0.004188 -0.003291 0.023146 0.001300 -0.007714
# 5 0.002227 -0.000377 -0.000116 0.001300 0.020681 0.000814
# 6 0.006785 -0.005831 0.003355 -0.007714 0.000814 0.033236
#
#
# Mechanical properties :
#
#
# Convention : Reuss Voigt Hill
#
# Bulk Modulus (GPa) = 61.95449 87.01982 74.48716
# Shear Modulus (GPa) = 37.66897 47.82947 42.74922
#
# Velocity S-wave (km/s) = 3.93208 4.43076 4.18885
# Velocity P-wave (km/s) = 6.78560 7.86720 7.34633
#
# Compressibility (1/GPa) = 0.01614088
#
# Stress axis : x y z
#
# Youngs Moduli (GPa) = 58.21422 100.03421 165.49916
#
# Poissons Ratio (x) = 0.33647 0.34044
# Poissons Ratio (y) = 0.19581 0.51592
# Poissons Ratio (z) = 0.11975 0.31184
#
# Static dielectric constant tensor:
#      x y z
#    x 2.072730 -0.002420 -0.065190 
#    y -0.002420 2.070960 -0.157630 
#    z -0.065190 -0.157630 2.083140 
# 
# From -- ./inp_files/145825.got.cif
#   From: 2010.05.17/outbox.cif.g08.bks.cpg/sg2_73_cif.got.tgz:145825.got - 2010.06.03 11:33:40.
