data_PCOD9042940
_publ_section_title
;
Structure prediction by ZEFSAII (Michael W. Deem and Ramdas Pophale) SiO2 
 PCOD9042940
Probable space group: P -1
;
_chemical_formula_sum "Si O2"
_cell_formula_units_Z 14
_cell_length_a 6.424596
_cell_length_b 16.144336
_cell_length_c 7.598904
_cell_angle_alpha 55.355693
_cell_angle_beta 67.421529
_cell_angle_gamma 58.721770
_cell_volume 549.739748
_symmetry_space_group_name_H-M "P -1"
_symmetry_group_IT_number 2
_symmetry_cell_setting 'triclinic'
loop_
_space_group_symop_operation_xyz
x,y,z
-x,-y,-z
loop_
_atom_site_type_symbol
_atom_site_label
_atom_site_fract_x
_atom_site_fract_y
_atom_site_fract_z
Si Si1 0.164893 0.261113 0.217000
Si Si2 0.106846 0.071564 0.267090
Si Si3 0.313002 0.771254 0.037467
Si Si4 0.561986 0.147189 0.745726
Si Si5 0.068397 0.300528 0.620978
Si Si6 0.230598 0.527811 0.938878
Si Si7 0.550148 0.620199 0.624054
O O1 0.112677 0.277035 0.424785
O O2 0.201302 0.142373 0.279338
O O3 0.410504 0.278251 0.064672
O O4 0.925777 0.348334 0.089603
O O5 0.878491 0.149909 0.131778
O O6 0.000000 0.000000 0.500000
O O7 0.321399 0.974944 0.212495
O O8 0.328947 0.840767 0.118036
O O9 0.197024 0.686762 0.245808
O O10 0.266603 0.192691 0.783801
O O11 0.594359 0.247203 0.501096
O O12 0.187965 0.387851 0.525467
O O13 0.384103 0.436523 0.138035
O O14 0.387194 0.552998 0.700949
O O15 0.000000 0.500000 0.000000
#
# Coordination Sequence:
#
# PCOD9042940 Si02
#       7
#     2   2   2   2   2   2   2
#     4  12  27  43  72 109 140 184 237 288 348 417
#     4  12  26  44  72 104 143 184 234 290 349 419
#     4  12  26  44  71 103 145 186 230 288 348 422
#     4  10  23  45  67 100 141 185 231 283 350 413
#     4  10  23  46  70 100 147 180 230 288 347 413
#     4  11  20  41  72 105 137 183 234 286 348 410
#     4   9  22  40  73  99 133 186 230 280 347 410
#
# _framework density 25.466595999999999
#
# number of rings (size 3 to 8) (size 9 to 14) (size 15 to 20)
#    0.857    0.286    1.429    4.714    2.000    5.714 
#    0.000    1.429    0.000    0.000    0.000    0.000 
#    0.000    0.000    0.000    0.000    0.000    0.000 
#
# Total GULP energy -78127.263129 kJ/mol
# GULP energy per Si atom -5580.518795 kJ/mol
# Density = 2.540863 g / cm^3
# Si number density = 25.466596 Si / 1000 Ang^3
#
#
#
# Elastic Constant Matrix: (Units=GPa)
#
#
# Indices 1 2 3 4 5 6 
#
# 1 124.1836 26.7893 67.8773 9.8988 -28.3302 -13.0125
# 2 26.7893 94.4392 28.1293 -13.4454 -15.8391 -13.9602
# 3 67.8773 28.1293 153.1447 -6.3550 -27.4651 -11.0932
# 4 9.8988 -13.4454 -6.3550 24.0685 -6.2722 -2.8574
# 5 -28.3302 -15.8391 -27.4651 -6.2722 61.7127 -0.3478
# 6 -13.0125 -13.9602 -11.0932 -2.8574 -0.3478 33.8991
#
#
#
# Elastic Compliance Matrix: (Units=1/GPa)
#
#
# Indices 1 2 3 4 5 6 
#
# 1 0.012476 -0.002484 -0.004849 -0.007027 0.002226 0.001610
# 2 -0.002484 0.014288 -0.000004 0.010647 0.003640 0.005864
# 3 -0.004849 -0.000004 0.009484 0.005364 0.002549 0.001719
# 4 -0.007027 0.010647 0.005364 0.054723 0.007502 0.008132
# 5 0.002226 0.003640 0.002549 0.007502 0.020080 0.004026
# 6 0.001610 0.005864 0.001719 0.008132 0.004026 0.033821
#
#
# Mechanical properties :
#
#
# Convention : Reuss Voigt Hill
#
# Bulk Modulus (GPa) = 46.35300 68.59547 57.47423
# Shear Modulus (GPa) = 29.98757 40.53415 35.26086
#
# Velocity S-wave (km/s) = 3.43523 3.99389 3.72505
# Velocity P-wave (km/s) = 5.82884 6.94710 6.41239
#
# Compressibility (1/GPa) = 0.02157358
#
# Stress axis : x y z
#
# Youngs Moduli (GPa) = 80.15694 69.99011 105.44219
#
# Poissons Ratio (x) = 0.17384 0.51128
# Poissons Ratio (y) = 0.19909 0.00043
# Poissons Ratio (z) = 0.38868 0.00029
#
# Static dielectric constant tensor:
#      x y z
#    x 2.217000 -0.072100 -0.112710 
#    y -0.072100 2.161560 0.129450 
#    z -0.112710 0.129450 2.160090 
# 
# From -- ./inp_files/137132.got.cif
#   From: 2010.05.17/outbox.cif.g08.bks.cpg/sg2_69_cif.got.tgz:137132.got - 2010.06.03 11:33:40.
