data_PCOD9042495
_publ_section_title
;
Structure prediction by ZEFSAII (Michael W. Deem and Ramdas Pophale) SiO2 
 PCOD9042495
Probable space group: P -1
;
_chemical_formula_sum "Si O2"
_cell_formula_units_Z 16
_cell_length_a 5.360220
_cell_length_b 9.191069
_cell_length_c 17.013587
_cell_angle_alpha 123.722056
_cell_angle_beta 87.198794
_cell_angle_gamma 119.078051
_cell_volume 580.463057
_symmetry_space_group_name_H-M "P -1"
_symmetry_group_IT_number 2
_symmetry_cell_setting 'triclinic'
loop_
_space_group_symop_operation_xyz
x,y,z
-x,-y,-z
loop_
_atom_site_type_symbol
_atom_site_label
_atom_site_fract_x
_atom_site_fract_y
_atom_site_fract_z
Si Si1 0.819387 0.107625 0.711191
Si Si2 0.773413 0.431098 0.911078
Si Si3 0.102180 0.346853 0.428837
Si Si4 0.418040 0.441869 0.642707
Si Si5 0.285914 0.060645 0.611764
Si Si6 0.647055 0.210719 0.267383
Si Si7 0.278667 0.278807 0.123791
Si Si8 0.648225 0.897994 0.067891
O O1 0.842960 0.293677 0.814165
O O2 0.588610 0.076013 0.635720
O O3 0.139748 0.153742 0.698638
O O4 0.644832 0.900827 0.705960
O O5 0.797689 0.609709 0.909828
O O6 0.453090 0.271268 0.911236
O O7 0.000000 0.500000 0.000000
O O8 0.415692 0.479796 0.419734
O O9 0.000000 0.500000 0.500000
O O10 0.883496 0.205449 0.317502
O O11 0.984794 0.182293 0.452901
O O12 0.340534 0.208444 0.582754
O O13 0.223257 0.546780 0.679549
O O14 0.610604 0.568920 0.756493
O O15 0.562848 0.057576 0.149352
O O16 0.000278 0.060053 0.095775
O O17 0.475816 0.221870 0.049478
#
# Coordination Sequence:
#
# PCOD9042495 Si02
#       8
#     2   2   2   2   2   2   2   2
#     4  10  23  45  70 104 145 194 243 298 365 436
#     4  11  25  38  62  99 143 196 246 302 357 426
#     4  11  26  51  75 106 146 187 240 307 380 449
#     4  12  25  42  77 103 144 192 244 307 367 440
#     4  11  25  46  76 108 144 190 244 303 369 445
#     4  10  23  44  72 101 144 193 243 298 373 432
#     4  11  24  41  66  99 140 194 251 300 359 421
#     4  10  24  42  63  96 144 189 246 298 349 432
#
# _framework density 27.564198999999999
#
# number of rings (size 3 to 8) (size 9 to 14) (size 15 to 20)
#    0.000    1.250    3.750    0.375    5.250    9.000 
#    0.000    0.625    0.000    0.000    0.000    0.000 
#    0.000    0.000    0.000    0.000    0.000    0.000 
#
# Total GULP energy -89415.193674 kJ/mol
# GULP energy per Si atom -5588.449605 kJ/mol
# Density = 2.750146 g / cm^3
# Si number density = 27.564199 Si / 1000 Ang^3
#
#
#
# Elastic Constant Matrix: (Units=GPa)
#
#
# Indices 1 2 3 4 5 6 
#
# 1 62.6107 39.6431 34.5910 -9.0594 -4.8152 -14.6139
# 2 39.6431 182.3849 74.4722 19.3219 -2.4302 -23.1715
# 3 34.5910 74.4722 109.3229 -12.5006 -6.1186 -19.0514
# 4 -9.0594 19.3219 -12.5006 44.3123 -4.6991 1.6081
# 5 -4.8152 -2.4302 -6.1186 -4.6991 47.5515 -6.2955
# 6 -14.6139 -23.1715 -19.0514 1.6081 -6.2955 50.4402
#
#
#
# Elastic Compliance Matrix: (Units=1/GPa)
#
#
# Indices 1 2 3 4 5 6 
#
# 1 0.021723 -0.003513 -0.003094 0.005245 0.002627 0.003672
# 2 -0.003513 0.009558 -0.006033 -0.006753 -0.001157 0.001165
# 3 -0.003094 -0.006033 0.015509 0.006537 0.002321 0.002271
# 4 0.005245 -0.006753 0.006537 0.028829 0.003937 0.000459
# 5 0.002627 -0.001157 0.002321 0.003937 0.022425 0.003780
# 6 0.003672 0.001165 0.002271 0.000459 0.003780 0.022740
#
#
# Mechanical properties :
#
#
# Convention : Reuss Voigt Hill
#
# Bulk Modulus (GPa) = 46.48851 72.41459 59.45155
# Shear Modulus (GPa) = 32.62983 42.16829 37.39906
#
# Velocity S-wave (km/s) = 3.44434 3.91554 3.68747
# Velocity P-wave (km/s) = 5.72015 6.83887 6.30437
#
# Compressibility (1/GPa) = 0.02151069
#
# Stress axis : x y z
#
# Youngs Moduli (GPa) = 46.03377 104.62413 64.47701
#
# Poissons Ratio (x) = 0.36750 0.19949
# Poissons Ratio (y) = 0.16170 0.38902
# Poissons Ratio (z) = 0.14243 0.63125
#
# Static dielectric constant tensor:
#      x y z
#    x 2.201640 0.032180 0.050350 
#    y 0.032180 2.205860 0.001020 
#    z 0.050350 0.001020 2.190300 
# 
# From -- ./inp_files/548153.got.cif
#   From: 2010.05.17/outbox.cif.g08.bks.cpg/sg2_275_cif.got.tgz:548153.got - 2010.06.03 11:33:40.
