data_PCOD9042138
_publ_section_title
;
Structure prediction by ZEFSAII (Michael W. Deem and Ramdas Pophale) SiO2 
 PCOD9042138
Probable space group: P -1
;
_chemical_formula_sum "Si O2"
_cell_formula_units_Z 16
_cell_length_a 11.220343
_cell_length_b 9.178570
_cell_length_c 11.219995
_cell_angle_alpha 128.736101
_cell_angle_beta 68.591454
_cell_angle_gamma 116.684196
_cell_volume 799.470261
_symmetry_space_group_name_H-M "P -1"
_symmetry_group_IT_number 2
_symmetry_cell_setting 'triclinic'
loop_
_space_group_symop_operation_xyz
x,y,z
-x,-y,-z
loop_
_atom_site_type_symbol
_atom_site_label
_atom_site_fract_x
_atom_site_fract_y
_atom_site_fract_z
Si Si1 0.658988 0.508920 0.079636
Si Si2 0.281888 0.941620 0.491042
Si Si3 0.568936 0.184007 0.420817
Si Si4 0.088481 0.171292 0.639476
Si Si5 0.602391 0.805598 0.086359
Si Si6 0.825494 0.246363 0.817531
Si Si7 0.313225 0.553564 0.700238
Si Si8 0.338614 0.954627 0.016485
O O1 0.538914 0.346562 0.975303
O O2 0.788667 0.438332 0.971746
O O3 0.669066 0.707742 0.110818
O O4 0.621316 0.497686 0.227345
O O5 0.325652 0.811171 0.508486
O O6 0.220728 0.808973 0.330082
O O7 0.419146 0.110028 0.490140
O O8 0.176645 0.059126 0.622392
O O9 0.605877 0.367999 0.410816
O O10 0.575792 0.997261 0.245968
O O11 0.189250 0.356919 0.628939
O O12 0.978469 0.252691 0.784089
O O13 0.000000 0.000000 0.500000
O O14 0.682044 0.874550 0.970411
O O15 0.732214 0.073043 0.845163
O O16 0.280516 0.748383 0.861383
O O17 0.500000 0.000000 0.000000
#
# Coordination Sequence:
#
# PCOD9042138 Si02
#       8
#     2   2   2   2   2   2   2   2
#     4  10  19  31  58  84 117 139 181 227 292 345
#     4  10  20  37  57  83 114 156 187 236 282 333
#     4  10  20  35  61  84 118 142 187 239 293 331
#     4  10  23  40  56  76 115 160 203 228 270 335
#     4  10  18  32  53  90 114 142 170 235 293 339
#     4  10  19  37  57  79 115 157 185 231 282 338
#     4  10  20  36  58  85 108 152 189 235 286 341
#     4  10  17  33  58  87 115 141 181 239 293 342
#
# _framework density 20.013252999999999
#
# number of rings (size 3 to 8) (size 9 to 14) (size 15 to 20)
#    0.000    2.000    3.750    1.500    0.000    2.500 
#    0.000    6.250    0.000    6.000    0.000    0.000 
#    0.000    0.000    0.000    0.000    0.000    0.000 
#
# Total GULP energy -89119.164394 kJ/mol
# GULP energy per Si atom -5569.947775 kJ/mol
# Density = 1.996770 g / cm^3
# Si number density = 20.013253 Si / 1000 Ang^3
#
#
#
# Elastic Constant Matrix: (Units=GPa)
#
#
# Indices 1 2 3 4 5 6 
#
# 1 105.0317 42.3500 36.2150 -12.5802 -1.4722 -15.3432
# 2 42.3500 118.1876 26.3544 -9.9710 5.4568 -20.6392
# 3 36.2150 26.3544 50.5474 -5.5498 15.7514 -4.8836
# 4 -12.5802 -9.9710 -5.5498 34.2828 -1.4493 13.0579
# 5 -1.4722 5.4568 15.7514 -1.4493 33.8366 2.6247
# 6 -15.3432 -20.6392 -4.8836 13.0579 2.6247 32.3858
#
#
#
# Elastic Compliance Matrix: (Units=1/GPa)
#
#
# Indices 1 2 3 4 5 6 
#
# 1 0.015008 -0.002644 -0.010758 0.002348 0.006004 0.002370
# 2 -0.002644 0.011083 -0.003108 -0.000415 -0.000906 0.005583
# 3 -0.010758 -0.003108 0.033959 0.000286 -0.015701 -0.000800
# 4 0.002348 -0.000415 0.000286 0.035215 0.002593 -0.013517
# 5 0.006004 -0.000906 -0.015701 0.002593 0.037707 -0.004202
# 6 0.002370 0.005583 -0.000800 -0.013517 -0.004202 0.041228
#
#
# Mechanical properties :
#
#
# Convention : Reuss Voigt Hill
#
# Bulk Modulus (GPa) = 36.99712 53.73395 45.36553
# Shear Modulus (GPa) = 23.12344 31.35753 27.24048
#
# Velocity S-wave (km/s) = 3.40281 3.96262 3.69334
# Velocity P-wave (km/s) = 5.82798 6.91694 6.39567
#
# Compressibility (1/GPa) = 0.02702913
#
# Stress axis : x y z
#
# Youngs Moduli (GPa) = 66.63056 90.22490 29.44769
#
# Poissons Ratio (x) = 0.23857 0.31681
# Poissons Ratio (y) = 0.17618 0.09152
# Poissons Ratio (z) = 0.71684 0.28041
#
# Static dielectric constant tensor:
#      x y z
#    x 1.748120 -0.025510 -0.001760 
#    y -0.025510 1.733550 -0.003470 
#    z -0.001760 -0.003470 1.792220 
# 
# From -- ./inp_files/415585.got.cif
#   From: 2010.05.17/outbox.cif.g08.bks.cpg/sg2_208_cif.got.tgz:415585.got - 2010.06.03 11:33:40.
