data_PCOD9042843
_publ_section_title
;
Structure prediction by ZEFSAII (Michael W. Deem and Ramdas Pophale) SiO2 
 PCOD9042843
Probable space group: P -1
;
_chemical_formula_sum "Si O2"
_cell_formula_units_Z 14
_cell_length_a 7.193870
_cell_length_b 21.423601
_cell_length_c 6.926802
_cell_angle_alpha 67.991458
_cell_angle_beta 59.337497
_cell_angle_gamma 45.881851
_cell_volume 658.909961
_symmetry_space_group_name_H-M "P -1"
_symmetry_group_IT_number 2
_symmetry_cell_setting 'triclinic'
loop_
_space_group_symop_operation_xyz
x,y,z
-x,-y,-z
loop_
_atom_site_type_symbol
_atom_site_label
_atom_site_fract_x
_atom_site_fract_y
_atom_site_fract_z
Si Si1 0.010788 0.770159 0.213848
Si Si2 0.475521 0.389829 0.112971
Si Si3 0.260407 0.953741 0.060588
Si Si4 0.469482 0.499033 0.289126
Si Si5 0.173369 0.100304 0.175721
Si Si6 0.164324 0.341165 0.543966
Si Si7 0.708002 0.203339 0.624467
O O1 0.139638 0.785085 0.304222
O O2 0.856402 0.733557 0.412629
O O3 0.258285 0.693917 0.035058
O O4 0.842334 0.853188 0.067539
O O5 0.552616 0.412439 0.246927
O O6 0.261481 0.372669 0.289605
O O7 0.374853 0.470245 0.935023
O O8 0.322583 0.867174 0.206211
O O9 0.188771 0.019988 0.193719
O O10 0.539091 0.930926 0.843652
O O11 0.000000 0.000000 0.000000
O O12 0.500000 0.500000 0.500000
O O13 0.140340 0.574151 0.329541
O O14 0.905830 0.164989 0.375693
O O15 0.406873 0.293951 0.630026
#
# Coordination Sequence:
#
# PCOD9042843 Si02
#       7
#     2   2   2   2   2   2   2
#     4  11  24  43  65 101 135 173 225 273 327 398
#     4  10  23  45  65 100 136 166 223 273 324 397
#     4  11  24  45  69  97 135 180 222 275 338 388
#     4  10  24  46  70  99 134 173 224 271 329 401
#     4  11  24  44  67  98 138 169 229 280 318 406
#     4  11  24  43  69  98 135 176 220 272 334 394
#     4  12  25  43  69  98 135 179 222 274 338 388
#
# _framework density 21.247214
#
# number of rings (size 3 to 8) (size 9 to 14) (size 15 to 20)
#    0.000    1.143    4.286    0.857    4.000    3.429 
#    7.714    0.000    0.000    0.000    0.000    0.000 
#    0.000    0.000    0.000    0.000    0.000    0.000 
#
# Total GULP energy -78221.945421 kJ/mol
# GULP energy per Si atom -5587.281816 kJ/mol
# Density = 2.119885 g / cm^3
# Si number density = 21.247214 Si / 1000 Ang^3
#
#
#
# Elastic Constant Matrix: (Units=GPa)
#
#
# Indices 1 2 3 4 5 6 
#
# 1 107.0321 21.2417 42.4944 -11.8818 0.8593 10.8661
# 2 21.2417 68.1211 28.4662 -9.3797 2.8351 12.8185
# 3 42.4944 28.4662 95.0985 -12.9819 -3.6342 16.2219
# 4 -11.8818 -9.3797 -12.9819 28.1631 12.2741 -6.8913
# 5 0.8593 2.8351 -3.6342 12.2741 33.1652 -2.8315
# 6 10.8661 12.8185 16.2219 -6.8913 -2.8315 46.5758
#
#
#
# Elastic Compliance Matrix: (Units=1/GPa)
#
#
# Indices 1 2 3 4 5 6 
#
# 1 0.011772 -0.001190 -0.004450 0.003237 -0.001932 -0.000508
# 2 -0.001190 0.018026 -0.003880 0.004722 -0.003928 -0.002872
# 3 -0.004450 -0.003880 0.014468 0.002496 0.000894 -0.002510
# 4 0.003237 0.004722 0.002496 0.048093 -0.017747 0.003113
# 5 -0.001932 -0.003928 0.000894 -0.017747 0.037277 0.000861
# 6 -0.000508 -0.002872 -0.002510 0.003113 0.000861 0.023766
#
#
# Mechanical properties :
#
#
# Convention : Reuss Voigt Hill
#
# Bulk Modulus (GPa) = 39.63797 50.51737 45.07767
# Shear Modulus (GPa) = 27.64720 33.45077 30.54899
#
# Velocity S-wave (km/s) = 3.61115 3.97213 3.79593
# Velocity P-wave (km/s) = 6.00694 6.69811 6.36192
#
# Compressibility (1/GPa) = 0.02522833
#
# Stress axis : x y z
#
# Youngs Moduli (GPa) = 84.94649 55.47477 69.11821
#
# Poissons Ratio (x) = 0.06600 0.30754
# Poissons Ratio (y) = 0.10107 0.26816
# Poissons Ratio (z) = 0.37797 0.21523
#
# Static dielectric constant tensor:
#      x y z
#    x 1.774490 -0.013150 -0.016300 
#    y -0.013150 1.780830 -0.023940 
#    z -0.016300 -0.023940 1.766940 
# 
# From -- ./inp_files/10517.got.cif
#   From: 2010.05.17/outbox.cif.g08.bks.cpg/sg2_6_cif.got.tgz:10517.got - 2010.06.03 11:33:40.
