data_PCOD9042108
_publ_section_title
;
Structure prediction by ZEFSAII (Michael W. Deem and Ramdas Pophale) SiO2 
 PCOD9042108
Probable space group: P -1
;
_chemical_formula_sum "Si O2"
_cell_formula_units_Z 14
_cell_length_a 9.468021
_cell_length_b 14.820818
_cell_length_c 21.015003
_cell_angle_alpha 152.465083
_cell_angle_beta 29.709356
_cell_angle_gamma 149.413342
_cell_volume 620.440187
_symmetry_space_group_name_H-M "P -1"
_symmetry_group_IT_number 2
_symmetry_cell_setting 'triclinic'
loop_
_space_group_symop_operation_xyz
x,y,z
-x,-y,-z
loop_
_atom_site_type_symbol
_atom_site_label
_atom_site_fract_x
_atom_site_fract_y
_atom_site_fract_z
Si Si1 0.827958 0.546670 0.437821
Si Si2 0.184227 0.154937 0.890375
Si Si3 0.215382 0.279229 0.169980
Si Si4 0.309511 0.569976 0.034724
Si Si5 0.870032 0.806413 0.380969
Si Si6 0.737071 0.568586 0.617245
Si Si7 0.609699 0.061598 0.566775
O O1 0.500000 0.500000 0.500000
O O2 0.847839 0.688485 0.582546
O O3 0.948239 0.362941 0.301141
O O4 0.124852 0.702101 0.378701
O O5 0.428748 0.309040 0.940169
O O6 0.341362 0.038179 0.708530
O O7 0.121239 0.323743 0.974691
O O8 0.938143 0.975793 0.919451
O O9 0.344276 0.343631 0.231808
O O10 0.502627 0.387809 0.078210
O O11 0.093583 0.698064 0.204468
O O12 0.558603 0.625650 0.415727
O O13 0.762775 0.898949 0.421022
O O14 0.000000 0.000000 0.500000
O O15 0.000000 0.500000 0.500000
O O16 0.500000 0.000000 0.500000
#
# Coordination Sequence:
#
# PCOD9042108 Si02
#       7
#     2   2   2   2   2   2   2
#     4  11  23  38  72 109 142 181 246 296 346 434
#     4  11  24  46  74 101 148 190 239 297 373 432
#     4  11  23  48  73 101 148 196 234 296 379 427
#     4  11  26  45  71 108 144 190 245 304 359 440
#     4  12  25  45  73 104 141 187 249 301 352 432
#     4  10  23  44  69 105 144 185 238 299 359 433
#     4  12  23  43  72 104 140 189 238 292 368 430
#
# _framework density 22.564623999999998
#
# number of rings (size 3 to 8) (size 9 to 14) (size 15 to 20)
#    0.000    0.857    2.857    5.571    2.000    0.571 
#    2.571    0.714    0.000    0.000    0.000    0.000 
#    0.000    0.000    0.000    0.000    0.000    0.000 
#
# Total GULP energy -78021.683813 kJ/mol
# GULP energy per Si atom -5572.977415 kJ/mol
# Density = 2.251327 g / cm^3
# Si number density = 22.564624 Si / 1000 Ang^3
#
#
#
# Elastic Constant Matrix: (Units=GPa)
#
#
# Indices 1 2 3 4 5 6 
#
# 1 99.2258 8.0456 25.4106 -5.1661 5.8393 -18.5373
# 2 8.0456 67.2237 21.5766 7.6096 -15.7008 -15.0084
# 3 25.4106 21.5766 91.7782 -1.2545 -11.1455 -17.5219
# 4 -5.1661 7.6096 -1.2545 31.8196 -8.2736 -2.8630
# 5 5.8393 -15.7008 -11.1455 -8.2736 25.5186 9.0233
# 6 -18.5373 -15.0084 -17.5219 -2.8630 9.0233 41.5980
#
#
#
# Elastic Compliance Matrix: (Units=1/GPa)
#
#
# Indices 1 2 3 4 5 6 
#
# 1 0.012315 -0.000907 -0.002919 0.000963 -0.006230 0.005349
# 2 -0.000907 0.018827 -0.002507 -0.002156 0.008843 0.003266
# 3 -0.002919 -0.002507 0.013386 0.002120 0.004759 0.002547
# 4 0.000963 -0.002156 0.002120 0.034968 0.010477 0.000678
# 5 -0.006230 0.008843 0.004759 0.010477 0.054607 -0.008705
# 6 0.005349 0.003266 0.002547 0.000678 -0.008705 0.030610
#
#
# Mechanical properties :
#
#
# Convention : Reuss Voigt Hill
#
# Bulk Modulus (GPa) = 31.38394 40.92148 36.15271
# Shear Modulus (GPa) = 26.59580 33.33358 29.96469
#
# Velocity S-wave (km/s) = 3.43687 3.84767 3.64806
# Velocity P-wave (km/s) = 5.44868 6.15744 5.81387
#
# Compressibility (1/GPa) = 0.03186343
#
# Stress axis : x y z
#
# Youngs Moduli (GPa) = 81.20149 53.11385 74.70215
#
# Poissons Ratio (x) = 0.04817 0.21803
# Poissons Ratio (y) = 0.07365 0.18729
# Poissons Ratio (z) = 0.23700 0.13317
#
# Static dielectric constant tensor:
#      x y z
#    x 1.860580 0.006870 0.034900 
#    y 0.006870 1.688700 -0.104710 
#    z 0.034900 -0.104710 1.842170 
# 
# From -- ./inp_files/590481.got.cif
#   From: 2010.05.17/outbox.cif.g08.bks.cpg/sg2_296_cif.got.tgz:590481.got - 2010.06.03 11:33:40.
