data_PCOD9042541
_publ_section_title
;
Structure prediction by ZEFSAII (Michael W. Deem and Ramdas Pophale) SiO2 
 PCOD9042541
Probable space group: P -1
;
_chemical_formula_sum "Si O2"
_cell_formula_units_Z 16
_cell_length_a 14.816369
_cell_length_b 8.982924
_cell_length_c 7.292169
_cell_angle_alpha 106.839503
_cell_angle_beta 112.331304
_cell_angle_gamma 113.553365
_cell_volume 702.594560
_symmetry_space_group_name_H-M "P -1"
_symmetry_group_IT_number 2
_symmetry_cell_setting 'triclinic'
loop_
_space_group_symop_operation_xyz
x,y,z
-x,-y,-z
loop_
_atom_site_type_symbol
_atom_site_label
_atom_site_fract_x
_atom_site_fract_y
_atom_site_fract_z
Si Si1 0.619866 0.510847 0.074993
Si Si2 0.344623 0.783188 0.830377
Si Si3 0.034781 0.854346 0.024788
Si Si4 0.768403 0.027936 0.059302
Si Si5 0.763125 0.926644 0.443099
Si Si6 0.365615 0.404674 0.301169
Si Si7 0.209692 0.534223 0.335422
Si Si8 0.608109 0.065233 0.471214
O O1 0.608015 0.328614 0.080488
O O2 0.721909 0.710711 0.317401
O O3 0.500000 0.500000 0.000000
O O4 0.642041 0.528098 0.882213
O O5 0.312561 0.893305 0.979398
O O6 0.218553 0.621513 0.573408
O O7 0.418660 0.905994 0.750713
O O8 0.916781 0.644135 0.888388
O O9 0.121182 0.941740 0.297711
O O10 0.109244 0.849961 0.912600
O O11 0.000000 0.000000 0.000000
O O12 0.782667 0.002534 0.276938
O O13 0.700301 0.819920 0.842078
O O14 0.656022 0.933488 0.447524
O O15 0.500000 0.500000 0.500000
O O16 0.297267 0.466210 0.392707
O O17 0.275502 0.720289 0.322684
O O18 0.500000 0.000000 0.500000
#
# Coordination Sequence:
#
# PCOD9042541 Si02
#       8
#     2   2   2   2   2   2   2   2
#     4  11  24  42  71 107 149 194 239 304 375 437
#     4   9  22  48  70 109 149 185 254 300 375 441
#     4  12  24  44  77 106 151 193 252 304 365 443
#     4  10  24  49  73 105 145 199 241 310 375 426
#     4  10  25  48  69 109 150 197 248 301 374 443
#     4  11  24  44  71 103 147 195 247 298 371 452
#     4  10  23  44  72 108 140 193 249 295 370 437
#     4   9  22  46  74 104 148 191 243 304 371 432
#
# _framework density 22.772734
#
# number of rings (size 3 to 8) (size 9 to 14) (size 15 to 20)
#    0.750    1.000    1.250    1.500    3.500    2.500 
#    6.750    3.750    0.000    0.000    0.000    0.000 
#    0.000    0.000    0.000    0.000    0.000    0.000 
#
# Total GULP energy -89530.038279 kJ/mol
# GULP energy per Si atom -5595.627392 kJ/mol
# Density = 2.272090 g / cm^3
# Si number density = 22.772734 Si / 1000 Ang^3
#
#
#
# Elastic Constant Matrix: (Units=GPa)
#
#
# Indices 1 2 3 4 5 6 
#
# 1 110.8061 45.8292 12.2095 6.3843 0.9710 -2.1339
# 2 45.8292 138.8556 31.1032 -1.1592 -0.5741 -6.2685
# 3 12.2095 31.1032 75.2136 8.2232 10.1905 9.9257
# 4 6.3843 -1.1592 8.2232 39.3271 1.1598 0.7955
# 5 0.9710 -0.5741 10.1905 1.1598 31.3148 5.7553
# 6 -2.1339 -6.2685 9.9257 0.7955 5.7553 43.5357
#
#
#
# Elastic Compliance Matrix: (Units=1/GPa)
#
#
# Indices 1 2 3 4 5 6 
#
# 1 0.010584 -0.003495 -0.000044 -0.001804 -0.000330 0.000102
# 2 -0.003495 0.009323 -0.003861 0.001578 0.001133 0.001873
# 3 -0.000044 -0.003861 0.016364 -0.003319 -0.004606 -0.003619
# 4 -0.001804 0.001578 -0.003319 0.026450 0.000112 0.000397
# 5 -0.000330 0.001133 -0.004606 0.000112 0.034068 -0.003308
# 6 0.000102 0.001873 -0.003619 0.000397 -0.003308 0.024500
#
#
# Mechanical properties :
#
#
# Convention : Reuss Voigt Hill
#
# Bulk Modulus (GPa) = 46.57733 55.90657 51.24195
# Shear Modulus (GPa) = 34.90520 38.55109 36.72815
#
# Velocity S-wave (km/s) = 3.91930 4.11890 4.02034
# Velocity P-wave (km/s) = 6.40146 6.87194 6.64087
#
# Compressibility (1/GPa) = 0.02146967
#
# Stress axis : x y z
#
# Youngs Moduli (GPa) = 94.48173 107.26675 61.10990
#
# Poissons Ratio (x) = 0.37491 0.00271
# Poissons Ratio (y) = 0.33023 0.23595
# Poissons Ratio (z) = 0.00418 0.41416
#
# Static dielectric constant tensor:
#      x y z
#    x 2.096830 0.052070 -0.177850 
#    y 0.052070 1.874180 -0.021160 
#    z -0.177850 -0.021160 1.998610 
# 
# From -- ./inp_files/299361.got.cif
#   From: 2010.05.17/outbox.cif.g08.bks.cpg/sg2_150_cif.got.tgz:299361.got - 2010.06.03 11:33:40.
