data_PCOD9042424
_publ_section_title
;
Structure prediction by ZEFSAII (Michael W. Deem and Ramdas Pophale) SiO2 
 PCOD9042424
Probable space group: P -1
;
_chemical_formula_sum "Si O2"
_cell_formula_units_Z 16
_cell_length_a 10.856235
_cell_length_b 4.823551
_cell_length_c 14.596605
_cell_angle_alpha 106.138126
_cell_angle_beta 51.274239
_cell_angle_gamma 103.102453
_cell_volume 571.392859
_symmetry_space_group_name_H-M "P -1"
_symmetry_group_IT_number 2
_symmetry_cell_setting 'triclinic'
loop_
_space_group_symop_operation_xyz
x,y,z
-x,-y,-z
loop_
_atom_site_type_symbol
_atom_site_label
_atom_site_fract_x
_atom_site_fract_y
_atom_site_fract_z
Si Si1 0.398098 0.139945 0.981196
Si Si2 0.656355 0.703882 0.609656
Si Si3 0.994958 0.363837 0.138411
Si Si4 0.752641 0.421641 0.093018
Si Si5 0.122764 0.049613 0.701025
Si Si6 0.685211 0.516514 0.790369
Si Si7 0.447827 0.167516 0.655808
Si Si8 0.980772 0.547310 0.405662
O O1 0.277102 0.280442 0.120421
O O2 0.522679 0.346834 0.883976
O O3 0.500000 0.000000 0.000000
O O4 0.330199 0.879262 0.927460
O O5 0.581609 0.398733 0.577713
O O6 0.666890 0.665794 0.712601
O O7 0.000000 0.500000 0.500000
O O8 0.831403 0.745501 0.488898
O O9 0.877644 0.358317 0.106542
O O10 0.959386 0.058402 0.174844
O O11 0.940690 0.630298 0.251722
O O12 0.164480 0.434634 0.021295
O O13 0.644068 0.642755 0.212000
O O14 0.065747 0.777587 0.640048
O O15 0.311650 0.072599 0.636907
O O16 0.538814 0.931401 0.647295
O O17 0.840860 0.336246 0.694588
#
# Coordination Sequence:
#
# PCOD9042424 Si02
#       8
#     2   2   2   2   2   2   2   2
#     4  11  24  43  73 112 148 195 243 307 370 450
#     4  11  26  48  75 106 148 196 253 309 370 437
#     4  10  24  43  72 110 150 194 239 304 370 453
#     4  10  23  44  71 105 155 196 246 294 380 438
#     4  11  24  45  75 112 147 187 247 307 375 442
#     4  10  25  48  73 110 150 196 253 306 369 439
#     4  11  25  44  74 111 148 190 246 311 369 443
#     4  10  25  53  78 107 145 202 248 314 367 442
#
# _framework density 28.001750999999999
#
# number of rings (size 3 to 8) (size 9 to 14) (size 15 to 20)
#    0.000    1.500    0.000    3.000    7.000    7.500 
#    4.500    3.750    0.000    0.000    0.000    0.000 
#    0.000    0.000    0.000    0.000    0.000    0.000 
#
# Total GULP energy -89760.954826 kJ/mol
# GULP energy per Si atom -5610.059677 kJ/mol
# Density = 2.793802 g / cm^3
# Si number density = 28.001751 Si / 1000 Ang^3
#
#
#
# Elastic Constant Matrix: (Units=GPa)
#
#
# Indices 1 2 3 4 5 6 
#
# 1 84.2044 31.5346 17.3961 15.2915 -16.5512 11.8042
# 2 31.5346 149.5523 40.1205 8.6639 -2.5845 -1.7121
# 3 17.3961 40.1205 156.2039 16.7419 -27.5819 4.8619
# 4 15.2915 8.6639 16.7419 51.0307 10.3323 11.1536
# 5 -16.5512 -2.5845 -27.5819 10.3323 49.7462 6.4661
# 6 11.8042 -1.7121 4.8619 11.1536 6.4661 45.8089
#
#
#
# Elastic Compliance Matrix: (Units=1/GPa)
#
#
# Indices 1 2 3 4 5 6 
#
# 1 0.015796 -0.003232 0.001023 -0.005095 0.007244 -0.004082
# 2 -0.003232 0.007899 -0.002141 0.000424 -0.002142 0.001554
# 3 0.001023 -0.002141 0.008261 -0.003554 0.005698 -0.001159
# 4 -0.005095 0.000424 -0.003554 0.024585 -0.008346 -0.003102
# 5 0.007244 -0.002142 0.005698 -0.008346 0.027873 -0.004454
# 6 -0.004082 0.001554 -0.001159 -0.003102 -0.004454 0.024447
#
#
# Mechanical properties :
#
#
# Convention : Reuss Voigt Hill
#
# Bulk Modulus (GPa) = 42.99833 63.11811 53.05822
# Shear Modulus (GPa) = 39.90093 49.37778 44.63936
#
# Velocity S-wave (km/s) = 3.77894 4.20382 3.99703
# Velocity P-wave (km/s) = 5.86766 6.79356 6.34752
#
# Compressibility (1/GPa) = 0.02325671
#
# Stress axis : x y z
#
# Youngs Moduli (GPa) = 63.30745 126.60487 121.05126
#
# Poissons Ratio (x) = 0.40913 -0.12384
# Poissons Ratio (y) = 0.20458 0.25915
# Poissons Ratio (z) = -0.06476 0.27104
#
# Static dielectric constant tensor:
#      x y z
#    x 2.256080 -0.039600 -0.059920 
#    y -0.039600 2.127820 0.061820 
#    z -0.059920 0.061820 2.259940 
# 
# From -- ./inp_files/564241.got.cif
#   From: 2010.05.17/outbox.cif.g08.bks.cpg/sg2_283_cif.got.tgz:564241.got - 2010.06.03 11:33:40.
