data_PCOD9042632
_publ_section_title
;
Structure prediction by ZEFSAII (Michael W. Deem and Ramdas Pophale) SiO2 
 PCOD9042632
Probable space group: P -1
;
_chemical_formula_sum "Si O2"
_cell_formula_units_Z 16
_cell_length_a 9.836667
_cell_length_b 5.518786
_cell_length_c 14.813753
_cell_angle_alpha 69.022412
_cell_angle_beta 109.257642
_cell_angle_gamma 87.091493
_cell_volume 695.747889
_symmetry_space_group_name_H-M "P -1"
_symmetry_group_IT_number 2
_symmetry_cell_setting 'triclinic'
loop_
_space_group_symop_operation_xyz
x,y,z
-x,-y,-z
loop_
_atom_site_type_symbol
_atom_site_label
_atom_site_fract_x
_atom_site_fract_y
_atom_site_fract_z
Si Si1 0.609385 0.217435 0.761941
Si Si2 0.556277 0.988507 0.614073
Si Si3 0.883020 0.342673 0.539188
Si Si4 0.118006 0.829052 0.930510
Si Si5 0.341159 0.632710 0.676955
Si Si6 0.826701 0.537743 0.705277
Si Si7 0.074583 0.817563 0.724642
Si Si8 0.805067 0.784442 0.955619
O O1 0.462892 0.369920 0.755653
O O2 0.755354 0.344842 0.779307
O O3 0.570087 0.238204 0.643763
O O4 0.666160 0.923209 0.847423
O O5 0.440558 0.853074 0.660330
O O6 0.717027 0.812152 0.664272
O O7 0.500000 0.000000 0.500000
O O8 0.748416 0.370169 0.436274
O O9 0.833452 0.457911 0.611952
O O10 0.000000 0.500000 0.500000
O O11 0.969273 0.041759 0.613074
O O12 0.105302 0.935911 0.811522
O O13 0.955716 0.806883 0.933453
O O14 0.200009 0.521805 0.988536
O O15 0.188943 0.026317 0.981868
O O16 0.219814 0.705757 0.716620
O O17 0.986749 0.583990 0.758224
#
# Coordination Sequence:
#
# PCOD9042632 Si02
#       8
#     2   2   2   2   2   2   2   2
#     4  11  25  44  69 101 139 187 230 292 353 424
#     4  11  23  40  66  95 138 178 234 279 345 420
#     4  12  25  41  67  99 139 183 233 284 350 428
#     4  10  24  42  74 106 141 179 243 304 360 421
#     4  11  26  42  65  99 140 186 226 286 358 428
#     4  11  23  39  67  96 136 173 233 282 350 411
#     4  12  26  43  67 103 139 181 233 298 359 416
#     4  10  23  44  73 106 139 184 242 301 359 421
#
# _framework density 22.996835000000001
#
# number of rings (size 3 to 8) (size 9 to 14) (size 15 to 20)
#    0.000    1.000    1.250    4.875   14.000    2.000 
#    0.000    1.250    0.000    0.000    0.000    0.000 
#    0.000    0.000    0.000    0.000    0.000    0.000 
#
# Total GULP energy -89506.025867 kJ/mol
# GULP energy per Si atom -5594.126617 kJ/mol
# Density = 2.294449 g / cm^3
# Si number density = 22.996835 Si / 1000 Ang^3
#
#
#
# Elastic Constant Matrix: (Units=GPa)
#
#
# Indices 1 2 3 4 5 6 
#
# 1 140.4111 44.5155 22.8098 -0.6302 5.5994 -11.7780
# 2 44.5155 94.4096 31.3169 1.7243 4.0461 -11.4315
# 3 22.8098 31.3169 85.3695 3.6452 13.7661 -3.8078
# 4 -0.6302 1.7243 3.6452 48.0718 -6.0559 0.9911
# 5 5.5994 4.0461 13.7661 -6.0559 13.2392 7.7046
# 6 -11.7780 -11.4315 -3.8078 0.9911 7.7046 20.2662
#
#
#
# Elastic Compliance Matrix: (Units=1/GPa)
#
#
# Indices 1 2 3 4 5 6 
#
# 1 0.008885 -0.003222 0.000217 -0.000774 -0.006864 0.006034
# 2 -0.003222 0.014287 -0.003351 -0.000970 -0.004141 0.007178
# 3 0.000217 -0.003351 0.018012 -0.004911 -0.027128 0.012174
# 4 -0.000774 -0.000970 -0.004911 0.024484 0.024069 -0.012267
# 5 -0.006864 -0.004141 -0.027128 0.024069 0.162118 -0.074231
# 6 0.006034 0.007178 0.012174 -0.012267 -0.074231 0.088007
#
#
# Mechanical properties :
#
#
# Convention : Reuss Voigt Hill
#
# Bulk Modulus (GPa) = 35.12214 57.49718 46.30966
# Shear Modulus (GPa) = 14.79309 31.08534 22.93922
#
# Velocity S-wave (km/s) = 2.53902 3.68057 3.16174
# Velocity P-wave (km/s) = 4.88889 6.56647 5.78878
#
# Compressibility (1/GPa) = 0.02847207
#
# Stress axis : x y z
#
# Youngs Moduli (GPa) = 112.55345 69.99152 55.51814
#
# Poissons Ratio (x) = 0.22554 -0.01206
# Poissons Ratio (y) = 0.36269 0.18604
# Poissons Ratio (z) = -0.02445 0.23454
#
# Static dielectric constant tensor:
#      x y z
#    x 1.812400 0.041280 0.027540 
#    y 0.041280 1.925020 0.004140 
#    z 0.027540 0.004140 1.937540 
# 
# From -- ./inp_files/141017.got.cif
#   From: 2010.05.17/outbox.cif.g08.bks.cpg/sg2_71_cif.got.tgz:141017.got - 2010.06.03 11:33:40.
