data_PCOD9042902
_publ_section_title
;
Structure prediction by ZEFSAII (Michael W. Deem and Ramdas Pophale) SiO2 
 PCOD9042902
Probable space group: P -1
;
_chemical_formula_sum "Si O2"
_cell_formula_units_Z 14
_cell_length_a 9.094155
_cell_length_b 29.191629
_cell_length_c 6.383941
_cell_angle_alpha 135.293605
_cell_angle_beta 122.410183
_cell_angle_gamma 30.084377
_cell_volume 582.440688
_symmetry_space_group_name_H-M "P -1"
_symmetry_group_IT_number 2
_symmetry_cell_setting 'triclinic'
loop_
_space_group_symop_operation_xyz
x,y,z
-x,-y,-z
loop_
_atom_site_type_symbol
_atom_site_label
_atom_site_fract_x
_atom_site_fract_y
_atom_site_fract_z
Si Si1 0.811512 0.886026 0.251654
Si Si2 0.621675 0.556158 0.803872
Si Si3 0.694945 0.787422 0.641989
Si Si4 0.644831 0.434443 0.683739
Si Si5 0.188426 0.411623 0.550100
Si Si6 0.263347 0.819277 0.667239
Si Si7 0.826782 0.990704 0.248154
O O1 0.835706 0.924875 0.190092
O O2 0.103936 0.815096 0.382044
O O3 0.500000 0.000000 0.500000
O O4 0.791211 0.815491 0.964534
O O5 0.481288 0.540010 0.767465
O O6 0.423086 0.616256 0.632865
O O7 0.941853 0.441750 0.570021
O O8 0.704204 0.578854 0.132849
O O9 0.460056 0.809044 0.642098
O O10 0.996190 0.665267 0.375683
O O11 0.512443 0.882409 0.634230
O O12 0.500000 0.500000 0.000000
O O13 0.495357 0.281711 0.308310
O O14 0.000000 0.500000 0.500000
O O15 0.985515 0.931216 0.951827
O O16 0.000000 0.000000 0.500000
#
# Coordination Sequence:
#
# PCOD9042902 Si02
#       7
#     2   2   2   2   2   2   2
#     4  12  26  49  76 109 155 195 252 311 379 454
#     4  10  23  45  66 102 142 185 251 307 364 451
#     4  12  25  49  76 109 152 199 249 315 377 452
#     4  11  24  45  71 103 147 198 248 308 381 447
#     4  11  24  44  75 102 143 196 248 309 382 442
#     4  12  26  49  77 109 151 199 246 319 381 450
#     4  12  26  46  76 112 150 193 252 303 380 461
#
# _framework density 24.036784000000001
#
# number of rings (size 3 to 8) (size 9 to 14) (size 15 to 20)
#    0.000    0.571    4.286    3.429    0.000    6.857 
#    5.143    0.000    0.000    0.000    0.000    0.000 
#    0.000    0.000    0.000    0.000    0.000    0.000 
#
# Total GULP energy -77977.907089 kJ/mol
# GULP energy per Si atom -5569.850506 kJ/mol
# Density = 2.398208 g / cm^3
# Si number density = 24.036784 Si / 1000 Ang^3
#
#
#
# Elastic Constant Matrix: (Units=GPa)
#
#
# Indices 1 2 3 4 5 6 
#
# 1 115.0939 24.2828 34.2417 -13.7546 -1.2473 -18.3465
# 2 24.2828 143.5260 21.6200 -6.2177 -4.2515 -6.9905
# 3 34.2417 21.6200 87.5362 -15.0326 -4.6402 -23.1842
# 4 -13.7546 -6.2177 -15.0326 41.6161 -14.3749 3.6563
# 5 -1.2473 -4.2515 -4.6402 -14.3749 39.2916 -9.0967
# 6 -18.3465 -6.9905 -23.1842 3.6563 -9.0967 37.5688
#
#
#
# Elastic Compliance Matrix: (Units=1/GPa)
#
#
# Indices 1 2 3 4 5 6 
#
# 1 0.010545 -0.001082 -0.002301 0.002798 0.001826 0.003698
# 2 -0.001082 0.007395 -0.001173 0.000616 0.000919 0.000286
# 3 -0.002301 -0.001173 0.016673 0.006433 0.006408 0.009873
# 4 0.002798 0.000616 0.006433 0.031639 0.013814 0.005717
# 5 0.001826 0.000919 0.006408 0.013814 0.034186 0.011950
# 6 0.003698 0.000286 0.009873 0.005717 0.011950 0.036907
#
#
# Mechanical properties :
#
#
# Convention : Reuss Voigt Hill
#
# Bulk Modulus (GPa) = 39.21377 56.27170 47.74273
# Shear Modulus (GPa) = 32.26710 41.42939 36.84825
#
# Velocity S-wave (km/s) = 3.66786 4.15611 3.91959
# Velocity P-wave (km/s) = 5.85552 6.81854 6.35530
#
# Compressibility (1/GPa) = 0.02550125
#
# Stress axis : x y z
#
# Youngs Moduli (GPa) = 94.83073 135.22709 59.97780
#
# Poissons Ratio (x) = 0.14633 0.13800
# Poissons Ratio (y) = 0.10261 0.07035
# Poissons Ratio (z) = 0.21820 0.15860
#
# Static dielectric constant tensor:
#      x y z
#    x 1.925820 0.030470 0.000560 
#    y 0.030470 2.273530 -0.387410 
#    z 0.000560 -0.387410 2.709380 
# 
# From -- ./inp_files/57042.got.cif
#   From: 2010.05.17/outbox.cif.g08.bks.cpg/sg2_29_cif.got.tgz:57042.got - 2010.06.03 11:33:40.
