data_PCOD9042481
_publ_section_title
;
Structure prediction by ZEFSAII (Michael W. Deem and Ramdas Pophale) SiO2 
 PCOD9042481
Probable space group: P -1
;
_chemical_formula_sum "Si O2"
_cell_formula_units_Z 14
_cell_length_a 5.163842
_cell_length_b 9.287136
_cell_length_c 16.014748
_cell_angle_alpha 110.610825
_cell_angle_beta 56.117085
_cell_angle_gamma 101.527066
_cell_volume 596.780169
_symmetry_space_group_name_H-M "P -1"
_symmetry_group_IT_number 2
_symmetry_cell_setting 'triclinic'
loop_
_space_group_symop_operation_xyz
x,y,z
-x,-y,-z
loop_
_atom_site_type_symbol
_atom_site_label
_atom_site_fract_x
_atom_site_fract_y
_atom_site_fract_z
Si Si1 0.661157 0.072825 0.584068
Si Si2 0.741020 0.107325 0.027557
Si Si3 0.166364 0.346287 0.911899
Si Si4 0.758206 0.191407 0.768578
Si Si5 0.904003 0.106204 0.314661
Si Si6 0.658169 0.624251 0.307924
Si Si7 0.478864 0.732089 0.730027
O O1 0.612769 0.097649 0.698288
O O2 0.595585 0.245618 0.599470
O O3 0.383412 0.952799 0.588299
O O4 0.000000 0.000000 0.500000
O O5 0.599530 0.208875 0.149812
O O6 0.918602 0.218080 0.954766
O O7 0.500000 0.000000 0.000000
O O8 0.000000 0.000000 0.000000
O O9 0.494351 0.290592 0.881538
O O10 0.263544 0.369748 0.803555
O O11 0.000000 0.500000 0.000000
O O12 0.013812 0.305408 0.704175
O O13 0.917634 0.055875 0.764809
O O14 0.755537 0.187387 0.277164
O O15 0.160021 0.216322 0.334342
O O16 0.569001 0.450822 0.309410
#
# Coordination Sequence:
#
# PCOD9042481 Si02
#       7
#     2   2   2   2   2   2   2
#     4  10  23  47  78 106 134 180 234 286 353 432
#     4  12  28  40  64  96 135 184 240 282 333 405
#     4  11  24  44  62 100 140 185 236 286 340 397
#     4  10  23  44  72 100 137 186 231 288 347 411
#     4  11  24  44  73  98 143 180 228 288 348 415
#     4  10  25  42  71  99 145 185 231 292 348 414
#     4  12  25  45  66 103 141 187 230 290 355 400
#
# _framework density 23.459225
#
# number of rings (size 3 to 8) (size 9 to 14) (size 15 to 20)
#    0.000    1.143    2.857    1.714   16.000    4.000 
#    0.000    1.429    0.000    0.000    0.000    0.000 
#    0.000    0.000    0.000    0.000    0.000    0.000 
#
# Total GULP energy -78247.896510 kJ/mol
# GULP energy per Si atom -5589.135465 kJ/mol
# Density = 2.340583 g / cm^3
# Si number density = 23.459225 Si / 1000 Ang^3
#
#
#
# Elastic Constant Matrix: (Units=GPa)
#
#
# Indices 1 2 3 4 5 6 
#
# 1 146.6339 88.4788 34.8155 19.0788 -31.4824 6.0214
# 2 88.4788 227.6850 52.3056 25.0489 -26.9417 12.7435
# 3 34.8155 52.3056 107.9798 31.1656 -32.1132 -15.0285
# 4 19.0788 25.0489 31.1656 38.5517 -3.0619 -3.9933
# 5 -31.4824 -26.9417 -32.1132 -3.0619 44.5666 -4.2426
# 6 6.0214 12.7435 -15.0285 -3.9933 -4.2426 38.1717
#
#
#
# Elastic Compliance Matrix: (Units=1/GPa)
#
#
# Indices 1 2 3 4 5 6 
#
# 1 0.010130 -0.003113 0.000884 -0.003244 0.005696 0.000083
# 2 -0.003113 0.006343 -0.002203 -0.001095 -0.000278 -0.002639
# 3 0.000884 -0.002203 0.018297 -0.011991 0.012407 0.007924
# 4 -0.003244 -0.001095 -0.011991 0.037123 -0.009136 -0.000975
# 5 0.005696 -0.000278 0.012407 -0.009136 0.035276 0.007044
# 6 0.000083 -0.002639 0.007924 -0.000975 0.007044 0.030866
#
#
# Mechanical properties :
#
#
# Convention : Reuss Voigt Hill
#
# Bulk Modulus (GPa) = 38.60293 92.61092 65.60692
# Shear Modulus (GPa) = 32.14688 44.70461 38.42574
#
# Velocity S-wave (km/s) = 3.70581 4.37009 4.05159
# Velocity P-wave (km/s) = 5.89930 8.06391 7.06500
#
# Compressibility (1/GPa) = 0.02590477
#
# Stress axis : x y z
#
# Youngs Moduli (GPa) = 98.71683 157.64836 54.65421
#
# Poissons Ratio (x) = 0.49081 -0.04829
# Poissons Ratio (y) = 0.30734 0.12039
# Poissons Ratio (z) = -0.08722 0.34727
#
# Static dielectric constant tensor:
#      x y z
#    x 2.076970 -0.077560 0.070120 
#    y -0.077560 2.060010 -0.096120 
#    z 0.070120 -0.096120 1.958980 
# 
# From -- ./inp_files/116026.got.cif
#   From: 2010.05.17/outbox.cif.g08.bks.cpg/sg2_59_cif.got.tgz:116026.got - 2010.06.03 11:33:40.
