data_PCOD9042139
_publ_section_title
;
Structure prediction by ZEFSAII (Michael W. Deem and Ramdas Pophale) SiO2 
 PCOD9042139
Probable space group: P -1
;
_chemical_formula_sum "Si O2"
_cell_formula_units_Z 16
_cell_length_a 13.360872
_cell_length_b 18.077005
_cell_length_c 9.431775
_cell_angle_alpha 49.902951
_cell_angle_beta 140.577956
_cell_angle_gamma 150.742485
_cell_volume 703.723538
_symmetry_space_group_name_H-M "P -1"
_symmetry_group_IT_number 2
_symmetry_cell_setting 'triclinic'
loop_
_space_group_symop_operation_xyz
x,y,z
-x,-y,-z
loop_
_atom_site_type_symbol
_atom_site_label
_atom_site_fract_x
_atom_site_fract_y
_atom_site_fract_z
Si Si1 0.415337 0.051174 0.682028
Si Si2 0.240428 0.372636 0.294359
Si Si3 0.427767 0.457183 0.811260
Si Si4 0.070867 0.093631 0.596540
Si Si5 0.782118 0.253564 0.073247
Si Si6 0.033109 0.434880 0.396561
Si Si7 0.756654 0.846688 0.007483
Si Si8 0.287198 0.723002 0.497385
O O1 0.592047 0.135774 0.636550
O O2 0.320545 0.898574 0.795874
O O3 0.565593 0.174578 0.822395
O O4 0.171515 0.998910 0.460634
O O5 0.500000 0.500000 0.500000
O O6 0.324144 0.422972 0.161089
O O7 0.146254 0.227892 0.435701
O O8 0.032548 0.350718 0.138763
O O9 0.255399 0.465892 0.568041
O O10 0.274950 0.284664 0.846553
O O11 0.500000 0.500000 0.000000
O O12 0.245609 0.124067 0.864372
O O13 0.000000 0.000000 0.500000
O O14 0.862285 0.357935 0.164283
O O15 0.138035 0.583102 0.397411
O O16 0.878803 0.319625 0.502426
O O17 0.511552 0.767353 0.756667
O O18 0.000000 0.000000 0.000000
#
# Coordination Sequence:
#
# PCOD9042139 Si02
#       8
#     2   2   2   2   2   2   2   2
#     4  10  23  45  63  96 136 174 222 282 326 408
#     4  11  22  42  68  97 126 173 231 280 317 402
#     4  12  25  44  71  98 135 180 229 272 339 405
#     4  11  25  41  66  97 133 173 226 274 338 398
#     4  10  23  44  69  95 133 177 227 274 339 394
#     4  11  25  44  66 101 133 181 223 274 336 405
#     4  12  25  46  68  99 139 177 222 288 337 397
#     4  11  26  44  65 101 143 171 226 279 337 404
#
# _framework density 22.7362
#
# number of rings (size 3 to 8) (size 9 to 14) (size 15 to 20)
#    0.000    1.000    5.000    0.750    7.000    1.000 
#    0.000    0.000    0.000    0.000    0.000    0.000 
#    0.000    0.000    0.000    0.000    0.000    0.000 
#
# Total GULP energy -89338.770230 kJ/mol
# GULP energy per Si atom -5583.673139 kJ/mol
# Density = 2.268445 g / cm^3
# Si number density = 22.736200 Si / 1000 Ang^3
#
#
#
# Elastic Constant Matrix: (Units=GPa)
#
#
# Indices 1 2 3 4 5 6 
#
# 1 93.2941 56.3833 18.5215 -0.6282 -33.5128 24.2678
# 2 56.3833 93.4973 28.6567 5.5209 -20.1066 25.4640
# 3 18.5215 28.6567 80.4647 10.4646 -34.5854 -6.2484
# 4 -0.6282 5.5209 10.4646 34.7454 3.0324 -13.8618
# 5 -33.5128 -20.1066 -34.5854 3.0324 43.0862 1.9421
# 6 24.2678 25.4640 -6.2484 -13.8618 1.9421 40.3704
#
#
#
# Elastic Compliance Matrix: (Units=1/GPa)
#
#
# Indices 1 2 3 4 5 6 
#
# 1 0.026348 -0.009340 0.007042 -0.007099 0.022847 -0.012395
# 2 -0.009340 0.021091 -0.006014 -0.005797 -0.001366 -0.010545
# 3 0.007042 -0.006014 0.023465 -0.008187 0.022113 -0.000683
# 4 -0.007099 -0.005797 -0.008187 0.042520 -0.018790 0.022161
# 5 0.022847 -0.001366 0.022113 -0.018790 0.060262 -0.018800
# 6 -0.012395 -0.010545 -0.000683 0.022161 -0.018800 0.047280
#
#
# Mechanical properties :
#
#
# Convention : Reuss Voigt Hill
#
# Bulk Modulus (GPa) = 18.42232 52.70878 35.56555
# Shear Modulus (GPa) = 19.55535 34.55337 27.05436
#
# Velocity S-wave (km/s) = 2.93592 3.90263 3.45327
# Velocity P-wave (km/s) = 4.42867 6.59852 5.61932
#
# Compressibility (1/GPa) = 0.05428199
#
# Stress axis : x y z
#
# Youngs Moduli (GPa) = 37.95287 47.41285 42.61657
#
# Poissons Ratio (x) = 0.44282 -0.30011
# Poissons Ratio (y) = 0.35447 0.25628
# Poissons Ratio (z) = -0.26726 0.28513
#
# Static dielectric constant tensor:
#      x y z
#    x 1.852000 -0.015330 -0.028540 
#    y -0.015330 1.838020 0.039340 
#    z -0.028540 0.039340 1.864100 
# 
# From -- ./inp_files/244571.got.cif
#   From: 2010.05.17/outbox.cif.g08.bks.cpg/sg2_123_cif.got.tgz:244571.got - 2010.06.03 11:33:40.
