data_PCOD9042532
_publ_section_title
;
Structure prediction by ZEFSAII (Michael W. Deem and Ramdas Pophale) SiO2 
 PCOD9042532
Probable space group: P -1
;
_chemical_formula_sum "Si O2"
_cell_formula_units_Z 16
_cell_length_a 17.411476
_cell_length_b 9.096676
_cell_length_c 5.683746
_cell_angle_alpha 52.113556
_cell_angle_beta 97.871750
_cell_angle_gamma 88.305891
_cell_volume 696.313690
_symmetry_space_group_name_H-M "P -1"
_symmetry_group_IT_number 2
_symmetry_cell_setting 'triclinic'
loop_
_space_group_symop_operation_xyz
x,y,z
-x,-y,-z
loop_
_atom_site_type_symbol
_atom_site_label
_atom_site_fract_x
_atom_site_fract_y
_atom_site_fract_z
Si Si1 0.162149 0.175684 0.990873
Si Si2 0.993643 0.795960 0.793893
Si Si3 0.574301 0.836428 0.220126
Si Si4 0.066600 0.460695 0.369838
Si Si5 0.695256 0.624866 0.101472
Si Si6 0.736569 0.197641 0.685235
Si Si7 0.567243 0.496179 0.843625
Si Si8 0.658746 0.115432 0.228432
O O1 0.142377 0.324013 0.623349
O O2 0.234216 0.262213 0.055088
O O3 0.081687 0.188300 0.085290
O O4 0.186064 0.955998 0.160687
O O5 0.971560 0.666130 0.704390
O O6 0.000000 0.000000 0.500000
O O7 0.070107 0.669921 0.064937
O O8 0.633942 0.763609 0.103084
O O9 0.545380 0.648588 0.485612
O O10 0.626741 0.921524 0.356865
O O11 0.500000 0.000000 0.000000
O O12 0.000000 0.500000 0.500000
O O13 0.730571 0.424610 0.440124
O O14 0.645139 0.553191 0.941355
O O15 0.688791 0.144154 0.479780
O O16 0.711000 0.147439 0.988641
O O17 0.500000 0.500000 0.000000
O O18 0.587859 0.282053 0.992787
#
# Coordination Sequence:
#
# PCOD9042532 Si02
#       8
#     2   2   2   2   2   2   2   2
#     4  11  24  42  73 103 142 189 239 299 364 428
#     4  10  23  44  72 105 144 186 236 290 357 438
#     4  12  26  41  73  97 137 186 244 310 376 433
#     4   9  22  43  69 102 143 179 232 287 354 433
#     4  11  25  45  67 101 143 187 248 303 368 437
#     4  11  25  45  71 103 143 191 241 305 362 443
#     4  11  26  45  70  98 140 190 244 307 375 445
#     4  11  25  46  69  99 146 181 246 303 374 438
#
# _framework density 22.978151
#
# number of rings (size 3 to 8) (size 9 to 14) (size 15 to 20)
#    0.000    1.250    2.500    1.500    5.250    9.000 
#    0.000    0.000    0.000    0.000    0.000    0.000 
#    0.000    0.000    0.000    0.000    0.000    0.000 
#
# Total GULP energy -89194.953512 kJ/mol
# GULP energy per Si atom -5574.684595 kJ/mol
# Density = 2.292585 g / cm^3
# Si number density = 22.978151 Si / 1000 Ang^3
#
#
#
# Elastic Constant Matrix: (Units=GPa)
#
#
# Indices 1 2 3 4 5 6 
#
# 1 54.2086 19.1761 32.7730 -13.7427 6.1234 -4.2417
# 2 19.1761 107.0476 23.8701 -27.9660 7.6295 -16.3263
# 3 32.7730 23.8701 123.7647 -43.8064 8.4843 -3.5318
# 4 -13.7427 -27.9660 -43.8064 50.2433 -2.3452 2.2493
# 5 6.1234 7.6295 8.4843 -2.3452 41.7632 -7.9422
# 6 -4.2417 -16.3263 -3.5318 2.2493 -7.9422 44.6488
#
#
#
# Elastic Compliance Matrix: (Units=1/GPa)
#
#
# Indices 1 2 3 4 5 6 
#
# 1 0.022904 -0.002726 -0.005447 -0.000100 -0.001673 0.000456
# 2 -0.002726 0.011950 0.000869 0.006457 -0.000895 0.003695
# 3 -0.005447 0.000869 0.013124 0.010367 -0.001432 0.000061
# 4 -0.000100 0.006457 0.010367 0.032393 -0.001200 0.001326
# 5 -0.001673 -0.000895 -0.001432 -0.001200 0.025331 0.003967
# 6 0.000456 0.003695 0.000061 0.001326 0.003967 0.024435
#
#
# Mechanical properties :
#
#
# Convention : Reuss Voigt Hill
#
# Bulk Modulus (GPa) = 29.96651 48.51771 39.24211
# Shear Modulus (GPa) = 32.07840 41.27784 36.67812
#
# Velocity S-wave (km/s) = 3.74041 4.24299 3.99960
# Velocity P-wave (km/s) = 5.63240 6.72045 6.20034
#
# Compressibility (1/GPa) = 0.03337059
#
# Stress axis : x y z
#
# Youngs Moduli (GPa) = 43.66081 83.68042 76.19705
#
# Poissons Ratio (x) = 0.22809 0.41505
# Poissons Ratio (y) = 0.11901 -0.06622
# Poissons Ratio (z) = 0.23782 -0.07272
#
# Static dielectric constant tensor:
#      x y z
#    x 1.873820 0.021790 0.043990 
#    y 0.021790 1.821560 0.035070 
#    z 0.043990 0.035070 1.972880 
# 
# From -- ./inp_files/106086.got.cif
#   From: 2010.05.17/outbox.cif.g08.bks.cpg/sg2_54_cif.got.tgz:106086.got - 2010.06.03 11:33:40.
