data_PCOD9042809
_publ_section_title
;
Structure prediction by ZEFSAII (Michael W. Deem and Ramdas Pophale) SiO2 
 PCOD9042809
Probable space group: P -1
;
_chemical_formula_sum "Si O2"
_cell_formula_units_Z 15
_cell_length_a 5.512025
_cell_length_b 18.841637
_cell_length_c 8.892128
_cell_angle_alpha 44.839280
_cell_angle_beta 74.271884
_cell_angle_gamma 77.850944
_cell_volume 626.569485
_symmetry_space_group_name_H-M "P -1"
_symmetry_group_IT_number 2
_symmetry_cell_setting 'triclinic'
loop_
_space_group_symop_operation_xyz
x,y,z
-x,-y,-z
loop_
_atom_site_type_symbol
_atom_site_label
_atom_site_fract_x
_atom_site_fract_y
_atom_site_fract_z
Si Si1 0.275233 0.225313 0.665446
Si Si2 0.799700 0.234266 0.135438
Si Si3 0.928584 0.576825 0.116129
Si Si4 0.784982 0.918425 0.681583
Si Si5 0.500000 0.500000 0.500000
Si Si6 0.291970 0.414572 0.169779
Si Si7 0.472332 0.091606 0.582488
Si Si8 0.685309 0.269482 0.776775
O O1 0.350872 0.321886 0.406355
O O2 0.321823 0.127821 0.698705
O O3 0.478843 0.226467 0.763132
O O4 0.977754 0.240943 0.729230
O O5 0.682926 0.174354 0.383749
O O6 0.070991 0.181289 0.137973
O O7 0.647282 0.229399 0.013617
O O8 0.849343 0.349336 0.992073
O O9 0.747180 0.560188 0.309876
O O10 0.048495 0.472462 0.193091
O O11 0.771238 0.620422 0.935203
O O12 0.683143 0.904075 0.552541
O O13 0.590812 0.978820 0.731837
O O14 0.000000 0.000000 0.500000
O O15 0.645402 0.390341 0.605076
O O16 0.500000 0.500000 0.000000
#
# Coordination Sequence:
#
# PCOD9042809 Si02
#       8
#     2   2   2   2   1   2   2   2
#     4  12  27  47  68 106 145 196 237 306 367 437
#     4  11  25  43  73 105 138 194 245 301 357 450
#     4  11  25  42  70 100 140 190 245 301 363 424
#     4   9  21  44  76 111 137 177 242 305 366 441
#     4  12  26  48  64 100 150 200 240 300 352 428
#     4  11  24  42  65 101 136 185 247 309 356 434
#     4  10  23  44  80 105 142 183 244 304 369 437
#     4  12  30  46  69 102 155 195 248 295 373 425
#
# _framework density 23.939883999999999
#
# number of rings (size 3 to 8) (size 9 to 14) (size 15 to 20)
#    0.000    1.067    1.333    3.200   16.800    1.067 
#    0.000    1.333    0.000    0.000    0.000    0.000 
#    0.000    0.000    0.000    0.000    0.000    0.000 
#
# Total GULP energy -83690.753236 kJ/mol
# GULP energy per Si atom -5579.383549 kJ/mol
# Density = 2.388540 g / cm^3
# Si number density = 23.939884 Si / 1000 Ang^3
#
#
#
# Elastic Constant Matrix: (Units=GPa)
#
#
# Indices 1 2 3 4 5 6 
#
# 1 118.1628 52.4030 13.6984 17.2477 5.8106 -13.2590
# 2 52.4030 142.2794 16.9406 -2.0000 21.3278 -25.4241
# 3 13.6984 16.9406 32.0770 -3.1072 4.9757 -3.6801
# 4 17.2477 -2.0000 -3.1072 18.1164 -2.1583 1.1865
# 5 5.8106 21.3278 4.9757 -2.1583 39.1490 -1.8107
# 6 -13.2590 -25.4241 -3.6801 1.1865 -1.8107 42.1494
#
#
#
# Elastic Compliance Matrix: (Units=1/GPa)
#
#
# Indices 1 2 3 4 5 6 
#
# 1 0.013016 -0.004207 -0.004524 -0.013704 0.000252 0.001558
# 2 -0.004207 0.010319 -0.002092 0.003983 -0.004307 0.004421
# 3 -0.004524 -0.002092 0.035511 0.009907 -0.002154 0.000044
# 4 -0.013704 0.003983 0.009907 0.070860 0.002376 -0.002936
# 5 0.000252 -0.004307 -0.002154 0.002376 0.028185 -0.001563
# 6 0.001558 0.004421 0.000044 -0.002936 -0.001563 0.026901
#
#
# Mechanical properties :
#
#
# Convention : Reuss Voigt Hill
#
# Bulk Modulus (GPa) = 26.88252 50.95593 38.91922
# Shear Modulus (GPa) = 22.84795 33.84810 28.34803
#
# Velocity S-wave (km/s) = 3.09267 3.76424 3.44486
# Velocity P-wave (km/s) = 4.89963 6.34222 5.66702
#
# Compressibility (1/GPa) = 0.03719889
#
# Stress axis : x y z
#
# Youngs Moduli (GPa) = 76.82812 96.91226 28.16054
#
# Poissons Ratio (x) = 0.40773 0.12741
# Poissons Ratio (y) = 0.32323 0.05890
# Poissons Ratio (z) = 0.34760 0.20271
#
# Static dielectric constant tensor:
#      x y z
#    x 2.105950 -0.071140 -0.097740 
#    y -0.071140 1.949080 0.045460 
#    z -0.097740 0.045460 1.966400 
# 
# From -- ./inp_files/137177.got.cif
#   From: 2010.05.17/outbox.cif.g08.bks.cpg/sg2_69_cif.got.tgz:137177.got - 2010.06.03 11:33:40.
