data_PCOD9042536
_publ_section_title
;
Structure prediction by ZEFSAII (Michael W. Deem and Ramdas Pophale) SiO2 
 PCOD9042536
Probable space group: P -1
;
_chemical_formula_sum "Si O2"
_cell_formula_units_Z 14
_cell_length_a 19.875605
_cell_length_b 5.284192
_cell_length_c 5.204238
_cell_angle_alpha 90.457102
_cell_angle_beta 77.278505
_cell_angle_gamma 103.271930
_cell_volume 518.403291
_symmetry_space_group_name_H-M "P -1"
_symmetry_group_IT_number 2
_symmetry_cell_setting 'triclinic'
loop_
_space_group_symop_operation_xyz
x,y,z
-x,-y,-z
loop_
_atom_site_type_symbol
_atom_site_label
_atom_site_fract_x
_atom_site_fract_y
_atom_site_fract_z
Si Si1 0.896933 0.702191 0.678775
Si Si2 0.218312 0.223899 0.855491
Si Si3 0.957675 0.147502 0.224936
Si Si4 0.395144 0.829661 0.442734
Si Si5 0.822744 0.304921 0.372174
Si Si6 0.646947 0.497897 0.000583
Si Si7 0.541476 0.728785 0.289811
O O1 0.855593 0.825215 0.929204
O O2 0.845926 0.427344 0.633638
O O3 0.974807 0.676054 0.686551
O O4 0.912193 0.919004 0.442349
O O5 0.216835 0.489365 0.711510
O O6 0.280773 0.290708 0.011600
O O7 0.220562 0.983819 0.665085
O O8 0.901594 0.312439 0.189212
O O9 0.000000 0.000000 0.000000
O O10 0.373320 0.645746 0.709746
O O11 0.477790 0.866170 0.282799
O O12 0.397550 0.103609 0.576340
O O13 0.351185 0.702939 0.231823
O O14 0.581708 0.637252 0.017099
O O15 0.500000 0.500000 0.500000
#
# Coordination Sequence:
#
# PCOD9042536 Si02
#       7
#     2   2   2   2   2   2   2
#     4  11  25  45  75 105 139 190 235 310 370 444
#     4  12  30  46  71 102 147 193 242 297 365 449
#     4  11  23  47  75 106 139 180 244 305 373 435
#     4  10  23  44  72 106 142 187 243 305 358 433
#     4  12  26  50  68 104 140 185 241 300 361 443
#     4  11  26  44  69 104 142 197 240 297 365 438
#     4   9  21  43  73 107 144 184 242 302 365 421
#
# _framework density 27.006004000000001
#
# number of rings (size 3 to 8) (size 9 to 14) (size 15 to 20)
#    0.000    1.143    2.857    0.857    6.000    9.714 
#    0.000    0.000    0.000    0.000    0.000    0.000 
#    0.000    0.000    0.000    0.000    0.000    0.000 
#
# Total GULP energy -78302.374785 kJ/mol
# GULP energy per Si atom -5593.026770 kJ/mol
# Density = 2.694454 g / cm^3
# Si number density = 27.006004 Si / 1000 Ang^3
#
#
#
# Elastic Constant Matrix: (Units=GPa)
#
#
# Indices 1 2 3 4 5 6 
#
# 1 79.2392 27.7543 7.1272 0.9458 8.7873 26.3452
# 2 27.7543 132.1706 35.8173 39.2093 5.6394 3.6764
# 3 7.1272 35.8173 100.8345 18.8138 -0.7082 4.8863
# 4 0.9458 39.2093 18.8138 48.3751 11.7592 7.7664
# 5 8.7873 5.6394 -0.7082 11.7592 35.3910 12.0069
# 6 26.3452 3.6764 4.8863 7.7664 12.0069 40.6664
#
#
#
# Elastic Compliance Matrix: (Units=1/GPa)
#
#
# Indices 1 2 3 4 5 6 
#
# 1 0.018753 -0.005429 -0.000013 0.006447 -0.001735 -0.012375
# 2 -0.005429 0.012042 -0.002273 -0.009735 0.001190 0.004209
# 3 -0.000013 -0.002273 0.011327 -0.002844 0.001936 -0.001176
# 4 0.006447 -0.009735 -0.002844 0.032730 -0.008733 -0.006627
# 5 -0.001735 0.001190 0.001936 -0.008733 0.034013 -0.007591
# 6 -0.012375 0.004209 -0.001176 -0.006627 -0.007591 0.035875
#
#
# Mechanical properties :
#
#
# Convention : Reuss Voigt Hill
#
# Bulk Modulus (GPa) = 37.46271 50.40466 43.93368
# Shear Modulus (GPa) = 29.57452 40.98953 35.28203
#
# Velocity S-wave (km/s) = 3.31283 3.90011 3.61841
# Velocity P-wave (km/s) = 5.34184 6.24387 5.81039
#
# Compressibility (1/GPa) = 0.02669321
#
# Stress axis : x y z
#
# Youngs Moduli (GPa) = 53.32620 83.04196 88.28637
#
# Poissons Ratio (x) = 0.45081 0.00110
# Poissons Ratio (y) = 0.28949 0.20067
# Poissons Ratio (z) = 0.00067 0.18875
#
# Static dielectric constant tensor:
#      x y z
#    x 2.220690 -0.013350 0.100510 
#    y -0.013350 2.157820 0.021840 
#    z 0.100510 0.021840 2.120320 
# 
# From -- ./inp_files/13253.got.cif
#   From: 2010.05.17/outbox.cif.g08.bks.cpg/sg2_7_cif.got.tgz:13253.got - 2010.06.03 11:33:40.
