data_PCOD9042671
_publ_section_title
;
Structure prediction by ZEFSAII (Michael W. Deem and Ramdas Pophale) SiO2 
 PCOD9042671
Probable space group: P -1
;
_chemical_formula_sum "Si O2"
_cell_formula_units_Z 16
_cell_length_a 8.450423
_cell_length_b 19.321105
_cell_length_c 5.260785
_cell_angle_alpha 105.513667
_cell_angle_beta 58.436548
_cell_angle_gamma 110.354756
_cell_volume 682.234240
_symmetry_space_group_name_H-M "P -1"
_symmetry_group_IT_number 2
_symmetry_cell_setting 'triclinic'
loop_
_space_group_symop_operation_xyz
x,y,z
-x,-y,-z
loop_
_atom_site_type_symbol
_atom_site_label
_atom_site_fract_x
_atom_site_fract_y
_atom_site_fract_z
Si Si1 0.380559 0.756982 0.197653
Si Si2 0.712530 0.333653 0.313378
Si Si3 0.044151 0.217621 0.401580
Si Si4 0.341858 0.956625 0.889241
Si Si5 0.138064 0.310236 0.914664
Si Si6 0.499060 0.451045 0.702825
Si Si7 0.357465 0.100970 0.733129
Si Si8 0.963025 0.911948 0.417396
O O1 0.391076 0.720224 0.426566
O O2 0.554073 0.829549 0.093230
O O3 0.177178 0.778605 0.396611
O O4 0.371634 0.699189 0.919589
O O5 0.675541 0.412904 0.485500
O O6 0.936038 0.333541 0.121572
O O7 0.138985 0.260820 0.115887
O O8 0.053971 0.133011 0.350045
O O9 0.136609 0.260917 0.617927
O O10 0.451852 0.912370 0.575915
O O11 0.276835 0.021881 0.859509
O O12 0.158454 0.902217 0.115554
O O13 0.500000 0.000000 0.000000
O O14 0.311770 0.382414 0.815850
O O15 0.500000 0.500000 0.500000
O O16 0.500000 0.500000 0.000000
O O17 0.215492 0.113324 0.645415
O O18 0.000000 0.000000 0.500000
#
# Coordination Sequence:
#
# PCOD9042671 Si02
#       8
#     2   2   2   2   2   2   2   2
#     4  10  23  44  73  98 141 189 243 291 362 415
#     4  10  24  46  71 108 142 185 235 284 339 440
#     4  10  24  45  72  98 144 192 238 303 354 419
#     4  11  24  45  65  88 139 179 246 300 367 440
#     4  10  24  48  71 106 142 189 236 287 352 419
#     4  12  26  46  76 113 150 185 226 286 352 432
#     4  11  26  42  66  98 130 193 236 314 366 424
#     4  12  26  44  65 103 137 190 248 305 371 428
#
# _framework density 23.452356000000002
#
# number of rings (size 3 to 8) (size 9 to 14) (size 15 to 20)
#    0.000    1.250    1.250    2.625   10.500    2.000 
#    0.000    0.000    0.000    0.000    0.000    0.000 
#    0.000    0.000    0.000    0.000    0.000    0.000 
#
# Total GULP energy -89717.582855 kJ/mol
# GULP energy per Si atom -5607.348928 kJ/mol
# Density = 2.339898 g / cm^3
# Si number density = 23.452356 Si / 1000 Ang^3
#
#
#
# Elastic Constant Matrix: (Units=GPa)
#
#
# Indices 1 2 3 4 5 6 
#
# 1 73.7801 51.4502 35.8163 -4.8253 9.5105 -9.0345
# 2 51.4502 126.6138 45.5011 -4.1193 10.3948 -9.9402
# 3 35.8163 45.5011 119.4277 -4.6482 12.1066 -5.5122
# 4 -4.8253 -4.1193 -4.6482 55.7971 0.8148 1.8683
# 5 9.5105 10.3948 12.1066 0.8148 47.4164 0.2461
# 6 -9.0345 -9.9402 -5.5122 1.8683 0.2461 41.1519
#
#
#
# Elastic Compliance Matrix: (Units=1/GPa)
#
#
# Indices 1 2 3 4 5 6 
#
# 1 0.020430 -0.006780 -0.003212 0.000945 -0.001820 0.002385
# 2 -0.006780 0.011602 -0.002277 0.000056 -0.000609 0.001010
# 3 -0.003212 -0.002277 0.010380 0.000437 -0.001515 0.000124
# 4 0.000945 0.000056 0.000437 0.018071 -0.000621 -0.000537
# 5 -0.001820 -0.000609 -0.001515 -0.000621 0.021990 -0.000853
# 6 0.002385 0.001010 0.000124 -0.000537 -0.000853 0.025114
#
#
# Mechanical properties :
#
#
# Convention : Reuss Voigt Hill
#
# Bulk Modulus (GPa) = 55.94559 65.03966 60.49263
# Shear Modulus (GPa) = 36.20992 41.34335 38.77663
#
# Velocity S-wave (km/s) = 3.93361 4.20320 4.07064
# Velocity P-wave (km/s) = 6.67367 7.16581 6.92411
#
# Compressibility (1/GPa) = 0.01787451
#
# Stress axis : x y z
#
# Youngs Moduli (GPa) = 48.94861 86.18990 96.33558
#
# Poissons Ratio (x) = 0.58435 0.30947
# Poissons Ratio (y) = 0.33186 0.21932
# Poissons Ratio (z) = 0.15724 0.19622
#
# Static dielectric constant tensor:
#      x y z
#    x 1.879810 -0.028630 -0.021730 
#    y -0.028630 1.857290 0.011480 
#    z -0.021730 0.011480 1.945610 
# 
# From -- ./inp_files/48508.got.cif
#   From: 2010.05.17/outbox.cif.g08.bks.cpg/sg2_25_cif.got.tgz:48508.got - 2010.06.03 11:33:40.
