data_PCOD9042455
_publ_section_title
;
Structure prediction by ZEFSAII (Michael W. Deem and Ramdas Pophale) SiO2 
 PCOD9042455
Probable space group: P -1
;
_chemical_formula_sum "Si O2"
_cell_formula_units_Z 16
_cell_length_a 15.866932
_cell_length_b 8.835831
_cell_length_c 16.795295
_cell_angle_alpha 92.681858
_cell_angle_beta 154.827101
_cell_angle_gamma 104.525043
_cell_volume 724.190359
_symmetry_space_group_name_H-M "P -1"
_symmetry_group_IT_number 2
_symmetry_cell_setting 'triclinic'
loop_
_space_group_symop_operation_xyz
x,y,z
-x,-y,-z
loop_
_atom_site_type_symbol
_atom_site_label
_atom_site_fract_x
_atom_site_fract_y
_atom_site_fract_z
Si Si1 0.085545 0.389849 0.611416
Si Si2 0.717128 0.958947 0.603241
Si Si3 0.685818 0.952634 0.184980
Si Si4 0.228855 0.717527 0.061486
Si Si5 0.383849 0.282029 0.022918
Si Si6 0.685946 0.881827 0.878988
Si Si7 0.720816 0.443158 0.057140
Si Si8 0.655785 0.286363 0.570513
O O1 0.386936 0.537194 0.837289
O O2 0.060055 0.405917 0.682967
O O3 0.000000 0.500000 0.500000
O O4 0.929620 0.160712 0.444402
O O5 0.570421 0.833068 0.556673
O O6 0.736854 0.152460 0.623896
O O7 0.496402 0.802438 0.341195
O O8 0.016935 0.042704 0.858508
O O9 0.777770 0.909684 0.183089
O O10 0.518218 0.761582 0.099430
O O11 0.500000 0.000000 0.000000
O O12 0.218959 0.638084 0.963994
O O13 0.931849 0.518372 0.837978
O O14 0.257854 0.912399 0.083815
O O15 0.452096 0.215659 0.155200
O O16 0.304193 0.401177 0.995348
O O17 0.487694 0.727221 0.633226
#
# Coordination Sequence:
#
# PCOD9042455 Si02
#       8
#     2   2   2   2   2   2   2   2
#     4  11  23  39  66  88 122 171 214 267 326 385
#     4  10  23  46  67 100 133 176 216 274 338 400
#     4  11  21  39  62  88 122 164 212 265 317 387
#     4  11  25  41  68 100 134 174 222 275 331 398
#     4  11  25  41  60  93 128 169 219 269 331 389
#     4  11  25  41  68 100 134 174 224 274 331 398
#     4  11  25  41  60  93 129 168 219 270 331 389
#     4  10  23  44  71  96 136 172 220 274 335 401
#
# _framework density 22.093639
#
# number of rings (size 3 to 8) (size 9 to 14) (size 15 to 20)
#    0.000    1.250    2.500    3.750    1.750    7.500 
#    0.000    0.000    0.000    0.000    0.000    0.000 
#    0.000    0.000    0.000    0.000    0.000    0.000 
#
# Total GULP energy -89266.134138 kJ/mol
# GULP energy per Si atom -5579.133384 kJ/mol
# Density = 2.204335 g / cm^3
# Si number density = 22.093639 Si / 1000 Ang^3
#
#
#
# Elastic Constant Matrix: (Units=GPa)
#
#
# Indices 1 2 3 4 5 6 
#
# 1 70.8584 8.7453 26.2158 -5.4410 -7.3974 4.8908
# 2 8.7453 89.0716 35.1567 5.7223 -6.8147 4.5341
# 3 26.2158 35.1567 104.9057 -7.0906 -14.9606 0.4901
# 4 -5.4410 5.7223 -7.0906 33.0555 -5.3281 -8.1656
# 5 -7.3974 -6.8147 -14.9606 -5.3281 29.4960 -5.7895
# 6 4.8908 4.5341 0.4901 -8.1656 -5.7895 31.7786
#
#
#
# Elastic Compliance Matrix: (Units=1/GPa)
#
#
# Indices 1 2 3 4 5 6 
#
# 1 0.015895 -0.000050 -0.003503 0.001865 0.002241 -0.001498
# 2 -0.000050 0.013545 -0.004910 -0.004291 -0.000755 -0.003089
# 3 -0.003503 -0.004910 0.013273 0.004992 0.006301 0.003466
# 4 0.001865 -0.004291 0.004992 0.037057 0.011014 0.011777
# 5 0.002241 -0.000755 0.006301 0.011014 0.041448 0.010047
# 6 -0.001498 -0.003089 0.003466 0.011777 0.010047 0.036942
#
#
# Mechanical properties :
#
#
# Convention : Reuss Voigt Hill
#
# Bulk Modulus (GPa) = 38.77857 45.00792 41.89325
# Shear Modulus (GPa) = 27.22088 31.84723 29.53406
#
# Velocity S-wave (km/s) = 3.51389 3.80078 3.66015
# Velocity P-wave (km/s) = 5.83552 6.29896 6.07166
#
# Compressibility (1/GPa) = 0.02578744
#
# Stress axis : x y z
#
# Youngs Moduli (GPa) = 62.91164 73.82785 75.34057
#
# Poissons Ratio (x) = 0.00371 0.26390
# Poissons Ratio (y) = 0.00316 0.36992
# Poissons Ratio (z) = 0.22036 0.36250
#
# Static dielectric constant tensor:
#      x y z
#    x 1.749580 -0.017380 -0.009100 
#    y -0.017380 1.752330 -0.044000 
#    z -0.009100 -0.044000 1.884350 
# 
# From -- ./inp_files/529851.got.cif
#   From: 2010.05.17/outbox.cif.g08.bks.cpg/sg2_265_cif.got.tgz:529851.got - 2010.06.03 11:33:40.
