data_PCOD9042453
_publ_section_title
;
Structure prediction by ZEFSAII (Michael W. Deem and Ramdas Pophale) SiO2 
 PCOD9042453
Probable space group: P -1
;
_chemical_formula_sum "Si O2"
_cell_formula_units_Z 16
_cell_length_a 12.329589
_cell_length_b 15.634207
_cell_length_c 14.677369
_cell_angle_alpha 154.437655
_cell_angle_beta 137.231351
_cell_angle_gamma 33.335494
_cell_volume 668.589225
_symmetry_space_group_name_H-M "P -1"
_symmetry_group_IT_number 2
_symmetry_cell_setting 'triclinic'
loop_
_space_group_symop_operation_xyz
x,y,z
-x,-y,-z
loop_
_atom_site_type_symbol
_atom_site_label
_atom_site_fract_x
_atom_site_fract_y
_atom_site_fract_z
Si Si1 0.298641 0.956934 0.567763
Si Si2 0.900136 0.776472 0.955448
Si Si3 0.379575 0.607999 0.811689
Si Si4 0.056680 0.561744 0.498879
Si Si5 0.921666 0.442312 0.808564
Si Si6 0.506466 0.858998 0.008511
Si Si7 0.737682 0.347949 0.014926
Si Si8 0.710452 0.825541 0.419900
O O1 0.314136 0.079447 0.604597
O O2 0.057937 0.144554 0.606897
O O3 0.415718 0.671381 0.336735
O O4 0.402474 0.002402 0.759159
O O5 0.873319 0.670497 0.743830
O O6 0.950858 0.574521 0.869544
O O7 0.057727 0.841787 0.099069
O O8 0.670170 0.007927 0.046713
O O9 0.229681 0.591888 0.643066
O O10 0.425420 0.790095 0.977489
O O11 0.262830 0.699345 0.923987
O O12 0.000000 0.500000 0.500000
O O13 0.870998 0.800721 0.563224
O O14 0.687980 0.598316 0.828158
O O15 0.000000 0.500000 0.000000
O O16 0.756545 0.563958 0.208804
O O17 0.500000 0.500000 0.000000
O O18 0.500000 0.000000 0.500000
#
# Coordination Sequence:
#
# PCOD9042453 Si02
#       8
#     2   2   2   2   2   2   2   2
#     4  11  21  43  69  94 133 177 218 280 328 389
#     4  11  22  44  70  92 136 186 213 273 342 393
#     4  12  24  41  66 104 135 175 215 275 340 400
#     4  11  20  40  63  95 134 171 218 261 335 413
#     4  10  23  44  71  96 125 181 234 278 328 385
#     4  11  26  42  69  97 135 174 232 272 328 396
#     4  11  23  37  64 102 137 163 225 269 329 412
#     4  11  20  35  64  93 126 179 212 261 337 391
#
# _framework density 23.930989
#
# number of rings (size 3 to 8) (size 9 to 14) (size 15 to 20)
#    0.000    1.000    7.500    1.125    1.750    2.000 
#    0.000    0.625    0.000    0.000    0.000    0.000 
#    0.000    0.000    0.000    0.000    0.000    0.000 
#
# Total GULP energy -89069.947115 kJ/mol
# GULP energy per Si atom -5566.871695 kJ/mol
# Density = 2.387652 g / cm^3
# Si number density = 23.930989 Si / 1000 Ang^3
#
#
#
# Elastic Constant Matrix: (Units=GPa)
#
#
# Indices 1 2 3 4 5 6 
#
# 1 104.3011 29.4567 3.4744 -2.4062 1.1040 3.3050
# 2 29.4567 128.5655 8.5892 6.9612 3.1157 -32.7740
# 3 3.4744 8.5892 26.1639 1.6898 7.2941 6.5258
# 4 -2.4062 6.9612 1.6898 29.3533 -0.5662 -0.4732
# 5 1.1040 3.1157 7.2941 -0.5662 30.8448 9.0355
# 6 3.3050 -32.7740 6.5258 -0.4732 9.0355 51.7695
#
#
#
# Elastic Compliance Matrix: (Units=1/GPa)
#
#
# Indices 1 2 3 4 5 6 
#
# 1 0.010634 -0.003285 0.000056 0.001617 0.000815 -0.002893
# 2 -0.003285 0.011114 -0.004420 -0.002565 -0.002409 0.008200
# 3 0.000056 -0.004420 0.043708 -0.001728 -0.007887 -0.006951
# 4 0.001617 -0.002565 -0.001728 0.034917 0.001685 -0.001484
# 5 0.000815 -0.002409 -0.007887 0.001685 0.036566 -0.006949
# 6 -0.002893 0.008200 -0.006951 -0.001484 -0.006949 0.026768
#
#
# Mechanical properties :
#
#
# Convention : Reuss Voigt Hill
#
# Bulk Modulus (GPa) = 19.93705 38.00790 28.97247
# Shear Modulus (GPa) = 25.54632 36.89419 31.22026
#
# Velocity S-wave (km/s) = 3.27081 3.93070 3.61584
# Velocity P-wave (km/s) = 4.75535 6.04295 5.43740
#
# Compressibility (1/GPa) = 0.05015788
#
# Stress axis : x y z
#
# Youngs Moduli (GPa) = 94.03954 89.98024 22.87903
#
# Poissons Ratio (x) = 0.29558 -0.00129
# Poissons Ratio (y) = 0.30891 0.10113
# Poissons Ratio (z) = -0.00529 0.39772
#
# Static dielectric constant tensor:
#      x y z
#    x 2.202010 -0.308920 -0.153020 
#    y -0.308920 2.420320 0.202290 
#    z -0.153020 0.202290 2.036210 
# 
# From -- ./inp_files/521932.got.cif
#   From: 2010.05.17/outbox.cif.g08.bks.cpg/sg2_261_cif.got.tgz:521932.got - 2010.06.03 11:33:40.
