data_PCOD9042701
_publ_section_title
;
Structure prediction by ZEFSAII (Michael W. Deem and Ramdas Pophale) SiO2 
 PCOD9042701
Probable space group: P -1
;
_chemical_formula_sum "Si O2"
_cell_formula_units_Z 12
_cell_length_a 9.155652
_cell_length_b 15.446254
_cell_length_c 7.512605
_cell_angle_alpha 105.239396
_cell_angle_beta 110.856373
_cell_angle_gamma 29.353283
_cell_volume 484.054554
_symmetry_space_group_name_H-M "P -1"
_symmetry_group_IT_number 2
_symmetry_cell_setting 'triclinic'
loop_
_space_group_symop_operation_xyz
x,y,z
-x,-y,-z
loop_
_atom_site_type_symbol
_atom_site_label
_atom_site_fract_x
_atom_site_fract_y
_atom_site_fract_z
Si Si1 0.078450 0.564670 0.603379
Si Si2 0.965881 0.045694 0.212536
Si Si3 0.053181 0.305733 0.004393
Si Si4 0.457318 0.409113 0.352935
Si Si5 0.762081 0.966298 0.162376
Si Si6 0.886133 0.841829 0.529521
O O1 0.106150 0.568752 0.827632
O O2 0.845924 0.762510 0.550825
O O3 0.000000 0.500000 0.500000
O O4 0.370087 0.429655 0.526824
O O5 0.625075 0.245549 0.231627
O O6 0.980978 0.943956 0.268809
O O7 0.169265 0.034150 0.330731
O O8 0.000000 0.000000 0.000000
O O9 0.408966 0.161059 0.059088
O O10 0.845437 0.421920 0.803418
O O11 0.083058 0.183332 0.981402
O O12 0.740080 0.338825 0.429417
O O13 0.738326 0.927379 0.319277
#
# Coordination Sequence:
#
# PCOD9042701 Si02
#       6
#     2   2   2   2   2   2
#     4  12  25  45  72 106 140 191 234 292 357 417
#     4  10  23  44  74 106 137 189 238 290 354 420
#     4  11  26  46  71 104 147 186 233 290 358 414
#     4  10  25  49  71 102 149 177 242 295 343 421
#     4  11  23  47  71 103 149 185 232 296 352 418
#     4  10  24  47  71 102 145 181 239 296 343 420
#
# _framework density 24.790593000000001
#
# number of rings (size 3 to 8) (size 9 to 14) (size 15 to 20)
#    1.000    0.333    1.667    3.000    0.000    5.333 
#    6.000    0.000    0.000    0.000    0.000    0.000 
#    0.000    0.000    0.000    0.000    0.000    0.000 
#
# Total GULP energy -66922.489817 kJ/mol
# GULP energy per Si atom -5576.874151 kJ/mol
# Density = 2.473417 g / cm^3
# Si number density = 24.790593 Si / 1000 Ang^3
#
#
#
# Elastic Constant Matrix: (Units=GPa)
#
#
# Indices 1 2 3 4 5 6 
#
# 1 120.2464 45.0486 19.7631 13.4713 35.4811 26.5331
# 2 45.0486 102.3254 58.0985 10.2759 16.2525 -11.5508
# 3 19.7631 58.0985 133.8508 24.5924 22.2685 -9.3477
# 4 13.4713 10.2759 24.5924 56.7251 -4.1536 -2.0703
# 5 35.4811 16.2525 22.2685 -4.1536 33.5544 12.1435
# 6 26.5331 -11.5508 -9.3477 -2.0703 12.1435 31.1437
#
#
#
# Elastic Compliance Matrix: (Units=1/GPa)
#
#
# Indices 1 2 3 4 5 6 
#
# 1 0.018748 -0.009010 0.003585 -0.005866 -0.013766 -0.013261
# 2 -0.009010 0.018432 -0.006223 0.001989 0.000409 0.012618
# 3 0.003585 -0.006223 0.012671 -0.005921 -0.010726 0.002230
# 4 -0.005866 0.001989 -0.005921 0.022110 0.011575 0.000914
# 5 -0.013766 0.000409 -0.010726 0.011575 0.057399 -0.012950
# 6 -0.013261 0.012618 0.002230 0.000914 -0.012950 0.053866
#
#
# Mechanical properties :
#
#
# Convention : Reuss Voigt Hill
#
# Bulk Modulus (GPa) = 37.65813 66.91587 52.28700
# Shear Modulus (GPa) = 23.21553 39.85214 31.53384
#
# Velocity S-wave (km/s) = 3.06349 4.01378 3.57039
# Velocity P-wave (km/s) = 5.26657 6.96646 6.17529
#
# Compressibility (1/GPa) = 0.02655469
#
# Stress axis : x y z
#
# Youngs Moduli (GPa) = 53.33911 54.25300 78.92274
#
# Poissons Ratio (x) = 0.48884 -0.28293
# Poissons Ratio (y) = 0.48061 0.49110
# Poissons Ratio (z) = -0.19122 0.33759
#
# Static dielectric constant tensor:
#      x y z
#    x 2.005150 0.193540 0.091840 
#    y 0.193540 1.797740 -0.041350 
#    z 0.091840 -0.041350 1.943540 
# 
# From -- ./inp_files/203234.got.cif
#   From: 2010.05.17/outbox.cif.g08.bks.cpg/sg2_102_cif.got.tgz:203234.got - 2010.06.03 11:33:40.
