data_PCOD9042459
_publ_section_title
;
Structure prediction by ZEFSAII (Michael W. Deem and Ramdas Pophale) SiO2 
 PCOD9042459
Probable space group: P -1
;
_chemical_formula_sum "Si O2"
_cell_formula_units_Z 16
_cell_length_a 15.358826
_cell_length_b 9.450949
_cell_length_c 9.714238
_cell_angle_alpha 134.887023
_cell_angle_beta 65.425602
_cell_angle_gamma 84.846394
_cell_volume 730.285184
_symmetry_space_group_name_H-M "P -1"
_symmetry_group_IT_number 2
_symmetry_cell_setting 'triclinic'
loop_
_space_group_symop_operation_xyz
x,y,z
-x,-y,-z
loop_
_atom_site_type_symbol
_atom_site_label
_atom_site_fract_x
_atom_site_fract_y
_atom_site_fract_z
Si Si1 0.461554 0.350517 0.501533
Si Si2 0.154948 0.146614 0.049092
Si Si3 0.861573 0.359239 0.894876
Si Si4 0.927694 0.849069 0.589824
Si Si5 0.348071 0.237106 0.050907
Si Si6 0.255939 0.598529 0.611743
Si Si7 0.401244 0.294925 0.774792
Si Si8 0.055918 0.581138 0.833893
O O1 0.500000 0.500000 0.500000
O O2 0.331485 0.465122 0.606895
O O3 0.449829 0.395274 0.703660
O O4 0.547846 0.057898 0.210344
O O5 0.081126 0.187027 0.266270
O O6 0.232389 0.247101 0.095844
O O7 0.072030 0.269056 0.053584
O O8 0.242155 0.850104 0.767004
O O9 0.942173 0.267340 0.640739
O O10 0.854569 0.136672 0.794843
O O11 0.730094 0.605020 0.123198
O O12 0.931592 0.385043 0.989932
O O13 0.884179 0.704088 0.440913
O O14 0.321164 0.395420 0.311629
O O15 0.380671 0.352725 0.988423
O O16 0.125957 0.669401 0.770186
O O17 0.500000 0.000000 0.500000
#
# Coordination Sequence:
#
# PCOD9042459 Si02
#       8
#     2   2   2   2   2   2   2   2
#     4  11  22  46  75  97 132 178 229 281 339 396
#     4  12  24  41  64 101 137 176 221 273 338 404
#     4  11  24  43  65  96 140 174 225 280 335 403
#     4  11  24  40  66  98 133 184 219 272 342 402
#     4  11  25  43  71  98 138 176 224 277 339 402
#     4  12  24  41  69  98 133 179 228 279 329 407
#     4  10  23  44  71  97 132 180 219 283 340 391
#     4  12  24  39  66  96 135 175 223 276 333 408
#
# _framework density 21.909248000000002
#
# number of rings (size 3 to 8) (size 9 to 14) (size 15 to 20)
#    0.000    0.750    5.000    2.250    1.750    1.000 
#    0.000    0.625    2.750    0.000    0.000    0.000 
#    0.000    0.000    0.000    0.000    0.000    0.000 
#
# Total GULP energy -89376.239803 kJ/mol
# GULP energy per Si atom -5586.014988 kJ/mol
# Density = 2.185938 g / cm^3
# Si number density = 21.909248 Si / 1000 Ang^3
#
#
#
# Elastic Constant Matrix: (Units=GPa)
#
#
# Indices 1 2 3 4 5 6 
#
# 1 33.2512 20.4554 25.7217 14.1340 0.2410 -11.4712
# 2 20.4554 116.0795 48.3028 -0.0705 -1.8048 -0.1801
# 3 25.7217 48.3028 115.3584 -1.7141 1.4980 -10.4914
# 4 14.1340 -0.0705 -1.7141 23.7269 8.7623 -13.2287
# 5 0.2410 -1.8048 1.4980 8.7623 35.0771 10.6111
# 6 -11.4712 -0.1801 -10.4914 -13.2287 10.6111 36.2658
#
#
#
# Elastic Compliance Matrix: (Units=1/GPa)
#
#
# Indices 1 2 3 4 5 6 
#
# 1 0.059553 -0.005270 -0.012196 -0.042743 0.011641 -0.003715
# 2 -0.005270 0.011119 -0.003743 0.000810 0.001417 -0.002814
# 3 -0.012196 -0.003743 0.013958 0.014998 -0.006753 0.007608
# 4 -0.042743 0.000810 0.014998 0.105985 -0.039166 0.040943
# 5 0.011641 0.001417 -0.006753 -0.039166 0.046485 -0.026152
# 6 -0.003715 -0.002814 0.007608 0.040943 -0.026152 0.051173
#
#
# Mechanical properties :
#
#
# Convention : Reuss Voigt Hill
#
# Bulk Modulus (GPa) = 23.69009 50.40544 37.04776
# Shear Modulus (GPa) = 14.50271 30.36122 22.43197
#
# Velocity S-wave (km/s) = 2.57562 3.72663 3.20325
# Velocity P-wave (km/s) = 4.43637 6.44775 5.53421
#
# Compressibility (1/GPa) = 0.04221175
#
# Stress axis : x y z
#
# Youngs Moduli (GPa) = 16.79168 89.93483 71.64449
#
# Poissons Ratio (x) = 0.47397 0.87379
# Poissons Ratio (y) = 0.08849 0.26816
# Poissons Ratio (z) = 0.20479 0.33662
#
# Static dielectric constant tensor:
#      x y z
#    x 1.802630 0.020570 -0.044750 
#    y 0.020570 1.841030 -0.016830 
#    z -0.044750 -0.016830 1.801110 
# 
# From -- ./inp_files/299618.got.cif
#   From: 2010.05.17/outbox.cif.g08.bks.cpg/sg2_150_cif.got.tgz:299618.got - 2010.06.03 11:33:40.
