data_PCOD9042780
_publ_section_title
;
Structure prediction by ZEFSAII (Michael W. Deem and Ramdas Pophale) SiO2 
 PCOD9042780
Probable space group: P -1
;
_chemical_formula_sum "Si O2"
_cell_formula_units_Z 16
_cell_length_a 10.148052
_cell_length_b 19.498065
_cell_length_c 7.363213
_cell_angle_alpha 122.770134
_cell_angle_beta 114.485180
_cell_angle_gamma 28.774398
_cell_volume 583.190074
_symmetry_space_group_name_H-M "P -1"
_symmetry_group_IT_number 2
_symmetry_cell_setting 'triclinic'
loop_
_space_group_symop_operation_xyz
x,y,z
-x,-y,-z
loop_
_atom_site_type_symbol
_atom_site_label
_atom_site_fract_x
_atom_site_fract_y
_atom_site_fract_z
Si Si1 0.476948 0.540860 0.246976
Si Si2 0.247313 0.434194 0.461853
Si Si3 0.566335 0.197894 0.602961
Si Si4 0.033104 0.163797 0.415692
Si Si5 0.406534 0.129247 0.881332
Si Si6 0.711611 0.267851 0.066812
Si Si7 0.762648 0.962245 0.195575
Si Si8 0.949440 0.651255 0.312669
O O1 0.721912 0.486690 0.345403
O O2 0.819673 0.277455 0.622803
O O3 0.500000 0.500000 0.000000
O O4 0.505082 0.442638 0.230673
O O5 0.504139 0.272592 0.484468
O O6 0.000000 0.500000 0.500000
O O7 0.194935 0.473596 0.273058
O O8 0.613242 0.239848 0.850253
O O9 0.800137 0.019948 0.435071
O O10 0.305902 0.267316 0.609910
O O11 0.040174 0.257648 0.497068
O O12 0.346541 0.987145 0.293406
O O13 0.855776 0.185194 0.222551
O O14 0.145409 0.300303 0.884706
O O15 0.327299 0.073625 0.795332
O O16 0.529565 0.095990 0.099497
O O17 0.966037 0.183382 0.974831
#
# Coordination Sequence:
#
# PCOD9042780 Si02
#       8
#     2   2   2   2   2   2   2   2
#     4  12  25  46  73 105 141 196 250 296 370 438
#     4  10  24  45  72 102 147 193 239 305 361 435
#     4  11  23  46  69 110 153 190 242 299 377 435
#     4  11  24  45  72 104 147 181 250 310 351 441
#     4  10  23  45  76 112 140 198 245 304 367 430
#     4  11  24  44  72 107 145 200 238 302 373 430
#     4  10  23  44  76 109 150 187 249 301 367 445
#     4  11  23  44  74 102 144 193 247 300 359 432
#
# _framework density 27.435310000000001
#
# number of rings (size 3 to 8) (size 9 to 14) (size 15 to 20)
#    0.000    1.250    3.750    1.125    1.750    0.000 
#    4.500    2.500    0.000    0.000    0.000    0.000 
#    0.000    0.000    0.000    0.000    0.000    0.000 
#
# Total GULP energy -89404.275042 kJ/mol
# GULP energy per Si atom -5587.767190 kJ/mol
# Density = 2.737287 g / cm^3
# Si number density = 27.435310 Si / 1000 Ang^3
#
#
#
# Elastic Constant Matrix: (Units=GPa)
#
#
# Indices 1 2 3 4 5 6 
#
# 1 139.2362 20.6910 53.6954 -8.1910 6.5072 10.3870
# 2 20.6910 78.5294 64.7792 -20.4632 6.3244 10.3089
# 3 53.6954 64.7792 138.3626 6.8994 11.9529 -1.9379
# 4 -8.1910 -20.4632 6.8994 41.0010 8.1128 -7.7489
# 5 6.5072 6.3244 11.9529 8.1128 56.1749 -1.2019
# 6 10.3870 10.3089 -1.9379 -7.7489 -1.2019 37.9641
#
#
#
# Elastic Compliance Matrix: (Units=1/GPa)
#
#
# Indices 1 2 3 4 5 6 
#
# 1 0.009265 0.003636 -0.005464 0.004220 -0.000993 -0.002971
# 2 0.003636 0.032036 -0.017169 0.018964 -0.003259 -0.006803
# 3 -0.005464 -0.017169 0.017998 -0.011919 0.000557 0.004661
# 4 0.004220 0.018964 -0.011919 0.037925 -0.005551 0.000653
# 5 -0.000993 -0.003259 0.000557 -0.005551 0.018980 0.000653
# 6 -0.002971 -0.006803 0.004661 0.000653 0.000653 0.029393
#
#
# Mechanical properties :
#
#
# Convention : Reuss Voigt Hill
#
# Bulk Modulus (GPa) = 46.93930 70.49549 58.71739
# Shear Modulus (GPa) = 26.22018 41.49217 33.85618
#
# Velocity S-wave (km/s) = 3.09481 3.89313 3.51670
# Velocity P-wave (km/s) = 5.46961 6.77935 6.15939
#
# Compressibility (1/GPa) = 0.02130411
#
# Stress axis : x y z
#
# Youngs Moduli (GPa) = 107.93000 31.21488 55.56283
#
# Poissons Ratio (x) = -0.11349 0.30360
# Poissons Ratio (y) = -0.39242 0.95396
# Poissons Ratio (z) = 0.58975 0.53593
#
# Static dielectric constant tensor:
#      x y z
#    x 2.221260 0.181990 -0.014080 
#    y 0.181990 2.660710 -0.129460 
#    z -0.014080 -0.129460 2.129640 
# 
# From -- ./inp_files/281228.got.cif
#   From: 2010.05.17/outbox.cif.g08.bks.cpg/sg2_141_cif.got.tgz:281228.got - 2010.06.03 11:33:40.
