data_PCOD9042663
_publ_section_title
;
Structure prediction by ZEFSAII (Michael W. Deem and Ramdas Pophale) SiO2 
 PCOD9042663
Probable space group: P -1
;
_chemical_formula_sum "Si O2"
_cell_formula_units_Z 16
_cell_length_a 21.679059
_cell_length_b 8.600542
_cell_length_c 8.328462
_cell_angle_alpha 117.915931
_cell_angle_beta 33.631571
_cell_angle_gamma 124.360076
_cell_volume 709.971839
_symmetry_space_group_name_H-M "P -1"
_symmetry_group_IT_number 2
_symmetry_cell_setting 'triclinic'
loop_
_space_group_symop_operation_xyz
x,y,z
-x,-y,-z
loop_
_atom_site_type_symbol
_atom_site_label
_atom_site_fract_x
_atom_site_fract_y
_atom_site_fract_z
Si Si1 0.433231 0.040251 0.016005
Si Si2 0.377049 0.834090 0.729907
Si Si3 0.186165 0.992755 0.653882
Si Si4 0.859457 0.678762 0.244412
Si Si5 0.903620 0.743984 0.537703
Si Si6 0.176141 0.945824 0.032536
Si Si7 0.951577 0.412001 0.387884
Si Si8 0.404641 0.584384 0.310841
O O1 0.321423 0.088434 0.344352
O O2 0.374195 0.864946 0.940320
O O3 0.500000 0.000000 0.000000
O O4 0.538485 0.208973 0.786640
O O5 0.387292 0.637390 0.558572
O O6 0.500000 0.000000 0.500000
O O7 0.270504 0.878255 0.890765
O O8 0.118996 0.810693 0.599635
O O9 0.134616 0.159191 0.817981
O O10 0.184925 0.930698 0.812769
O O11 0.912426 0.774924 0.342969
O O12 0.726426 0.547726 0.515943
O O13 0.932008 0.554706 0.959471
O O14 0.872686 0.527352 0.546011
O O15 0.042007 0.837807 0.337212
O O16 0.814824 0.839495 0.847012
O O17 0.000000 0.500000 0.500000
O O18 0.500000 0.500000 0.000000
#
# Coordination Sequence:
#
# PCOD9042663 Si02
#       8
#     2   2   2   2   2   2   2   2
#     4  11  25  46  71 101 137 185 232 291 348 412
#     4  10  23  44  73  96 135 184 229 284 349 409
#     4  12  25  44  69 101 144 182 230 291 354 411
#     4  12  25  46  72  98 147 188 231 292 349 420
#     4  11  26  43  70 103 139 186 231 285 352 422
#     4  11  24  45  71 102 140 182 235 283 354 427
#     4  12  28  43  68 107 141 183 234 288 353 417
#     4  11  24  46  70 103 135 186 242 281 343 415
#
# _framework density 22.536107000000001
#
# number of rings (size 3 to 8) (size 9 to 14) (size 15 to 20)
#    0.000    0.750    2.500    4.500   12.250    0.000 
#    0.000    0.625    0.000    0.000    0.000    0.000 
#    0.000    0.000    0.000    0.000    0.000    0.000 
#
# Total GULP energy -89294.422460 kJ/mol
# GULP energy per Si atom -5580.901404 kJ/mol
# Density = 2.248481 g / cm^3
# Si number density = 22.536107 Si / 1000 Ang^3
#
#
#
# Elastic Constant Matrix: (Units=GPa)
#
#
# Indices 1 2 3 4 5 6 
#
# 1 126.7028 27.5155 32.6185 18.5609 12.8640 17.4077
# 2 27.5155 75.9233 23.8000 11.3868 -8.4789 5.6568
# 3 32.6185 23.8000 116.8848 14.4105 -9.7342 22.0920
# 4 18.5609 11.3868 14.4105 52.0329 9.4161 -2.8530
# 5 12.8640 -8.4789 -9.7342 9.4161 38.5812 -5.4386
# 6 17.4077 5.6568 22.0920 -2.8530 -5.4386 22.8426
#
#
#
# Elastic Compliance Matrix: (Units=1/GPa)
#
#
# Indices 1 2 3 4 5 6 
#
# 1 0.010815 -0.003227 -0.000976 -0.002397 -0.005106 -0.008014
# 2 -0.003227 0.015757 -0.001790 -0.002624 0.004886 0.001124
# 3 -0.000976 -0.001790 0.011707 -0.003471 0.002321 -0.010016
# 4 -0.002397 -0.002624 -0.003471 0.022960 -0.005205 0.007462
# 5 -0.005106 0.004886 0.002321 -0.005205 0.031582 0.007306
# 6 -0.008014 0.001124 -0.010016 0.007462 0.007306 0.061965
#
#
# Mechanical properties :
#
#
# Convention : Reuss Voigt Hill
#
# Bulk Modulus (GPa) = 38.03354 54.15321 46.09337
# Shear Modulus (GPa) = 28.48408 38.39646 33.44027
#
# Velocity S-wave (km/s) = 3.55904 4.13216 3.85626
# Velocity P-wave (km/s) = 5.81398 6.84456 6.35021
#
# Compressibility (1/GPa) = 0.02629258
#
# Stress axis : x y z
#
# Youngs Moduli (GPa) = 92.46249 63.46238 85.42178
#
# Poissons Ratio (x) = 0.20481 0.08338
# Poissons Ratio (y) = 0.29840 0.15289
# Poissons Ratio (z) = 0.09025 0.11359
#
# Static dielectric constant tensor:
#      x y z
#    x 1.901670 -0.003790 0.098620 
#    y -0.003790 1.925990 0.029240 
#    z 0.098620 0.029240 1.921820 
# 
# From -- ./inp_files/319345.got.cif
#   From: 2010.05.17/outbox.cif.g08.bks.cpg/sg2_160_cif.got.tgz:319345.got - 2010.06.03 11:33:40.
