data_PCOD9042480
_publ_section_title
;
Structure prediction by ZEFSAII (Michael W. Deem and Ramdas Pophale) SiO2 
 PCOD9042480
Probable space group: P -1
;
_chemical_formula_sum "Si O2"
_cell_formula_units_Z 16
_cell_length_a 17.414981
_cell_length_b 7.995914
_cell_length_c 14.749495
_cell_angle_alpha 105.703434
_cell_angle_beta 153.402984
_cell_angle_gamma 59.838104
_cell_volume 705.339197
_symmetry_space_group_name_H-M "P -1"
_symmetry_group_IT_number 2
_symmetry_cell_setting 'triclinic'
loop_
_space_group_symop_operation_xyz
x,y,z
-x,-y,-z
loop_
_atom_site_type_symbol
_atom_site_label
_atom_site_fract_x
_atom_site_fract_y
_atom_site_fract_z
Si Si1 0.199826 0.832016 0.122067
Si Si2 0.838118 0.516048 0.059585
Si Si3 0.301501 0.308112 0.561440
Si Si4 0.663856 0.652119 0.609550
Si Si5 0.113874 0.224323 0.007430
Si Si6 0.549828 0.935906 0.900174
Si Si7 0.174806 0.088460 0.658452
Si Si8 0.716912 0.372987 0.269403
O O1 0.428076 0.729304 0.396080
O O2 0.171490 0.987184 0.031838
O O3 0.194816 0.640182 0.052153
O O4 0.000000 0.000000 0.000000
O O5 0.063474 0.371733 0.328751
O O6 0.863738 0.664527 0.039591
O O7 0.637662 0.690129 0.936443
O O8 0.337996 0.315269 0.495154
O O9 0.308924 0.477386 0.653816
O O10 0.478664 0.071705 0.753568
O O11 0.734411 0.780850 0.756876
O O12 0.864546 0.399730 0.800500
O O13 0.339497 0.076441 0.761658
O O14 0.741217 0.913784 0.152651
O O15 0.926978 0.293857 0.419547
O O16 0.215783 0.858178 0.657470
O O17 0.500000 0.500000 0.000000
#
# Coordination Sequence:
#
# PCOD9042480 Si02
#       8
#     2   2   2   2   2   2   2   2
#     4  12  25  42  70 101 132 181 236 281 347 410
#     4  11  26  45  67 104 142 181 234 285 341 411
#     4  11  23  43  69  99 138 180 231 282 342 410
#     4  10  23  44  72 100 137 179 228 284 341 410
#     4  10  23  47  72  96 139 186 224 284 347 400
#     4  11  23  44  66  99 138 177 221 292 338 404
#     4  10  24  42  68  98 136 175 226 279 348 404
#     4  11  22  43  71  99 131 183 226 278 342 416
#
# _framework density 22.684121999999999
#
# number of rings (size 3 to 8) (size 9 to 14) (size 15 to 20)
#    0.000    1.250    2.500    3.375    1.750    5.500 
#    2.250    0.000    0.000    0.000    0.000    0.000 
#    0.000    0.000    0.000    0.000    0.000    0.000 
#
# Total GULP energy -89495.407140 kJ/mol
# GULP energy per Si atom -5593.462946 kJ/mol
# Density = 2.263249 g / cm^3
# Si number density = 22.684122 Si / 1000 Ang^3
#
#
#
# Elastic Constant Matrix: (Units=GPa)
#
#
# Indices 1 2 3 4 5 6 
#
# 1 43.2041 -4.1751 43.8088 -0.8831 6.9565 -5.2114
# 2 -4.1751 74.9818 37.8050 -11.1893 0.7858 -5.3527
# 3 43.8088 37.8050 182.7740 -0.8979 23.1027 -14.9121
# 4 -0.8831 -11.1893 -0.8979 31.3330 -5.5312 -2.2628
# 5 6.9565 0.7858 23.1027 -5.5312 32.6453 -3.5507
# 6 -5.2114 -5.3527 -14.9121 -2.2628 -3.5507 32.3402
#
#
#
# Elastic Compliance Matrix: (Units=1/GPa)
#
#
# Indices 1 2 3 4 5 6 
#
# 1 0.033734 0.007320 -0.009392 0.003510 0.000157 0.002580
# 2 0.007320 0.017799 -0.005645 0.007190 0.003487 0.002408
# 3 -0.009392 -0.005645 0.009610 -0.002799 -0.005003 0.001238
# 4 0.003510 0.007190 -0.002799 0.036119 0.007596 0.003826
# 5 0.000157 0.003487 -0.005003 0.007596 0.035640 0.002740
# 6 0.002580 0.002408 0.001238 0.003826 0.002740 0.032875
#
#
# Mechanical properties :
#
#
# Convention : Reuss Voigt Hill
#
# Bulk Modulus (GPa) = 21.87763 50.64856 36.26310
# Shear Modulus (GPa) = 25.45222 34.16511 29.80866
#
# Velocity S-wave (km/s) = 3.35330 3.88509 3.62895
# Velocity P-wave (km/s) = 4.96571 6.51932 5.79481
#
# Compressibility (1/GPa) = 0.04570879
#
# Stress axis : x y z
#
# Youngs Moduli (GPa) = 29.64343 56.18431 104.06281
#
# Poissons Ratio (x) = -0.41126 0.97735
# Poissons Ratio (y) = -0.21699 0.58742
# Poissons Ratio (z) = 0.27841 0.31715
#
# Static dielectric constant tensor:
#      x y z
#    x 1.926660 0.017190 0.042240 
#    y 0.017190 1.831190 -0.022550 
#    z 0.042240 -0.022550 1.826840 
# 
# From -- ./inp_files/537453.got.cif
#   From: 2010.05.17/outbox.cif.g08.bks.cpg/sg2_269_cif.got.tgz:537453.got - 2010.06.03 11:33:40.
