data_PCOD9042026
_publ_section_title
;
Structure prediction by ZEFSAII (Michael W. Deem and Ramdas Pophale) SiO2 
 PCOD9042026
Probable space group: P -1
;
_chemical_formula_sum "Si O2"
_cell_formula_units_Z 14
_cell_length_a 8.635343
_cell_length_b 8.805450
_cell_length_c 13.920946
_cell_angle_alpha 78.281415
_cell_angle_beta 60.147175
_cell_angle_gamma 40.900346
_cell_volume 572.477812
_symmetry_space_group_name_H-M "P -1"
_symmetry_group_IT_number 2
_symmetry_cell_setting 'triclinic'
loop_
_space_group_symop_operation_xyz
x,y,z
-x,-y,-z
loop_
_atom_site_type_symbol
_atom_site_label
_atom_site_fract_x
_atom_site_fract_y
_atom_site_fract_z
Si Si1 0.700129 0.754965 0.600858
Si Si2 0.126286 0.155882 0.972845
Si Si3 0.990752 0.628287 0.713633
Si Si4 0.418568 0.827987 0.505511
Si Si5 0.864648 0.062805 0.700379
Si Si6 0.779527 0.229394 0.912232
Si Si7 0.273324 0.374392 0.838975
O O1 0.472453 0.806555 0.607336
O O2 0.000000 0.500000 0.500000
O O3 0.755506 0.720903 0.701837
O O4 0.629338 0.974429 0.556530
O O5 0.321268 0.175947 0.898479
O O6 0.032512 0.141032 0.903537
O O7 0.856734 0.415283 0.074459
O O8 0.237372 0.939399 0.028957
O O9 0.288713 0.432983 0.590494
O O10 0.049766 0.492825 0.808583
O O11 0.931864 0.841824 0.736923
O O12 0.124897 0.939172 0.572041
O O13 0.826347 0.197064 0.787905
O O14 0.557808 0.254683 0.723871
O O15 0.500000 0.500000 0.000000
#
# Coordination Sequence:
#
# PCOD9042026 Si02
#       7
#     2   2   2   2   2   2   2
#     4   9  21  43  67  92 138 179 226 279 340 402
#     4  10  24  46  68  97 138 181 235 292 336 415
#     4  11  23  42  66 102 138 178 228 284 341 418
#     4  10  23  44  68  99 140 176 229 283 338 417
#     4  12  25  40  69 102 134 184 226 284 351 408
#     4  11  23  45  70  99 135 179 235 292 347 404
#     4  11  24  43  70 102 138 182 234 282 351 409
#
# _framework density 24.455096999999999
#
# number of rings (size 3 to 8) (size 9 to 14) (size 15 to 20)
#    0.000    1.429    2.857    1.286    0.000   10.857 
#    0.000    2.857    0.000    0.000    0.000    0.000 
#    0.000    0.000    0.000    0.000    0.000    0.000 
#
# Total GULP energy -78271.508527 kJ/mol
# GULP energy per Si atom -5590.822038 kJ/mol
# Density = 2.439944 g / cm^3
# Si number density = 24.455097 Si / 1000 Ang^3
#
#
#
# Elastic Constant Matrix: (Units=GPa)
#
#
# Indices 1 2 3 4 5 6 
#
# 1 100.1494 36.1887 36.3472 -1.9201 14.2615 -18.0278
# 2 36.1887 81.5060 22.1268 23.0065 7.5208 9.1626
# 3 36.3472 22.1268 53.3705 22.6104 12.6168 -5.5980
# 4 -1.9201 23.0065 22.6104 39.5752 -4.7306 7.4762
# 5 14.2615 7.5208 12.6168 -4.7306 45.4635 1.0546
# 6 -18.0278 9.1626 -5.5980 7.4762 1.0546 43.3315
#
#
#
# Elastic Compliance Matrix: (Units=1/GPa)
#
#
# Indices 1 2 3 4 5 6 
#
# 1 0.020349 -0.009646 -0.015578 0.014475 0.000903 0.005974
# 2 -0.009646 0.020199 0.004229 -0.013970 -0.002821 -0.005259
# 3 -0.015578 0.004229 0.043264 -0.029938 -0.011019 0.003647
# 4 0.014475 -0.013970 -0.029938 0.053430 0.011740 -0.004396
# 5 0.000903 -0.002821 -0.011019 0.011740 0.026531 -0.003123
# 6 0.005974 -0.005259 0.003647 -0.004396 -0.003123 0.027981
#
#
# Mechanical properties :
#
#
# Convention : Reuss Voigt Hill
#
# Bulk Modulus (GPa) = 23.91195 47.15014 35.53105
# Shear Modulus (GPa) = 20.18696 35.03158 27.60927
#
# Velocity S-wave (km/s) = 2.87622 3.78893 3.36367
# Velocity P-wave (km/s) = 4.56391 6.20189 5.44485
#
# Compressibility (1/GPa) = 0.04182010
#
# Stress axis : x y z
#
# Youngs Moduli (GPa) = 49.14297 49.50788 23.11410
#
# Poissons Ratio (x) = 0.47758 0.36007
# Poissons Ratio (y) = 0.47406 -0.09775
# Poissons Ratio (z) = 0.76555 -0.20937
#
# Static dielectric constant tensor:
#      x y z
#    x 1.945540 -0.030650 0.032350 
#    y -0.030650 1.909600 0.010200 
#    z 0.032350 0.010200 1.949520 
# 
# From -- ./inp_files/89614.got.cif
#   From: 2010.05.17/outbox.cif.g08.bks.cpg/sg2_45_cif.got.tgz:89614.got - 2010.06.03 11:33:40.
