data_PCOD9042436
_publ_section_title
;
Structure prediction by ZEFSAII (Michael W. Deem and Ramdas Pophale) SiO2 
 PCOD9042436
Probable space group: P -1
;
_chemical_formula_sum "Si O2"
_cell_formula_units_Z 14
_cell_length_a 14.326724
_cell_length_b 5.130430
_cell_length_c 24.104006
_cell_angle_alpha 66.982563
_cell_angle_beta 21.534035
_cell_angle_gamma 63.386552
_cell_volume 579.623876
_symmetry_space_group_name_H-M "P -1"
_symmetry_group_IT_number 2
_symmetry_cell_setting 'triclinic'
loop_
_space_group_symop_operation_xyz
x,y,z
-x,-y,-z
loop_
_atom_site_type_symbol
_atom_site_label
_atom_site_fract_x
_atom_site_fract_y
_atom_site_fract_z
Si Si1 0.888824 0.626618 0.610535
Si Si2 0.939974 0.752318 0.093067
Si Si3 0.640949 0.108131 0.632620
Si Si4 0.534167 0.814797 0.939393
Si Si5 0.931352 0.876906 0.908430
Si Si6 0.993155 0.061239 0.654071
Si Si7 0.315397 0.796088 0.602623
O O1 0.815516 0.381621 0.709687
O O2 0.000000 0.500000 0.500000
O O3 0.138230 0.721556 0.489696
O O4 0.655935 0.897189 0.695675
O O5 0.650720 0.731467 0.235639
O O6 0.116471 0.422921 0.014688
O O7 0.973194 0.896595 0.122724
O O8 0.000000 0.000000 0.000000
O O9 0.760992 0.958021 0.521002
O O10 0.817923 0.833742 0.758718
O O11 0.500000 0.500000 0.000000
O O12 0.500000 0.000000 0.000000
O O13 0.320713 0.954984 0.000237
O O14 0.154390 0.749178 0.749527
O O15 0.109016 0.979202 0.657248
O O16 0.500000 0.500000 0.500000
O O17 0.500000 0.000000 0.500000
#
# Coordination Sequence:
#
# PCOD9042436 Si02
#       7
#     2   2   2   2   2   2   2
#     4   9  22  41  68 104 137 185 242 308 358 432
#     4  12  29  49  78 106 153 200 248 311 383 451
#     4  10  23  44  71 107 144 186 256 301 374 441
#     4  12  28  49  75 108 153 196 254 302 375 453
#     4  12  27  51  73 111 150 197 253 311 372 456
#     4  11  25  43  75 102 144 193 241 308 375 434
#     4  12  27  44  75 109 148 192 245 302 376 444
#
# _framework density 24.153593999999998
#
# number of rings (size 3 to 8) (size 9 to 14) (size 15 to 20)
#    0.000    0.857    1.429    3.857   14.000    3.429 
#    0.000    0.000    0.000    0.000    0.000    0.000 
#    0.000    0.000    0.000    0.000    0.000    0.000 
#
# Total GULP energy -78301.289150 kJ/mol
# GULP energy per Si atom -5592.949225 kJ/mol
# Density = 2.409862 g / cm^3
# Si number density = 24.153594 Si / 1000 Ang^3
#
#
#
# Elastic Constant Matrix: (Units=GPa)
#
#
# Indices 1 2 3 4 5 6 
#
# 1 148.8880 61.2202 36.3155 4.8073 -32.5156 -12.2648
# 2 61.2202 166.2488 22.5393 -19.8187 -22.3361 -25.4205
# 3 36.3155 22.5393 56.1265 -0.2373 -15.7744 -25.0231
# 4 4.8073 -19.8187 -0.2373 33.5328 -4.0788 4.7241
# 5 -32.5156 -22.3361 -15.7744 -4.0788 46.5589 6.6631
# 6 -12.2648 -25.4205 -25.0231 4.7241 6.6631 52.3696
#
#
#
# Elastic Compliance Matrix: (Units=1/GPa)
#
#
# Indices 1 2 3 4 5 6 
#
# 1 0.009951 -0.003054 -0.004930 -0.002550 0.003843 -0.001767
# 2 -0.003054 0.008426 0.000488 0.005277 0.002128 0.002861
# 3 -0.004930 0.000488 0.027162 0.000098 0.004357 0.011498
# 4 -0.002550 0.005277 0.000098 0.034012 0.003987 -0.001565
# 5 0.003843 0.002128 0.004357 0.003987 0.026977 0.000223
# 6 -0.001767 0.002861 0.011498 -0.001565 0.000223 0.025677
#
#
# Mechanical properties :
#
#
# Convention : Reuss Voigt Hill
#
# Bulk Modulus (GPa) = 32.73673 67.93481 50.33577
# Shear Modulus (GPa) = 31.77072 43.23816 37.50444
#
# Velocity S-wave (km/s) = 3.63073 4.23559 3.94477
# Velocity P-wave (km/s) = 5.58204 7.21855 6.45239
#
# Compressibility (1/GPa) = 0.03054673
#
# Stress axis : x y z
#
# Youngs Moduli (GPa) = 100.49439 118.68298 36.81635
#
# Poissons Ratio (x) = 0.36241 0.18152
# Poissons Ratio (y) = 0.30687 -0.01797
# Poissons Ratio (z) = 0.49548 -0.05793
#
# Static dielectric constant tensor:
#      x y z
#    x 1.815150 0.065430 -0.094340 
#    y 0.065430 2.043120 0.082930 
#    z -0.094340 0.082930 1.752490 
# 
# From -- ./inp_files/564146.got.cif
#   From: 2010.05.17/outbox.cif.g08.bks.cpg/sg2_283_cif.got.tgz:564146.got - 2010.06.03 11:33:40.
