data_PCOD9042983
_publ_section_title
;
Structure prediction by ZEFSAII (Michael W. Deem and Ramdas Pophale) SiO2 
 PCOD9042983
Probable space group: P -1
;
_chemical_formula_sum "Si O2"
_cell_formula_units_Z 16
_cell_length_a 6.737032
_cell_length_b 22.480546
_cell_length_c 14.445819
_cell_angle_alpha 160.277636
_cell_angle_beta 74.056796
_cell_angle_gamma 106.416048
_cell_volume 707.967272
_symmetry_space_group_name_H-M "P -1"
_symmetry_group_IT_number 2
_symmetry_cell_setting 'triclinic'
loop_
_space_group_symop_operation_xyz
x,y,z
-x,-y,-z
loop_
_atom_site_type_symbol
_atom_site_label
_atom_site_fract_x
_atom_site_fract_y
_atom_site_fract_z
Si Si1 0.630504 0.177670 0.158953
Si Si2 0.033777 0.110625 0.512063
Si Si3 0.197674 0.720934 0.513092
Si Si4 0.409211 0.342951 0.715736
Si Si5 0.066942 0.336115 0.013880
Si Si6 0.746826 0.800881 0.644680
Si Si7 0.718112 0.240608 0.036119
Si Si8 0.367090 0.099799 0.739710
O O1 0.742107 0.243868 0.336184
O O2 0.388653 0.187593 0.228611
O O3 0.685372 0.273992 0.197370
O O4 0.693816 0.976118 0.851748
O O5 0.196475 0.252053 0.650606
O O6 0.988907 0.193454 0.738474
O O7 0.160159 0.937403 0.247942
O O8 0.808571 0.041317 0.401682
O O9 0.389987 0.769274 0.491337
O O10 0.988203 0.804820 0.636879
O O11 0.153756 0.510450 0.206292
O O12 0.337983 0.367835 0.653887
O O13 0.500000 0.500000 0.000000
O O14 0.875965 0.380369 0.168545
O O15 0.243560 0.246957 0.918198
O O16 0.510221 0.195560 0.939482
O O17 0.500000 0.000000 0.500000
#
# Coordination Sequence:
#
# PCOD9042983 Si02
#       8
#     2   2   2   2   2   2   2   2
#     4  10  23  45  67  94 130 167 239 276 311 395
#     4  11  21  41  63  99 136 161 224 267 321 406
#     4  11  25  44  67  94 138 179 211 277 335 380
#     4  11  23  42  64 101 136 168 212 274 329 396
#     4  11  23  41  62 101 139 165 220 269 325 406
#     4  10  23  45  67  95 126 181 224 269 329 390
#     4  11  22  41  69  97 128 175 219 273 325 389
#     4  11  21  39  68  94 129 181 210 263 334 386
#
# _framework density 22.599913999999998
#
# number of rings (size 3 to 8) (size 9 to 14) (size 15 to 20)
#    0.000    1.250    5.000    1.125    0.000    6.000 
#    2.250    1.250    0.000    0.000    0.000    0.000 
#    0.000    0.000    0.000    0.000    0.000    0.000 
#
# Total GULP energy -89310.570653 kJ/mol
# GULP energy per Si atom -5581.910666 kJ/mol
# Density = 2.254848 g / cm^3
# Si number density = 22.599914 Si / 1000 Ang^3
#
#
#
# Elastic Constant Matrix: (Units=GPa)
#
#
# Indices 1 2 3 4 5 6 
#
# 1 167.5216 40.0634 22.0096 -14.0498 -7.0878 21.8913
# 2 40.0634 95.4557 6.7407 -21.4169 -10.1292 28.7823
# 3 22.0096 6.7407 46.3121 -11.5588 4.9501 2.0836
# 4 -14.0498 -21.4169 -11.5588 33.8155 4.1975 6.4100
# 5 -7.0878 -10.1292 4.9501 4.1975 22.0239 -3.3799
# 6 21.8913 28.7823 2.0836 6.4100 -3.3799 33.4505
#
#
#
# Elastic Compliance Matrix: (Units=1/GPa)
#
#
# Indices 1 2 3 4 5 6 
#
# 1 0.007342 -0.001120 -0.002836 0.001918 0.001525 -0.003878
# 2 -0.001120 0.021198 0.002493 0.017463 0.002312 -0.020775
# 3 -0.002836 0.002493 0.026615 0.011536 -0.008720 -0.005039
# 4 0.001918 0.017463 0.011536 0.051621 -0.008034 -0.027703
# 5 0.001525 0.002312 -0.008720 -0.008034 0.051104 0.004259
# 6 -0.003878 -0.020775 -0.005039 -0.027703 0.004259 0.056361
#
#
# Mechanical properties :
#
#
# Convention : Reuss Voigt Hill
#
# Bulk Modulus (GPa) = 19.14636 49.65742 34.40189
# Shear Modulus (GPa) = 21.31499 33.88970 27.60235
#
# Velocity S-wave (km/s) = 3.07440 3.87660 3.49857
# Velocity P-wave (km/s) = 4.59269 6.48518 5.61918
#
# Compressibility (1/GPa) = 0.05222924
#
# Stress axis : x y z
#
# Youngs Moduli (GPa) = 136.20433 47.17524 37.57209
#
# Poissons Ratio (x) = 0.05283 0.10656
# Poissons Ratio (y) = 0.15252 -0.09367
# Poissons Ratio (z) = 0.38629 -0.11761
#
# Static dielectric constant tensor:
#      x y z
#    x 1.858140 0.060770 0.030040 
#    y 0.060770 1.921630 0.009650 
#    z 0.030040 0.009650 1.889200 
# 
# From -- ./inp_files/70039.got.cif
#   From: 2010.05.17/outbox.cif.g08.bks.cpg/sg2_36_cif.got.tgz:70039.got - 2010.06.03 11:33:40.
