data_PCOD9042703
_publ_section_title
;
Structure prediction by ZEFSAII (Michael W. Deem and Ramdas Pophale) SiO2 
 PCOD9042703
Probable space group: P -1
;
_chemical_formula_sum "Si O2"
_cell_formula_units_Z 16
_cell_length_a 15.355632
_cell_length_b 21.333809
_cell_length_c 5.038107
_cell_angle_alpha 82.145606
_cell_angle_beta 105.917057
_cell_angle_gamma 157.646049
_cell_volume 571.937112
_symmetry_space_group_name_H-M "P -1"
_symmetry_group_IT_number 2
_symmetry_cell_setting 'triclinic'
loop_
_space_group_symop_operation_xyz
x,y,z
-x,-y,-z
loop_
_atom_site_type_symbol
_atom_site_label
_atom_site_fract_x
_atom_site_fract_y
_atom_site_fract_z
Si Si1 0.207270 0.090889 0.384572
Si Si2 0.956622 0.548678 0.604988
Si Si3 0.537056 0.324034 0.040672
Si Si4 0.353426 0.767969 0.453725
Si Si5 0.145439 0.194018 0.355482
Si Si6 0.399090 0.496305 0.769950
Si Si7 0.090744 0.852818 0.194538
Si Si8 0.234677 0.818820 0.025767
O O1 0.103118 0.094803 0.271896
O O2 0.352934 0.046488 0.415902
O O3 0.415265 0.231656 0.710089
O O4 0.987638 0.901783 0.414034
O O5 0.802868 0.468332 0.259402
O O6 0.790866 0.386210 0.693970
O O7 0.223659 0.691251 0.678610
O O8 0.013271 0.649450 0.750638
O O9 0.548813 0.405921 0.077372
O O10 0.355273 0.174830 0.192884
O O11 0.289420 0.794084 0.267001
O O12 0.844745 0.169947 0.895420
O O13 0.442341 0.395173 0.432420
O O14 0.020498 0.168276 0.093937
O O15 0.104831 0.293253 0.654299
O O16 0.500000 0.500000 0.000000
O O17 0.500000 0.000000 0.000000
#
# Coordination Sequence:
#
# PCOD9042703 Si02
#       8
#     2   2   2   2   2   2   2   2
#     4  10  23  44  74 106 154 194 256 312 379 449
#     4  11  26  46  72 105 147 196 252 308 376 457
#     4  11  24  43  71 108 145 201 247 310 378 457
#     4  11  25  47  73 101 149 196 253 307 376 457
#     4   9  21  44  71 108 145 194 253 314 373 449
#     4   9  21  41  66 103 140 188 245 307 367 445
#     4  11  22  44  75 107 149 198 248 311 386 452
#     4  12  26  44  70 111 148 190 244 315 384 452
#
# _framework density 27.975104999999999
#
# number of rings (size 3 to 8) (size 9 to 14) (size 15 to 20)
#    0.000    1.500    1.250    2.250    5.250    5.500 
#    2.250    3.125    0.000    0.000    0.000    0.000 
#    0.000    0.000    0.000    0.000    0.000    0.000 
#
# Total GULP energy -89731.142063 kJ/mol
# GULP energy per Si atom -5608.196379 kJ/mol
# Density = 2.791143 g / cm^3
# Si number density = 27.975105 Si / 1000 Ang^3
#
#
#
# Elastic Constant Matrix: (Units=GPa)
#
#
# Indices 1 2 3 4 5 6 
#
# 1 111.6780 86.8859 29.0517 -4.4392 23.5991 1.1707
# 2 86.8859 278.9015 62.6368 -2.6111 7.7616 21.2759
# 3 29.0517 62.6368 107.7233 -1.4483 12.5234 0.7871
# 4 -4.4392 -2.6111 -1.4483 52.9844 -13.2070 6.1899
# 5 23.5991 7.7616 12.5234 -13.2070 42.0229 3.7997
# 6 1.1707 21.2759 0.7871 6.1899 3.7997 84.3675
#
#
#
# Elastic Compliance Matrix: (Units=1/GPa)
#
#
# Indices 1 2 3 4 5 6 
#
# 1 0.013725 -0.004061 -0.000522 -0.001012 -0.007232 0.001238
# 2 -0.004061 0.005419 -0.002303 0.000601 0.002285 -0.001436
# 3 -0.000522 -0.002303 0.011080 -0.000640 -0.002845 0.000660
# 4 -0.001012 0.000601 -0.000640 0.020876 0.007389 -0.001996
# 5 -0.007232 0.002285 -0.002845 0.007389 0.030821 -0.002380
# 6 0.001238 -0.001436 0.000660 -0.001996 -0.002380 0.012445
#
#
# Mechanical properties :
#
#
# Convention : Reuss Voigt Hill
#
# Bulk Modulus (GPa) = 60.78223 95.05019 77.91621
# Shear Modulus (GPa) = 44.00540 57.19019 50.59779
#
# Velocity S-wave (km/s) = 3.97043 4.52633 4.25746
# Velocity P-wave (km/s) = 6.54168 7.83373 7.21668
#
# Compressibility (1/GPa) = 0.01645218
#
# Stress axis : x y z
#
# Youngs Moduli (GPa) = 72.86181 184.52091 90.25145
#
# Poissons Ratio (x) = 0.74936 0.04710
# Poissons Ratio (y) = 0.29590 0.20785
# Poissons Ratio (z) = 0.03803 0.42495
#
# Static dielectric constant tensor:
#      x y z
#    x 2.216280 0.055200 -0.021440 
#    y 0.055200 2.225320 0.015580 
#    z -0.021440 0.015580 2.216030 
# 
# From -- ./inp_files/120644.got.cif
#   From: 2010.05.17/outbox.cif.g08.bks.cpg/sg2_61_cif.got.tgz:120644.got - 2010.06.03 11:33:40.
