data_PCOD9042226
_publ_section_title
;
Structure prediction by ZEFSAII (Michael W. Deem and Ramdas Pophale) SiO2 
 PCOD9042226
Probable space group: P -1
;
_chemical_formula_sum "Si O2"
_cell_formula_units_Z 16
_cell_length_a 14.988121
_cell_length_b 11.520489
_cell_length_c 8.188499
_cell_angle_alpha 103.780783
_cell_angle_beta 81.187126
_cell_angle_gamma 150.119552
_cell_volume 679.953989
_symmetry_space_group_name_H-M "P -1"
_symmetry_group_IT_number 2
_symmetry_cell_setting 'triclinic'
loop_
_space_group_symop_operation_xyz
x,y,z
-x,-y,-z
loop_
_atom_site_type_symbol
_atom_site_label
_atom_site_fract_x
_atom_site_fract_y
_atom_site_fract_z
Si Si1 0.703801 0.474306 0.451695
Si Si2 0.594229 0.328407 0.794527
Si Si3 0.333174 0.227067 0.903653
Si Si4 0.030993 0.258409 0.019548
Si Si5 0.950270 0.220217 0.656543
Si Si6 0.970345 0.449577 0.184198
Si Si7 0.567775 0.088731 0.196848
Si Si8 0.304019 0.270938 0.556245
O O1 0.615887 0.394679 0.624868
O O2 0.582558 0.242640 0.303984
O O3 0.754967 0.658982 0.418034
O O4 0.895953 0.629883 0.468689
O O5 0.421646 0.196409 0.875848
O O6 0.775881 0.569615 0.922279
O O7 0.561852 0.149055 0.747830
O O8 0.291671 0.215155 0.726469
O O9 0.149096 0.023577 0.989238
O O10 0.500000 0.500000 0.000000
O O11 0.003534 0.348223 0.164541
O O12 0.033695 0.294290 0.839149
O O13 0.900959 0.303525 0.686713
O O14 0.800091 0.949395 0.588168
O O15 0.768344 0.262820 0.214722
O O16 0.000000 0.500000 0.000000
O O17 0.500000 0.000000 0.000000
O O18 0.500000 0.500000 0.500000
#
# Coordination Sequence:
#
# PCOD9042226 Si02
#       8
#     2   2   2   2   2   2   2   2
#     4  11  25  45  67 100 143 180 236 286 349 422
#     4  12  25  47  71 107 141 183 234 288 355 408
#     4  12  28  47  71 104 142 184 238 289 344 424
#     4  11  24  45  74 101 142 182 235 296 343 413
#     4  10  23  44  70 102 134 187 233 285 350 420
#     4   9  19  40  65 101 135 172 228 281 343 404
#     4  11  23  42  73 103 139 180 234 293 346 412
#     4  12  25  45  67  97 141 186 229 288 354 415
#
# _framework density 23.531003999999999
#
# number of rings (size 3 to 8) (size 9 to 14) (size 15 to 20)
#    0.000    1.000    2.500    4.500    3.500    3.500 
#    2.250    1.875    0.000    0.000    0.000    0.000 
#    0.000    0.000    0.000    0.000    0.000    0.000 
#
# Total GULP energy -89456.323005 kJ/mol
# GULP energy per Si atom -5591.020188 kJ/mol
# Density = 2.347745 g / cm^3
# Si number density = 23.531004 Si / 1000 Ang^3
#
#
#
# Elastic Constant Matrix: (Units=GPa)
#
#
# Indices 1 2 3 4 5 6 
#
# 1 54.9120 4.9853 10.1181 18.2379 -3.4350 -19.6133
# 2 4.9853 117.7810 7.9040 19.9783 -0.9549 -6.7791
# 3 10.1181 7.9040 64.2324 24.7723 5.5555 -8.6585
# 4 18.2379 19.9783 24.7723 44.7949 -11.5544 -15.4603
# 5 -3.4350 -0.9549 5.5555 -11.5544 31.8609 3.7011
# 6 -19.6133 -6.7791 -8.6585 -15.4603 3.7011 38.3744
#
#
#
# Elastic Compliance Matrix: (Units=1/GPa)
#
#
# Indices 1 2 3 4 5 6 
#
# 1 0.023830 0.000735 0.000334 -0.007212 -0.001197 0.009595
# 2 0.000735 0.009305 0.001004 -0.005381 -0.001798 0.000251
# 3 0.000334 0.001004 0.022045 -0.015125 -0.009277 0.000123
# 4 -0.007212 -0.005381 -0.015125 0.042886 0.016362 0.007650
# 5 -0.001197 -0.001798 -0.009277 0.016362 0.038775 -0.000170
# 6 0.009595 0.000251 0.000123 0.007650 -0.000170 0.034134
#
#
# Mechanical properties :
#
#
# Convention : Reuss Voigt Hill
#
# Bulk Modulus (GPa) = 16.85631 31.43780 24.14706
# Shear Modulus (GPa) = 26.79492 37.26724 32.03108
#
# Velocity S-wave (km/s) = 3.37813 3.98395 3.69349
# Velocity P-wave (km/s) = 4.73231 5.87807 5.33603
#
# Compressibility (1/GPa) = 0.05932495
#
# Stress axis : x y z
#
# Youngs Moduli (GPa) = 41.96360 107.47486 45.36265
#
# Poissons Ratio (x) = -0.07897 -0.01516
# Poissons Ratio (y) = -0.03083 -0.04554
# Poissons Ratio (z) = -0.01402 -0.10790
#
# Static dielectric constant tensor:
#      x y z
#    x 2.056590 -0.041610 -0.049120 
#    y -0.041610 1.895950 0.057480 
#    z -0.049120 0.057480 1.927090 
# 
# From -- ./inp_files/308011.got.cif
#   From: 2010.05.17/outbox.cif.g08.bks.cpg/sg2_155_cif.got.tgz:308011.got - 2010.06.03 11:33:40.
