data_PCOD9042365
_publ_section_title
;
Structure prediction by ZEFSAII (Michael W. Deem and Ramdas Pophale) SiO2 
 PCOD9042365
Probable space group: P -1
;
_chemical_formula_sum "Si O2"
_cell_formula_units_Z 14
_cell_length_a 19.397445
_cell_length_b 5.923161
_cell_length_c 5.835001
_cell_angle_alpha 101.539346
_cell_angle_beta 94.442796
_cell_angle_gamma 120.203975
_cell_volume 554.983526
_symmetry_space_group_name_H-M "P -1"
_symmetry_group_IT_number 2
_symmetry_cell_setting 'triclinic'
loop_
_space_group_symop_operation_xyz
x,y,z
-x,-y,-z
loop_
_atom_site_type_symbol
_atom_site_label
_atom_site_fract_x
_atom_site_fract_y
_atom_site_fract_z
Si Si1 0.454184 0.767281 0.639365
Si Si2 0.042934 0.913807 0.182146
Si Si3 0.604093 0.930085 0.000029
Si Si4 0.257464 0.934521 0.642264
Si Si5 0.694337 0.768894 0.709563
Si Si6 0.111873 0.586639 0.874381
Si Si7 0.801493 0.575378 0.755343
O O1 0.389633 0.499687 0.434834
O O2 0.500000 0.000000 0.500000
O O3 0.519570 0.742482 0.805982
O O4 0.410256 0.854645 0.832642
O O5 0.970617 0.693604 0.282373
O O6 0.122069 0.198092 0.328929
O O7 0.079419 0.752451 0.034718
O O8 0.000000 0.000000 0.000000
O O9 0.671277 0.982873 0.836626
O O10 0.651023 0.864702 0.192970
O O11 0.177968 0.787712 0.749611
O O12 0.254383 0.676297 0.475073
O O13 0.250542 0.102493 0.472292
O O14 0.746064 0.685585 0.860477
O O15 0.159430 0.505855 0.048382
#
# Coordination Sequence:
#
# PCOD9042365 Si02
#       7
#     2   2   2   2   2   2   2
#     4  11  26  48  75 105 140 188 245 295 362 430
#     4   9  20  43  70 102 140 189 242 296 352 419
#     4  11  25  46  72 103 143 186 235 299 356 427
#     4  12  25  42  68 107 141 188 243 290 361 431
#     4  12  27  46  71 106 146 187 240 298 361 428
#     4  10  23  44  71 100 142 192 241 295 356 423
#     4  11  23  44  68 102 145 187 240 299 351 429
#
# _framework density 25.225971000000001
#
# number of rings (size 3 to 8) (size 9 to 14) (size 15 to 20)
#    0.000    1.143    1.429    3.857    2.000    7.429 
#    2.571   10.000    0.000    0.000    0.000    0.000 
#    0.000    0.000    0.000    0.000    0.000    0.000 
#
# Total GULP energy -78113.134232 kJ/mol
# GULP energy per Si atom -5579.509588 kJ/mol
# Density = 2.516856 g / cm^3
# Si number density = 25.225971 Si / 1000 Ang^3
#
#
#
# Elastic Constant Matrix: (Units=GPa)
#
#
# Indices 1 2 3 4 5 6 
#
# 1 191.2358 44.7267 43.9578 -17.4261 -4.8139 -18.2163
# 2 44.7267 119.3064 32.9926 -2.4149 -5.3143 25.4670
# 3 43.9578 32.9926 52.7433 -0.9215 0.6441 5.9418
# 4 -17.4261 -2.4149 -0.9215 28.0943 8.4539 7.8914
# 5 -4.8139 -5.3143 0.6441 8.4539 51.3700 1.6258
# 6 -18.2163 25.4670 5.9418 7.8914 1.6258 34.8302
#
#
#
# Elastic Compliance Matrix: (Units=1/GPa)
#
#
# Indices 1 2 3 4 5 6 
#
# 1 0.008070 -0.002828 -0.005655 0.002752 -0.000128 0.006636
# 2 -0.002828 0.013103 -0.004609 0.001888 0.001178 -0.010756
# 3 -0.005655 -0.004609 0.026962 -0.001677 -0.000950 -0.003763
# 4 0.002752 0.001888 -0.001677 0.041727 -0.006113 -0.008824
# 5 -0.000128 0.001178 -0.000950 -0.006113 0.020605 -0.000343
# 6 0.006636 -0.010756 -0.003763 -0.008824 -0.000343 0.042703
#
#
# Mechanical properties :
#
#
# Convention : Reuss Voigt Hill
#
# Bulk Modulus (GPa) = 45.55517 67.40441 56.47979
# Shear Modulus (GPa) = 26.78513 38.96614 32.87564
#
# Velocity S-wave (km/s) = 3.26207 3.93451 3.61397
# Velocity P-wave (km/s) = 5.68210 6.88613 6.31288
#
# Compressibility (1/GPa) = 0.02195140
#
# Stress axis : x y z
#
# Youngs Moduli (GPa) = 123.91652 76.31640 37.08952
#
# Poissons Ratio (x) = 0.21583 0.20972
# Poissons Ratio (y) = 0.35045 0.17095
# Poissons Ratio (z) = 0.70069 0.35176
#
# Static dielectric constant tensor:
#      x y z
#    x 1.948880 0.014670 -0.025780 
#    y 0.014670 2.005620 0.030290 
#    z -0.025780 0.030290 2.093350 
# 
# From -- ./inp_files/114821.got.cif
#   From: 2010.05.17/outbox.cif.g08.bks.cpg/sg2_58_cif.got.tgz:114821.got - 2010.06.03 11:33:40.
