data_PCOD9042833
_publ_section_title
;
Structure prediction by ZEFSAII (Michael W. Deem and Ramdas Pophale) SiO2 
 PCOD9042833
Probable space group: P -1
;
_chemical_formula_sum "Si O2"
_cell_formula_units_Z 16
_cell_length_a 8.512480
_cell_length_b 22.757600
_cell_length_c 7.893565
_cell_angle_alpha 57.144255
_cell_angle_beta 106.713828
_cell_angle_gamma 61.146576
_cell_volume 748.349386
_symmetry_space_group_name_H-M "P -1"
_symmetry_group_IT_number 2
_symmetry_cell_setting 'triclinic'
loop_
_space_group_symop_operation_xyz
x,y,z
-x,-y,-z
loop_
_atom_site_type_symbol
_atom_site_label
_atom_site_fract_x
_atom_site_fract_y
_atom_site_fract_z
Si Si1 0.983732 0.133555 0.777443
Si Si2 0.471283 0.890091 0.448981
Si Si3 0.095641 0.339884 0.262974
Si Si4 0.997286 0.282790 0.642346
Si Si5 0.523057 0.276933 0.676205
Si Si6 0.470117 0.452912 0.417779
Si Si7 0.710799 0.944609 0.306407
Si Si8 0.451118 0.859163 0.862221
O O1 0.067996 0.176955 0.830826
O O2 0.709518 0.210359 0.670125
O O3 0.005572 0.144912 0.567062
O O4 0.204404 0.999383 0.089582
O O5 0.668417 0.768208 0.614810
O O6 0.651569 0.901125 0.485851
O O7 0.366105 0.897899 0.583062
O O8 0.225207 0.357130 0.391106
O O9 0.030259 0.300001 0.436665
O O10 0.827063 0.446724 0.910577
O O11 0.697338 0.394504 0.440793
O O12 0.222217 0.246277 0.877417
O O13 0.531527 0.351298 0.641608
O O14 0.616129 0.187491 0.980882
O O15 0.500000 0.500000 0.500000
O O16 0.649427 0.039479 0.223292
O O17 0.500000 0.000000 0.000000
#
# Coordination Sequence:
#
# PCOD9042833 Si02
#       8
#     2   2   2   2   2   2   2   2
#     4  10  19  37  60  92 125 171 214 254 301 377
#     4  11  21  34  62  95 133 164 215 258 313 374
#     4  11  22  42  66  94 123 170 216 260 318 377
#     4  10  19  38  64  89 121 165 221 256 305 383
#     4  10  24  42  65  90 134 167 211 261 321 387
#     4  11  24  44  67  94 123 162 216 277 320 372
#     4  10  17  33  59  90 127 166 218 251 300 379
#     4  11  21  36  59  96 132 173 199 265 328 364
#
# _framework density 21.380385
#
# number of rings (size 3 to 8) (size 9 to 14) (size 15 to 20)
#    0.000    1.500    3.750    4.125    0.000    2.500 
#    0.000    9.375    0.000    0.000    0.000    0.000 
#    0.000    0.000    0.000    0.000    0.000    0.000 
#
# Total GULP energy -89294.192104 kJ/mol
# GULP energy per Si atom -5580.887006 kJ/mol
# Density = 2.133172 g / cm^3
# Si number density = 21.380385 Si / 1000 Ang^3
#
#
#
# Elastic Constant Matrix: (Units=GPa)
#
#
# Indices 1 2 3 4 5 6 
#
# 1 107.3762 30.7554 14.3633 -0.4706 -11.4385 -3.7611
# 2 30.7554 92.2881 4.8523 -9.6886 -0.4391 -1.9654
# 3 14.3633 4.8523 24.0534 -6.2158 -0.6942 -1.0576
# 4 -0.4706 -9.6886 -6.2158 26.6569 -10.0829 -3.9933
# 5 -11.4385 -0.4391 -0.6942 -10.0829 24.5058 -8.7743
# 6 -3.7611 -1.9654 -1.0576 -3.9933 -8.7743 23.9261
#
#
#
# Elastic Compliance Matrix: (Units=1/GPa)
#
#
# Indices 1 2 3 4 5 6 
#
# 1 0.012012 -0.003472 -0.005830 0.000967 0.007272 0.004173
# 2 -0.003472 0.012594 0.001178 0.005796 0.001800 0.002168
# 3 -0.005830 0.001178 0.049401 0.015734 0.007600 0.006777
# 4 0.000967 0.005796 0.015734 0.059781 0.034125 0.023815
# 5 0.007272 0.001800 0.007600 0.034125 0.070348 0.033120
# 6 0.004173 0.002168 0.006777 0.023815 0.033120 0.059050
#
#
# Mechanical properties :
#
#
# Convention : Reuss Voigt Hill
#
# Bulk Modulus (GPa) = 17.31307 35.96218 26.63762
# Shear Modulus (GPa) = 16.73997 26.60091 21.67044
#
# Velocity S-wave (km/s) = 2.80118 3.53111 3.18711
# Velocity P-wave (km/s) = 4.31014 5.78634 5.10191
#
# Compressibility (1/GPa) = 0.05775984
#
# Stress axis : x y z
#
# Youngs Moduli (GPa) = 83.24827 79.40354 20.24256
#
# Poissons Ratio (x) = 0.27566 0.11800
# Poissons Ratio (y) = 0.28901 -0.02384
# Poissons Ratio (z) = 0.48530 -0.09351
#
# Static dielectric constant tensor:
#      x y z
#    x 1.850320 -0.002460 0.014420 
#    y -0.002460 1.779970 -0.000080 
#    z 0.014420 -0.000080 1.791510 
# 
# From -- ./inp_files/225310.got.cif
#   From: 2010.05.17/outbox.cif.g08.bks.cpg/sg2_113_cif.got.tgz:225310.got - 2010.06.03 11:33:40.
