data_PCOD9042654
_publ_section_title
;
Structure prediction by ZEFSAII (Michael W. Deem and Ramdas Pophale) SiO2 
 PCOD9042654
Probable space group: P -1
;
_chemical_formula_sum "Si O2"
_cell_formula_units_Z 16
_cell_length_a 19.869051
_cell_length_b 4.854843
_cell_length_c 19.416802
_cell_angle_alpha 72.336525
_cell_angle_beta 159.041465
_cell_angle_gamma 115.030399
_cell_volume 582.232869
_symmetry_space_group_name_H-M "P -1"
_symmetry_group_IT_number 2
_symmetry_cell_setting 'triclinic'
loop_
_space_group_symop_operation_xyz
x,y,z
-x,-y,-z
loop_
_atom_site_type_symbol
_atom_site_label
_atom_site_fract_x
_atom_site_fract_y
_atom_site_fract_z
Si Si1 0.553038 0.662983 0.704007
Si Si2 0.884765 0.833763 0.723576
Si Si3 0.423199 0.787023 0.120838
Si Si4 0.427528 0.120065 0.474656
Si Si5 0.870472 0.704835 0.350939
Si Si6 0.350047 0.516142 0.717379
Si Si7 0.964960 0.660981 0.293875
Si Si8 0.178806 0.819943 0.119120
O O1 0.318635 0.469299 0.473014
O O2 0.590546 0.456356 0.813636
O O3 0.561735 0.035258 0.677320
O O4 0.757850 0.787556 0.843001
O O5 0.783963 0.959526 0.678413
O O6 0.954878 0.064351 0.707252
O O7 0.078054 0.796946 0.944979
O O8 0.612253 0.772131 0.257825
O O9 0.474010 0.144988 0.162609
O O10 0.222176 0.634483 0.894835
O O11 0.500000 0.500000 0.500000
O O12 0.337770 0.868755 0.341671
O O13 0.661946 0.526386 0.208628
O O14 0.878236 0.756653 0.273191
O O15 0.000000 0.500000 0.500000
O O16 0.000000 0.000000 0.500000
O O17 0.146913 0.549751 0.493410
O O18 0.000000 0.500000 0.000000
#
# Coordination Sequence:
#
# PCOD9042654 Si02
#       8
#     2   2   2   2   2   2   2   2
#     4  10  24  44  65 103 136 176 245 290 360 436
#     4  12  23  47  72  96 143 192 228 306 368 419
#     4  12  25  46  73 112 143 201 250 304 370 446
#     4  10  24  46  67 103 136 179 237 294 361 441
#     4  10  23  44  73 111 147 198 250 300 373 442
#     4  11  25  45  72 104 157 189 243 316 366 425
#     4  11  24  45  74 107 144 201 250 304 371 450
#     4  10  24  45  68 104 135 180 237 290 363 439
#
# _framework density 27.480414
#
# number of rings (size 3 to 8) (size 9 to 14) (size 15 to 20)
#    0.750    0.500    2.500    3.000    0.000    6.500 
#    6.750    0.000    0.000    0.000    0.000    0.000 
#    0.000    0.000    0.000    0.000    0.000    0.000 
#
# Total GULP energy -89166.967720 kJ/mol
# GULP energy per Si atom -5572.935482 kJ/mol
# Density = 2.741787 g / cm^3
# Si number density = 27.480414 Si / 1000 Ang^3
#
#
#
# Elastic Constant Matrix: (Units=GPa)
#
#
# Indices 1 2 3 4 5 6 
#
# 1 109.5925 59.1908 5.1319 -13.9096 4.7370 20.1132
# 2 59.1908 143.2330 52.8531 6.6516 -7.7402 10.3352
# 3 5.1319 52.8531 227.9783 6.2038 -7.5089 -0.2635
# 4 -13.9096 6.6516 6.2038 53.4086 2.7156 -1.5390
# 5 4.7370 -7.7402 -7.5089 2.7156 35.7020 1.1527
# 6 20.1132 10.3352 -0.2635 -1.5390 1.1527 57.9902
#
#
#
# Elastic Compliance Matrix: (Units=1/GPa)
#
#
# Indices 1 2 3 4 5 6 
#
# 1 0.013702 -0.006107 0.000882 0.004288 -0.003170 -0.003483
# 2 -0.006107 0.010574 -0.002143 -0.002801 0.002862 0.000093
# 3 0.000882 -0.002143 0.004881 -0.000091 0.000449 0.000087
# 4 0.004288 -0.002801 -0.000091 0.020327 -0.002729 -0.000395
# 5 -0.003170 0.002862 0.000449 -0.002729 0.029355 -0.000064
# 6 -0.003483 0.000093 0.000087 -0.000395 -0.000064 0.018427
#
#
# Mechanical properties :
#
#
# Convention : Reuss Voigt Hill
#
# Bulk Modulus (GPa) = 69.34337 79.46170 74.40253
# Shear Modulus (GPa) = 42.80463 53.66205 48.23334
#
# Velocity S-wave (km/s) = 3.95098 4.42377 4.19404
# Velocity P-wave (km/s) = 6.78986 7.42102 7.11244
#
# Compressibility (1/GPa) = 0.01442099
#
# Stress axis : x y z
#
# Youngs Moduli (GPa) = 72.98043 94.56825 204.88504
#
# Poissons Ratio (x) = 0.57754 -0.18076
# Poissons Ratio (y) = 0.44570 0.43915
# Poissons Ratio (z) = -0.06439 0.20270
#
# Static dielectric constant tensor:
#      x y z
#    x 2.228580 -0.008140 -0.060390 
#    y -0.008140 2.122780 -0.001900 
#    z -0.060390 -0.001900 2.226950 
# 
# From -- ./inp_files/550968.got.cif
#   From: 2010.05.17/outbox.cif.g08.bks.cpg/sg2_276_cif.got.tgz:550968.got - 2010.06.03 11:33:40.
