data_PCOD9042278
_publ_section_title
;
Structure prediction by ZEFSAII (Michael W. Deem and Ramdas Pophale) SiO2 
 PCOD9042278
Probable space group: P -1
;
_chemical_formula_sum "Si O2"
_cell_formula_units_Z 16
_cell_length_a 11.923078
_cell_length_b 5.039099
_cell_length_c 11.847868
_cell_angle_alpha 87.172962
_cell_angle_beta 115.096371
_cell_angle_gamma 76.739211
_cell_volume 618.708909
_symmetry_space_group_name_H-M "P -1"
_symmetry_group_IT_number 2
_symmetry_cell_setting 'triclinic'
loop_
_space_group_symop_operation_xyz
x,y,z
-x,-y,-z
loop_
_atom_site_type_symbol
_atom_site_label
_atom_site_fract_x
_atom_site_fract_y
_atom_site_fract_z
Si Si1 0.934951 0.294913 0.412053
Si Si2 0.398051 0.886474 0.889726
Si Si3 0.249405 0.186361 0.214690
Si Si4 0.370299 0.936611 0.486637
Si Si5 0.523445 0.535524 0.737984
Si Si6 0.968870 0.461857 0.168673
Si Si7 0.678920 0.699135 0.337304
Si Si8 0.817105 0.076727 0.035775
O O1 0.956987 0.328131 0.288228
O O2 0.781956 0.405374 0.369084
O O3 0.000000 0.500000 0.500000
O O4 0.000000 0.000000 0.500000
O O5 0.305660 0.125898 0.769063
O O6 0.305766 0.793645 0.939999
O O7 0.471663 0.666091 0.834158
O O8 0.500000 0.000000 0.000000
O O9 0.291855 0.959670 0.338200
O O10 0.349360 0.371257 0.234452
O O11 0.115321 0.387537 0.194151
O O12 0.231159 0.020282 0.099389
O O13 0.294213 0.165361 0.537938
O O14 0.500000 0.000000 0.500000
O O15 0.425288 0.663965 0.589501
O O16 0.477687 0.256497 0.730813
O O17 0.904392 0.789426 0.131520
O O18 0.895555 0.302399 0.056348
#
# Coordination Sequence:
#
# PCOD9042278 Si02
#       8
#     2   2   2   2   2   2   2   2
#     4  12  27  46  78 113 147 200 252 307 380 440
#     4  11  23  44  72 104 142 187 243 306 370 440
#     4  11  24  46  69 101 144 195 247 292 368 452
#     4   9  22  44  64 102 142 184 243 302 373 436
#     4  10  23  44  70 105 142 185 246 308 376 429
#     4  12  27  49  72 108 149 193 247 304 362 440
#     4  11  24  43  73 105 149 188 246 322 372 440
#     4  12  26  50  72 107 146 196 246 305 364 435
#
# _framework density 25.860305
#
# number of rings (size 3 to 8) (size 9 to 14) (size 15 to 20)
#    0.000    1.000    2.500    3.000    5.250    3.500 
#    9.000    0.000    0.000    0.000    0.000    0.000 
#    0.000    0.000    0.000    0.000    0.000    0.000 
#
# Total GULP energy -89647.752742 kJ/mol
# GULP energy per Si atom -5602.984546 kJ/mol
# Density = 2.580145 g / cm^3
# Si number density = 25.860305 Si / 1000 Ang^3
#
#
#
# Elastic Constant Matrix: (Units=GPa)
#
#
# Indices 1 2 3 4 5 6 
#
# 1 161.2074 16.2752 36.1177 1.8914 8.5960 -11.1579
# 2 16.2752 92.8766 17.0868 -8.6031 5.1645 -1.1369
# 3 36.1177 17.0868 140.6552 1.5993 -16.6927 -11.4603
# 4 1.8914 -8.6031 1.5993 39.0983 -0.4436 11.0445
# 5 8.5960 5.1645 -16.6927 -0.4436 41.9214 9.1580
# 6 -11.1579 -1.1369 -11.4603 11.0445 9.1580 25.7096
#
#
#
# Elastic Compliance Matrix: (Units=1/GPa)
#
#
# Indices 1 2 3 4 5 6 
#
# 1 0.007134 -0.000871 -0.001727 -0.001641 -0.002944 0.004041
# 2 -0.000871 0.011541 -0.001498 0.002985 -0.001530 -0.001273
# 3 -0.001727 -0.001498 0.008327 -0.001170 0.003361 0.002201
# 4 -0.001641 0.002985 -0.001170 0.030764 0.003206 -0.015460
# 5 -0.002944 -0.001530 0.003361 0.003206 0.028504 -0.011377
# 6 0.004041 -0.001273 0.002201 -0.015460 -0.011377 0.052269
#
#
# Mechanical properties :
#
#
# Convention : Reuss Voigt Hill
#
# Bulk Modulus (GPa) = 53.16469 59.29984 56.23227
# Shear Modulus (GPa) = 32.67958 43.02984 37.85471
#
# Velocity S-wave (km/s) = 3.55871 4.08356 3.83013
# Velocity P-wave (km/s) = 6.12282 6.72418 6.43053
#
# Compressibility (1/GPa) = 0.01880948
#
# Stress axis : x y z
#
# Youngs Moduli (GPa) = 140.17186 86.64661 120.09670
#
# Poissons Ratio (x) = 0.07549 0.20747
# Poissons Ratio (y) = 0.12212 0.17985
# Poissons Ratio (z) = 0.24215 0.12975
#
# Static dielectric constant tensor:
#      x y z
#    x 2.041760 0.012250 0.033810 
#    y 0.012250 2.118180 -0.032590 
#    z 0.033810 -0.032590 2.055700 
# 
# From -- ./inp_files/410619.got.cif
#   From: 2010.05.17/outbox.cif.g08.bks.cpg/sg2_206_cif.got.tgz:410619.got - 2010.06.03 11:33:40.
