data_PCOD9042498
_publ_section_title
;
Structure prediction by ZEFSAII (Michael W. Deem and Ramdas Pophale) SiO2 
 PCOD9042498
Probable space group: P -1
;
_chemical_formula_sum "Si O2"
_cell_formula_units_Z 16
_cell_length_a 11.389932
_cell_length_b 9.055193
_cell_length_c 8.398713
_cell_angle_alpha 49.890513
_cell_angle_beta 88.203179
_cell_angle_gamma 75.641229
_cell_volume 632.094625
_symmetry_space_group_name_H-M "P -1"
_symmetry_group_IT_number 2
_symmetry_cell_setting 'triclinic'
loop_
_space_group_symop_operation_xyz
x,y,z
-x,-y,-z
loop_
_atom_site_type_symbol
_atom_site_label
_atom_site_fract_x
_atom_site_fract_y
_atom_site_fract_z
Si Si1 0.805714 0.994306 0.810618
Si Si2 0.921277 0.299516 0.502880
Si Si3 0.399116 0.899576 0.502797
Si Si4 0.419398 0.206649 0.667762
Si Si5 0.522656 0.720574 0.043834
Si Si6 0.677833 0.381147 0.044933
Si Si7 0.833603 0.759589 0.286882
Si Si8 0.952153 0.305379 0.130178
O O1 0.942144 0.860306 0.849538
O O2 0.817266 0.218831 0.643922
O O3 0.710727 0.971468 0.695252
O O4 0.781613 0.921344 0.036503
O O5 0.885024 0.540561 0.355380
O O6 0.933077 0.246396 0.353475
O O7 0.052727 0.206887 0.646745
O O8 0.486802 0.736640 0.493188
O O9 0.340069 0.791041 0.713109
O O10 0.500000 0.000000 0.500000
O O11 0.415529 0.311210 0.765089
O O12 0.280044 0.241185 0.594593
O O13 0.479855 0.963262 0.854511
O O14 0.613615 0.591187 0.994384
O O15 0.401370 0.649605 0.079348
O O16 0.818807 0.353863 0.022804
O O17 0.000000 0.500000 0.000000
#
# Coordination Sequence:
#
# PCOD9042498 Si02
#       8
#     2   2   2   2   2   2   2   2
#     4  12  26  46  75 104 148 194 244 301 371 438
#     4  11  25  49  69 112 143 192 246 303 362 445
#     4  12  27  45  72 107 145 193 241 309 368 438
#     4  11  24  45  71 103 144 196 236 298 379 428
#     4  10  23  44  72 101 148 189 239 303 359 439
#     4  11  25  47  69 111 146 185 255 300 363 446
#     4  11  26  48  73 103 152 188 244 308 363 439
#     4  12  26  45  77 104 146 194 239 305 371 434
#
# _framework density 25.312666
#
# number of rings (size 3 to 8) (size 9 to 14) (size 15 to 20)
#    0.000    0.750    3.750    3.000    5.250    0.500 
#    4.500    0.000    0.000    0.000    0.000    0.000 
#    0.000    0.000    0.000    0.000    0.000    0.000 
#
# Total GULP energy -89655.549949 kJ/mol
# GULP energy per Si atom -5603.471872 kJ/mol
# Density = 2.525505 g / cm^3
# Si number density = 25.312666 Si / 1000 Ang^3
#
#
#
# Elastic Constant Matrix: (Units=GPa)
#
#
# Indices 1 2 3 4 5 6 
#
# 1 196.9560 22.0473 21.8197 -5.2877 9.9180 13.8675
# 2 22.0473 68.1363 -3.7881 -11.5949 5.0874 9.8162
# 3 21.8197 -3.7881 77.1339 -10.1892 5.6334 18.3809
# 4 -5.2877 -11.5949 -10.1892 25.1179 4.8747 -3.4493
# 5 9.9180 5.0874 5.6334 4.8747 37.3870 2.4446
# 6 13.8675 9.8162 18.3809 -3.4493 2.4446 46.7926
#
#
#
# Elastic Compliance Matrix: (Units=1/GPa)
#
#
# Indices 1 2 3 4 5 6 
#
# 1 0.005520 -0.001718 -0.001432 -0.000118 -0.000956 -0.000672
# 2 -0.001718 0.017899 0.003811 0.009608 -0.003555 -0.003849
# 3 -0.001432 0.003811 0.016263 0.007854 -0.003220 -0.006016
# 4 -0.000118 0.009608 0.007854 0.048976 -0.008780 -0.000997
# 5 -0.000956 -0.003555 -0.003220 -0.008780 0.029106 0.000126
# 6 -0.000672 -0.003849 -0.006016 -0.000997 0.000126 0.024661
#
#
# Mechanical properties :
#
#
# Convention : Reuss Voigt Hill
#
# Bulk Modulus (GPa) = 24.38688 46.93156 35.65922
# Shear Modulus (GPa) = 32.30581 42.00265 37.15423
#
# Velocity S-wave (km/s) = 3.57637 4.07793 3.83536
# Velocity P-wave (km/s) = 5.16808 6.38386 5.80787
#
# Compressibility (1/GPa) = 0.04100566
#
# Stress axis : x y z
#
# Youngs Moduli (GPa) = 181.14483 55.86822 61.48955
#
# Poissons Ratio (x) = 0.09597 0.08803
# Poissons Ratio (y) = 0.31118 -0.23434
# Poissons Ratio (z) = 0.25934 -0.21292
#
# Static dielectric constant tensor:
#      x y z
#    x 1.961250 0.001630 -0.031440 
#    y 0.001630 2.005680 -0.007940 
#    z -0.031440 -0.007940 2.107770 
# 
# From -- ./inp_files/242063.got.cif
#   From: 2010.05.17/outbox.cif.g08.bks.cpg/sg2_122_cif.got.tgz:242063.got - 2010.06.03 11:33:40.
