data_PCOD9042201
_publ_section_title
;
Structure prediction by ZEFSAII (Michael W. Deem and Ramdas Pophale) SiO2 
 PCOD9042201
Probable space group: P -1
;
_chemical_formula_sum "Si O2"
_cell_formula_units_Z 14
_cell_length_a 18.232868
_cell_length_b 8.391722
_cell_length_c 11.856137
_cell_angle_alpha 72.166850
_cell_angle_beta 30.079521
_cell_angle_gamma 52.251832
_cell_volume 593.679695
_symmetry_space_group_name_H-M "P -1"
_symmetry_group_IT_number 2
_symmetry_cell_setting 'triclinic'
loop_
_space_group_symop_operation_xyz
x,y,z
-x,-y,-z
loop_
_atom_site_type_symbol
_atom_site_label
_atom_site_fract_x
_atom_site_fract_y
_atom_site_fract_z
Si Si1 0.946462 0.399470 0.961421
Si Si2 0.053502 0.768859 0.438629
Si Si3 0.615157 0.545867 0.759308
Si Si4 0.726111 0.905443 0.218261
Si Si5 0.274174 0.500909 0.977467
Si Si6 0.552207 0.559103 0.583696
Si Si7 0.624600 0.935487 0.963150
O O1 0.887877 0.646501 0.992723
O O2 0.924020 0.351685 0.875413
O O3 0.751235 0.470218 0.271263
O O4 0.162218 0.181070 0.788861
O O5 0.169297 0.595011 0.430238
O O6 0.855540 0.820475 0.655494
O O7 0.206140 0.641977 0.154844
O O8 0.000000 0.000000 0.500000
O O9 0.632336 0.474400 0.624144
O O10 0.500000 0.500000 0.000000
O O11 0.486812 0.824783 0.871273
O O12 0.500000 0.000000 0.500000
O O13 0.654452 0.144965 0.214636
O O14 0.464067 0.453848 0.684108
O O15 0.354547 0.249788 0.953773
O O16 0.500000 0.000000 0.000000
#
# Coordination Sequence:
#
# PCOD9042201 Si02
#       7
#     2   2   2   2   2   2   2
#     4  10  23  44  70 100 137 183 230 288 352 406
#     4  12  26  46  71 101 138 188 240 283 354 420
#     4  12  23  46  72 101 137 188 233 284 351 417
#     4   9  21  45  67  96 135 184 236 281 344 416
#     4  12  25  44  68 106 145 180 233 296 351 417
#     4  11  23  43  68 101 141 182 232 281 349 427
#     4  12  25  46  68 104 143 179 235 297 351 407
#
# _framework density 23.581741000000001
#
# number of rings (size 3 to 8) (size 9 to 14) (size 15 to 20)
#    0.000    0.857    4.286    1.714    0.000    6.286 
#    5.143    0.000    0.000    0.000    0.000    0.000 
#    0.000    0.000    0.000    0.000    0.000    0.000 
#
# Total GULP energy -78369.196174 kJ/mol
# GULP energy per Si atom -5597.799727 kJ/mol
# Density = 2.352807 g / cm^3
# Si number density = 23.581741 Si / 1000 Ang^3
#
#
#
# Elastic Constant Matrix: (Units=GPa)
#
#
# Indices 1 2 3 4 5 6 
#
# 1 156.8345 30.4626 25.5202 1.4965 -26.8193 -29.9578
# 2 30.4626 118.6869 44.1997 -16.4448 -2.6407 2.2092
# 3 25.5202 44.1997 67.7535 -4.8527 -27.1525 -5.2008
# 4 1.4965 -16.4448 -4.8527 30.6120 1.1025 -12.0165
# 5 -26.8193 -2.6407 -27.1525 1.1025 46.5841 6.8308
# 6 -29.9578 2.2092 -5.2008 -12.0165 6.8308 44.5903
#
#
#
# Elastic Compliance Matrix: (Units=1/GPa)
#
#
# Indices 1 2 3 4 5 6 
#
# 1 0.008484 -0.002290 0.000419 0.000356 0.004212 0.005313
# 2 -0.002290 0.013455 -0.010184 0.005612 -0.006494 -0.000885
# 3 0.000419 -0.010184 0.027479 -0.001186 0.015519 0.001294
# 4 0.000356 0.005612 -0.001186 0.039888 -0.002724 0.010989
# 5 0.004212 -0.006494 0.015519 -0.002724 0.032749 -0.000790
# 6 0.005313 -0.000885 0.001294 0.010989 -0.000790 0.029273
#
#
# Mechanical properties :
#
#
# Convention : Reuss Voigt Hill
#
# Bulk Modulus (GPa) = 39.51105 60.40443 49.95774
# Shear Modulus (GPa) = 27.19252 40.56345 33.87799
#
# Velocity S-wave (km/s) = 3.39944 4.15193 3.79439
# Velocity P-wave (km/s) = 5.67447 6.97533 6.35826
#
# Compressibility (1/GPa) = 0.02530937
#
# Stress axis : x y z
#
# Youngs Moduli (GPa) = 117.86379 74.32003 36.39170
#
# Poissons Ratio (x) = 0.17016 -0.01525
# Poissons Ratio (y) = 0.26986 0.37061
# Poissons Ratio (z) = -0.04938 0.75687
#
# Static dielectric constant tensor:
#      x y z
#    x 1.883460 -0.009850 0.005040 
#    y -0.009850 1.906980 0.003720 
#    z 0.005040 0.003720 1.871720 
# 
# From -- ./inp_files/462030.got.cif
#   From: 2010.05.17/outbox.cif.g08.bks.cpg/sg2_232_cif.got.tgz:462030.got - 2010.06.03 11:33:40.
