data_PCOD9042376
_publ_section_title
;
Structure prediction by ZEFSAII (Michael W. Deem and Ramdas Pophale) SiO2 
 PCOD9042376
Probable space group: P -1
;
_chemical_formula_sum "Si O2"
_cell_formula_units_Z 16
_cell_length_a 18.551948
_cell_length_b 5.761086
_cell_length_c 8.532627
_cell_angle_alpha 59.312497
_cell_angle_beta 123.774545
_cell_angle_gamma 103.342209
_cell_volume 650.105469
_symmetry_space_group_name_H-M "P -1"
_symmetry_group_IT_number 2
_symmetry_cell_setting 'triclinic'
loop_
_space_group_symop_operation_xyz
x,y,z
-x,-y,-z
loop_
_atom_site_type_symbol
_atom_site_label
_atom_site_fract_x
_atom_site_fract_y
_atom_site_fract_z
Si Si1 0.600505 0.488912 0.684375
Si Si2 0.174227 0.112006 0.657848
Si Si3 0.371844 0.897646 0.438912
Si Si4 0.930390 0.848019 0.788585
Si Si5 0.790116 0.320143 0.550748
Si Si6 0.364718 0.940435 0.881337
Si Si7 0.118983 0.719464 0.001591
Si Si8 0.506348 0.803660 0.860824
O O1 0.500000 0.500000 0.500000
O O2 0.641054 0.269375 0.679844
O O3 0.614444 0.352359 0.917885
O O4 0.641645 0.777944 0.659883
O O5 0.094597 0.172840 0.419800
O O6 0.196932 0.414856 0.628056
O O7 0.263047 0.003616 0.713289
O O8 0.154902 0.895636 0.843169
O O9 0.308069 0.761597 0.531984
O O10 0.471374 0.834359 0.634663
O O11 0.914539 0.579851 0.964174
O O12 0.861970 0.087147 0.672190
O O13 0.032292 0.888304 0.902945
O O14 0.813974 0.354042 0.751965
O O15 0.399550 0.122610 0.001050
O O16 0.432954 0.984382 0.810163
O O17 0.500000 0.500000 0.000000
#
# Coordination Sequence:
#
# PCOD9042376 Si02
#       8
#     2   2   2   2   2   2   2   2
#     4  12  26  47  70 102 137 193 242 299 355 427
#     4  11  24  42  67 104 136 181 234 294 353 430
#     4  12  27  44  72  99 144 184 239 296 361 417
#     4  10  23  44  71 101 138 184 223 294 359 435
#     4  11  25  42  69  99 140 181 235 292 358 423
#     4  11  25  41  66  98 137 181 238 290 353 422
#     4  10  23  45  70 101 140 178 232 285 366 430
#     4  11  24  42  65  91 136 186 231 291 353 421
#
# _framework density 24.611391000000001
#
# number of rings (size 3 to 8) (size 9 to 14) (size 15 to 20)
#    0.000    1.000    1.250    4.125   10.500    1.500 
#    2.250    0.000    0.000    0.000    0.000    0.000 
#    0.000    0.000    0.000    0.000    0.000    0.000 
#
# Total GULP energy -89288.096748 kJ/mol
# GULP energy per Si atom -5580.506047 kJ/mol
# Density = 2.455537 g / cm^3
# Si number density = 24.611391 Si / 1000 Ang^3
#
#
#
# Elastic Constant Matrix: (Units=GPa)
#
#
# Indices 1 2 3 4 5 6 
#
# 1 109.5466 31.2890 27.0560 -5.9042 -6.8443 5.2071
# 2 31.2890 107.8977 12.2988 -18.1498 -20.6664 6.7654
# 3 27.0560 12.2988 96.1673 -12.9511 -2.3596 19.1642
# 4 -5.9042 -18.1498 -12.9511 47.8758 17.0481 -0.3785
# 5 -6.8443 -20.6664 -2.3596 17.0481 48.5925 -4.0209
# 6 5.2071 6.7654 19.1642 -0.3785 -4.0209 40.7047
#
#
#
# Elastic Compliance Matrix: (Units=1/GPa)
#
#
# Indices 1 2 3 4 5 6 
#
# 1 0.010590 -0.002811 -0.002791 -0.000665 0.000432 0.000463
# 2 -0.002811 0.011251 0.000035 0.002731 0.003336 -0.001172
# 3 -0.002791 0.000035 0.012782 0.003617 -0.001505 -0.005782
# 4 -0.000665 0.002731 0.003617 0.025635 -0.007967 -0.002620
# 5 0.000432 0.003336 -0.001505 -0.007967 0.024987 0.002493
# 6 0.000463 -0.001172 -0.005782 -0.002620 0.002493 0.027647
#
#
# Mechanical properties :
#
#
# Convention : Reuss Voigt Hill
#
# Bulk Modulus (GPa) = 42.57359 50.54434 46.55896
# Shear Modulus (GPa) = 37.92035 43.63245 40.77640
#
# Velocity S-wave (km/s) = 3.92952 4.21510 4.07481
# Velocity P-wave (km/s) = 6.15825 6.65364 6.41073
#
# Compressibility (1/GPa) = 0.02348874
#
# Stress axis : x y z
#
# Youngs Moduli (GPa) = 94.42954 88.88137 78.23724
#
# Poissons Ratio (x) = 0.24984 0.21837
# Poissons Ratio (y) = 0.26543 -0.00275
# Poissons Ratio (z) = 0.26357 -0.00313
#
# Static dielectric constant tensor:
#      x y z
#    x 2.015450 -0.061400 -0.093570 
#    y -0.061400 2.086220 0.072540 
#    z -0.093570 0.072540 2.007920 
# 
# From -- ./inp_files/138672.got.cif
#   From: 2010.05.17/outbox.cif.g08.bks.cpg/sg2_70_cif.got.tgz:138672.got - 2010.06.03 11:33:40.
