data_PCOD9042964
_publ_section_title
;
Structure prediction by ZEFSAII (Michael W. Deem and Ramdas Pophale) SiO2 
 PCOD9042964
Probable space group: P -1
;
_chemical_formula_sum "Si O2"
_cell_formula_units_Z 14
_cell_length_a 7.409716
_cell_length_b 17.390941
_cell_length_c 19.895933
_cell_angle_alpha 21.098072
_cell_angle_beta 135.930156
_cell_angle_gamma 126.884178
_cell_volume 616.206032
_symmetry_space_group_name_H-M "P -1"
_symmetry_group_IT_number 2
_symmetry_cell_setting 'triclinic'
loop_
_space_group_symop_operation_xyz
x,y,z
-x,-y,-z
loop_
_atom_site_type_symbol
_atom_site_label
_atom_site_fract_x
_atom_site_fract_y
_atom_site_fract_z
Si Si1 0.374530 0.861134 0.871644
Si Si2 0.341979 0.659455 0.466063
Si Si3 0.767416 0.526689 0.085623
Si Si4 0.881611 0.658080 0.249868
Si Si5 0.562903 0.014538 0.664582
Si Si6 0.799275 0.580583 0.819299
Si Si7 0.907526 0.671943 0.543129
O O1 0.374436 0.927598 0.738772
O O2 0.165873 0.061206 0.691617
O O3 0.671402 0.834473 0.003665
O O4 0.328817 0.621017 0.062700
O O5 0.292301 0.435418 0.665952
O O6 0.313840 0.831705 0.379787
O O7 0.639600 0.624011 0.543335
O O8 0.108566 0.737845 0.284358
O O9 0.019689 0.401693 0.210492
O O10 0.834464 0.428701 0.257798
O O11 0.500000 0.500000 0.000000
O O12 0.750977 0.786508 0.872539
O O13 0.031624 0.452265 0.409795
O O14 0.411829 0.177432 0.432333
O O15 0.000000 0.500000 0.000000
#
# Coordination Sequence:
#
# PCOD9042964 Si02
#       7
#     2   2   2   2   2   2   2
#     4  11  23  44  69  99 134 181 231 283 344 409
#     4  10  23  45  67 104 141 178 233 287 340 413
#     4  12  26  44  69  99 134 181 230 282 346 413
#     4  11  22  44  71 100 141 183 232 281 347 412
#     4  11  24  46  69  95 141 177 223 294 335 411
#     4  12  27  44  69  99 136 178 233 289 345 410
#     4  11  24  44  68 101 140 182 230 287 342 411
#
# _framework density 22.719671999999999
#
# number of rings (size 3 to 8) (size 9 to 14) (size 15 to 20)
#    0.000    0.857    5.714    1.286    4.000    4.000 
#    2.571    1.429    0.000    0.000    0.000    0.000 
#    0.000    0.000    0.000    0.000    0.000    0.000 
#
# Total GULP energy -78291.458173 kJ/mol
# GULP energy per Si atom -5592.247012 kJ/mol
# Density = 2.266796 g / cm^3
# Si number density = 22.719672 Si / 1000 Ang^3
#
#
#
# Elastic Constant Matrix: (Units=GPa)
#
#
# Indices 1 2 3 4 5 6 
#
# 1 59.7685 10.2811 2.0322 -1.1052 -3.4113 13.5839
# 2 10.2811 80.6104 15.3777 27.5910 4.4243 11.7579
# 3 2.0322 15.3777 134.4674 12.6146 10.6898 4.6989
# 4 -1.1052 27.5910 12.6146 40.3325 -6.1844 -2.0541
# 5 -3.4113 4.4243 10.6898 -6.1844 30.2612 -6.0202
# 6 13.5839 11.7579 4.6989 -2.0541 -6.0202 32.0021
#
#
#
# Elastic Compliance Matrix: (Units=1/GPa)
#
#
# Indices 1 2 3 4 5 6 
#
# 1 0.018756 -0.002108 -0.000100 0.001871 0.001493 -0.006771
# 2 -0.002108 0.019553 0.000161 -0.015159 -0.008000 -0.008791
# 3 -0.000100 0.000161 0.008135 -0.003387 -0.004036 -0.002188
# 4 0.001871 -0.015159 -0.003387 0.038890 0.013627 0.010332
# 5 0.001493 -0.008000 -0.004036 0.013627 0.040875 0.011462
# 6 -0.006771 -0.008791 -0.002188 0.010332 0.011462 0.040493
#
#
# Mechanical properties :
#
#
# Convention : Reuss Voigt Hill
#
# Bulk Modulus (GPa) = 23.61262 36.69204 30.15233
# Shear Modulus (GPa) = 27.03987 36.99617 32.01802
#
# Velocity S-wave (km/s) = 3.45360 4.03969 3.75809
# Velocity P-wave (km/s) = 5.13018 6.15985 5.66844
#
# Compressibility (1/GPa) = 0.04235024
#
# Stress axis : x y z
#
# Youngs Moduli (GPa) = 53.31635 51.14248 122.92651
#
# Poissons Ratio (x) = 0.10780 0.01230
# Poissons Ratio (y) = 0.11238 -0.01979
# Poissons Ratio (z) = 0.00533 -0.00823
#
# Static dielectric constant tensor:
#      x y z
#    x 1.877080 0.007660 -0.049690 
#    y 0.007660 1.856200 0.046220 
#    z -0.049690 0.046220 1.877540 
# 
# From -- ./inp_files/504649.got.cif
#   From: 2010.05.17/outbox.cif.g08.bks.cpg/sg2_253_cif.got.tgz:504649.got - 2010.06.03 11:33:40.
