data_PCOD9042502
_publ_section_title
;
Structure prediction by ZEFSAII (Michael W. Deem and Ramdas Pophale) SiO2 
 PCOD9042502
Probable space group: P -1
;
_chemical_formula_sum "Si O2"
_cell_formula_units_Z 13
_cell_length_a 6.521873
_cell_length_b 8.488207
_cell_length_c 16.260156
_cell_angle_alpha 45.794037
_cell_angle_beta 65.206757
_cell_angle_gamma 80.707977
_cell_volume 573.807334
_symmetry_space_group_name_H-M "P -1"
_symmetry_group_IT_number 2
_symmetry_cell_setting 'triclinic'
loop_
_space_group_symop_operation_xyz
x,y,z
-x,-y,-z
loop_
_atom_site_type_symbol
_atom_site_label
_atom_site_fract_x
_atom_site_fract_y
_atom_site_fract_z
Si Si1 0.167176 0.830936 0.052207
Si Si2 0.622989 0.527283 0.556897
Si Si3 0.675912 0.234311 0.369806
Si Si4 0.312585 0.074178 0.094507
Si Si5 0.860415 0.517936 0.099546
Si Si6 0.000000 0.000000 0.500000
Si Si7 0.893791 0.134931 0.643386
O O1 0.037672 0.607093 0.111544
O O2 0.214367 0.858494 0.131722
O O3 0.418105 0.908456 0.941752
O O4 0.000000 0.000000 0.000000
O O5 0.500000 0.500000 0.500000
O O6 0.441763 0.576287 0.637155
O O7 0.734210 0.310884 0.630607
O O8 0.840256 0.736223 0.443839
O O9 0.708567 0.296484 0.245687
O O10 0.903559 0.190608 0.391783
O O11 0.500000 0.000000 0.500000
O O12 0.169115 0.057385 0.208255
O O13 0.286444 0.293381 0.966957
O O14 0.000000 0.500000 0.000000
O O15 0.857335 0.061522 0.582554
#
# Coordination Sequence:
#
# PCOD9042502 Si02
#       7
#     2   2   2   2   2   1   2
#     4   9  22  42  66 101 134 178 223 279 342 416
#     4  11  25  43  68 107 135 186 236 291 348 416
#     4  12  27  46  71 100 145 190 235 292 351 416
#     4  10  23  44  72 102 138 180 227 288 351 419
#     4  11  26  44  70 105 141 182 232 287 354 421
#     4  12  24  46  64 102 136 182 226 282 350 420
#     4  11  25  42  72 105 139 180 235 287 353 426
#
# _framework density 22.655687
#
# number of rings (size 3 to 8) (size 9 to 14) (size 15 to 20)
#    0.000    1.231    3.077    0.923    8.615    4.308 
#    0.000    0.000    0.000    0.000    0.000    0.000 
#    0.000    0.000    0.000    0.000    0.000    0.000 
#
# Total GULP energy -72374.337548 kJ/mol
# GULP energy per Si atom -5567.256734 kJ/mol
# Density = 2.260412 g / cm^3
# Si number density = 22.655687 Si / 1000 Ang^3
#
#
#
# Elastic Constant Matrix: (Units=GPa)
#
#
# Indices 1 2 3 4 5 6 
#
# 1 86.3416 11.9519 20.3592 -10.6020 3.0483 -25.5534
# 2 11.9519 85.9295 35.1422 12.5889 -2.0891 -28.6345
# 3 20.3592 35.1422 165.6701 12.4035 19.9341 -5.7520
# 4 -10.6020 12.5889 12.4035 27.8317 -1.2723 -4.2909
# 5 3.0483 -2.0891 19.9341 -1.2723 18.0507 0.2531
# 6 -25.5534 -28.6345 -5.7520 -4.2909 0.2531 42.4407
#
#
#
# Elastic Compliance Matrix: (Units=1/GPa)
#
#
# Indices 1 2 3 4 5 6 
#
# 1 0.016380 0.001307 -0.002632 0.008590 0.000739 0.011252
# 2 0.001307 0.017650 -0.003909 -0.003669 0.005716 0.011760
# 3 -0.002632 -0.003909 0.008533 -0.004005 -0.009666 -0.003413
# 4 0.008590 -0.003669 -0.004005 0.043912 0.005551 0.006560
# 5 0.000739 0.005716 -0.009666 0.005551 0.066958 0.003153
# 6 0.011252 0.011760 -0.003413 0.006560 0.003153 0.038453
#
#
# Mechanical properties :
#
#
# Convention : Reuss Voigt Hill
#
# Bulk Modulus (GPa) = 31.15737 52.53867 41.84802
# Shear Modulus (GPa) = 23.46842 35.69715 29.58278
#
# Velocity S-wave (km/s) = 3.22199 3.97374 3.61744
# Velocity P-wave (km/s) = 5.25586 6.65541 5.99661
#
# Compressibility (1/GPa) = 0.03209513
#
# Stress axis : x y z
#
# Youngs Moduli (GPa) = 61.04949 56.65806 117.19031
#
# Poissons Ratio (x) = -0.07404 0.30839
# Poissons Ratio (y) = -0.07978 0.45812
# Poissons Ratio (z) = 0.16065 0.22149
#
# Static dielectric constant tensor:
#      x y z
#    x 1.877830 0.024490 -0.025000 
#    y 0.024490 1.908710 -0.042370 
#    z -0.025000 -0.042370 1.888800 
# 
# From -- ./inp_files/59767.got.cif
#   From: 2010.05.17/outbox.cif.g08.bks.cpg/sg2_30_cif.got.tgz:59767.got - 2010.06.03 11:33:40.
