data_PCOD9042962
_publ_section_title
;
Structure prediction by ZEFSAII (Michael W. Deem and Ramdas Pophale) SiO2 
 PCOD9042962
Probable space group: P -1
;
_chemical_formula_sum "Si O2"
_cell_formula_units_Z 16
_cell_length_a 6.581970
_cell_length_b 15.521470
_cell_length_c 14.560183
_cell_angle_alpha 143.448871
_cell_angle_beta 52.502028
_cell_angle_gamma 114.592149
_cell_volume 694.415833
_symmetry_space_group_name_H-M "P -1"
_symmetry_group_IT_number 2
_symmetry_cell_setting 'triclinic'
loop_
_space_group_symop_operation_xyz
x,y,z
-x,-y,-z
loop_
_atom_site_type_symbol
_atom_site_label
_atom_site_fract_x
_atom_site_fract_y
_atom_site_fract_z
Si Si1 0.092174 0.350755 0.067792
Si Si2 0.391229 0.787575 0.876101
Si Si3 0.691042 0.124378 0.219678
Si Si4 0.514989 0.864856 0.114581
Si Si5 0.783328 0.341696 0.667687
Si Si6 0.816021 0.857691 0.513099
Si Si7 0.819042 0.654189 0.162203
Si Si8 0.980789 0.658806 0.597480
O O1 0.341517 0.276755 0.994614
O O2 0.105424 0.287593 0.907300
O O3 0.100809 0.522408 0.204452
O O4 0.826647 0.317820 0.156548
O O5 0.328868 0.898287 0.903078
O O6 0.678503 0.709013 0.707758
O O7 0.408336 0.840955 0.021866
O O8 0.409434 0.189081 0.397190
O O9 0.895584 0.229463 0.276359
O O10 0.266089 0.030012 0.871435
O O11 0.287042 0.969116 0.320532
O O12 0.477419 0.369493 0.785941
O O13 0.861216 0.341988 0.540501
O O14 0.916506 0.192051 0.550176
O O15 0.827384 0.769044 0.339968
O O16 0.000000 0.500000 0.000000
O O17 0.000000 0.500000 0.500000
#
# Coordination Sequence:
#
# PCOD9042962 Si02
#       8
#     2   2   2   2   2   2   2   2
#     4  12  29  43  71 109 142 186 242 292 351 423
#     4  12  25  42  68 106 146 187 230 288 358 416
#     4  10  23  45  67 103 141 186 231 278 359 418
#     4  10  25  46  70 104 149 186 235 291 348 428
#     4  12  24  47  73 103 137 188 239 289 362 413
#     4  10  24  46  74 101 135 188 235 287 346 423
#     4  12  27  48  78 100 141 186 240 299 354 419
#     4  12  25  39  71 105 147 182 235 296 348 422
#
# _framework density 23.040949999999999
#
# number of rings (size 3 to 8) (size 9 to 14) (size 15 to 20)
#    0.750    0.000    3.750    3.000    5.250    6.500 
#    0.000    1.250    0.000    0.000    0.000    0.000 
#    0.000    0.000    0.000    0.000    0.000    0.000 
#
# Total GULP energy -89478.970852 kJ/mol
# GULP energy per Si atom -5592.435678 kJ/mol
# Density = 2.298851 g / cm^3
# Si number density = 23.040950 Si / 1000 Ang^3
#
#
#
# Elastic Constant Matrix: (Units=GPa)
#
#
# Indices 1 2 3 4 5 6 
#
# 1 70.2583 14.7057 25.2477 -13.0397 -8.9836 -4.3836
# 2 14.7057 55.1447 9.1574 -11.3225 -4.8686 2.6881
# 3 25.2477 9.1574 85.7125 -13.7873 -16.6468 -3.3899
# 4 -13.0397 -11.3225 -13.7873 37.2071 -5.8429 -0.6381
# 5 -8.9836 -4.8686 -16.6468 -5.8429 53.0703 -13.4851
# 6 -4.3836 2.6881 -3.3899 -0.6381 -13.4851 39.3945
#
#
#
# Elastic Compliance Matrix: (Units=1/GPa)
#
#
# Indices 1 2 3 4 5 6 
#
# 1 0.017474 -0.003076 -0.003450 0.004401 0.002813 0.002892
# 2 -0.003076 0.020253 -0.000147 0.005262 0.001589 -0.001108
# 3 -0.003450 -0.000147 0.014640 0.005043 0.005253 0.002766
# 4 0.004401 0.005262 0.005043 0.033109 0.007376 0.003626
# 5 0.002813 0.001589 0.005253 0.007376 0.024229 0.009070
# 6 0.002892 -0.001108 0.002766 0.003626 0.009070 0.029183
#
#
# Mechanical properties :
#
#
# Convention : Reuss Voigt Hill
#
# Bulk Modulus (GPa) = 25.62682 34.37079 29.99880
# Shear Modulus (GPa) = 30.25898 36.73468 33.49683
#
# Velocity S-wave (km/s) = 3.62784 3.99723 3.81700
# Velocity P-wave (km/s) = 5.35674 6.02108 5.69860
#
# Compressibility (1/GPa) = 0.03902162
#
# Stress axis : x y z
#
# Youngs Moduli (GPa) = 57.22921 49.37455 68.30809
#
# Poissons Ratio (x) = 0.15187 0.23566
# Poissons Ratio (y) = 0.17603 0.01001
# Poissons Ratio (z) = 0.19744 0.00724
#
# Static dielectric constant tensor:
#      x y z
#    x 2.050460 -0.040210 -0.021760 
#    y -0.040210 1.870680 0.002880 
#    z -0.021760 0.002880 1.891920 
# 
# From -- ./inp_files/75729.got.cif
#   From: 2010.05.17/outbox.cif.g08.bks.cpg/sg2_38_cif.got.tgz:75729.got - 2010.06.03 11:33:40.
