data_PCOD9042553
_publ_section_title
;
Structure prediction by ZEFSAII (Michael W. Deem and Ramdas Pophale) SiO2 
 PCOD9042553
Probable space group: P -1
;
_chemical_formula_sum "Si O2"
_cell_formula_units_Z 14
_cell_length_a 23.650704
_cell_length_b 8.827600
_cell_length_c 8.394898
_cell_angle_alpha 128.534686
_cell_angle_beta 146.015693
_cell_angle_gamma 39.531716
_cell_volume 622.901493
_symmetry_space_group_name_H-M "P -1"
_symmetry_group_IT_number 2
_symmetry_cell_setting 'triclinic'
loop_
_space_group_symop_operation_xyz
x,y,z
-x,-y,-z
loop_
_atom_site_type_symbol
_atom_site_label
_atom_site_fract_x
_atom_site_fract_y
_atom_site_fract_z
Si Si1 0.542901 0.641552 0.788998
Si Si2 0.892878 0.666556 0.988269
Si Si3 0.659915 0.910717 0.183774
Si Si4 0.162877 0.978005 0.465757
Si Si5 0.794769 0.170645 0.170332
Si Si6 0.879493 0.450388 0.395961
Si Si7 0.871401 0.378015 0.977820
O O1 0.500000 0.500000 0.500000
O O2 0.435225 0.851150 0.784638
O O3 0.590132 0.783952 0.898148
O O4 0.659918 0.421827 0.014033
O O5 0.831480 0.545005 0.839180
O O6 0.983100 0.624880 0.319731
O O7 0.807161 0.951926 0.961653
O O8 0.000000 0.500000 0.000000
O O9 0.780381 0.692492 0.419291
O O10 0.731204 0.977908 0.275951
O O11 0.164443 0.902846 0.600996
O O12 0.188271 0.766415 0.273710
O O13 0.022750 0.191814 0.223024
O O14 0.878359 0.236113 0.319266
O O15 0.835204 0.501782 0.144814
#
# Coordination Sequence:
#
# PCOD9042553 Si02
#       7
#     2   2   2   2   2   2   2
#     4  10  25  47  71  97 125 180 236 281 335 393
#     4  12  24  37  62  99 138 178 221 274 336 407
#     4  10  23  44  72  90 133 175 225 278 336 393
#     4  11  23  42  67  97 138 177 218 273 336 409
#     4  11  25  42  64  97 137 171 226 283 332 389
#     4  11  22  40  67  95 135 179 220 274 337 407
#     4  11  24  39  64 103 139 181 217 259 345 417
#
# _framework density 22.475463999999999
#
# number of rings (size 3 to 8) (size 9 to 14) (size 15 to 20)
#    0.000    1.143    2.857    2.571   10.000    0.571 
#    2.571    0.714    0.000    0.000    0.000    0.000 
#    0.000    0.000    0.000    0.000    0.000    0.000 
#
# Total GULP energy -78028.058333 kJ/mol
# GULP energy per Si atom -5573.432738 kJ/mol
# Density = 2.242431 g / cm^3
# Si number density = 22.475464 Si / 1000 Ang^3
#
#
#
# Elastic Constant Matrix: (Units=GPa)
#
#
# Indices 1 2 3 4 5 6 
#
# 1 86.8517 41.0103 0.9381 13.5877 10.8109 17.3913
# 2 41.0103 173.9388 23.4843 17.4880 6.3186 -7.7935
# 3 0.9381 23.4843 40.2191 20.2295 9.9562 0.4379
# 4 13.5877 17.4880 20.2295 38.6949 3.3292 4.3064
# 5 10.8109 6.3186 9.9562 3.3292 29.8566 5.0753
# 6 17.3913 -7.7935 0.4379 4.3064 5.0753 45.6071
#
#
#
# Elastic Compliance Matrix: (Units=1/GPa)
#
#
# Indices 1 2 3 4 5 6 
#
# 1 0.016197 -0.004145 0.006549 -0.006123 -0.005510 -0.005756
# 2 -0.004145 0.007421 -0.004550 0.000088 0.000966 0.002777
# 3 0.006549 -0.004550 0.040792 -0.020442 -0.012676 -0.000326
# 4 -0.006123 0.000088 -0.020442 0.038391 0.005013 -0.001636
# 5 -0.005510 0.000966 -0.012676 0.005013 0.039372 -0.002467
# 6 -0.005756 0.002777 -0.000326 -0.001636 -0.002467 0.025028
#
#
# Mechanical properties :
#
#
# Convention : Reuss Voigt Hill
#
# Bulk Modulus (GPa) = 16.63418 47.98611 32.31014
# Shear Modulus (GPa) = 26.10520 38.53685 32.32103
#
# Velocity S-wave (km/s) = 3.41177 4.14529 3.79629
# Velocity P-wave (km/s) = 4.78930 6.65643 5.79851
#
# Compressibility (1/GPa) = 0.06011717
#
# Stress axis : x y z
#
# Youngs Moduli (GPa) = 61.74010 134.74758 24.51483
#
# Poissons Ratio (x) = 0.55855 -0.16055
# Poissons Ratio (y) = 0.25592 0.11155
# Poissons Ratio (z) = -0.40435 0.61317
#
# Static dielectric constant tensor:
#      x y z
#    x 1.875400 0.009760 -0.002450 
#    y 0.009760 1.969400 0.025600 
#    z -0.002450 0.025600 1.895900 
# 
# From -- ./inp_files/327915.got.cif
#   From: 2010.05.17/outbox.cif.g08.bks.cpg/sg2_164_cif.got.tgz:327915.got - 2010.06.03 11:33:40.
