data_PCOD9042378
_publ_section_title
;
Structure prediction by ZEFSAII (Michael W. Deem and Ramdas Pophale) SiO2 
 PCOD9042378
Probable space group: P -1
;
_chemical_formula_sum "Si O2"
_cell_formula_units_Z 16
_cell_length_a 22.468614
_cell_length_b 11.808905
_cell_length_c 6.859703
_cell_angle_alpha 55.374945
_cell_angle_beta 115.495343
_cell_angle_gamma 151.174144
_cell_volume 711.643184
_symmetry_space_group_name_H-M "P -1"
_symmetry_group_IT_number 2
_symmetry_cell_setting 'triclinic'
loop_
_space_group_symop_operation_xyz
x,y,z
-x,-y,-z
loop_
_atom_site_type_symbol
_atom_site_label
_atom_site_fract_x
_atom_site_fract_y
_atom_site_fract_z
Si Si1 0.116897 0.681138 0.848881
Si Si2 0.160233 0.062861 0.607153
Si Si3 0.318859 0.587629 0.276861
Si Si4 0.507026 0.607472 0.211299
Si Si5 0.700405 0.809252 0.983319
Si Si6 0.585101 0.982536 0.231463
Si Si7 0.817143 0.272727 0.501496
Si Si8 0.133872 0.456754 0.339314
O O1 0.091234 0.588403 0.685629
O O2 0.178866 0.941128 0.669287
O O3 0.179500 0.662374 0.060769
O O4 0.000000 0.500000 0.000000
O O5 0.239034 0.316283 0.356104
O O6 0.220793 0.161273 0.811673
O O7 0.012106 0.831657 0.629793
O O8 0.453526 0.774717 0.359040
O O9 0.227823 0.499957 0.388566
O O10 0.354667 0.765551 0.992731
O O11 0.500000 0.500000 0.500000
O O12 0.606407 0.716218 0.095796
O O13 0.546795 0.825633 0.140344
O O14 0.380523 0.387111 0.120761
O O15 0.794044 0.093726 0.764263
O O16 0.683477 0.073206 0.410274
O O17 0.859183 0.469003 0.508537
#
# Coordination Sequence:
#
# PCOD9042378 Si02
#       8
#     2   2   2   2   2   2   2   2
#     4  10  23  44  71 101 141 179 237 293 351 422
#     4  11  24  46  69 106 144 188 234 296 353 430
#     4  11  25  47  70  98 149 193 236 295 356 424
#     4  11  22  42  69 104 148 182 230 305 355 420
#     4  11  24  38  71 113 140 181 240 294 367 420
#     4  11  24  44  72 101 142 193 238 292 362 424
#     4  12  23  43  75 110 138 186 239 298 364 423
#     4  11  24  48  72  99 148 191 238 294 352 426
#
# _framework density 22.483176
#
# number of rings (size 3 to 8) (size 9 to 14) (size 15 to 20)
#    0.000    1.000    3.750    2.625    3.500    2.500 
#    4.500    0.625    0.000    0.000    0.000    0.000 
#    0.000    0.000    0.000    0.000    0.000    0.000 
#
# Total GULP energy -89470.539873 kJ/mol
# GULP energy per Si atom -5591.908742 kJ/mol
# Density = 2.243200 g / cm^3
# Si number density = 22.483176 Si / 1000 Ang^3
#
#
#
# Elastic Constant Matrix: (Units=GPa)
#
#
# Indices 1 2 3 4 5 6 
#
# 1 109.0474 66.0543 51.3758 -3.2686 -6.5547 5.8822
# 2 66.0543 158.3889 49.2323 3.2991 -3.1607 8.3880
# 3 51.3758 49.2323 83.3187 -3.4677 -16.6740 -10.0585
# 4 -3.2686 3.2991 -3.4677 47.1034 -8.5838 4.5505
# 5 -6.5547 -3.1607 -16.6740 -8.5838 33.9037 -7.3600
# 6 5.8822 8.3880 -10.0585 4.5505 -7.3600 42.5642
#
#
#
# Elastic Compliance Matrix: (Units=1/GPa)
#
#
# Indices 1 2 3 4 5 6 
#
# 1 0.015340 -0.003754 -0.008049 0.000735 -0.001960 -0.003700
# 2 -0.003754 0.009266 -0.004100 -0.001473 -0.002817 -0.002606
# 3 -0.008049 -0.004100 0.023021 0.002738 0.012064 0.009154
# 4 0.000735 -0.001473 0.002738 0.022911 0.007067 -0.000392
# 5 -0.001960 -0.002817 0.012064 0.007067 0.038662 0.009607
# 6 -0.003700 -0.002606 0.009154 -0.000392 0.009607 0.028385
#
#
# Mechanical properties :
#
#
# Convention : Reuss Voigt Hill
#
# Bulk Modulus (GPa) = 63.20616 76.00887 69.60752
# Shear Modulus (GPa) = 28.62612 36.98710 32.80661
#
# Velocity S-wave (km/s) = 3.57210 4.06038 3.82404
# Velocity P-wave (km/s) = 6.72212 7.47413 7.10808
#
# Compressibility (1/GPa) = 0.01582124
#
# Stress axis : x y z
#
# Youngs Moduli (GPa) = 65.18764 107.92095 43.43803
#
# Poissons Ratio (x) = 0.40514 0.34964
# Poissons Ratio (y) = 0.24472 0.17810
# Poissons Ratio (z) = 0.52470 0.44248
#
# Static dielectric constant tensor:
#      x y z
#    x 1.868120 0.025230 0.007100 
#    y 0.025230 1.874870 -0.014760 
#    z 0.007100 -0.014760 1.808420 
# 
# From -- ./inp_files/123592.got.cif
#   From: 2010.05.17/outbox.cif.g08.bks.cpg/sg2_62_cif.got.tgz:123592.got - 2010.06.03 11:33:40.
