data_PCOD9042134
_publ_section_title
;
Structure prediction by ZEFSAII (Michael W. Deem and Ramdas Pophale) SiO2 
 PCOD9042134
Probable space group: P -1
;
_chemical_formula_sum "Si O2"
_cell_formula_units_Z 14
_cell_length_a 21.346249
_cell_length_b 11.572285
_cell_length_c 20.335757
_cell_angle_alpha 159.322885
_cell_angle_beta 20.343519
_cell_angle_gamma 151.698592
_cell_volume 616.437073
_symmetry_space_group_name_H-M "P -1"
_symmetry_group_IT_number 2
_symmetry_cell_setting 'triclinic'
loop_
_space_group_symop_operation_xyz
x,y,z
-x,-y,-z
loop_
_atom_site_type_symbol
_atom_site_label
_atom_site_fract_x
_atom_site_fract_y
_atom_site_fract_z
Si Si1 0.796728 0.865755 0.125421
Si Si2 0.037454 0.738068 0.526668
Si Si3 0.473277 0.195984 0.197762
Si Si4 0.281668 0.783653 0.911891
Si Si5 0.487611 0.016868 0.427585
Si Si6 0.885419 0.173163 0.648401
Si Si7 0.630325 0.951406 0.576049
O O1 0.663213 0.050681 0.404387
O O2 0.684140 0.884511 0.178802
O O3 0.803320 0.483938 0.931378
O O4 0.000000 0.000000 0.000000
O O5 0.022794 0.675925 0.428472
O O6 0.000000 0.500000 0.500000
O O7 0.245590 0.835644 0.385612
O O8 0.900629 0.036478 0.827732
O O9 0.625363 0.101607 0.050187
O O10 0.483686 0.589213 0.393655
O O11 0.270818 0.082982 0.356977
O O12 0.500000 0.000000 0.000000
O O13 0.433951 0.867005 0.752538
O O14 0.268439 0.390062 0.717222
O O15 0.402487 0.884035 0.373838
O O16 0.000000 0.000000 0.500000
#
# Coordination Sequence:
#
# PCOD9042134 Si02
#       7
#     2   2   2   2   2   2   2
#     4  11  25  44  65 100 137 178 224 279 345 404
#     4  12  28  44  67 104 140 177 221 283 345 400
#     4  11  20  43  69  97 133 175 229 283 329 396
#     4  10  23  44  69  94 130 179 229 272 331 407
#     4  10  24  42  70  97 133 179 226 280 340 399
#     4  12  26  45  71 100 136 181 231 280 336 404
#     4  10  23  45  69  95 130 182 225 275 335 407
#
# _framework density 22.711158000000001
#
# number of rings (size 3 to 8) (size 9 to 14) (size 15 to 20)
#    0.000    1.143    2.857    2.143    6.000    1.714 
#    0.000    0.000    0.000    0.000    0.000    0.000 
#    0.000    0.000    0.000    0.000    0.000    0.000 
#
# Total GULP energy -78139.348641 kJ/mol
# GULP energy per Si atom -5581.382046 kJ/mol
# Density = 2.265947 g / cm^3
# Si number density = 22.711158 Si / 1000 Ang^3
#
#
#
# Elastic Constant Matrix: (Units=GPa)
#
#
# Indices 1 2 3 4 5 6 
#
# 1 140.7470 14.2693 19.6857 -6.6900 -18.1934 -9.2727
# 2 14.2693 66.2337 -3.3557 -19.3818 -16.7265 7.5337
# 3 19.6857 -3.3557 80.9526 -9.4714 -28.7735 -1.2847
# 4 -6.6900 -19.3818 -9.4714 25.2961 2.9591 -2.7452
# 5 -18.1934 -16.7265 -28.7735 2.9591 41.0882 -3.3748
# 6 -9.2727 7.5337 -1.2847 -2.7452 -3.3748 31.1851
#
#
#
# Elastic Compliance Matrix: (Units=1/GPa)
#
#
# Indices 1 2 3 4 5 6 
#
# 1 0.007921 -0.001191 -0.000918 0.000860 0.002561 0.002958
# 2 -0.001191 0.025906 0.008926 0.020869 0.014534 -0.002835
# 3 -0.000918 0.008926 0.020352 0.012406 0.016693 0.001308
# 4 0.000860 0.020869 0.012406 0.059073 0.013506 0.002387
# 5 0.002561 0.014534 0.016693 0.013506 0.042411 0.003717
# 6 0.002958 -0.002835 0.001308 0.002387 0.003717 0.034297
#
#
# Mechanical properties :
#
#
# Convention : Reuss Voigt Hill
#
# Bulk Modulus (GPa) = 14.74638 38.79244 26.76941
# Shear Modulus (GPa) = 25.13444 36.66948 30.90196
#
# Velocity S-wave (km/s) = 3.33032 4.02257 3.69270
# Velocity P-wave (km/s) = 4.61467 6.22034 5.47667
#
# Compressibility (1/GPa) = 0.06781326
#
# Stress axis : x y z
#
# Youngs Moduli (GPa) = 126.24936 38.60043 49.13595
#
# Poissons Ratio (x) = 0.04598 0.04510
# Poissons Ratio (y) = 0.15037 -0.43859
# Poissons Ratio (z) = 0.11587 -0.34455
#
# Static dielectric constant tensor:
#      x y z
#    x 1.922370 -0.051590 0.036040 
#    y -0.051590 1.880710 -0.022300 
#    z 0.036040 -0.022300 1.841940 
# 
# From -- ./inp_files/346299.got.cif
#   From: 2010.05.17/outbox.cif.g08.bks.cpg/sg2_174_cif.got.tgz:346299.got - 2010.06.03 11:33:40.
