data_PCOD9042359
_publ_section_title
;
Structure prediction by ZEFSAII (Michael W. Deem and Ramdas Pophale) SiO2 
 PCOD9042359
Probable space group: P -1
;
_chemical_formula_sum "Si O2"
_cell_formula_units_Z 13
_cell_length_a 10.376135
_cell_length_b 12.860989
_cell_length_c 10.034896
_cell_angle_alpha 34.205073
_cell_angle_beta 72.554426
_cell_angle_gamma 51.394776
_cell_volume 512.092198
_symmetry_space_group_name_H-M "P -1"
_symmetry_group_IT_number 2
_symmetry_cell_setting 'triclinic'
loop_
_space_group_symop_operation_xyz
x,y,z
-x,-y,-z
loop_
_atom_site_type_symbol
_atom_site_label
_atom_site_fract_x
_atom_site_fract_y
_atom_site_fract_z
Si Si1 0.000000 0.500000 0.500000
Si Si2 0.651456 0.213597 0.197805
Si Si3 0.717684 0.602333 0.241224
Si Si4 0.647902 0.055220 0.644534
Si Si5 0.053238 0.937793 0.394000
Si Si6 0.774580 0.439736 0.678958
Si Si7 0.676859 0.123942 0.994147
O O1 0.930355 0.407291 0.741446
O O2 0.827256 0.819281 0.259824
O O3 0.687181 0.034659 0.495117
O O4 0.587966 0.197734 0.093157
O O5 0.500000 0.500000 0.000000
O O6 0.844617 0.140320 0.179474
O O7 0.849927 0.342018 0.390896
O O8 0.812201 0.535193 0.429649
O O9 0.507249 0.722129 0.204594
O O10 0.685157 0.822168 0.942268
O O11 0.784492 0.067176 0.664670
O O12 0.432010 0.323511 0.451453
O O13 0.000000 0.000000 0.500000
O O14 0.772043 0.236052 0.834608
#
# Coordination Sequence:
#
# PCOD9042359 Si02
#       7
#     1   2   2   2   2   2   2
#     4  12  28  44  68 112 138 182 232 280 356 406
#     4  11  23  47  72 103 139 177 230 284 351 409
#     4  12  25  45  71 102 135 185 237 276 340 412
#     4  11  24  45  73  99 136 183 230 287 336 408
#     4  10  23  44  71 100 134 182 229 283 344 405
#     4  12  25  47  69 101 140 183 231 286 342 407
#     4  12  25  46  72 102 142 184 226 287 348 405
#
# _framework density 25.386050999999998
#
# number of rings (size 3 to 8) (size 9 to 14) (size 15 to 20)
#    0.000    0.615    4.615    3.231    0.000    4.308 
#    0.000    1.538    0.000    0.000    0.000    0.000 
#    0.000    0.000    0.000    0.000    0.000    0.000 
#
# Total GULP energy -72627.917001 kJ/mol
# GULP energy per Si atom -5586.762846 kJ/mol
# Density = 2.532827 g / cm^3
# Si number density = 25.386051 Si / 1000 Ang^3
#
#
#
# Elastic Constant Matrix: (Units=GPa)
#
#
# Indices 1 2 3 4 5 6 
#
# 1 133.2858 34.4350 37.1861 -15.8580 -10.0020 -18.8662
# 2 34.4350 105.8310 37.3287 -29.5843 -10.2130 -5.7771
# 3 37.1861 37.3287 89.1620 -25.1944 -21.7292 7.2375
# 4 -15.8580 -29.5843 -25.1944 60.5955 -3.0580 9.6386
# 5 -10.0020 -10.2130 -21.7292 -3.0580 69.7630 -0.8509
# 6 -18.8662 -5.7771 7.2375 9.6386 -0.8509 50.7934
#
#
#
# Elastic Compliance Matrix: (Units=1/GPa)
#
#
# Indices 1 2 3 4 5 6 
#
# 1 0.009475 -0.001707 -0.003712 -0.000528 -0.000023 0.003954
# 2 -0.001707 0.012399 -0.003107 0.004288 0.000796 0.000418
# 3 -0.003712 -0.003107 0.017217 0.005726 0.004563 -0.005196
# 4 -0.000528 0.004288 0.005726 0.021733 0.003232 -0.004594
# 5 -0.000023 0.000796 0.004563 0.003232 0.015999 -0.000913
# 6 0.003954 0.000418 -0.005196 -0.004594 -0.000913 0.022801
#
#
# Mechanical properties :
#
#
# Convention : Reuss Voigt Hill
#
# Bulk Modulus (GPa) = 45.37908 60.68651 53.03280
# Shear Modulus (GPa) = 40.31535 50.85232 45.58383
#
# Velocity S-wave (km/s) = 3.98941 4.48052 4.24208
# Velocity P-wave (km/s) = 6.25579 7.12209 6.70295
#
# Compressibility (1/GPa) = 0.02203658
#
# Stress axis : x y z
#
# Youngs Moduli (GPa) = 105.54514 80.65220 58.08365
#
# Poissons Ratio (x) = 0.13770 0.21562
# Poissons Ratio (y) = 0.18019 0.18048
# Poissons Ratio (z) = 0.39181 0.25060
#
# Static dielectric constant tensor:
#      x y z
#    x 2.233070 -0.048420 0.070950 
#    y -0.048420 1.977500 0.155800 
#    z 0.070950 0.155800 2.177100 
# 
# From -- ./inp_files/259679.got.cif
#   From: 2010.05.17/outbox.cif.g08.bks.cpg/sg2_130_cif.got.tgz:259679.got - 2010.06.03 11:33:40.
