data_PCOD9042294
_publ_section_title
;
Structure prediction by ZEFSAII (Michael W. Deem and Ramdas Pophale) SiO2 
 PCOD9042294
Probable space group: P -1
;
_chemical_formula_sum "Si O2"
_cell_formula_units_Z 10
_cell_length_a 12.517558
_cell_length_b 8.171782
_cell_length_c 14.940707
_cell_angle_alpha 39.193520
_cell_angle_beta 25.346950
_cell_angle_gamma 53.743497
_cell_volume 378.407038
_symmetry_space_group_name_H-M "P -1"
_symmetry_group_IT_number 2
_symmetry_cell_setting 'triclinic'
loop_
_space_group_symop_operation_xyz
x,y,z
-x,-y,-z
loop_
_atom_site_type_symbol
_atom_site_label
_atom_site_fract_x
_atom_site_fract_y
_atom_site_fract_z
Si Si1 0.232020 0.280021 0.344689
Si Si2 0.054328 0.637107 0.763867
Si Si3 0.859127 0.565641 0.455018
Si Si4 0.595913 0.461505 0.329170
Si Si5 0.223438 0.889796 0.909189
O O1 0.248864 0.353007 0.406784
O O2 0.960438 0.317680 0.502475
O O3 0.199234 0.960486 0.488315
O O4 0.500000 0.500000 0.000000
O O5 0.263424 0.494177 0.696106
O O6 0.859725 0.619879 0.001559
O O7 0.851833 0.422919 0.937539
O O8 0.639868 0.494895 0.569875
O O9 0.142782 0.832054 0.098933
O O10 0.488968 0.117316 0.564645
O O11 0.000000 0.000000 0.000000
#
# Coordination Sequence:
#
# PCOD9042294 Si02
#       5
#     2   2   2   2   2
#     4  11  26  50  72 101 146 191 243 289 347 428
#     4  11  25  42  76 107 139 195 234 283 366 422
#     4  10  25  47  71 102 145 188 230 301 350 408
#     4  10  24  43  74 105 145 176 239 293 351 426
#     4  10  23  44  70 107 146 177 233 301 352 415
#
# _framework density 26.426570999999999
#
# number of rings (size 3 to 8) (size 9 to 14) (size 15 to 20)
#    0.000    1.600    0.000    1.800   16.800    4.800 
#   14.400    0.000    0.000    0.000    0.000    0.000 
#    0.000    0.000    0.000    0.000    0.000    0.000 
#
# Total GULP energy -55772.048768 kJ/mol
# GULP energy per Si atom -5577.204877 kJ/mol
# Density = 2.636642 g / cm^3
# Si number density = 26.426571 Si / 1000 Ang^3
#
#
#
# Elastic Constant Matrix: (Units=GPa)
#
#
# Indices 1 2 3 4 5 6 
#
# 1 170.7592 58.7280 38.1907 14.1651 -2.7929 -3.5512
# 2 58.7280 100.3206 42.9895 -14.2176 -11.4213 -16.5650
# 3 38.1907 42.9895 178.3802 -22.8404 10.3182 -2.8122
# 4 14.1651 -14.2176 -22.8404 20.9942 -15.6541 -21.7571
# 5 -2.7929 -11.4213 10.3182 -15.6541 40.0437 12.6520
# 6 -3.5512 -16.5650 -2.8122 -21.7571 12.6520 56.4284
#
#
#
# Elastic Compliance Matrix: (Units=1/GPa)
#
#
# Indices 1 2 3 4 5 6 
#
# 1 -0.011699 0.027094 0.007056 0.095748 0.030639 0.037617
# 2 0.027094 -0.036866 -0.015234 -0.157003 -0.047171 -0.059836
# 3 0.007056 -0.015234 0.003508 -0.038094 -0.014842 -0.015213
# 4 0.095748 -0.157003 -0.038094 -0.479293 -0.154987 -0.192012
# 5 0.030639 -0.047171 -0.014842 -0.154987 -0.021770 -0.067536
# 6 0.037617 -0.059836 -0.015213 -0.192012 -0.067536 -0.057126
#
#
# Mechanical properties :
#
#
# Convention : Reuss Voigt Hill
#
# Bulk Modulus (GPa) = -138.39466 81.03072 -28.68197
# Shear Modulus (GPa) = -7.77016 44.13006 18.17995
#
# Velocity S-wave (km/s) = -1.71659 4.09089 2.62571
# Velocity P-wave (km/s) = 7.51080 7.28306 1.29790
#
# Compressibility (1/GPa) = -0.00722571
#
# Stress axis : x y z
#
# Youngs Moduli (GPa) = -85.47418 -27.12525 285.07970
#
# Poissons Ratio (x) = 0.73494 -2.01145
# Poissons Ratio (y) = 2.31587 4.34294
# Poissons Ratio (z) = 0.60308 -0.41323
#
# Static dielectric constant tensor:
#      x y z
#    x 2.186860 -0.005270 -0.073460 
#    y -0.005270 2.131790 0.091340 
#    z -0.073460 0.091340 2.180420 
# 
# From -- ./inp_files/513913.got.cif
#   From: 2010.05.17/outbox.cif.g08.bks.cpg/sg2_257_cif.got.tgz:513913.got - 2010.06.03 11:33:40.
