data_PCOD9042086
_publ_section_title
;
Structure prediction by ZEFSAII (Michael W. Deem and Ramdas Pophale) SiO2 
 PCOD9042086
Probable space group: P -1
;
_chemical_formula_sum "Si O2"
_cell_formula_units_Z 14
_cell_length_a 14.889067
_cell_length_b 8.910282
_cell_length_c 20.218082
_cell_angle_alpha 32.397911
_cell_angle_beta 30.007774
_cell_angle_gamma 30.108097
_cell_volume 622.551913
_symmetry_space_group_name_H-M "P -1"
_symmetry_group_IT_number 2
_symmetry_cell_setting 'triclinic'
loop_
_space_group_symop_operation_xyz
x,y,z
-x,-y,-z
loop_
_atom_site_type_symbol
_atom_site_label
_atom_site_fract_x
_atom_site_fract_y
_atom_site_fract_z
Si Si1 0.347352 0.882267 0.952921
Si Si2 0.057405 0.564873 0.513333
Si Si3 0.507972 0.238491 0.305162
Si Si4 0.356648 0.895911 0.093107
Si Si5 0.562859 0.759394 0.344457
Si Si6 0.010024 0.249341 0.786626
Si Si7 0.999037 0.761951 0.702555
O O1 0.313221 0.998126 0.007270
O O2 0.135358 0.907717 0.050291
O O3 0.500000 0.500000 0.000000
O O4 0.456710 0.048326 0.781379
O O5 0.309960 0.410573 0.416370
O O6 0.988968 0.377856 0.677307
O O7 0.000000 0.500000 0.500000
O O8 0.960242 0.944916 0.454234
O O9 0.477390 0.512384 0.170583
O O10 0.465188 0.003537 0.375931
O O11 0.745692 0.023938 0.257618
O O12 0.153637 0.058524 0.206559
O O13 0.500000 0.000000 0.000000
O O14 0.500000 0.500000 0.500000
O O15 0.808180 0.547388 0.274512
O O16 0.939724 0.577097 0.753363
#
# Coordination Sequence:
#
# PCOD9042086 Si02
#       7
#     2   2   2   2   2   2   2
#     4  12  26  45  75 103 135 193 239 291 365 417
#     4  11  22  43  70 103 149 190 237 289 350 424
#     4  10  23  44  69 103 142 189 229 292 355 414
#     4  11  24  47  69 103 142 178 235 296 352 425
#     4  11  25  45  71 103 144 179 239 294 351 425
#     4  11  24  43  73 100 142 187 242 290 355 426
#     4  10  24  41  68 104 139 187 229 291 355 415
#
# _framework density 22.488085999999999
#
# number of rings (size 3 to 8) (size 9 to 14) (size 15 to 20)
#    0.000    1.143    1.429    4.286    4.000    1.714 
#   15.429    0.000    0.000    0.000    0.000    0.000 
#    0.000    0.000    0.000    0.000    0.000    0.000 
#
# Total GULP energy -78064.344928 kJ/mol
# GULP energy per Si atom -5576.024638 kJ/mol
# Density = 2.243690 g / cm^3
# Si number density = 22.488086 Si / 1000 Ang^3
#
#
#
# Elastic Constant Matrix: (Units=GPa)
#
#
# Indices 1 2 3 4 5 6 
#
# 1 88.9436 18.9113 28.0597 -4.5129 2.7659 10.5037
# 2 18.9113 90.8530 3.2992 -9.7987 3.8563 -0.8568
# 3 28.0597 3.2992 114.4416 -16.1265 7.8711 -0.7424
# 4 -4.5129 -9.7987 -16.1265 34.9591 6.5517 -8.6455
# 5 2.7659 3.8563 7.8711 6.5517 38.8096 -4.3149
# 6 10.5037 -0.8568 -0.7424 -8.6455 -4.3149 22.1856
#
#
#
# Elastic Compliance Matrix: (Units=1/GPa)
#
#
# Indices 1 2 3 4 5 6 
#
# 1 0.013890 -0.003106 -0.003722 -0.002691 -0.000355 -0.007938
# 2 -0.003106 0.012227 0.001218 0.004768 -0.001654 0.003520
# 3 -0.003722 0.001218 0.010714 0.006315 -0.002637 0.004116
# 4 -0.002691 0.004768 0.006315 0.037387 -0.006203 0.015033
# 5 -0.000355 -0.001654 -0.002637 -0.006203 0.027874 0.003020
# 6 -0.007938 0.003520 0.004116 0.015033 0.003020 0.055552
#
#
# Mechanical properties :
#
#
# Convention : Reuss Voigt Hill
#
# Bulk Modulus (GPa) = 39.04977 43.86427 41.45702
# Shear Modulus (GPa) = 28.18469 35.45539 31.82004
#
# Velocity S-wave (km/s) = 3.54406 3.97499 3.76569
# Velocity P-wave (km/s) = 5.84376 6.37301 6.11411
#
# Compressibility (1/GPa) = 0.02560835
#
# Stress axis : x y z
#
# Youngs Moduli (GPa) = 71.99529 81.78753 93.33898
#
# Poissons Ratio (x) = 0.25404 0.34745
# Poissons Ratio (y) = 0.22363 -0.11365
# Poissons Ratio (z) = 0.26800 -0.09959
#
# Static dielectric constant tensor:
#      x y z
#    x 1.705560 -0.132310 0.114200 
#    y -0.132310 1.765910 0.108360 
#    z 0.114200 0.108360 1.639230 
# 
# From -- ./inp_files/319197.got.cif
#   From: 2010.05.17/outbox.cif.g08.bks.cpg/sg2_160_cif.got.tgz:319197.got - 2010.06.03 11:33:40.
