data_PCOD9042941
_publ_section_title
;
Structure prediction by ZEFSAII (Michael W. Deem and Ramdas Pophale) SiO2 
 PCOD9042941
Probable space group: P -1
;
_chemical_formula_sum "Si O2"
_cell_formula_units_Z 12
_cell_length_a 5.080919
_cell_length_b 8.338509
_cell_length_c 13.920840
_cell_angle_alpha 69.731963
_cell_angle_beta 119.744268
_cell_angle_gamma 116.258811
_cell_volume 453.097210
_symmetry_space_group_name_H-M "P -1"
_symmetry_group_IT_number 2
_symmetry_cell_setting 'triclinic'
loop_
_space_group_symop_operation_xyz
x,y,z
-x,-y,-z
loop_
_atom_site_type_symbol
_atom_site_label
_atom_site_fract_x
_atom_site_fract_y
_atom_site_fract_z
Si Si1 0.163084 0.452026 0.892808
Si Si2 0.697052 0.159054 0.185634
Si Si3 0.014761 0.864331 0.946890
Si Si4 0.594026 0.975579 0.394730
Si Si5 0.915808 0.694308 0.514906
Si Si6 0.024502 0.343965 0.678749
O O1 0.073966 0.633518 0.827383
O O2 0.180878 0.375472 0.805450
O O3 0.500000 0.500000 0.000000
O O4 0.930712 0.302383 0.951506
O O5 0.354115 0.181400 0.146628
O O6 0.738352 0.074896 0.108420
O O7 0.758492 0.044463 0.307028
O O8 0.000000 0.000000 0.000000
O O9 0.231353 0.857993 0.328152
O O10 0.725666 0.822010 0.491035
O O11 0.717582 0.160614 0.440507
O O12 0.801995 0.644670 0.394813
O O13 0.887806 0.512011 0.603703
#
# Coordination Sequence:
#
# PCOD9042941 Si02
#       6
#     2   2   2   2   2   2
#     4  10  23  45  67 100 145 187 240 295 360 428
#     4  11  24  44  67 102 141 186 235 299 360 428
#     4  11  24  43  69 101 138 188 242 293 361 428
#     4  11  23  42  69 102 138 183 238 297 367 423
#     4  10  24  43  68 102 140 177 244 297 361 426
#     4  11  22  45  69 100 138 188 238 291 367 427
#
# _framework density 26.484382
#
# number of rings (size 3 to 8) (size 9 to 14) (size 15 to 20)
#    0.000    1.333    1.667    3.000    4.667    0.000 
#    9.000    0.000    0.000    0.000    0.000    0.000 
#    0.000    0.000    0.000    0.000    0.000    0.000 
#
# Total GULP energy -67031.941113 kJ/mol
# GULP energy per Si atom -5585.995093 kJ/mol
# Density = 2.642410 g / cm^3
# Si number density = 26.484382 Si / 1000 Ang^3
#
#
#
# Elastic Constant Matrix: (Units=GPa)
#
#
# Indices 1 2 3 4 5 6 
#
# 1 95.0555 25.9120 48.2039 -1.4394 -23.3294 -8.5047
# 2 25.9120 123.9293 37.4792 -8.9623 -2.2982 -2.1076
# 3 48.2039 37.4792 164.1673 24.9270 -26.6282 -1.9807
# 4 -1.4394 -8.9623 24.9270 62.3726 -8.7084 5.3208
# 5 -23.3294 -2.2982 -26.6282 -8.7084 28.1329 5.5536
# 6 -8.5047 -2.1076 -1.9807 5.3208 5.5536 22.8842
#
#
#
# Elastic Compliance Matrix: (Units=1/GPa)
#
#
# Indices 1 2 3 4 5 6 
#
# 1 0.015140 -0.001956 -0.002686 0.002372 0.010153 0.002199
# 2 -0.001956 0.009231 -0.002198 0.001816 -0.002405 0.000094
# 3 -0.002686 -0.002198 0.008648 -0.003050 0.005025 -0.000962
# 4 0.002372 0.001816 -0.003050 0.018846 0.006062 -0.005068
# 5 0.010153 -0.002405 0.005025 0.006062 0.052403 -0.010140
# 6 0.002199 0.000094 -0.000962 -0.005068 -0.010140 0.048080
#
#
# Mechanical properties :
#
#
# Convention : Reuss Voigt Hill
#
# Bulk Modulus (GPa) = 51.70562 67.37136 59.53849
# Shear Modulus (GPa) = 28.98992 40.78176 34.88584
#
# Velocity S-wave (km/s) = 3.31207 3.92834 3.63329
# Velocity P-wave (km/s) = 5.84738 6.78743 6.33486
#
# Compressibility (1/GPa) = 0.01934026
#
# Stress axis : x y z
#
# Youngs Moduli (GPa) = 66.05098 108.32971 115.63080
#
# Poissons Ratio (x) = 0.21191 0.31054
# Poissons Ratio (y) = 0.12921 0.25412
# Poissons Ratio (z) = 0.17739 0.23807
#
# Static dielectric constant tensor:
#      x y z
#    x 2.265380 0.070180 0.083970 
#    y 0.070180 2.157840 0.061790 
#    z 0.083970 0.061790 2.128330 
# 
# From -- ./inp_files/27885.got.cif
#   From: 2010.05.17/outbox.cif.g08.bks.cpg/sg2_14_cif.got.tgz:27885.got - 2010.06.03 11:33:40.
