data_PCOD9042824
_publ_section_title
;
Structure prediction by ZEFSAII (Michael W. Deem and Ramdas Pophale) SiO2 
 PCOD9042824
Probable space group: P -1
;
_chemical_formula_sum "Si O2"
_cell_formula_units_Z 16
_cell_length_a 20.542796
_cell_length_b 11.960199
_cell_length_c 10.096254
_cell_angle_alpha 36.834131
_cell_angle_beta 26.390431
_cell_angle_gamma 39.737289
_cell_volume 648.288281
_symmetry_space_group_name_H-M "P -1"
_symmetry_group_IT_number 2
_symmetry_cell_setting 'triclinic'
loop_
_space_group_symop_operation_xyz
x,y,z
-x,-y,-z
loop_
_atom_site_type_symbol
_atom_site_label
_atom_site_fract_x
_atom_site_fract_y
_atom_site_fract_z
Si Si1 0.103041 0.830793 0.860234
Si Si2 0.797873 0.266423 0.502467
Si Si3 0.150798 0.526136 0.268934
Si Si4 0.746183 0.927835 0.060840
Si Si5 0.169336 0.434896 0.612636
Si Si6 0.559831 0.145356 0.437343
Si Si7 0.238085 0.105562 0.486923
Si Si8 0.470552 0.435741 0.966717
O O1 0.132238 0.710641 0.787961
O O2 0.190786 0.006436 0.533773
O O3 0.175172 0.709883 0.970790
O O4 0.922938 0.884825 0.152098
O O5 0.824314 0.414429 0.426244
O O6 0.618534 0.307496 0.766765
O O7 0.832482 0.053616 0.694569
O O8 0.110804 0.543007 0.482112
O O9 0.258551 0.323620 0.230897
O O10 0.000000 0.500000 0.500000
O O11 0.861188 0.749940 0.081251
O O12 0.610555 0.862247 0.288249
O O13 0.663817 0.065093 0.197735
O O14 0.332376 0.339827 0.343184
O O15 0.570998 0.367232 0.223715
O O16 0.626068 0.020468 0.561142
O O17 0.500000 0.500000 0.000000
#
# Coordination Sequence:
#
# PCOD9042824 Si02
#       8
#     2   2   2   2   2   2   2   2
#     4  10  24  45  65  88 129 169 209 264 299 377
#     4  11  23  39  61 100 134 156 203 259 328 360
#     4  10  22  41  69  87 116 170 218 252 297 372
#     4  11  20  33  64  96 129 156 200 263 313 365
#     4  11  20  38  67  95 124 163 208 257 309 376
#     4  11  18  35  64  95 120 163 210 254 302 376
#     4  10  22  43  68  85 118 173 224 242 310 370
#     4  10  17  33  59  90 126 161 194 252 310 369
#
# _framework density 24.680378999999999
#
# number of rings (size 3 to 8) (size 9 to 14) (size 15 to 20)
#    0.000    1.500    6.250    1.500    0.000    1.000 
#    0.000    6.250    0.000    0.000    0.000    0.000 
#    0.000    0.000    0.000    0.000    0.000    0.000 
#
# Total GULP energy -89299.681684 kJ/mol
# GULP energy per Si atom -5581.230105 kJ/mol
# Density = 2.462421 g / cm^3
# Si number density = 24.680379 Si / 1000 Ang^3
#
#
#
# Elastic Constant Matrix: (Units=GPa)
#
#
# Indices 1 2 3 4 5 6 
#
# 1 101.7474 35.6074 12.4230 5.9181 33.4136 -9.6359
# 2 35.6074 88.6012 44.4094 -25.2316 20.2084 -3.7419
# 3 12.4230 44.4094 68.9616 -22.9357 16.5398 -0.6307
# 4 5.9181 -25.2316 -22.9357 46.3263 -6.1898 0.2574
# 5 33.4136 20.2084 16.5398 -6.1898 31.0313 -2.9134
# 6 -9.6359 -3.7419 -0.6307 0.2574 -2.9134 43.6189
#
#
#
# Elastic Compliance Matrix: (Units=1/GPa)
#
#
# Indices 1 2 3 4 5 6 
#
# 1 0.018404 -0.006626 0.003065 -0.006899 -0.018291 0.002361
# 2 -0.006626 0.020973 -0.009912 0.007395 0.000250 0.000165
# 3 0.003065 -0.009912 0.024072 0.004964 -0.008727 -0.000437
# 4 -0.006899 0.007395 0.004964 0.029737 0.005842 -0.000603
# 5 -0.018291 0.000250 -0.008727 0.005842 0.057543 -0.000336
# 6 0.002361 0.000165 -0.000437 -0.000603 -0.000336 0.023436
#
#
# Mechanical properties :
#
#
# Convention : Reuss Voigt Hill
#
# Bulk Modulus (GPa) = 27.39396 49.35445 38.37420
# Shear Modulus (GPa) = 23.44361 35.32000 29.38180
#
# Velocity S-wave (km/s) = 3.08537 3.78709 3.45409
# Velocity P-wave (km/s) = 4.88019 6.25808 5.61159
#
# Compressibility (1/GPa) = 0.03650440
#
# Stress axis : x y z
#
# Youngs Moduli (GPa) = 54.33511 47.67959 41.54287
#
# Poissons Ratio (x) = 0.31594 -0.12735
# Poissons Ratio (y) = 0.36004 0.41176
# Poissons Ratio (z) = -0.16656 0.47258
#
# Static dielectric constant tensor:
#      x y z
#    x 2.235440 -0.025130 -0.301360 
#    y -0.025130 1.994690 -0.066690 
#    z -0.301360 -0.066690 2.861120 
# 
# From -- ./inp_files/344942.got.cif
#   From: 2010.05.17/outbox.cif.g08.bks.cpg/sg2_173_cif.got.tgz:344942.got - 2010.06.03 11:33:40.
