data_PCOD9042537
_publ_section_title
;
Structure prediction by ZEFSAII (Michael W. Deem and Ramdas Pophale) SiO2 
 PCOD9042537
Probable space group: P -1
;
_chemical_formula_sum "Si O2"
_cell_formula_units_Z 14
_cell_length_a 5.602686
_cell_length_b 4.984976
_cell_length_c 23.457522
_cell_angle_alpha 113.828134
_cell_angle_beta 113.819652
_cell_angle_gamma 92.099904
_cell_volume 532.403235
_symmetry_space_group_name_H-M "P -1"
_symmetry_group_IT_number 2
_symmetry_cell_setting 'triclinic'
loop_
_space_group_symop_operation_xyz
x,y,z
-x,-y,-z
loop_
_atom_site_type_symbol
_atom_site_label
_atom_site_fract_x
_atom_site_fract_y
_atom_site_fract_z
Si Si1 0.566309 0.314514 0.871980
Si Si2 0.807124 0.778319 0.846910
Si Si3 0.118584 0.166297 0.725899
Si Si4 0.679036 0.262822 0.502397
Si Si5 0.232344 0.405111 0.302011
Si Si6 0.240481 0.134899 0.988092
Si Si7 0.756582 0.319213 0.384798
O O1 0.298042 0.310120 0.809715
O O2 0.644176 0.517123 0.953179
O O3 0.783920 0.498060 0.863079
O O4 0.590445 0.976106 0.855783
O O5 0.752933 0.649552 0.768328
O O6 0.084915 0.026372 0.905201
O O7 0.986162 0.394929 0.697829
O O8 0.877380 0.915963 0.706926
O O9 0.269828 0.967664 0.684300
O O10 0.500000 0.500000 0.500000
O O11 0.740104 0.195501 0.437155
O O12 0.472342 0.503485 0.635693
O O13 0.500000 0.000000 0.500000
O O14 0.041850 0.558319 0.427856
O O15 0.500000 0.000000 0.000000
O O16 0.000000 0.000000 0.000000
#
# Coordination Sequence:
#
# PCOD9042537 Si02
#       7
#     2   2   2   2   2   2   2
#     4  11  23  46  71 107 151 202 262 327 388 463
#     4  11  23  46  71 107 151 202 262 327 388 463
#     4  12  27  46  75 114 154 203 257 318 395 467
#     4  11  28  55  83 114 151 203 258 307 395 482
#     4  12  27  46  75 114 154 203 257 318 395 467
#     4  10  23  44  72 106 152 214 270 335 405 471
#     4  11  28  52  80 115 162 196 254 333 386 478
#
# _framework density 26.295857999999999
#
# number of rings (size 3 to 8) (size 9 to 14) (size 15 to 20)
#    0.000    0.857    1.429    3.857    0.000   11.429 
#    0.000    8.571    0.000    0.000    0.000    0.000 
#    0.000    0.000    0.000    0.000    0.000    0.000 
#
# Total GULP energy -78465.880695 kJ/mol
# GULP energy per Si atom -5604.705764 kJ/mol
# Density = 2.623601 g / cm^3
# Si number density = 26.295858 Si / 1000 Ang^3
#
#
#
# Elastic Constant Matrix: (Units=GPa)
#
#
# Indices 1 2 3 4 5 6 
#
# 1 117.6231 42.4219 38.9955 -0.4268 34.7930 -3.5654
# 2 42.4219 113.9623 40.9214 2.4300 15.2986 1.3576
# 3 38.9955 40.9214 121.9140 -10.5278 24.9664 7.3168
# 4 -0.4268 2.4300 -10.5278 34.5611 -9.5802 4.6302
# 5 34.7930 15.2986 24.9664 -9.5802 60.4786 -8.3856
# 6 -3.5654 1.3576 7.3168 4.6302 -8.3856 48.4143
#
#
#
# Elastic Compliance Matrix: (Units=1/GPa)
#
#
# Indices 1 2 3 4 5 6 
#
# 1 0.011818 -0.002967 -0.001837 -0.001793 -0.005512 0.000448
# 2 -0.002967 0.010960 -0.002849 -0.001724 -0.000157 0.000043
# 3 -0.001837 -0.002849 0.010660 0.003060 -0.002469 -0.002387
# 4 -0.001793 -0.001724 0.003060 0.031674 0.004842 -0.002737
# 5 -0.005512 -0.000157 -0.002469 0.004842 0.021992 0.003318
# 6 0.000448 0.000043 -0.002387 -0.002737 0.003318 0.021884
#
#
# Mechanical properties :
#
#
# Convention : Reuss Voigt Hill
#
# Bulk Modulus (GPa) = 55.15368 66.46412 60.80890
# Shear Modulus (GPa) = 38.36190 44.10149 41.23170
#
# Velocity S-wave (km/s) = 3.82364 4.09972 3.96408
# Velocity P-wave (km/s) = 6.36502 6.90946 6.64282
#
# Compressibility (1/GPa) = 0.01813116
#
# Stress axis : x y z
#
# Youngs Moduli (GPa) = 84.61395 91.24494 93.81207
#
# Poissons Ratio (x) = 0.27070 0.17237
# Poissons Ratio (y) = 0.25103 0.26728
# Poissons Ratio (z) = 0.15547 0.25996
#
# Static dielectric constant tensor:
#      x y z
#    x 2.136620 0.021940 0.003720 
#    y 0.021940 1.969690 0.000350 
#    z 0.003720 0.000350 2.129620 
# 
# From -- ./inp_files/603036.got.cif
#   From: 2010.05.17/outbox.cif.g08.bks.cpg/sg2_302_cif.got.tgz:603036.got - 2010.06.03 11:33:40.
