data_PCOD9042283
_publ_section_title
;
Structure prediction by ZEFSAII (Michael W. Deem and Ramdas Pophale) SiO2 
 PCOD9042283
Probable space group: P -1
;
_chemical_formula_sum "Si O2"
_cell_formula_units_Z 12
_cell_length_a 10.568974
_cell_length_b 11.664560
_cell_length_c 6.878768
_cell_angle_alpha 82.098957
_cell_angle_beta 50.203511
_cell_angle_gamma 52.170640
_cell_volume 466.953835
_symmetry_space_group_name_H-M "P -1"
_symmetry_group_IT_number 2
_symmetry_cell_setting 'triclinic'
loop_
_space_group_symop_operation_xyz
x,y,z
-x,-y,-z
loop_
_atom_site_type_symbol
_atom_site_label
_atom_site_fract_x
_atom_site_fract_y
_atom_site_fract_z
Si Si1 0.624949 0.375522 0.638240
Si Si2 0.109348 0.879135 0.237256
Si Si3 0.631603 0.846750 0.269762
Si Si4 0.756599 0.576006 0.478087
Si Si5 0.027655 0.131967 0.023982
Si Si6 0.295002 0.347992 0.048207
O O1 0.727950 0.286335 0.767238
O O2 0.651263 0.499999 0.570243
O O3 0.382093 0.429613 0.862950
O O4 0.780266 0.246963 0.341896
O O5 0.172033 0.954807 0.012331
O O6 0.000000 0.000000 0.500000
O O7 0.974149 0.871092 0.207878
O O8 0.673802 0.708806 0.375011
O O9 0.500000 0.000000 0.500000
O O10 0.552943 0.831397 0.145403
O O11 0.863004 0.804651 0.020992
O O12 0.031872 0.449904 0.237873
O O13 0.683314 0.656134 0.742692
#
# Coordination Sequence:
#
# PCOD9042283 Si02
#       6
#     2   2   2   2   2   2
#     4  11  24  46  77 109 141 193 249 302 366 434
#     4   9  22  40  68 103 147 194 240 294 361 424
#     4  12  29  47  73 109 150 196 242 301 370 434
#     4  11  27  51  73 109 149 191 247 305 360 435
#     4  10  23  44  70 105 154 193 241 305 361 437
#     4  11  27  48  77 109 144 196 241 304 368 429
#
# _framework density 25.698471000000001
#
# number of rings (size 3 to 8) (size 9 to 14) (size 15 to 20)
#    0.000    1.333    1.667    1.000   14.000    1.333 
#    0.000    0.000    0.000    0.000    0.000    0.000 
#    0.000    0.000    0.000    0.000    0.000    0.000 
#
# Total GULP energy -67086.894830 kJ/mol
# GULP energy per Si atom -5590.574569 kJ/mol
# Density = 2.563998 g / cm^3
# Si number density = 25.698471 Si / 1000 Ang^3
#
#
#
# Elastic Constant Matrix: (Units=GPa)
#
#
# Indices 1 2 3 4 5 6 
#
# 1 94.0054 36.3652 21.8848 -3.5098 -0.3275 34.6981
# 2 36.3652 121.3315 4.5985 -15.6201 21.3983 24.9830
# 3 21.8848 4.5985 107.6907 12.0937 17.9330 5.8008
# 4 -3.5098 -15.6201 12.0937 38.8585 10.4171 9.2458
# 5 -0.3275 21.3983 17.9330 10.4171 50.0329 -3.6165
# 6 34.6981 24.9830 5.8008 9.2458 -3.6165 47.0475
#
#
#
# Elastic Compliance Matrix: (Units=1/GPa)
#
#
# Indices 1 2 3 4 5 6 
#
# 1 0.016608 -0.001948 -0.003214 0.004401 0.000335 -0.011657
# 2 -0.001948 0.013063 0.000636 0.008995 -0.008278 -0.007983
# 3 -0.003214 0.000636 0.010745 -0.002663 -0.003521 0.000960
# 4 0.004401 0.008995 -0.002663 0.037553 -0.011838 -0.015984
# 5 0.000335 -0.008278 -0.003521 -0.011838 0.027910 0.009054
# 6 -0.011657 -0.007983 0.000960 -0.015984 0.009054 0.037810
#
#
# Mechanical properties :
#
#
# Convention : Reuss Voigt Hill
#
# Bulk Modulus (GPa) = 31.88281 49.85831 40.87056
# Shear Modulus (GPa) = 30.63797 44.53306 37.58551
#
# Velocity S-wave (km/s) = 3.45659 4.16734 3.82849
# Velocity P-wave (km/s) = 5.32579 6.52679 5.95664
#
# Compressibility (1/GPa) = 0.03136486
#
# Stress axis : x y z
#
# Youngs Moduli (GPa) = 60.21360 76.55060 93.06261
#
# Poissons Ratio (x) = 0.14913 0.29909
# Poissons Ratio (y) = 0.11730 -0.05921
# Poissons Ratio (z) = 0.19352 -0.04871
#
# Static dielectric constant tensor:
#      x y z
#    x 2.083330 -0.053810 -0.046900 
#    y -0.053810 1.995360 0.066090 
#    z -0.046900 0.066090 2.097120 
# 
# From -- ./inp_files/71071.got.cif
#   From: 2010.05.17/outbox.cif.g08.bks.cpg/sg2_36_cif.got.tgz:71071.got - 2010.06.03 11:33:40.
