data_PCOD9042155
_publ_section_title
;
Structure prediction by ZEFSAII (Michael W. Deem and Ramdas Pophale) SiO2 
 PCOD9042155
Probable space group: P -1
;
_chemical_formula_sum "Si O2"
_cell_formula_units_Z 12
_cell_length_a 5.424755
_cell_length_b 11.594733
_cell_length_c 14.699654
_cell_angle_alpha 139.112754
_cell_angle_beta 97.124902
_cell_angle_gamma 58.457741
_cell_volume 450.611729
_symmetry_space_group_name_H-M "P -1"
_symmetry_group_IT_number 2
_symmetry_cell_setting 'triclinic'
loop_
_space_group_symop_operation_xyz
x,y,z
-x,-y,-z
loop_
_atom_site_type_symbol
_atom_site_label
_atom_site_fract_x
_atom_site_fract_y
_atom_site_fract_z
Si Si1 0.136521 0.124509 0.604684
Si Si2 0.159871 0.575528 0.914713
Si Si3 0.004384 0.703422 0.597490
Si Si4 0.826177 0.075902 0.135376
Si Si5 0.632448 0.788513 0.165185
Si Si6 0.141432 0.479244 0.283602
O O1 0.205298 0.137456 0.719538
O O2 0.832510 0.394365 0.721556
O O3 0.500000 0.000000 0.500000
O O4 0.000000 0.000000 0.500000
O O5 0.442411 0.343572 0.849220
O O6 0.131287 0.518836 0.775602
O O7 0.861904 0.636522 0.000031
O O8 0.046062 0.831362 0.055190
O O9 0.000000 0.500000 0.500000
O O10 0.218147 0.723134 0.687499
O O11 0.057426 0.656648 0.464803
O O12 0.668076 0.967313 0.747063
O O13 0.443052 0.218728 0.176031
O O14 0.000000 0.000000 0.000000
#
# Coordination Sequence:
#
# PCOD9042155 Si02
#       6
#     2   2   2   2   2   2
#     4  11  25  44  74 108 150 190 244 314 373 448
#     4  10  23  44  69  96 143 189 248 307 370 456
#     4  12  25  41  69 101 147 188 249 311 376 442
#     4  12  26  43  68 102 146 201 247 306 378 453
#     4  10  23  44  71 103 141 194 244 310 375 447
#     4  11  24  44  68 104 142 191 251 305 377 439
#
# _framework density 26.630465999999998
#
# number of rings (size 3 to 8) (size 9 to 14) (size 15 to 20)
#    0.000    1.000    1.667    4.000    4.667    3.333 
#    0.000    0.000    0.000    0.000    0.000    0.000 
#    0.000    0.000    0.000    0.000    0.000    0.000 
#
# Total GULP energy -66869.767399 kJ/mol
# GULP energy per Si atom -5572.480617 kJ/mol
# Density = 2.656985 g / cm^3
# Si number density = 26.630466 Si / 1000 Ang^3
#
#
#
# Elastic Constant Matrix: (Units=GPa)
#
#
# Indices 1 2 3 4 5 6 
#
# 1 70.6892 34.7270 39.3577 -2.9711 28.9944 -6.1131
# 2 34.7270 144.1089 15.3907 14.5223 22.0861 7.6093
# 3 39.3577 15.3907 153.7768 -21.4849 37.7561 6.6179
# 4 -2.9711 14.5223 -21.4849 69.5430 7.8625 2.8793
# 5 28.9944 22.0861 37.7561 7.8625 58.4599 8.5798
# 6 -6.1131 7.6093 6.6179 2.8793 8.5798 32.5063
#
#
#
# Elastic Compliance Matrix: (Units=1/GPa)
#
#
# Indices 1 2 3 4 5 6 
#
# 1 0.022451 -0.004291 -0.003304 0.001491 -0.008767 0.008081
# 2 -0.004291 0.008337 0.000292 -0.001660 -0.000618 -0.002507
# 3 -0.003304 0.000292 0.008905 0.003114 -0.004405 -0.001616
# 4 0.001491 -0.001660 0.003114 0.016246 -0.004268 -0.000277
# 5 -0.008767 -0.000618 -0.004405 -0.004268 0.026153 -0.007132
# 6 0.008081 -0.002507 -0.001616 -0.000277 -0.007132 0.035106
#
#
# Mechanical properties :
#
#
# Convention : Reuss Voigt Hill
#
# Bulk Modulus (GPa) = 39.86048 60.83619 50.34833
# Shear Modulus (GPa) = 35.67192 50.70847 43.19020
#
# Velocity S-wave (km/s) = 3.66391 4.36839 4.03157
# Velocity P-wave (km/s) = 5.73581 6.95255 6.37328
#
# Compressibility (1/GPa) = 0.02508750
#
# Stress axis : x y z
#
# Youngs Moduli (GPa) = 44.54128 119.95404 112.29119
#
# Poissons Ratio (x) = 0.51469 0.37097
# Poissons Ratio (y) = 0.19111 -0.03274
# Poissons Ratio (z) = 0.14715 -0.03498
#
# Static dielectric constant tensor:
#      x y z
#    x 2.281760 -0.007950 -0.027610 
#    y -0.007950 2.288980 -0.037390 
#    z -0.027610 -0.037390 2.235360 
# 
# From -- ./inp_files/60448.got.cif
#   From: 2010.05.17/outbox.cif.g08.bks.cpg/sg2_31_cif.got.tgz:60448.got - 2010.06.03 11:33:40.
