data_PCOD9042118
_publ_section_title
;
Structure prediction by ZEFSAII (Michael W. Deem and Ramdas Pophale) SiO2 
 PCOD9042118
Probable space group: P -1
;
_chemical_formula_sum "Si O2"
_cell_formula_units_Z 16
_cell_length_a 5.590828
_cell_length_b 8.854675
_cell_length_c 16.270644
_cell_angle_alpha 85.417732
_cell_angle_beta 122.312350
_cell_angle_gamma 99.533755
_cell_volume 671.308289
_symmetry_space_group_name_H-M "P -1"
_symmetry_group_IT_number 2
_symmetry_cell_setting 'triclinic'
loop_
_space_group_symop_operation_xyz
x,y,z
-x,-y,-z
loop_
_atom_site_type_symbol
_atom_site_label
_atom_site_fract_x
_atom_site_fract_y
_atom_site_fract_z
Si Si1 0.691025 0.656861 0.547179
Si Si2 0.310192 0.866576 0.022850
Si Si3 0.265621 0.144279 0.615917
Si Si4 0.193003 0.843567 0.181065
Si Si5 0.340662 0.410151 0.896704
Si Si6 0.669105 0.127652 0.468755
Si Si7 0.111072 0.163546 0.196069
Si Si8 0.256560 0.677661 0.744787
O O1 0.500000 0.500000 0.500000
O O2 0.665865 0.755405 0.456928
O O3 0.532794 0.744419 0.584027
O O4 0.014498 0.640488 0.631315
O O5 0.221649 0.919362 0.093085
O O6 0.477681 0.726309 0.080691
O O7 0.047887 0.805839 0.919127
O O8 0.500000 0.000000 0.000000
O O9 0.502212 0.181919 0.726082
O O10 0.949612 0.180723 0.572413
O O11 0.248466 0.965417 0.592394
O O12 0.974214 0.686855 0.141767
O O13 0.096793 0.979523 0.213216
O O14 0.316888 0.528585 0.813507
O O15 0.500000 0.500000 0.000000
O O16 0.500000 0.000000 0.500000
O O17 0.439932 0.237989 0.236475
O O18 0.911301 0.224611 0.226305
#
# Coordination Sequence:
#
# PCOD9042118 Si02
#       8
#     2   2   2   2   2   2   2   2
#     4  11  25  46  69 103 153 194 244 304 374 450
#     4  12  26  50  74 111 150 196 253 319 379 454
#     4  10  23  44  69 108 137 192 249 306 364 441
#     4  12  27  43  80 107 149 199 256 315 380 447
#     4  12  27  49  73 107 152 196 254 311 382 457
#     4   9  21  42  69  96 146 182 243 302 366 426
#     4  12  27  50  77 112 151 197 263 311 378 453
#     4  12  29  48  79 113 153 207 249 313 387 448
#
# _framework density 23.834054999999999
#
# number of rings (size 3 to 8) (size 9 to 14) (size 15 to 20)
#    0.000    0.750    2.500    3.375    8.750    4.500 
#    0.000    0.000    0.000    0.000    0.000    0.000 
#    0.000    0.000    0.000    0.000    0.000    0.000 
#
# Total GULP energy -89480.194822 kJ/mol
# GULP energy per Si atom -5592.512176 kJ/mol
# Density = 2.377981 g / cm^3
# Si number density = 23.834055 Si / 1000 Ang^3
#
#
#
# Elastic Constant Matrix: (Units=GPa)
#
#
# Indices 1 2 3 4 5 6 
#
# 1 115.3206 40.6546 44.4356 11.3538 19.7279 16.6786
# 2 40.6546 128.2813 29.6249 -1.7938 7.0110 19.4071
# 3 44.4356 29.6249 179.6657 3.5813 30.5885 25.7609
# 4 11.3538 -1.7938 3.5813 35.5500 8.1087 10.4479
# 5 19.7279 7.0110 30.5885 8.1087 48.1787 2.2289
# 6 16.6786 19.4071 25.7609 10.4479 2.2289 34.9502
#
#
#
# Elastic Compliance Matrix: (Units=1/GPa)
#
#
# Indices 1 2 3 4 5 6 
#
# 1 0.011218 -0.002820 -0.001550 -0.002439 -0.002708 -0.001744
# 2 -0.002820 0.009491 -0.000203 0.002834 -0.000362 -0.004599
# 3 -0.001550 -0.000203 0.007353 0.002140 -0.004136 -0.004943
# 4 -0.002439 0.002834 0.002140 0.033605 -0.005889 -0.011657
# 5 -0.002708 -0.000362 -0.004136 -0.005889 0.025318 0.004687
# 6 -0.001744 -0.004599 -0.004943 -0.011657 0.004687 0.038827
#
#
# Mechanical properties :
#
#
# Convention : Reuss Voigt Hill
#
# Bulk Modulus (GPa) = 52.86269 72.52199 62.69234
# Shear Modulus (GPa) = 35.39490 44.30595 39.85043
#
# Velocity S-wave (km/s) = 3.85782 4.31621 4.09344
# Velocity P-wave (km/s) = 6.48624 7.43865 6.97871
#
# Compressibility (1/GPa) = 0.01891694
#
# Stress axis : x y z
#
# Youngs Moduli (GPa) = 89.14015 105.36256 136.00018
#
# Poissons Ratio (x) = 0.29709 0.21079
# Poissons Ratio (y) = 0.25134 0.02762
# Poissons Ratio (z) = 0.13816 0.02139
#
# Static dielectric constant tensor:
#      x y z
#    x 1.551020 -0.079070 0.213670 
#    y -0.079070 1.931880 0.045100 
#    z 0.213670 0.045100 1.795980 
# 
# From -- ./inp_files/332643.got.cif
#   From: 2010.05.17/outbox.cif.g08.bks.cpg/sg2_167_cif.got.tgz:332643.got - 2010.06.03 11:33:40.
