data_PCOD9042016
_publ_section_title
;
Structure prediction by ZEFSAII (Michael W. Deem and Ramdas Pophale) SiO2 
 PCOD9042016
Probable space group: P -1
;
_chemical_formula_sum "Si O2"
_cell_formula_units_Z 14
_cell_length_a 5.316294
_cell_length_b 15.706681
_cell_length_c 11.226372
_cell_angle_alpha 46.798964
_cell_angle_beta 80.777134
_cell_angle_gamma 56.159501
_cell_volume 528.432818
_symmetry_space_group_name_H-M "P -1"
_symmetry_group_IT_number 2
_symmetry_cell_setting 'triclinic'
loop_
_space_group_symop_operation_xyz
x,y,z
-x,-y,-z
loop_
_atom_site_type_symbol
_atom_site_label
_atom_site_fract_x
_atom_site_fract_y
_atom_site_fract_z
Si Si1 0.748350 0.978782 0.098917
Si Si2 0.630415 0.709686 0.076197
Si Si3 0.479987 0.177415 0.410571
Si Si4 0.343991 0.672433 0.347130
Si Si5 0.923412 0.850175 0.728236
Si Si6 0.284246 0.418619 0.374444
Si Si7 0.455028 0.571200 0.063608
O O1 0.980655 0.807251 0.288254
O O2 0.500000 0.000000 0.000000
O O3 0.540246 0.115528 0.077228
O O4 0.000000 0.000000 0.000000
O O5 0.369744 0.709266 0.175370
O O6 0.652354 0.630659 0.027421
O O7 0.949372 0.584947 0.247276
O O8 0.259540 0.174036 0.334125
O O9 0.274107 0.319780 0.373450
O O10 0.763049 0.173661 0.329917
O O11 0.678552 0.022826 0.617193
O O12 0.500000 0.500000 0.500000
O O13 0.574709 0.668946 0.430010
O O14 0.079274 0.722502 0.938632
O O15 0.517311 0.451424 0.268120
O O16 0.500000 0.500000 0.000000
#
# Coordination Sequence:
#
# PCOD9042016 Si02
#       7
#     2   2   2   2   2   2   2
#     4  10  24  47  75 104 143 187 239 295 363 428
#     4  11  26  45  71 104 146 190 239 299 361 430
#     4  10  23  44  69 100 138 187 238 294 355 416
#     4  11  23  47  73 105 141 183 241 297 355 432
#     4  10  23  44  68  98 143 184 240 294 351 425
#     4  12  25  42  73 103 142 189 239 293 363 421
#     4  12  25  43  69 103 144 188 241 289 360 423
#
# _framework density 26.493435000000002
#
# number of rings (size 3 to 8) (size 9 to 14) (size 15 to 20)
#    0.000    1.143    2.857    2.143    6.000    2.286 
#    0.000    1.429    0.000    0.000    0.000    0.000 
#    0.000    0.000    0.000    0.000    0.000    0.000 
#
# Total GULP energy -78314.774138 kJ/mol
# GULP energy per Si atom -5593.912438 kJ/mol
# Density = 2.643313 g / cm^3
# Si number density = 26.493435 Si / 1000 Ang^3
#
#
#
# Elastic Constant Matrix: (Units=GPa)
#
#
# Indices 1 2 3 4 5 6 
#
# 1 125.1622 31.2822 21.7930 -10.0082 17.5945 14.1267
# 2 31.2822 134.0326 49.2877 -37.9049 10.0114 12.7429
# 3 21.7930 49.2877 138.3453 -35.4027 16.3804 2.2383
# 4 -10.0082 -37.9049 -35.4027 54.4799 -7.0703 4.4963
# 5 17.5945 10.0114 16.3804 -7.0703 49.5253 -2.3759
# 6 14.1267 12.7429 2.2383 4.4963 -2.3759 42.6891
#
#
#
# Elastic Compliance Matrix: (Units=1/GPa)
#
#
# Indices 1 2 3 4 5 6 
#
# 1 0.009169 -0.001412 -0.000492 0.000233 -0.002909 -0.002773
# 2 -0.001412 0.010530 -0.001890 0.006068 -0.000291 -0.003232
# 3 -0.000492 -0.001890 0.009350 0.004450 -0.001917 -0.000339
# 4 0.000233 0.006068 0.004450 0.026001 0.000699 -0.004822
# 5 -0.002909 -0.000291 -0.001917 0.000699 0.022128 0.002308
# 6 -0.002773 -0.003232 -0.000339 -0.004822 0.002308 0.025962
#
#
# Mechanical properties :
#
#
# Convention : Reuss Voigt Hill
#
# Bulk Modulus (GPa) = 46.59408 66.91843 56.75625
# Shear Modulus (GPa) = 42.41516 49.01733 45.71625
#
# Velocity S-wave (km/s) = 4.00555 4.30603 4.15850
# Velocity P-wave (km/s) = 6.24642 7.07360 6.67284
#
# Compressibility (1/GPa) = 0.02146196
#
# Stress axis : x y z
#
# Youngs Moduli (GPa) = 109.06515 94.96252 106.94904
#
# Poissons Ratio (x) = 0.13408 0.05265
# Poissons Ratio (y) = 0.15399 0.20209
# Poissons Ratio (z) = 0.05369 0.17944
#
# Static dielectric constant tensor:
#      x y z
#    x 1.859380 -0.165960 0.155940 
#    y -0.165960 2.076220 0.084090 
#    z 0.155940 0.084090 1.949530 
# 
# From -- ./inp_files/367481.got.cif
#   From: 2010.05.17/outbox.cif.g08.bks.cpg/sg2_184_cif.got.tgz:367481.got - 2010.06.03 11:33:40.
