data_PCOD9042327
_publ_section_title
;
Structure prediction by ZEFSAII (Michael W. Deem and Ramdas Pophale) SiO2 
 PCOD9042327
Probable space group: P -1
;
_chemical_formula_sum "Si O2"
_cell_formula_units_Z 15
_cell_length_a 22.179204
_cell_length_b 16.820376
_cell_length_c 5.955504
_cell_angle_alpha 100.995840
_cell_angle_beta 66.039652
_cell_angle_gamma 157.218200
_cell_volume 671.964502
_symmetry_space_group_name_H-M "P -1"
_symmetry_group_IT_number 2
_symmetry_cell_setting 'triclinic'
loop_
_space_group_symop_operation_xyz
x,y,z
-x,-y,-z
loop_
_atom_site_type_symbol
_atom_site_label
_atom_site_fract_x
_atom_site_fract_y
_atom_site_fract_z
Si Si1 0.599196 0.385524 0.092859
Si Si2 0.294781 0.051674 0.742338
Si Si3 0.650310 0.200747 0.191364
Si Si4 0.029252 0.390205 0.734976
Si Si5 0.974292 0.181744 0.359146
Si Si6 0.374874 0.980685 0.158422
Si Si7 0.597234 0.697543 0.908397
Si Si8 0.000000 0.500000 0.500000
O O1 0.480907 0.235284 0.422005
O O2 0.828002 0.636166 0.903540
O O3 0.495946 0.195633 0.995840
O O4 0.538215 0.401662 0.096636
O O5 0.137646 0.907255 0.727842
O O6 0.366844 0.208978 0.872071
O O7 0.184495 0.860734 0.966039
O O8 0.820035 0.441199 0.196294
O O9 0.533994 0.119028 0.143212
O O10 0.500000 0.000000 0.500000
O O11 0.724753 0.206121 0.948614
O O12 0.037346 0.324032 0.518127
O O13 0.074705 0.523918 0.602482
O O14 0.808574 0.935846 0.597136
O O15 0.169052 0.765377 0.464040
O O16 0.500000 0.500000 0.000000
#
# Coordination Sequence:
#
# PCOD9042327 Si02
#       8
#     2   2   2   2   2   2   2   1
#     4  11  24  43  69  99 136 176 229 276 337 414
#     4  10  23  44  70  97 132 178 218 284 341 402
#     4  11  23  41  60  85 126 176 228 279 325 376
#     4  11  24  42  65  91 136 184 228 288 338 388
#     4  10  23  45  70  99 136 177 226 276 334 409
#     4  11  25  38  60  94 124 172 230 278 322 387
#     4  10  24  47  72 105 139 168 212 275 345 419
#     4  12  24  40  58  86 130 172 236 280 330 386
#
# _framework density 22.322609
#
# number of rings (size 3 to 8) (size 9 to 14) (size 15 to 20)
#    0.000    1.333    1.333    4.000    5.600    8.533 
#    2.400    1.333    0.000    0.000    0.000    0.000 
#    0.000    0.000    0.000    0.000    0.000    0.000 
#
# Total GULP energy -83703.239987 kJ/mol
# GULP energy per Si atom -5580.215999 kJ/mol
# Density = 2.227180 g / cm^3
# Si number density = 22.322609 Si / 1000 Ang^3
#
#
#
# Elastic Constant Matrix: (Units=GPa)
#
#
# Indices 1 2 3 4 5 6 
#
# 1 78.7602 21.0922 33.1952 -32.9041 -1.0270 -3.4689
# 2 21.0922 80.9526 34.8806 -22.9887 -2.0916 3.3985
# 3 33.1952 34.8806 112.5654 -22.3544 -9.4266 1.9734
# 4 -32.9041 -22.9887 -22.3544 46.0483 0.5216 1.7604
# 5 -1.0270 -2.0916 -9.4266 0.5216 30.8498 -19.0706
# 6 -3.4689 3.3985 1.9734 1.7604 -19.0706 36.7564
#
#
#
# Elastic Compliance Matrix: (Units=1/GPa)
#
#
# Indices 1 2 3 4 5 6 
#
# 1 0.019191 -0.000293 -0.003184 0.011951 0.000489 0.001691
# 2 -0.000293 0.015789 -0.003717 0.005981 -0.001692 -0.002452
# 3 -0.003184 -0.003717 0.011562 0.001381 0.004054 0.001460
# 4 0.011951 0.005981 0.001381 0.033957 -0.000066 -0.001160
# 5 0.000489 -0.001692 0.004054 -0.000066 0.049390 0.025614
# 6 0.001691 -0.002452 0.001460 -0.001160 0.025614 0.040859
#
#
# Mechanical properties :
#
#
# Convention : Reuss Voigt Hill
#
# Bulk Modulus (GPa) = 31.09985 50.06824 40.58405
# Shear Modulus (GPa) = 25.52922 34.93825 30.23373
#
# Velocity S-wave (km/s) = 3.38546 3.96049 3.68421
# Velocity P-wave (km/s) = 5.40777 6.58726 6.02644
#
# Compressibility (1/GPa) = 0.03215449
#
# Stress axis : x y z
#
# Youngs Moduli (GPa) = 52.10855 63.33713 86.48652
#
# Poissons Ratio (x) = 0.01855 0.27536
# Poissons Ratio (y) = 0.01526 0.32146
# Poissons Ratio (z) = 0.16591 0.23542
#
# Static dielectric constant tensor:
#      x y z
#    x 1.760840 -0.005870 0.075150 
#    y -0.005870 1.873830 0.074080 
#    z 0.075150 0.074080 1.702550 
# 
# From -- ./inp_files/124758.got.cif
#   From: 2010.05.17/outbox.cif.g08.bks.cpg/sg2_63_cif.got.tgz:124758.got - 2010.06.03 11:33:40.
