data_PCOD9042810
_publ_section_title
;
Structure prediction by ZEFSAII (Michael W. Deem and Ramdas Pophale) SiO2 
 PCOD9042810
Probable space group: P -1
;
_chemical_formula_sum "Si O2"
_cell_formula_units_Z 16
_cell_length_a 8.270087
_cell_length_b 17.138734
_cell_length_c 5.105376
_cell_angle_alpha 107.797095
_cell_angle_beta 110.891880
_cell_angle_gamma 68.615192
_cell_volume 616.549458
_symmetry_space_group_name_H-M "P -1"
_symmetry_group_IT_number 2
_symmetry_cell_setting 'triclinic'
loop_
_space_group_symop_operation_xyz
x,y,z
-x,-y,-z
loop_
_atom_site_type_symbol
_atom_site_label
_atom_site_fract_x
_atom_site_fract_y
_atom_site_fract_z
Si Si1 0.132719 0.518780 0.881438
Si Si2 0.131272 0.677060 0.749263
Si Si3 0.285813 0.014535 0.355362
Si Si4 0.304490 0.351510 0.505037
Si Si5 0.958684 0.212981 0.696436
Si Si6 0.291639 0.168596 0.183033
Si Si7 0.274751 0.911472 0.734174
Si Si8 0.532935 0.598964 0.871012
O O1 0.061194 0.613223 0.828507
O O2 0.170655 0.442167 0.614628
O O3 0.336331 0.496226 0.098921
O O4 0.000000 0.500000 0.000000
O O5 0.325573 0.612079 0.723154
O O6 0.058586 0.715920 0.466700
O O7 0.129404 0.750563 0.035131
O O8 0.225846 0.107148 0.280931
O O9 0.500000 0.000000 0.500000
O O10 0.222222 0.987751 0.567801
O O11 0.249293 0.950417 0.049294
O O12 0.253197 0.263720 0.373058
O O13 0.383704 0.364619 0.286104
O O14 0.452347 0.343691 0.810427
O O15 0.846091 0.151216 0.458860
O O16 0.168909 0.175123 0.860813
O O17 0.507537 0.133152 0.219528
#
# Coordination Sequence:
#
# PCOD9042810 Si02
#       8
#     2   2   2   2   2   2   2   2
#     4  10  27  48  74 109 152 198 259 320 382 454
#     4  12  26  48  72 110 153 199 267 312 378 460
#     4  10  23  44  80 111 148 201 246 308 379 460
#     4  10  25  43  75 106 145 201 248 312 388 437
#     4  12  30  45  76 111 152 205 252 322 374 450
#     4  11  25  48  72 112 153 193 257 309 382 452
#     4  11  24  49  76 110 152 198 249 311 382 452
#     4  10  23  46  75 102 142 206 248 319 382 441
#
# _framework density 25.950877999999999
#
# number of rings (size 3 to 8) (size 9 to 14) (size 15 to 20)
#    0.750    0.500    0.000    4.875    3.500   11.000 
#    0.000    0.625    0.000    0.000    0.000    0.000 
#    0.000    0.000    0.000    0.000    0.000    0.000 
#
# Total GULP energy -89580.883220 kJ/mol
# GULP energy per Si atom -5598.805201 kJ/mol
# Density = 2.589181 g / cm^3
# Si number density = 25.950878 Si / 1000 Ang^3
#
#
#
# Elastic Constant Matrix: (Units=GPa)
#
#
# Indices 1 2 3 4 5 6 
#
# 1 -714.8847 423.9313-1497.9190 -382.1663 1147.2758 -362.8408
# 2 423.9313 -15.5303 783.8506 149.3476 -534.8537 172.9248
# 3 -1497.9190 783.8506-2722.9891 -715.1687 2183.8209 -685.1107
# 4 -382.1663 149.3476 -715.1687 -112.0124 532.2465 -167.3712
# 5 1147.2758 -534.8537 2183.8209 532.2465-1588.4038 517.9908
# 6 -362.8408 172.9248 -685.1107 -167.3712 517.9908 -127.8412
#
#
#
# Elastic Compliance Matrix: (Units=1/GPa)
#
#
# Indices 1 2 3 4 5 6 
#
# 1 0.011502 -0.001898 -0.002785 -0.000426 0.004540 -0.001333
# 2 -0.001898 0.007490 -0.001068 0.003616 -0.003839 0.000952
# 3 -0.002785 -0.001068 0.004857 -0.001389 0.003822 -0.002262
# 4 -0.000426 0.003616 -0.001389 0.017199 0.001861 -0.001432
# 5 0.004540 -0.003839 0.003822 0.001861 0.011045 0.003753
# 6 -0.001333 0.000952 -0.002262 -0.001432 0.003753 0.026449
#
#
# Mechanical properties :
#
#
# Convention : Reuss Voigt Hill
#
# Bulk Modulus (GPa) = 80.98493 -448.18651 -183.60079
# Shear Modulus (GPa) = 53.10209 -576.53594 -261.71692
#
# Velocity S-wave (km/s) = 4.52846 -14.92135 -10.05335
# Velocity P-wave (km/s) = 7.65620 21.67816 14.34095
#
# Compressibility (1/GPa) = 0.01234798
#
# Stress axis : x y z
#
# Youngs Moduli (GPa) = 86.94345 133.51184 205.89906
#
# Poissons Ratio (x) = 0.25336 0.57342
# Poissons Ratio (y) = 0.16499 0.21983
# Poissons Ratio (z) = 0.24213 0.14254
#
# Static dielectric constant tensor:
#      x y z
#    x 2.147320 -0.071590 0.102090 
#    y -0.071590 2.026300 0.002420 
#    z 0.102090 0.002420 2.045620 
# 
# From -- ./inp_files/48641.got.cif
#   From: 2010.05.17/outbox.cif.g08.bks.cpg/sg2_25_cif.got.tgz:48641.got - 2010.06.03 11:33:40.
