data_PCOD9042409
_publ_section_title
;
Structure prediction by ZEFSAII (Michael W. Deem and Ramdas Pophale) SiO2 
 PCOD9042409
Probable space group: P -1
;
_chemical_formula_sum "Si O2"
_cell_formula_units_Z 12
_cell_length_a 5.203108
_cell_length_b 5.058530
_cell_length_c 17.746419
_cell_angle_alpha 116.757457
_cell_angle_beta 94.522362
_cell_angle_gamma 91.032002
_cell_volume 415.021205
_symmetry_space_group_name_H-M "P -1"
_symmetry_group_IT_number 2
_symmetry_cell_setting 'triclinic'
loop_
_space_group_symop_operation_xyz
x,y,z
-x,-y,-z
loop_
_atom_site_type_symbol
_atom_site_label
_atom_site_fract_x
_atom_site_fract_y
_atom_site_fract_z
Si Si1 0.912576 0.139631 0.322862
Si Si2 0.821370 0.763985 0.046390
Si Si3 0.454104 0.569508 0.128474
Si Si4 0.780939 0.722438 0.465699
Si Si5 0.836521 0.829793 0.822712
Si Si6 0.582851 0.065019 0.637721
O O1 0.013415 0.251062 0.258815
O O2 0.123517 0.907739 0.322716
O O3 0.917423 0.418965 0.415736
O O4 0.619834 0.009981 0.309574
O O5 0.724494 0.708004 0.122746
O O6 0.605391 0.692963 0.969137
O O7 0.959083 0.090646 0.094908
O O8 0.000000 0.500000 0.000000
O O9 0.381876 0.409168 0.184342
O O10 0.283181 0.853106 0.151036
O O11 0.615635 0.794312 0.544710
O O12 0.569868 0.718855 0.391649
O O13 0.000000 0.000000 0.500000
#
# Coordination Sequence:
#
# PCOD9042409 Si02
#       6
#     2   2   2   2   2   2
#     4  12  28  45  70 106 152 191 245 311 384 452
#     4   9  21  44  73 101 139 190 249 306 367 448
#     4  10  23  44  71 104 140 191 252 304 370 451
#     4  11  25  46  78 103 141 190 255 309 368 452
#     4  11  26  44  68 105 150 194 242 311 383 449
#     4  11  26  46  71 105 139 192 245 304 373 444
#
# _framework density 28.914182
#
# number of rings (size 3 to 8) (size 9 to 14) (size 15 to 20)
#    0.000    1.333    1.667    1.500    9.333    8.667 
#    0.000    0.000    0.000    0.000    0.000    0.000 
#    0.000    0.000    0.000    0.000    0.000    0.000 
#
# Total GULP energy -67178.706222 kJ/mol
# GULP energy per Si atom -5598.225519 kJ/mol
# Density = 2.884837 g / cm^3
# Si number density = 28.914182 Si / 1000 Ang^3
#
#
#
# Elastic Constant Matrix: (Units=GPa)
#
#
# Indices 1 2 3 4 5 6 
#
# 1 158.3296 46.0659 35.0832 1.0032 -31.5451 5.8232
# 2 46.0659 132.0757 43.3139 2.0292 -20.8663 10.6350
# 3 35.0832 43.3139 152.5747 -22.1204 -47.2430 14.7981
# 4 1.0032 2.0292 -22.1204 48.9293 14.7869 -8.7291
# 5 -31.5451 -20.8663 -47.2430 14.7869 66.6708 -4.3706
# 6 5.8232 10.6350 14.7981 -8.7291 -4.3706 52.1781
#
#
#
# Elastic Compliance Matrix: (Units=1/GPa)
#
#
# Indices 1 2 3 4 5 6 
#
# 1 0.007591 -0.002010 -0.000420 -0.001191 0.002912 -0.000274
# 2 -0.002010 0.009193 -0.002028 -0.001726 0.000787 -0.001297
# 3 -0.000420 -0.002028 0.009304 0.002516 0.005114 -0.001329
# 4 -0.001191 -0.001726 0.002516 0.023578 -0.004330 0.003353
# 5 0.002912 0.000787 0.005114 -0.004330 0.021149 -0.000889
# 6 -0.000274 -0.001297 -0.001329 0.003353 -0.000889 0.020323
#
#
# Mechanical properties :
#
#
# Convention : Reuss Voigt Hill
#
# Bulk Modulus (GPa) = 58.23319 76.87844 67.55581
# Shear Modulus (GPa) = 47.26875 54.79010 51.02943
#
# Velocity S-wave (km/s) = 4.04765 4.35779 4.20558
# Velocity P-wave (km/s) = 6.48292 7.20879 6.85547
#
# Compressibility (1/GPa) = 0.01717234
#
# Stress axis : x y z
#
# Youngs Moduli (GPa) = 131.72823 108.77978 107.48407
#
# Poissons Ratio (x) = 0.21863 0.04509
# Poissons Ratio (y) = 0.26475 0.21803
# Poissons Ratio (z) = 0.05526 0.22066
#
# Static dielectric constant tensor:
#      x y z
#    x 2.324950 -0.009510 0.175800 
#    y -0.009510 2.207280 -0.103210 
#    z 0.175800 -0.103210 2.317970 
# 
# From -- ./inp_files/581241.got.cif
#   From: 2010.05.17/outbox.cif.g08.bks.cpg/sg2_291_cif.got.tgz:581241.got - 2010.06.03 11:33:40.
