data_PCOD9042975
_publ_section_title
;
Structure prediction by ZEFSAII (Michael W. Deem and Ramdas Pophale) SiO2 
 PCOD9042975
Probable space group: P -1
;
_chemical_formula_sum "Si O2"
_cell_formula_units_Z 12
_cell_length_a 7.262361
_cell_length_b 7.633059
_cell_length_c 8.358425
_cell_angle_alpha 88.549047
_cell_angle_beta 100.049327
_cell_angle_gamma 77.497949
_cell_volume 444.454049
_symmetry_space_group_name_H-M "P -1"
_symmetry_group_IT_number 2
_symmetry_cell_setting 'triclinic'
loop_
_space_group_symop_operation_xyz
x,y,z
-x,-y,-z
loop_
_atom_site_type_symbol
_atom_site_label
_atom_site_fract_x
_atom_site_fract_y
_atom_site_fract_z
Si Si1 0.569005 0.287659 0.202660
Si Si2 0.338607 0.153544 0.397679
Si Si3 0.540685 0.694708 0.282626
Si Si4 0.936876 0.631031 0.234812
Si Si5 0.828714 0.174134 0.934372
Si Si6 0.065185 0.743151 0.588130
O O1 0.388729 0.210105 0.227597
O O2 0.515922 0.500293 0.223791
O O3 0.316612 0.768591 0.940868
O O4 0.735616 0.205602 0.356874
O O5 0.126832 0.124136 0.387169
O O6 0.932213 0.428535 0.289862
O O7 0.500000 0.000000 0.500000
O O8 0.713219 0.736244 0.198200
O O9 0.334619 0.827796 0.225579
O O10 0.634544 0.686432 0.474990
O O11 0.035097 0.697818 0.402692
O O12 0.057985 0.673123 0.103370
O O13 0.000000 0.000000 0.000000
#
# Coordination Sequence:
#
# PCOD9042975 Si02
#       6
#     2   2   2   2   2   2
#     4  11  24  42  67  95 126 174 212 257 320 383
#     4  11  24  39  69  98 127 161 214 275 319 365
#     4  10  23  45  67  90 127 172 216 260 307 388
#     4   9  20  42  66  93 123 167 214 258 314 374
#     4  12  27  39  63  96 138 169 205 264 322 379
#     4   9  20  40  70  91 121 163 218 265 304 377
#
# _framework density 26.999417000000001
#
# number of rings (size 3 to 8) (size 9 to 14) (size 15 to 20)
#    0.000    1.667    0.000    4.000    7.000    5.333 
#    0.000    0.000    0.000    0.000    0.000    0.000 
#    0.000    0.000    0.000    0.000    0.000    0.000 
#
# Total GULP energy -67145.487786 kJ/mol
# GULP energy per Si atom -5595.457316 kJ/mol
# Density = 2.693797 g / cm^3
# Si number density = 26.999417 Si / 1000 Ang^3
#
#
#
# Elastic Constant Matrix: (Units=GPa)
#
#
# Indices 1 2 3 4 5 6 
#
# 1 90.8713 5.6682 36.7148 -9.1229 -3.4139 -14.2388
# 2 5.6682 69.7470 21.3490 -14.1564 -9.2531 -22.5439
# 3 36.7148 21.3490 86.3972 -10.6531 9.4814 -13.4990
# 4 -9.1229 -14.1564 -10.6531 33.2139 -14.0574 3.9307
# 5 -3.4139 -9.2531 9.4814 -14.0574 66.2655 -4.5099
# 6 -14.2388 -22.5439 -13.4990 3.9307 -4.5099 42.3772
#
#
#
# Elastic Compliance Matrix: (Units=1/GPa)
#
#
# Indices 1 2 3 4 5 6 
#
# 1 0.014601 0.003613 -0.006172 0.004444 0.003410 0.004812
# 2 0.003613 0.022204 -0.004722 0.010556 0.006969 0.011284
# 3 -0.006172 -0.004722 0.015727 -0.000041 -0.003230 0.000084
# 4 0.004444 0.010556 -0.000041 0.039697 0.010438 0.004525
# 5 0.003410 0.006969 -0.003230 0.010438 0.019250 0.004905
# 6 0.004812 0.011284 0.000084 0.004525 0.004905 0.031347
#
#
# Mechanical properties :
#
#
# Convention : Reuss Voigt Hill
#
# Bulk Modulus (GPa) = 26.33723 41.60884 33.97304
# Shear Modulus (GPa) = 29.40419 40.59020 34.99720
#
# Velocity S-wave (km/s) = 3.30368 3.88154 3.60421
# Velocity P-wave (km/s) = 4.93238 5.96095 5.47089
#
# Compressibility (1/GPa) = 0.03796906
#
# Stress axis : x y z
#
# Youngs Moduli (GPa) = 68.48739 45.03750 63.58659
#
# Poissons Ratio (x) = -0.16270 0.39244
# Poissons Ratio (y) = -0.24741 0.30025
# Poissons Ratio (z) = 0.42269 0.21266
#
# Static dielectric constant tensor:
#      x y z
#    x 2.041730 -0.027160 0.007560 
#    y -0.027160 2.343720 0.085080 
#    z 0.007560 0.085080 2.197740 
# 
# From -- ./inp_files/386957.got.cif
#   From: 2010.05.17/outbox.cif.g08.bks.cpg/sg2_194_cif.got.tgz:386957.got - 2010.06.03 11:33:40.
