data_PCOD9042804
_publ_section_title
;
Structure prediction by ZEFSAII (Michael W. Deem and Ramdas Pophale) SiO2 
 PCOD9042804
Probable space group: P -1
;
_chemical_formula_sum "Si O2"
_cell_formula_units_Z 16
_cell_length_a 9.123849
_cell_length_b 12.196444
_cell_length_c 7.304042
_cell_angle_alpha 128.050607
_cell_angle_beta 85.701244
_cell_angle_gamma 77.810514
_cell_volume 602.991165
_symmetry_space_group_name_H-M "P -1"
_symmetry_group_IT_number 2
_symmetry_cell_setting 'triclinic'
loop_
_space_group_symop_operation_xyz
x,y,z
-x,-y,-z
loop_
_atom_site_type_symbol
_atom_site_label
_atom_site_fract_x
_atom_site_fract_y
_atom_site_fract_z
Si Si1 0.489090 0.421282 0.615202
Si Si2 0.786735 0.665017 0.215890
Si Si3 0.712210 0.320007 0.823450
Si Si4 0.613662 0.833548 0.837085
Si Si5 0.502482 0.154525 0.737188
Si Si6 0.058245 0.133441 0.662864
Si Si7 0.026411 0.569405 0.758722
Si Si8 0.069832 0.125960 0.054737
O O1 0.500000 0.500000 0.500000
O O2 0.379581 0.553886 0.893208
O O3 0.648600 0.363601 0.666199
O O4 0.435926 0.282622 0.402732
O O5 0.607088 0.711100 0.234942
O O6 0.818699 0.817347 0.410801
O O7 0.852470 0.553294 0.257468
O O8 0.667979 0.176498 0.737431
O O9 0.898520 0.273574 0.781862
O O10 0.880741 0.613635 0.961713
O O11 0.790200 0.839752 0.818488
O O12 0.575166 0.804573 0.017827
O O13 0.500000 0.000000 0.000000
O O14 0.500000 0.000000 0.500000
O O15 0.000000 0.000000 0.500000
O O16 0.137032 0.086813 0.805432
O O17 0.057717 0.716587 0.829937
O O18 0.000000 0.500000 0.500000
O O19 0.000000 0.000000 0.000000
#
# Coordination Sequence:
#
# PCOD9042804 Si02
#       8
#     2   2   2   2   2   2   2   2
#     4  11  26  51  81 118 166 205 270 339 405 496
#     4  10  24  48  71 112 155 202 263 329 397 482
#     4  11  27  47  79 120 155 215 263 328 414 486
#     4  12  27  49  79 116 158 214 272 336 413 492
#     4  12  24  48  76 113 163 213 272 335 408 485
#     4  11  25  48  74 109 161 209 263 336 408 480
#     4  10  23  44  78 110 148 202 256 325 407 481
#     4  11  28  50  73 117 157 204 272 332 413 490
#
# _framework density 26.534385
#
# number of rings (size 3 to 8) (size 9 to 14) (size 15 to 20)
#    0.000    1.000    3.750    1.500    5.250   11.000 
#    0.000    1.250    0.000    0.000    0.000    0.000 
#    0.000    0.000    0.000    0.000    0.000    0.000 
#
# Total GULP energy -89298.319459 kJ/mol
# GULP energy per Si atom -5581.144966 kJ/mol
# Density = 2.647399 g / cm^3
# Si number density = 26.534385 Si / 1000 Ang^3
#
#
#
# Elastic Constant Matrix: (Units=GPa)
#
#
# Indices 1 2 3 4 5 6 
#
# 1 123.3708 45.9463 21.0881 -1.6305 21.9196 -10.0646
# 2 45.9463 210.9091 76.9070 0.8077 23.5426 -5.9849
# 3 21.0881 76.9070 181.6254 -15.5881 28.3088 0.5921
# 4 -1.6305 0.8077 -15.5881 78.2842 5.0441 9.3675
# 5 21.9196 23.5426 28.3088 5.0441 40.8983 14.9121
# 6 -10.0646 -5.9849 0.5921 9.3675 14.9121 43.2809
#
#
#
# Elastic Compliance Matrix: (Units=1/GPa)
#
#
# Indices 1 2 3 4 5 6 
#
# 1 0.010097 -0.001535 0.000491 0.000225 -0.006466 0.004308
# 2 -0.001535 0.006087 -0.002220 -0.000579 -0.001494 0.001155
# 3 0.000491 -0.002220 0.007234 0.001656 -0.004528 0.000910
# 4 0.000225 -0.000579 0.001656 0.013511 -0.001734 -0.002377
# 5 -0.006466 -0.001494 -0.004528 -0.001734 0.037271 -0.014115
# 6 0.004308 0.001155 0.000910 -0.002377 -0.014115 0.029631
#
#
# Mechanical properties :
#
#
# Convention : Reuss Voigt Hill
#
# Bulk Modulus (GPa) = 59.20976 89.30978 74.25977
# Shear Modulus (GPa) = 43.10744 57.29027 50.19886
#
# Velocity S-wave (km/s) = 4.03499 4.65165 4.35425
# Velocity P-wave (km/s) = 6.63860 7.91086 7.30249
#
# Compressibility (1/GPa) = 0.01688911
#
# Stress axis : x y z
#
# Youngs Moduli (GPa) = 99.04133 164.28179 138.24023
#
# Poissons Ratio (x) = 0.25225 -0.06786
# Poissons Ratio (y) = 0.15207 0.30686
# Poissons Ratio (z) = -0.04862 0.36466
#
# Static dielectric constant tensor:
#      x y z
#    x 2.116340 -0.028520 -0.052080 
#    y -0.028520 2.571440 -0.019930 
#    z -0.052080 -0.019930 2.261520 
# 
# From -- ./inp_files/190799.got.cif
#   From: 2010.05.17/outbox.cif.g08.bks.cpg/sg2_96_cif.got.tgz:190799.got - 2010.06.03 11:33:40.
