data_PCOD9042571
_publ_section_title
;
Structure prediction by ZEFSAII (Michael W. Deem and Ramdas Pophale) SiO2 
 PCOD9042571
Probable space group: P -1
;
_chemical_formula_sum "Si O2"
_cell_formula_units_Z 16
_cell_length_a 15.213409
_cell_length_b 5.548632
_cell_length_c 9.424402
_cell_angle_alpha 95.153364
_cell_angle_beta 121.641047
_cell_angle_gamma 90.514493
_cell_volume 673.074907
_symmetry_space_group_name_H-M "P -1"
_symmetry_group_IT_number 2
_symmetry_cell_setting 'triclinic'
loop_
_space_group_symop_operation_xyz
x,y,z
-x,-y,-z
loop_
_atom_site_type_symbol
_atom_site_label
_atom_site_fract_x
_atom_site_fract_y
_atom_site_fract_z
Si Si1 0.928330 0.240876 0.824831
Si Si2 0.277897 0.916569 0.847316
Si Si3 0.394525 0.440773 0.989588
Si Si4 0.390691 0.480187 0.323185
Si Si5 0.623869 0.001326 0.576709
Si Si6 0.898260 0.079394 0.086195
Si Si7 0.776269 0.938878 0.480613
Si Si8 0.942548 0.602286 0.592447
O O1 0.931246 0.441720 0.716422
O O2 0.846043 0.041319 0.676013
O O3 0.894687 0.263413 0.960694
O O4 0.044961 0.152833 0.932055
O O5 0.324589 0.659425 0.898040
O O6 0.208271 0.966967 0.926707
O O7 0.352195 0.163590 0.908008
O O8 0.216266 0.901354 0.645798
O O9 0.500000 0.500000 0.000000
O O10 0.409591 0.467958 0.172315
O O11 0.500000 0.500000 0.500000
O O12 0.336821 0.223679 0.313235
O O13 0.337663 0.724926 0.334198
O O14 0.660423 0.941823 0.445289
O O15 0.500000 0.000000 0.500000
O O16 0.977175 0.179375 0.279408
O O17 0.829481 0.694982 0.470512
O O18 0.000000 0.500000 0.500000
#
# Coordination Sequence:
#
# PCOD9042571 Si02
#       8
#     2   2   2   2   2   2   2   2
#     4  10  23  44  72  98 151 183 251 295 373 437
#     4  12  29  47  76 105 151 189 249 302 370 447
#     4  12  30  49  74 107 149 194 241 307 375 437
#     4  10  24  46  75  99 136 188 241 297 363 424
#     4  10  24  42  72 102 142 184 244 301 353 429
#     4  10  24  45  66 109 139 194 237 313 364 434
#     4  11  27  42  70 107 140 197 247 297 372 440
#     4  11  23  43  74 104 150 191 246 302 377 449
#
# _framework density 23.7715
#
# number of rings (size 3 to 8) (size 9 to 14) (size 15 to 20)
#    0.000    1.250    0.000    3.000   17.500    2.000 
#    0.000    0.000    0.000    0.000    0.000    0.000 
#    0.000    0.000    0.000    0.000    0.000    0.000 
#
# Total GULP energy -89367.288815 kJ/mol
# GULP energy per Si atom -5585.455551 kJ/mol
# Density = 2.371740 g / cm^3
# Si number density = 23.771500 Si / 1000 Ang^3
#
#
#
# Elastic Constant Matrix: (Units=GPa)
#
#
# Indices 1 2 3 4 5 6 
#
# 1 133.1962 25.6099 24.2506 -3.6614 -34.4602 -1.2962
# 2 25.6099 127.3547 27.7151 -12.4422 -9.5716 3.9401
# 3 24.2506 27.7151 125.3622 -11.5861 -28.1640 -10.6780
# 4 -3.6614 -12.4422 -11.5861 41.1497 8.0152 -3.5724
# 5 -34.4602 -9.5716 -28.1640 8.0152 44.0187 -2.3410
# 6 -1.2962 3.9401 -10.6780 -3.5724 -2.3410 25.5658
#
#
#
# Elastic Compliance Matrix: (Units=1/GPa)
#
#
# Indices 1 2 3 4 5 6 
#
# 1 0.009740 -0.001563 0.000218 -0.000916 0.007666 0.001400
# 2 -0.001563 0.008751 -0.001835 0.002005 -0.000966 -0.002002
# 3 0.000218 -0.001835 0.010396 0.001614 0.006419 0.005449
# 4 -0.000916 0.002005 0.001614 0.026348 -0.003852 0.003648
# 5 0.007666 -0.000966 0.006419 -0.003852 0.033624 0.005759
# 6 0.001400 -0.002002 0.005449 0.003648 0.005759 0.042807
#
#
# Mechanical properties :
#
#
# Convention : Reuss Voigt Hill
#
# Bulk Modulus (GPa) = 44.38849 60.11825 52.25337
# Shear Modulus (GPa) = 34.35631 42.70270 38.52950
#
# Velocity S-wave (km/s) = 3.80580 4.24297 4.03032
# Velocity P-wave (km/s) = 6.16650 7.02486 6.60963
#
# Compressibility (1/GPa) = 0.02252836
#
# Stress axis : x y z
#
# Youngs Moduli (GPa) = 102.66599 114.27526 96.19313
#
# Poissons Ratio (x) = 0.17859 -0.02099
# Poissons Ratio (y) = 0.16045 0.17648
# Poissons Ratio (z) = -0.02240 0.20965
#
# Static dielectric constant tensor:
#      x y z
#    x 2.116690 0.689600 -0.047240 
#    y 0.689600 3.973120 -0.192920 
#    z -0.047240 -0.192920 1.935860 
# 
# From -- ./inp_files/39325.got.cif
#   From: 2010.05.17/outbox.cif.g08.bks.cpg/sg2_20_cif.got.tgz:39325.got - 2010.06.03 11:33:40.
