data_PCOD9042362
_publ_section_title
;
Structure prediction by ZEFSAII (Michael W. Deem and Ramdas Pophale) SiO2 
 PCOD9042362
Probable space group: P -1
;
_chemical_formula_sum "Si O2"
_cell_formula_units_Z 16
_cell_length_a 12.277500
_cell_length_b 12.206361
_cell_length_c 10.220659
_cell_angle_alpha 118.327202
_cell_angle_beta 110.068200
_cell_angle_gamma 34.053864
_cell_volume 751.109076
_symmetry_space_group_name_H-M "P -1"
_symmetry_group_IT_number 2
_symmetry_cell_setting 'triclinic'
loop_
_space_group_symop_operation_xyz
x,y,z
-x,-y,-z
loop_
_atom_site_type_symbol
_atom_site_label
_atom_site_fract_x
_atom_site_fract_y
_atom_site_fract_z
Si Si1 0.517862 0.722816 0.563071
Si Si2 0.661633 0.760476 0.890491
Si Si3 0.700449 0.758759 0.476799
Si Si4 0.117829 0.768499 0.921685
Si Si5 0.891117 0.985186 0.368451
Si Si6 0.372341 0.623566 0.701472
Si Si7 0.049598 0.356045 0.244765
Si Si8 0.749046 0.438894 0.861733
O O1 0.579533 0.743660 0.729991
O O2 0.631269 0.690877 0.475278
O O3 0.282572 0.927693 0.570812
O O4 0.584447 0.522853 0.467503
O O5 0.843011 0.678562 0.856166
O O6 0.708684 0.621566 0.945971
O O7 0.500000 0.000000 0.000000
O O8 0.819416 0.728880 0.621138
O O9 0.844824 0.602779 0.329082
O O10 0.500000 0.000000 0.500000
O O11 0.273524 0.648071 0.801639
O O12 0.983068 0.763215 0.843777
O O13 0.217872 0.652499 0.035999
O O14 0.000000 0.000000 0.000000
O O15 0.776031 0.149274 0.294131
O O16 0.000000 0.000000 0.500000
O O17 0.054954 0.751658 0.250080
O O18 0.569323 0.521669 0.768659
#
# Coordination Sequence:
#
# PCOD9042362 Si02
#       8
#     2   2   2   2   2   2   2   2
#     4  11  23  45  71 102 141 184 236 303 357 419
#     4  11  27  48  74 101 150 195 239 303 356 437
#     4  10  23  44  71 100 136 184 237 298 352 422
#     4  12  27  47  74 104 148 190 236 302 362 433
#     4  12  24  41  73 108 141 183 238 299 364 428
#     4  12  24  49  71 106 147 179 247 300 357 437
#     4  10  25  47  69 102 139 185 244 291 355 427
#     4  12  27  46  73 105 142 200 236 293 372 427
#
# _framework density 21.301833999999999
#
# number of rings (size 3 to 8) (size 9 to 14) (size 15 to 20)
#    0.000    0.750    5.000    1.500    5.250    4.500 
#    0.000    0.000    0.000    0.000    0.000    0.000 
#    0.000    0.000    0.000    0.000    0.000    0.000 
#
# Total GULP energy -89484.867807 kJ/mol
# GULP energy per Si atom -5592.804238 kJ/mol
# Density = 2.125335 g / cm^3
# Si number density = 21.301834 Si / 1000 Ang^3
#
#
#
# Elastic Constant Matrix: (Units=GPa)
#
#
# Indices 1 2 3 4 5 6 
#
# 1 151.8965 53.9399 57.3663 11.3544 7.0399 -9.0697
# 2 53.9399 132.9371 52.3931 18.5418 7.2232 3.9133
# 3 57.3663 52.3931 93.4682 21.0523 -2.4867 6.4280
# 4 11.3544 18.5418 21.0523 30.3993 2.7957 5.8467
# 5 7.0399 7.2232 -2.4867 2.7957 38.8074 6.5970
# 6 -9.0697 3.9133 6.4280 5.8467 6.5970 42.3962
#
#
#
# Elastic Compliance Matrix: (Units=1/GPa)
#
#
# Indices 1 2 3 4 5 6 
#
# 1 0.009459 -0.001860 -0.005230 0.000814 -0.002314 0.003236
# 2 -0.001860 0.010353 -0.004113 -0.002598 -0.001646 -0.000115
# 3 -0.005230 -0.004113 0.018335 -0.008018 0.003982 -0.003033
# 4 0.000814 -0.002598 -0.008018 0.040649 -0.002496 -0.003588
# 5 -0.002314 -0.001646 0.003982 -0.002496 0.027766 -0.004923
# 6 0.003236 -0.000115 -0.003033 -0.003588 -0.004923 0.026011
#
#
# Mechanical properties :
#
#
# Convention : Reuss Voigt Hill
#
# Bulk Modulus (GPa) = 63.52654 78.41115 70.96884
# Shear Modulus (GPa) = 31.20625 36.62744 33.91684
#
# Velocity S-wave (km/s) = 3.83163 4.15112 3.99457
# Velocity P-wave (km/s) = 7.03292 7.73726 7.39349
#
# Compressibility (1/GPa) = 0.01574145
#
# Stress axis : x y z
#
# Youngs Moduli (GPa) = 105.72253 96.59005 54.54126
#
# Poissons Ratio (x) = 0.17962 0.28527
# Poissons Ratio (y) = 0.19660 0.22431
# Poissons Ratio (z) = 0.55296 0.39723
#
# Static dielectric constant tensor:
#      x y z
#    x 1.770870 0.004410 -0.021020 
#    y 0.004410 1.751870 -0.016460 
#    z -0.021020 -0.016460 1.768350 
# 
# From -- ./inp_files/428757.got.cif
#   From: 2010.05.17/outbox.cif.g08.bks.cpg/sg2_215_cif.got.tgz:428757.got - 2010.06.03 11:33:40.
