data_PCOD9042391
_publ_section_title
;
Structure prediction by ZEFSAII (Michael W. Deem and Ramdas Pophale) SiO2 
 PCOD9042391
Probable space group: P -1
;
_chemical_formula_sum "Si O2"
_cell_formula_units_Z 13
_cell_length_a 4.930656
_cell_length_b 5.162050
_cell_length_c 19.021935
_cell_angle_alpha 69.267059
_cell_angle_beta 90.355019
_cell_angle_gamma 84.162838
_cell_volume 449.987134
_symmetry_space_group_name_H-M "P -1"
_symmetry_group_IT_number 2
_symmetry_cell_setting 'triclinic'
loop_
_space_group_symop_operation_xyz
x,y,z
-x,-y,-z
loop_
_atom_site_type_symbol
_atom_site_label
_atom_site_fract_x
_atom_site_fract_y
_atom_site_fract_z
Si Si1 0.763261 0.131314 0.563353
Si Si2 0.996339 0.630568 0.096100
Si Si3 0.334658 0.048379 0.121925
Si Si4 0.345856 0.028679 0.277145
Si Si5 0.795637 0.412507 0.254430
Si Si6 0.500000 0.000000 0.000000
Si Si7 0.874200 0.439954 0.411407
O O1 0.668764 0.294398 0.476139
O O2 0.001635 0.308664 0.574406
O O3 0.578557 0.119456 0.633720
O O4 0.886124 0.819222 0.573877
O O5 0.883015 0.621197 0.176416
O O6 0.133999 0.321451 0.110801
O O7 0.753350 0.738163 0.035142
O O8 0.239505 0.835540 0.081084
O O9 0.376825 0.898472 0.211927
O O10 0.586450 0.121490 0.069288
O O11 0.520811 0.286874 0.246963
O O12 0.031887 0.150183 0.275383
O O13 0.788561 0.511612 0.324923
#
# Coordination Sequence:
#
# PCOD9042391 Si02
#       7
#     2   2   2   2   2   1   2
#     4   9  18  37  65 100 140 184 234 289 348 416
#     4  11  27  48  72 108 145 187 245 300 368 442
#     4  11  27  48  72 108 145 187 245 300 368 442
#     4  10  23  44  71 102 144 189 239 293 356 428
#     4  10  23  44  71 102 144 189 239 293 356 428
#     4  12  28  46  84 100 148 188 240 308 372 442
#     4   9  18  37  65 100 140 184 234 289 348 416
#
# _framework density 28.889711999999999
#
# number of rings (size 3 to 8) (size 9 to 14) (size 15 to 20)
#    0.000    1.846    0.000    1.846    8.615    1.846 
#    0.000    0.000    0.000   16.615    0.000    0.000 
#    0.000    0.000    0.000    0.000    0.000    0.308 
#
# Total GULP energy -72714.717056 kJ/mol
# GULP energy per Si atom -5593.439774 kJ/mol
# Density = 2.882396 g / cm^3
# Si number density = 28.889712 Si / 1000 Ang^3
#
#
#
# Elastic Constant Matrix: (Units=GPa)
#
#
# Indices 1 2 3 4 5 6 
#
# 1 90.5175 69.4861 36.8659 -2.6599 1.8702 9.9555
# 2 69.4861 99.5294 35.3404 17.0691 1.5362 -9.4795
# 3 36.8659 35.3404 259.8132 22.2256 -14.2656 -14.8225
# 4 -2.6599 17.0691 22.2256 63.2154 -12.8868 -17.8811
# 5 1.8702 1.5362 -14.2656 -12.8868 43.0177 10.8457
# 6 9.9555 -9.4795 -14.8225 -17.8811 10.8457 48.9904
#
#
#
# Elastic Compliance Matrix: (Units=1/GPa)
#
#
# Indices 1 2 3 4 5 6 
#
# 1 0.030221 -0.022316 -0.002145 0.005943 0.002972 -0.009597
# 2 -0.022316 0.027585 0.000259 -0.006964 -0.004113 0.008320
# 3 -0.002145 0.000259 0.004334 -0.001173 0.000873 0.001176
# 4 0.005943 -0.006964 -0.001173 0.020317 0.004821 0.003438
# 5 0.002972 -0.004113 0.000873 0.004821 0.026309 -0.005200
# 6 -0.009597 0.008320 0.001176 0.003438 -0.005200 0.026734
#
#
# Mechanical properties :
#
#
# Convention : Reuss Voigt Hill
#
# Bulk Modulus (GPa) = 72.80876 81.47166 77.14021
# Shear Modulus (GPa) = 26.52742 51.58922 39.05832
#
# Velocity S-wave (km/s) = 3.03352 4.23037 3.68092
# Velocity P-wave (km/s) = 6.12590 7.21967 6.69516
#
# Compressibility (1/GPa) = 0.01373461
#
# Stress axis : x y z
#
# Youngs Moduli (GPa) = 33.08923 36.25094 230.75915
#
# Poissons Ratio (x) = 0.80898 0.49508
# Poissons Ratio (y) = 0.73843 -0.05972
# Poissons Ratio (z) = 0.07099 -0.00938
#
# Static dielectric constant tensor:
#      x y z
#    x 3.158750 0.141470 -0.781390 
#    y 0.141470 2.276150 -0.127820 
#    z -0.781390 -0.127820 2.943810 
# 
# From -- ./inp_files/580412.got.cif
#   From: 2010.05.17/outbox.cif.g08.bks.cpg/sg2_291_cif.got.tgz:580412.got - 2010.06.03 11:33:40.
