data_PCOD9042422
_publ_section_title
;
Structure prediction by ZEFSAII (Michael W. Deem and Ramdas Pophale) SiO2 
 PCOD9042422
Probable space group: P -1
;
_chemical_formula_sum "Si O2"
_cell_formula_units_Z 14
_cell_length_a 6.169558
_cell_length_b 25.712642
_cell_length_c 7.332658
_cell_angle_alpha 142.492263
_cell_angle_beta 65.056971
_cell_angle_gamma 128.422488
_cell_volume 548.649754
_symmetry_space_group_name_H-M "P -1"
_symmetry_group_IT_number 2
_symmetry_cell_setting 'triclinic'
loop_
_space_group_symop_operation_xyz
x,y,z
-x,-y,-z
loop_
_atom_site_type_symbol
_atom_site_label
_atom_site_fract_x
_atom_site_fract_y
_atom_site_fract_z
Si Si1 0.665561 0.648948 0.972904
Si Si2 0.616314 0.321579 0.507520
Si Si3 0.699985 0.986363 0.251735
Si Si4 0.248079 0.140541 0.858057
Si Si5 0.167728 0.797803 0.779490
Si Si6 0.799828 0.178180 0.585914
Si Si7 0.320970 0.543009 0.455163
O O1 0.517582 0.684689 0.267239
O O2 0.344037 0.584650 0.359531
O O3 0.992847 0.731055 0.104461
O O4 0.620349 0.545542 0.780714
O O5 0.871711 0.304964 0.416146
O O6 0.480828 0.372968 0.232984
O O7 0.428371 0.231056 0.186419
O O8 0.876767 0.958303 0.244530
O O9 0.500000 0.000000 0.500000
O O10 0.837934 0.084654 0.354663
O O11 0.489068 0.888842 0.938690
O O12 0.479589 0.146522 0.653874
O O13 0.010899 0.162441 0.944892
O O14 0.112381 0.787234 0.555005
O O15 0.000000 0.500000 0.500000
#
# Coordination Sequence:
#
# PCOD9042422 Si02
#       7
#     2   2   2   2   2   2   2
#     4  11  26  49  75 107 143 194 238 304 369 429
#     4  11  25  46  72 107 147 186 241 299 363 437
#     4   9  22  43  66 108 145 197 245 296 356 422
#     4  10  23  44  71 105 148 192 241 301 356 420
#     4  11  24  45  70 109 149 195 243 294 361 429
#     4  11  23  47  73 107 148 190 252 293 366 430
#     4  11  27  49  75 109 140 187 247 297 371 439
#
# _framework density 25.517187
#
# number of rings (size 3 to 8) (size 9 to 14) (size 15 to 20)
#    0.000    1.429    1.429    1.714    4.000    9.143 
#    2.571    0.000    0.000    0.000    0.000    0.000 
#    0.000    0.000    0.000    0.000    0.000    0.000 
#
# Total GULP energy -78379.019864 kJ/mol
# GULP energy per Si atom -5598.501419 kJ/mol
# Density = 2.545911 g / cm^3
# Si number density = 25.517187 Si / 1000 Ang^3
#
#
#
# Elastic Constant Matrix: (Units=GPa)
#
#
# Indices 1 2 3 4 5 6 
#
# 1 138.5236 56.2551 26.6424 3.2837 -7.9486 -18.7594
# 2 56.2551 86.6725 16.3923 -1.6757 -8.6783 -13.5171
# 3 26.6424 16.3923 61.5753 -4.1524 -6.8567 -3.1007
# 4 3.2837 -1.6757 -4.1524 44.5526 2.1223 -7.8721
# 5 -7.9486 -8.6783 -6.8567 2.1223 50.7282 10.8653
# 6 -18.7594 -13.5171 -3.1007 -7.8721 10.8653 47.2747
#
#
#
# Elastic Compliance Matrix: (Units=1/GPa)
#
#
# Indices 1 2 3 4 5 6 
#
# 1 0.010508 -0.005964 -0.002931 -0.000879 -0.000198 0.002172
# 2 -0.005964 0.016139 -0.001400 0.001233 0.001136 0.002100
# 3 -0.002931 -0.001400 0.018169 0.001682 0.001795 -0.000504
# 4 -0.000879 0.001233 0.001682 0.023571 -0.001631 0.004414
# 5 -0.000198 0.001136 0.001795 -0.001631 0.021211 -0.004783
# 6 0.002172 0.002100 -0.000504 0.004414 -0.004783 0.024416
#
#
# Mechanical properties :
#
#
# Convention : Reuss Voigt Hill
#
# Bulk Modulus (GPa) = 41.27975 53.92789 47.60382
# Shear Modulus (GPa) = 35.04309 41.00986 38.02648
#
# Velocity S-wave (km/s) = 3.70984 4.01327 3.86454
# Velocity P-wave (km/s) = 5.87903 6.53108 6.21361
#
# Compressibility (1/GPa) = 0.02422495
#
# Stress axis : x y z
#
# Youngs Moduli (GPa) = 95.16208 61.96235 55.03836
#
# Poissons Ratio (x) = 0.36957 0.16132
# Poissons Ratio (y) = 0.56758 0.07707
# Poissons Ratio (z) = 0.27892 0.08677
#
# Static dielectric constant tensor:
#      x y z
#    x 2.101880 -0.001390 -0.017770 
#    y -0.001390 2.039560 0.047900 
#    z -0.017770 0.047900 1.998660 
# 
# From -- ./inp_files/143012.got.cif
#   From: 2010.05.17/outbox.cif.g08.bks.cpg/sg2_72_cif.got.tgz:143012.got - 2010.06.03 11:33:40.
