data_PCOD9042056
_publ_section_title
;
Structure prediction by ZEFSAII (Michael W. Deem and Ramdas Pophale) SiO2 
 PCOD9042056
Probable space group: P -1
;
_chemical_formula_sum "Si O2"
_cell_formula_units_Z 16
_cell_length_a 8.878167
_cell_length_b 13.351135
_cell_length_c 8.297640
_cell_angle_alpha 92.171863
_cell_angle_beta 49.217530
_cell_angle_gamma 99.795267
_cell_volume 730.338824
_symmetry_space_group_name_H-M "P -1"
_symmetry_group_IT_number 2
_symmetry_cell_setting 'triclinic'
loop_
_space_group_symop_operation_xyz
x,y,z
-x,-y,-z
loop_
_atom_site_type_symbol
_atom_site_label
_atom_site_fract_x
_atom_site_fract_y
_atom_site_fract_z
Si Si1 0.587483 0.652783 0.564065
Si Si2 0.634045 0.040709 0.564957
Si Si3 0.582502 0.157053 0.163407
Si Si4 0.652805 0.232405 0.761628
Si Si5 0.297182 0.310210 0.889976
Si Si6 0.003474 0.605173 0.410952
Si Si7 0.806344 0.481480 0.021038
Si Si8 0.956672 0.106337 0.107667
O O1 0.526206 0.756818 0.678155
O O2 0.632129 0.665150 0.343043
O O3 0.786494 0.624908 0.507070
O O4 0.393803 0.567094 0.742789
O O5 0.580822 0.142793 0.679358
O O6 0.862336 0.072973 0.346203
O O7 0.500000 0.000000 0.500000
O O8 0.578321 0.949108 0.722897
O O9 0.780755 0.143720 0.126886
O O10 0.648416 0.184211 0.937556
O O11 0.489572 0.303873 0.864200
O O12 0.873075 0.298158 0.573997
O O13 0.209623 0.406283 0.021651
O O14 0.140692 0.202339 0.993398
O O15 0.000000 0.500000 0.500000
O O16 0.143449 0.593716 0.156590
O O17 0.000000 0.500000 0.000000
O O18 0.000000 0.000000 0.000000
#
# Coordination Sequence:
#
# PCOD9042056 Si02
#       8
#     2   2   2   2   2   2   2   2
#     4  12  25  49  72 105 145 195 239 291 361 424
#     4  10  23  44  69 101 138 184 235 291 352 435
#     4  11  23  45  71 101 146 181 235 301 359 428
#     4  12  26  45  70 107 143 188 237 300 368 417
#     4  12  25  41  74 101 140 193 241 293 354 428
#     4  12  29  47  71 106 152 188 239 305 358 420
#     4  12  26  47  73 106 141 192 251 289 351 431
#     4  11  23  45  72 105 139 188 240 290 357 437
#
# _framework density 21.907641000000002
#
# number of rings (size 3 to 8) (size 9 to 14) (size 15 to 20)
#    0.000    0.500    2.500    6.750    5.250    1.000 
#    0.000    1.875    0.000    0.000    0.000    0.000 
#    0.000    0.000    0.000    0.000    0.000    0.000 
#
# Total GULP energy -89510.133059 kJ/mol
# GULP energy per Si atom -5594.383316 kJ/mol
# Density = 2.185778 g / cm^3
# Si number density = 21.907641 Si / 1000 Ang^3
#
#
#
# Elastic Constant Matrix: (Units=GPa)
#
#
# Indices 1 2 3 4 5 6 
#
# 1 115.9827 36.9680 27.8373 -22.3640 -28.3233 -9.1647
# 2 36.9680 132.7022 30.2202 -9.7585 -23.5323 0.5165
# 3 27.8373 30.2202 83.8214 -27.3061 -27.4375 1.9571
# 4 -22.3640 -9.7585 -27.3061 52.1265 1.6587 -4.4795
# 5 -28.3233 -23.5323 -27.4375 1.6587 32.1798 2.3887
# 6 -9.1647 0.5165 1.9571 -4.4795 2.3887 37.2715
#
#
#
# Elastic Compliance Matrix: (Units=1/GPa)
#
#
# Indices 1 2 3 4 5 6 
#
# 1 0.012831 -0.001581 0.001897 0.006112 0.011210 0.003093
# 2 -0.001581 0.009020 -0.001318 0.000129 0.004125 -0.000693
# 3 0.001897 -0.001318 0.021481 0.011190 0.018480 -0.000483
# 4 0.006112 0.000129 0.011190 0.027557 0.013344 0.003370
# 5 0.011210 0.004125 0.018480 0.013344 0.059061 -0.000453
# 6 0.003093 -0.000693 -0.000483 0.003370 -0.000453 0.028060
#
#
# Mechanical properties :
#
#
# Convention : Reuss Voigt Hill
#
# Bulk Modulus (GPa) = 24.19734 58.06192 41.12963
# Shear Modulus (GPa) = 28.77016 40.14764 34.45890
#
# Velocity S-wave (km/s) = 3.62781 4.28552 3.97030
# Velocity P-wave (km/s) = 5.34950 7.14480 6.31131
#
# Compressibility (1/GPa) = 0.04132686
#
# Stress axis : x y z
#
# Youngs Moduli (GPa) = 77.93604 110.86359 46.55222
#
# Poissons Ratio (x) = 0.17530 -0.08831
# Poissons Ratio (y) = 0.12323 0.06138
# Poissons Ratio (z) = -0.14784 0.14617
#
# Static dielectric constant tensor:
#      x y z
#    x 1.821070 -0.011150 -0.003540 
#    y -0.011150 1.859510 0.017180 
#    z -0.003540 0.017180 1.832450 
# 
# From -- ./inp_files/187337.got.cif
#   From: 2010.05.17/outbox.cif.g08.bks.cpg/sg2_94_cif.got.tgz:187337.got - 2010.06.03 11:33:40.
