data_PCOD9042794
_publ_section_title
;
Structure prediction by ZEFSAII (Michael W. Deem and Ramdas Pophale) SiO2 
 PCOD9042794
Probable space group: P -1
;
_chemical_formula_sum "Si O2"
_cell_formula_units_Z 16
_cell_length_a 16.755336
_cell_length_b 5.325784
_cell_length_c 22.841740
_cell_angle_alpha 64.208935
_cell_angle_beta 159.299523
_cell_angle_gamma 107.120779
_cell_volume 606.761390
_symmetry_space_group_name_H-M "P -1"
_symmetry_group_IT_number 2
_symmetry_cell_setting 'triclinic'
loop_
_space_group_symop_operation_xyz
x,y,z
-x,-y,-z
loop_
_atom_site_type_symbol
_atom_site_label
_atom_site_fract_x
_atom_site_fract_y
_atom_site_fract_z
Si Si1 0.433972 0.708252 0.491260
Si Si2 0.944247 0.185170 0.623466
Si Si3 0.563370 0.408597 0.793989
Si Si4 0.090987 0.142318 0.602121
Si Si5 0.612343 0.710215 0.020391
Si Si6 0.737013 0.738829 0.799314
Si Si7 0.130554 0.636770 0.883609
Si Si8 0.989894 0.140285 0.878924
O O1 0.500000 0.500000 0.500000
O O2 0.576170 0.613782 0.658261
O O3 0.145026 0.824341 0.280376
O O4 0.500000 0.000000 0.500000
O O5 0.989966 0.060622 0.601694
O O6 0.182921 0.239378 0.804168
O O7 0.713925 0.489802 0.426300
O O8 0.939097 0.922958 0.690692
O O9 0.655223 0.340406 0.930580
O O10 0.378980 0.999669 0.818047
O O11 0.619704 0.706700 0.783106
O O12 0.751045 0.118017 0.920314
O O13 0.000000 0.500000 0.500000
O O14 0.000000 0.000000 0.500000
O O15 0.735230 0.569661 0.057788
O O16 0.500000 0.500000 0.000000
O O17 0.812317 0.027670 0.809110
O O18 0.000000 0.500000 0.000000
O O19 0.003325 0.468464 0.857329
#
# Coordination Sequence:
#
# PCOD9042794 Si02
#       8
#     2   2   2   2   2   2   2   2
#     4  10  23  44  77 112 151 210 277 333 400 479
#     4  12  29  50  82 115 168 208 271 343 417 493
#     4  11  27  50  73 119 166 208 276 342 415 481
#     4  12  28  50  87 122 159 210 272 335 417 499
#     4  12  27  54  80 116 160 214 275 333 415 505
#     4   9  22  47  73 111 162 212 274 336 403 476
#     4  12  28  47  80 113 164 212 274 338 416 484
#     4  10  25  47  79 109 161 216 275 331 408 484
#
# _framework density 26.369509999999998
#
# number of rings (size 3 to 8) (size 9 to 14) (size 15 to 20)
#    0.000    1.000    1.250    2.625   14.000    2.500 
#    9.000    0.000    0.000    0.000    0.000    0.000 
#    0.000    0.000    0.000    0.000    0.000    0.000 
#
# Total GULP energy -89341.575346 kJ/mol
# GULP energy per Si atom -5583.848459 kJ/mol
# Density = 2.630949 g / cm^3
# Si number density = 26.369510 Si / 1000 Ang^3
#
#
#
# Elastic Constant Matrix: (Units=GPa)
#
#
# Indices 1 2 3 4 5 6 
#
# 1 86.7335 27.7556 38.7381 6.1564 -17.7721 -11.7539
# 2 27.7556 135.1353 57.5023 -1.2041 -11.3582 7.4780
# 3 38.7381 57.5023 259.6916 9.4470 19.6349 -18.8808
# 4 6.1564 -1.2041 9.4470 48.6952 -4.2839 0.3903
# 5 -17.7721 -11.3582 19.6349 -4.2839 60.6105 -0.0905
# 6 -11.7539 7.4780 -18.8808 0.3903 -0.0905 46.7129
#
#
#
# Elastic Compliance Matrix: (Units=1/GPa)
#
#
# Indices 1 2 3 4 5 6 
#
# 1 0.014368 -0.002039 -0.001738 -0.001176 0.004316 0.003257
# 2 -0.002039 0.009020 -0.002074 0.001067 0.001836 -0.002801
# 3 -0.001738 -0.002074 0.004939 -0.001031 -0.002568 0.001894
# 4 -0.001176 0.001067 -0.001031 0.021067 0.001676 -0.001056
# 5 0.004316 0.001836 -0.002568 0.001676 0.019058 -0.000223
# 6 0.003257 -0.002801 0.001894 -0.001056 -0.000223 0.023449
#
#
# Mechanical properties :
#
#
# Convention : Reuss Voigt Hill
#
# Bulk Modulus (GPa) = 60.15852 81.06139 70.60995
# Shear Modulus (GPa) = 45.80989 55.04135 50.42562
#
# Velocity S-wave (km/s) = 4.17253 4.57367 4.37769
# Velocity P-wave (km/s) = 6.78797 7.66150 7.23792
#
# Compressibility (1/GPa) = 0.01662275
#
# Stress axis : x y z
#
# Youngs Moduli (GPa) = 69.60020 110.86073 202.47889
#
# Poissons Ratio (x) = 0.22608 0.35199
# Poissons Ratio (y) = 0.14194 0.42002
# Poissons Ratio (z) = 0.12099 0.22997
#
# Static dielectric constant tensor:
#      x y z
#    x -0.473260 1.764880 4.541700 
#    y 1.764880 1.090720 -3.013180 
#    z 4.541700 -3.013180 -5.643790 
# 
# From -- ./inp_files/598889.got.cif
#   From: 2010.05.17/outbox.cif.g08.bks.cpg/sg2_300_cif.got.tgz:598889.got - 2010.06.03 11:33:40.
