data_PCOD9042835
_publ_section_title
;
Structure prediction by ZEFSAII (Michael W. Deem and Ramdas Pophale) SiO2 
 PCOD9042835
Probable space group: P -1
;
_chemical_formula_sum "Si O2"
_cell_formula_units_Z 16
_cell_length_a 14.061043
_cell_length_b 17.363459
_cell_length_c 26.065513
_cell_angle_alpha 18.284917
_cell_angle_beta 21.902874
_cell_angle_gamma 21.212977
_cell_volume 669.530998
_symmetry_space_group_name_H-M "P -1"
_symmetry_group_IT_number 2
_symmetry_cell_setting 'triclinic'
loop_
_space_group_symop_operation_xyz
x,y,z
-x,-y,-z
loop_
_atom_site_type_symbol
_atom_site_label
_atom_site_fract_x
_atom_site_fract_y
_atom_site_fract_z
Si Si1 0.296389 0.382564 0.955341
Si Si2 0.759895 0.031143 0.058646
Si Si3 0.514130 0.730743 0.253304
Si Si4 0.258294 0.660017 0.316964
Si Si5 0.154772 0.397604 0.174948
Si Si6 0.846201 0.508428 0.675711
Si Si7 0.094320 0.562282 0.627091
Si Si8 0.230084 0.772234 0.833065
O O1 0.438253 0.051645 0.095341
O O2 0.504537 0.468551 0.763559
O O3 0.219185 0.540480 0.947626
O O4 0.000000 0.500000 0.000000
O O5 0.443624 0.166713 0.153434
O O6 0.803563 0.733066 0.210283
O O7 0.798565 0.236151 0.869705
O O8 0.000000 0.000000 0.000000
O O9 0.403148 0.703092 0.269348
O O10 0.329414 0.658799 0.433106
O O11 0.842457 0.509831 0.234361
O O12 0.072102 0.504065 0.524433
O O13 0.030453 0.949906 0.226496
O O14 0.130811 0.273673 0.320637
O O15 0.223988 0.660940 0.963911
O O16 0.533593 0.758105 0.675824
O O17 0.966392 0.533699 0.655126
#
# Coordination Sequence:
#
# PCOD9042835 Si02
#       8
#     2   2   2   2   2   2   2   2
#     4  12  24  42  66  94 134 169 211 264 323 386
#     4   9  21  42  61  91 126 164 216 259 310 375
#     4  11  23  43  65  98 130 167 218 262 319 387
#     4  11  22  45  65  94 131 167 210 270 326 375
#     4  11  23  40  66  95 127 175 209 262 324 375
#     4   9  22  41  67  95 126 164 216 267 312 387
#     4  10  23  45  64  92 134 168 215 269 314 378
#     4  11  23  40  66  97 127 168 215 262 323 386
#
# _framework density 23.897326
#
# number of rings (size 3 to 8) (size 9 to 14) (size 15 to 20)
#    0.000    1.500    2.500    1.875    3.500    5.500 
#    9.000    3.750    0.000    0.000    0.000    0.000 
#    0.000    0.000    0.000    0.000    0.000    0.000 
#
# Total GULP energy -89366.640343 kJ/mol
# GULP energy per Si atom -5585.415021 kJ/mol
# Density = 2.384293 g / cm^3
# Si number density = 23.897326 Si / 1000 Ang^3
#
#
#
# Elastic Constant Matrix: (Units=GPa)
#
#
# Indices 1 2 3 4 5 6 
#
# 1 74.9433 21.4658 28.5038 13.2257 8.8693 -3.5333
# 2 21.4658 80.5354 38.0043 34.8863 -1.1915 -6.4581
# 3 28.5038 38.0043 155.3764 45.6062 15.8529 15.1595
# 4 13.2257 34.8863 45.6062 40.9629 7.2094 4.9111
# 5 8.8693 -1.1915 15.8529 7.2094 40.1856 10.6573
# 6 -3.5333 -6.4581 15.1595 4.9111 10.6573 31.2584
#
#
#
# Elastic Compliance Matrix: (Units=1/GPa)
#
#
# Indices 1 2 3 4 5 6 
#
# 1 0.015571 -0.002971 -0.002119 0.000090 -0.003603 0.003388
# 2 -0.002971 0.022022 -0.000243 -0.018822 0.003131 0.006222
# 3 -0.002119 -0.000243 0.010218 -0.009922 -0.000893 -0.003382
# 4 0.000090 -0.018822 -0.009922 0.052971 -0.004626 -0.005812
# 5 -0.003603 0.003131 -0.000893 -0.004626 0.029226 -0.008565
# 6 0.003388 0.006222 -0.003382 -0.005812 -0.008565 0.039133
#
#
# Mechanical properties :
#
#
# Convention : Reuss Voigt Hill
#
# Bulk Modulus (GPa) = 26.92229 54.08921 40.50575
# Shear Modulus (GPa) = 26.01608 37.34011 31.67809
#
# Velocity S-wave (km/s) = 3.30307 3.95716 3.64482
# Velocity P-wave (km/s) = 5.08304 6.60015 5.89064
#
# Compressibility (1/GPa) = 0.03714394
#
# Stress axis : x y z
#
# Youngs Moduli (GPa) = 64.22338 45.40852 97.87058
#
# Poissons Ratio (x) = 0.13490 0.20741
# Poissons Ratio (y) = 0.19079 0.02381
# Poissons Ratio (z) = 0.13610 0.01105
#
# Static dielectric constant tensor:
#      x y z
#    x 1.970880 -0.002770 0.021670 
#    y -0.002770 1.991590 0.023970 
#    z 0.021670 0.023970 1.939950 
# 
# From -- ./inp_files/619721.got.cif
#   From: 2010.05.17/outbox.cif.g08.bks.cpg/sg2_310_cif.got.tgz:619721.got - 2010.06.03 11:33:40.
