data_PCOD9042296
_publ_section_title
;
Structure prediction by ZEFSAII (Michael W. Deem and Ramdas Pophale) SiO2 
 PCOD9042296
Probable space group: P -1
;
_chemical_formula_sum "Si O2"
_cell_formula_units_Z 16
_cell_length_a 14.833957
_cell_length_b 9.434796
_cell_length_c 15.333615
_cell_angle_alpha 133.396519
_cell_angle_beta 39.251936
_cell_angle_gamma 101.583378
_cell_volume 684.233199
_symmetry_space_group_name_H-M "P -1"
_symmetry_group_IT_number 2
_symmetry_cell_setting 'triclinic'
loop_
_space_group_symop_operation_xyz
x,y,z
-x,-y,-z
loop_
_atom_site_type_symbol
_atom_site_label
_atom_site_fract_x
_atom_site_fract_y
_atom_site_fract_z
Si Si1 0.917149 0.696042 0.257658
Si Si2 0.451408 0.230175 0.071621
Si Si3 0.649793 0.382009 0.558383
Si Si4 0.982410 0.213891 0.954753
Si Si5 0.400489 0.254309 0.747271
Si Si6 0.117529 0.089493 0.448751
Si Si7 0.726924 0.727187 0.962426
Si Si8 0.634618 0.255110 0.224197
O O1 0.890081 0.817052 0.234309
O O2 0.818774 0.906640 0.500013
O O3 0.880252 0.500182 0.199489
O O4 0.159687 0.482430 0.003389
O O5 0.670912 0.121498 0.850994
O O6 0.298279 0.527212 0.362309
O O7 0.362884 0.256379 0.055448
O O8 0.500000 0.000000 0.000000
O O9 0.497630 0.364036 0.697652
O O10 0.523124 0.627381 0.686267
O O11 0.849250 0.076284 0.241543
O O12 0.812725 0.231503 0.056176
O O13 0.500000 0.000000 0.500000
O O14 0.410910 0.197563 0.818515
O O15 0.952320 0.410149 0.672928
O O16 0.000000 0.000000 0.500000
O O17 0.729524 0.958688 0.058692
O O18 0.500000 0.500000 0.500000
#
# Coordination Sequence:
#
# PCOD9042296 Si02
#       8
#     2   2   2   2   2   2   2   2
#     4  10  23  44  70 108 138 185 243 301 354 432
#     4  12  28  48  72 104 148 194 242 296 358 446
#     4  12  26  46  73 104 143 188 242 298 361 434
#     4  11  26  42  74 105 142 188 237 301 366 426
#     4  11  21  44  73 105 142 180 240 301 357 424
#     4  11  28  48  73 106 147 190 249 302 356 435
#     4  11  28  46  74 106 144 196 239 299 365 432
#     4  12  28  46  72 107 150 190 235 300 373 438
#
# _framework density 23.383838999999998
#
# number of rings (size 3 to 8) (size 9 to 14) (size 15 to 20)
#    0.000    0.750    3.750    2.250    8.750    2.000 
#    0.000    0.000    0.000    0.000    0.000    0.000 
#    0.000    0.000    0.000    0.000    0.000    0.000 
#
# Total GULP energy -89580.826440 kJ/mol
# GULP energy per Si atom -5598.801653 kJ/mol
# Density = 2.333062 g / cm^3
# Si number density = 23.383839 Si / 1000 Ang^3
#
#
#
# Elastic Constant Matrix: (Units=GPa)
#
#
# Indices 1 2 3 4 5 6 
#
# 1 99.5379 16.2114 6.0902 6.7245 14.0867 -4.9024
# 2 16.2114 72.9311 9.9678 17.6403 6.8904 4.3034
# 3 6.0902 9.9678 60.8953 10.2988 8.2860 4.9548
# 4 6.7245 17.6403 10.2988 34.3064 1.2688 7.2497
# 5 14.0867 6.8904 8.2860 1.2688 42.0236 3.8057
# 6 -4.9024 4.3034 4.9548 7.2497 3.8057 33.6003
#
#
#
# Elastic Compliance Matrix: (Units=1/GPa)
#
#
# Indices 1 2 3 4 5 6 
#
# 1 0.011107 -0.001875 -0.000272 -0.001558 -0.003554 0.002639
# 2 -0.001875 0.016261 -0.000946 -0.007566 -0.001586 -0.000405
# 3 -0.000272 -0.000946 0.017870 -0.004449 -0.003030 -0.001251
# 4 -0.001558 -0.007566 -0.004449 0.035998 0.002152 -0.006613
# 5 -0.003554 -0.001586 -0.003030 0.002152 0.026078 -0.003287
# 6 0.002639 -0.000405 -0.001251 -0.006613 -0.003287 0.032182
#
#
# Mechanical properties :
#
#
# Convention : Reuss Voigt Hill
#
# Bulk Modulus (GPa) = 25.60614 33.10038 29.35326
# Shear Modulus (GPa) = 31.50630 35.39238 33.44934
#
# Velocity S-wave (km/s) = 3.67461 3.89465 3.78623
# Velocity P-wave (km/s) = 5.38311 5.86603 5.62975
#
# Compressibility (1/GPa) = 0.03905313
#
# Stress axis : x y z
#
# Youngs Moduli (GPa) = 90.03664 61.49550 55.95967
#
# Poissons Ratio (x) = 0.11530 0.01520
# Poissons Ratio (y) = 0.16881 0.05293
# Poissons Ratio (z) = 0.02445 0.05817
#
# Static dielectric constant tensor:
#      x y z
#    x 1.923800 -0.072730 0.023090 
#    y -0.072730 1.914320 -0.019290 
#    z 0.023090 -0.019290 1.903720 
# 
# From -- ./inp_files/530116.got.cif
#   From: 2010.05.17/outbox.cif.g08.bks.cpg/sg2_266_cif.got.tgz:530116.got - 2010.06.03 11:33:40.
