data_PCOD9042429
_publ_section_title
;
Structure prediction by ZEFSAII (Michael W. Deem and Ramdas Pophale) SiO2 
 PCOD9042429
Probable space group: P -1
;
_chemical_formula_sum "Si O2"
_cell_formula_units_Z 13
_cell_length_a 9.517275
_cell_length_b 8.130199
_cell_length_c 8.361886
_cell_angle_alpha 130.120686
_cell_angle_beta 103.594269
_cell_angle_gamma 71.837501
_cell_volume 469.597707
_symmetry_space_group_name_H-M "P -1"
_symmetry_group_IT_number 2
_symmetry_cell_setting 'triclinic'
loop_
_space_group_symop_operation_xyz
x,y,z
-x,-y,-z
loop_
_atom_site_type_symbol
_atom_site_label
_atom_site_fract_x
_atom_site_fract_y
_atom_site_fract_z
Si Si1 0.005052 0.208399 0.748786
Si Si2 0.000000 0.000000 0.000000
Si Si3 0.155120 0.327693 0.404273
Si Si4 0.289352 0.594780 0.352508
Si Si5 0.472078 0.713311 0.971318
Si Si6 0.723550 0.613971 0.196069
Si Si7 0.765456 0.082722 0.170316
O O1 0.113514 0.357676 0.802484
O O2 0.835034 0.331128 0.771208
O O3 0.087315 0.117519 0.881849
O O4 0.000000 0.000000 0.500000
O O5 0.119806 0.095775 0.204223
O O6 0.863550 0.203317 0.157710
O O7 0.229976 0.417314 0.330102
O O8 0.265648 0.307666 0.570593
O O9 0.000000 0.500000 0.500000
O O10 0.444213 0.475188 0.247383
O O11 0.280681 0.795420 0.599698
O O12 0.359032 0.591610 0.957568
O O13 0.378131 0.911912 0.967293
O O14 0.603039 0.773955 0.150075
#
# Coordination Sequence:
#
# PCOD9042429 Si02
#       7
#     2   1   2   2   2   2   2
#     4  10  23  44  71 106 144 191 255 318 366 443
#     4  12  26  44  78 116 148 200 266 312 388 460
#     4  12  22  46  79 110 153 200 257 326 381 456
#     4  11  23  46  80 108 150 202 258 315 390 447
#     4  11  26  46  77 110 151 211 253 305 395 471
#     4  11  24  46  71 106 152 199 256 304 378 464
#     4  11  24  46  72 110 157 193 255 319 378 459
#
# _framework density 27.683268999999999
#
# number of rings (size 3 to 8) (size 9 to 14) (size 15 to 20)
#    0.000    0.923    4.615    1.385    2.154    4.923 
#    0.000    3.846    0.000    0.000    0.000    0.000 
#    0.000    0.000    0.000    0.000    0.000    0.000 
#
# Total GULP energy -72438.704846 kJ/mol
# GULP energy per Si atom -5572.208065 kJ/mol
# Density = 2.762026 g / cm^3
# Si number density = 27.683269 Si / 1000 Ang^3
#
#
#
# Elastic Constant Matrix: (Units=GPa)
#
#
# Indices 1 2 3 4 5 6 
#
# 1 166.2052 37.1047 25.6467 -8.5869 -13.7784 -2.1192
# 2 37.1047 89.6502 12.8669 -24.6573 -0.1393 -43.0851
# 3 25.6467 12.8669 134.6474 -13.5443 19.6102 -9.9533
# 4 -8.5869 -24.6573 -13.5443 40.7979 -8.7601 29.2900
# 5 -13.7784 -0.1393 19.6102 -8.7601 60.4772 -0.6899
# 6 -2.1192 -43.0851 -9.9533 29.2900 -0.6899 58.8589
#
#
#
# Elastic Compliance Matrix: (Units=1/GPa)
#
#
# Indices 1 2 3 4 5 6 
#
# 1 0.007443 -0.004282 -0.001463 0.001900 0.002390 -0.004031
# 2 -0.004282 0.019864 0.000146 0.001040 -0.000668 0.013886
# 3 -0.001463 0.000146 0.008296 0.001414 -0.002810 0.000720
# 4 0.001900 0.001040 0.001414 0.041105 0.005711 -0.019319
# 5 0.002390 -0.000668 -0.002810 0.005711 0.018777 -0.003500
# 6 -0.004031 0.013886 0.000720 -0.019319 -0.003500 0.036704
#
#
# Mechanical properties :
#
#
# Convention : Reuss Voigt Hill
#
# Bulk Modulus (GPa) = 40.97559 60.19329 50.58444
# Shear Modulus (GPa) = 32.99840 53.01909 43.00874
#
# Velocity S-wave (km/s) = 3.45628 4.38105 3.94585
# Velocity P-wave (km/s) = 5.54631 6.88348 6.25075
#
# Compressibility (1/GPa) = 0.02440478
#
# Stress axis : x y z
#
# Youngs Moduli (GPa) = 134.35041 50.34237 120.53449
#
# Poissons Ratio (x) = 0.21555 0.17640
# Poissons Ratio (y) = 0.57524 -0.01756
# Poissons Ratio (z) = 0.19662 -0.00733
#
# Static dielectric constant tensor:
#      x y z
#    x 1.907810 -0.220710 0.003000 
#    y -0.220710 2.120050 0.018920 
#    z 0.003000 0.018920 2.124600 
# 
# From -- ./inp_files/152526.got.cif
#   From: 2010.05.17/outbox.cif.g08.bks.cpg/sg2_77_cif.got.tgz:152526.got - 2010.06.03 11:33:40.
