data_PCOD9042060
_publ_section_title
;
Structure prediction by ZEFSAII (Michael W. Deem and Ramdas Pophale) SiO2 
 PCOD9042060
Probable space group: P -1
;
_chemical_formula_sum "Si O2"
_cell_formula_units_Z 12
_cell_length_a 5.034121
_cell_length_b 16.265638
_cell_length_c 15.332919
_cell_angle_alpha 154.569558
_cell_angle_beta 119.853771
_cell_angle_gamma 72.405330
_cell_volume 429.477499
_symmetry_space_group_name_H-M "P -1"
_symmetry_group_IT_number 2
_symmetry_cell_setting 'triclinic'
loop_
_space_group_symop_operation_xyz
x,y,z
-x,-y,-z
loop_
_atom_site_type_symbol
_atom_site_label
_atom_site_fract_x
_atom_site_fract_y
_atom_site_fract_z
Si Si1 0.632637 0.822766 0.275538
Si Si2 0.849941 0.209367 0.184492
Si Si3 0.249424 0.352976 0.224623
Si Si4 0.288413 0.800742 0.648434
Si Si5 0.374763 0.569712 0.162337
Si Si6 0.798287 0.971358 0.675969
O O1 0.594971 0.699950 0.241975
O O2 0.354936 0.917616 0.312150
O O3 0.577108 0.644092 0.021928
O O4 0.000000 0.000000 0.500000
O O5 0.162799 0.333618 0.294586
O O6 0.891443 0.215005 0.300982
O O7 0.574397 0.306993 0.214926
O O8 0.657087 0.970814 0.892476
O O9 0.257652 0.571148 0.401223
O O10 0.943001 0.155541 0.945882
O O11 0.106900 0.900627 0.648118
O O12 0.494916 0.745119 0.424596
O O13 0.000000 0.500000 0.000000
#
# Coordination Sequence:
#
# PCOD9042060 Si02
#       6
#     2   2   2   2   2   2
#     4  11  24  44  71  99 131 179 237 289 353 421
#     4  10  24  44  71 100 140 188 233 279 346 416
#     4  11  24  45  69 103 141 185 232 286 343 415
#     4  10  23  44  69 101 139 182 229 286 345 413
#     4  11  24  46  69  95 133 186 227 286 354 422
#     4  11  24  43  66 103 136 176 229 291 344 413
#
# _framework density 27.940932
#
# number of rings (size 3 to 8) (size 9 to 14) (size 15 to 20)
#    0.000    1.333    1.667    2.500    0.000   11.333 
#    9.000    0.000    0.000    0.000    0.000    0.000 
#    0.000    0.000    0.000    0.000    0.000    0.000 
#
# Total GULP energy -67252.817999 kJ/mol
# GULP energy per Si atom -5604.401500 kJ/mol
# Density = 2.787734 g / cm^3
# Si number density = 27.940932 Si / 1000 Ang^3
#
#
#
# Elastic Constant Matrix: (Units=GPa)
#
#
# Indices 1 2 3 4 5 6 
#
# 1 117.3923 33.1353 32.6085 25.5192 15.8355 -7.1015
# 2 33.1353 140.8027 52.3031 16.7358 -5.6321 -31.3612
# 3 32.6085 52.3031 255.5411 26.4607 -22.2152 -22.0116
# 4 25.5192 16.7358 26.4607 59.2300 -11.2658 -2.0211
# 5 15.8355 -5.6321 -22.2152 -11.2658 50.0668 12.6109
# 6 -7.1015 -31.3612 -22.0116 -2.0211 12.6109 40.4685
#
#
#
# Elastic Compliance Matrix: (Units=1/GPa)
#
#
# Indices 1 2 3 4 5 6 
#
# 1 0.011167 -0.001513 -0.000939 -0.004986 -0.005695 0.001802
# 2 -0.001513 0.009506 -0.001102 -0.001497 -0.000973 0.006730
# 3 -0.000939 -0.001102 0.004588 -0.000967 0.001770 0.000877
# 4 -0.004986 -0.001497 -0.000967 0.021022 0.006609 -0.003571
# 5 -0.005695 -0.000973 0.001770 0.006609 0.026103 -0.008595
# 6 0.001802 0.006730 0.000877 -0.003571 -0.008595 0.033219
#
#
# Mechanical properties :
#
#
# Convention : Reuss Voigt Hill
#
# Bulk Modulus (GPa) = 55.08823 83.31445 69.20134
# Shear Modulus (GPa) = 42.10017 56.33234 49.21626
#
# Velocity S-wave (km/s) = 3.88591 4.49500 4.20150
# Velocity P-wave (km/s) = 6.31605 7.53809 6.95396
#
# Compressibility (1/GPa) = 0.01815270
#
# Stress axis : x y z
#
# Youngs Moduli (GPa) = 89.54599 105.20048 217.94721
#
# Poissons Ratio (x) = 0.15917 0.20463
# Poissons Ratio (y) = 0.13549 0.24027
# Poissons Ratio (z) = 0.08407 0.11598
#
# Static dielectric constant tensor:
#      x y z
#    x 2.277330 0.085710 -0.140470 
#    y 0.085710 2.195300 -0.074800 
#    z -0.140470 -0.074800 2.269560 
# 
# From -- ./inp_files/584158.got.cif
#   From: 2010.05.17/outbox.cif.g08.bks.cpg/sg2_293_cif.got.tgz:584158.got - 2010.06.03 11:33:40.
