data_PCOD9042309
_publ_section_title
;
Structure prediction by ZEFSAII (Michael W. Deem and Ramdas Pophale) SiO2 
 PCOD9042309
Probable space group: P -1
;
_chemical_formula_sum "Si O2"
_cell_formula_units_Z 16
_cell_length_a 27.257275
_cell_length_b 6.044048
_cell_length_c 26.720776
_cell_angle_alpha 54.596641
_cell_angle_beta 170.127456
_cell_angle_gamma 125.495526
_cell_volume 613.666212
_symmetry_space_group_name_H-M "P -1"
_symmetry_group_IT_number 2
_symmetry_cell_setting 'triclinic'
loop_
_space_group_symop_operation_xyz
x,y,z
-x,-y,-z
loop_
_atom_site_type_symbol
_atom_site_label
_atom_site_fract_x
_atom_site_fract_y
_atom_site_fract_z
Si Si1 0.875934 0.062758 0.652808
Si Si2 0.959376 0.559670 0.893524
Si Si3 0.993189 0.156615 0.352906
Si Si4 0.518016 0.416775 0.890061
Si Si5 0.664496 0.887217 0.825542
Si Si6 0.670644 0.017922 0.948498
Si Si7 0.250532 0.580022 0.702941
Si Si8 0.427774 0.261096 0.360245
O O1 0.126022 0.875774 0.906699
O O2 0.663667 0.002886 0.398694
O O3 0.116196 0.263705 0.898090
O O4 0.616912 0.063660 0.431996
O O5 0.631274 0.511466 0.553842
O O6 0.122029 0.849524 0.008644
O O7 0.000000 0.500000 0.000000
O O8 0.107338 0.329954 0.041312
O O9 0.169505 0.886150 0.568362
O O10 0.789065 0.149065 0.100896
O O11 0.257489 0.385785 0.592123
O O12 0.754580 0.193882 0.152028
O O13 0.341167 0.436388 0.761269
O O14 0.711167 0.695987 0.039530
O O15 0.554135 0.767468 0.677274
O O16 0.000000 0.500000 0.500000
O O17 0.500000 0.500000 0.000000
O O18 0.500000 0.000000 0.500000
#
# Coordination Sequence:
#
# PCOD9042309 Si02
#       8
#     2   2   2   2   2   2   2   2
#     4  10  23  44  70  93 134 181 206 292 360 402
#     4  12  25  41  67  97 130 176 224 266 323 400
#     4  12  25  44  73 104 135 184 244 287 338 417
#     4  12  25  44  73 104 135 184 244 287 338 417
#     4  11  24  44  65  96 140 167 224 274 344 406
#     4  11  23  48  70  97 134 174 234 290 352 400
#     4  12  26  44  67 104 154 190 226 286 344 406
#     4  12  25  41  67  97 130 176 224 266 323 400
#
# _framework density 26.072804999999999
#
# number of rings (size 3 to 8) (size 9 to 14) (size 15 to 20)
#    0.000    0.500    1.250    8.250    1.750    3.000 
#    0.000   25.000    0.000    0.000    0.000    0.000 
#    0.000    0.000    0.000    0.000    0.000    0.000 
#
# Total GULP energy -89148.053930 kJ/mol
# GULP energy per Si atom -5571.753371 kJ/mol
# Density = 2.601346 g / cm^3
# Si number density = 26.072805 Si / 1000 Ang^3
#
#
#
# Elastic Constant Matrix: (Units=GPa)
#
#
# Indices 1 2 3 4 5 6 
#
# 1 147.2777 39.3946 46.0373 6.3525 -2.0327 -29.5344
# 2 39.3946 77.3145 41.0355 14.1231 -8.4117 -6.4993
# 3 46.0373 41.0355 209.4082 0.6007 -10.1753 -13.2476
# 4 6.3525 14.1231 0.6007 48.3364 -12.6959 4.6317
# 5 -2.0327 -8.4117 -10.1753 -12.6959 60.2719 2.0095
# 6 -29.5344 -6.4993 -13.2476 4.6317 2.0095 28.3634
#
#
#
# Elastic Compliance Matrix: (Units=1/GPa)
#
#
# Indices 1 2 3 4 5 6 
#
# 1 0.009995 -0.003658 -0.000926 -0.001382 -0.000935 0.009430
# 2 -0.003658 0.016938 -0.002487 -0.004138 0.000965 -0.000482
# 3 -0.000926 -0.002487 0.005553 0.000885 0.000717 0.000865
# 4 -0.001382 -0.004138 0.000885 0.023917 0.004771 -0.006218
# 5 -0.000935 0.000965 0.000717 0.004771 0.017903 -0.002465
# 6 0.009430 -0.000482 0.000865 -0.006218 -0.002465 0.046559
#
#
# Mechanical properties :
#
#
# Convention : Reuss Voigt Hill
#
# Bulk Modulus (GPa) = 54.50831 76.32616 65.41723
# Shear Modulus (GPa) = 35.43028 47.89652 41.66340
#
# Velocity S-wave (km/s) = 3.69032 4.29071 4.00179
# Velocity P-wave (km/s) = 6.25376 7.34062 6.81888
#
# Compressibility (1/GPa) = 0.01834583
#
# Stress axis : x y z
#
# Youngs Moduli (GPa) = 100.04564 59.03734 180.07872
#
# Poissons Ratio (x) = 0.21598 0.16666
# Poissons Ratio (y) = 0.36600 0.44780
# Poissons Ratio (z) = 0.09259 0.14681
#
# Static dielectric constant tensor:
#      x y z
#    x 2.119350 0.046780 -0.040570 
#    y 0.046780 2.180700 -0.001830 
#    z -0.040570 -0.001830 1.961140 
# 
# From -- ./inp_files/621059.got.cif
#   From: 2010.05.17/outbox.cif.g08.bks.cpg/sg2_311_cif.got.tgz:621059.got - 2010.06.03 11:33:40.
