data_PCOD9042003
_publ_section_title
;
Structure prediction by ZEFSAII (Michael W. Deem and Ramdas Pophale) SiO2 
 PCOD9042003
Probable space group: P -1
;
_chemical_formula_sum "Si O2"
_cell_formula_units_Z 16
_cell_length_a 9.238169
_cell_length_b 15.996412
_cell_length_c 13.136568
_cell_angle_alpha 61.749408
_cell_angle_beta 65.596626
_cell_angle_gamma 25.986700
_cell_volume 748.900394
_symmetry_space_group_name_H-M "P -1"
_symmetry_group_IT_number 2
_symmetry_cell_setting 'triclinic'
loop_
_space_group_symop_operation_xyz
x,y,z
-x,-y,-z
loop_
_atom_site_type_symbol
_atom_site_label
_atom_site_fract_x
_atom_site_fract_y
_atom_site_fract_z
Si Si1 0.512327 0.186723 0.079227
Si Si2 0.667683 0.313324 0.588734
Si Si3 0.219886 0.454580 0.193016
Si Si4 0.275686 0.744098 0.154015
Si Si5 0.301707 0.659708 0.778653
Si Si6 0.110358 0.051612 0.446502
Si Si7 0.823567 0.796432 0.965797
Si Si8 0.737874 0.651341 0.399350
O O1 0.349581 0.307604 0.161866
O O2 0.289275 0.222429 0.073125
O O3 0.551740 0.255736 0.950589
O O4 0.885710 0.954580 0.122281
O O5 0.500000 0.500000 0.500000
O O6 0.675523 0.285542 0.721626
O O7 0.456133 0.342657 0.577038
O O8 0.037066 0.118750 0.544900
O O9 0.520563 0.337958 0.239178
O O10 0.932215 0.578161 0.283513
O O11 0.077036 0.613399 0.073495
O O12 0.441282 0.561617 0.168542
O O13 0.139527 0.757125 0.659840
O O14 0.007641 0.787872 0.866249
O O15 0.470530 0.865771 0.398296
O O16 0.000000 0.000000 0.500000
O O17 0.500000 0.000000 0.000000
O O18 0.000000 0.500000 0.500000
#
# Coordination Sequence:
#
# PCOD9042003 Si02
#       8
#     2   2   2   2   2   2   2   2
#     4  11  27  44  70 104 142 185 230 286 350 421
#     4  11  23  44  73 100 134 184 229 292 349 406
#     4  12  25  43  71  98 140 186 230 285 349 413
#     4  11  25  44  71 100 143 180 235 283 354 416
#     4  12  25  44  70 100 139 182 235 287 346 419
#     4  10  23  44  68  98 134 180 231 280 350 406
#     4  12  26  44  69 104 141 181 232 287 350 411
#     4  11  26  44  68 100 139 181 233 285 348 415
#
# _framework density 21.364656
#
# number of rings (size 3 to 8) (size 9 to 14) (size 15 to 20)
#    0.000    0.750    2.500    4.500   10.500    0.000 
#    0.000    0.625    0.000    0.000    0.000    0.000 
#    0.000    0.000    0.000    0.000    0.000    0.000 
#
# Total GULP energy -89514.549976 kJ/mol
# GULP energy per Si atom -5594.659374 kJ/mol
# Density = 2.131603 g / cm^3
# Si number density = 21.364656 Si / 1000 Ang^3
#
#
#
# Elastic Constant Matrix: (Units=GPa)
#
#
# Indices 1 2 3 4 5 6 
#
# 1 67.1146 21.3793 17.6851 14.3631 7.7298 -4.6331
# 2 21.3793 122.1235 44.5586 28.7241 1.5719 4.9601
# 3 17.6851 44.5586 105.9962 22.1261 1.6757 -4.1455
# 4 14.3631 28.7241 22.1261 54.0129 -4.3759 1.0875
# 5 7.7298 1.5719 1.6757 -4.3759 35.4520 3.3412
# 6 -4.6331 4.9601 -4.1455 1.0875 3.3412 28.4837
#
#
#
# Elastic Compliance Matrix: (Units=1/GPa)
#
#
# Indices 1 2 3 4 5 6 
#
# 1 0.017321 -0.001863 -0.001149 -0.003577 -0.004423 0.003630
# 2 -0.001863 0.010794 -0.003540 -0.003754 -0.000129 -0.002539
# 3 -0.001149 -0.003540 0.011790 -0.002746 -0.000709 0.002334
# 4 -0.003577 -0.003754 -0.002746 0.022950 0.004067 -0.001681
# 5 -0.004423 -0.000129 -0.000709 0.004067 0.030136 -0.004491
# 6 0.003630 -0.002539 0.002334 -0.001681 -0.004491 0.037071
#
#
# Mechanical properties :
#
#
# Convention : Reuss Voigt Hill
#
# Bulk Modulus (GPa) = 37.31046 51.38672 44.34859
# Shear Modulus (GPa) = 32.87327 37.69714 35.28521
#
# Velocity S-wave (km/s) = 3.92685 4.20511 4.06836
# Velocity P-wave (km/s) = 6.16942 6.90519 6.54765
#
# Compressibility (1/GPa) = 0.02680214
#
# Stress axis : x y z
#
# Youngs Moduli (GPa) = 57.73235 92.64361 84.81821
#
# Poissons Ratio (x) = 0.17255 0.09742
# Poissons Ratio (y) = 0.10753 0.30030
# Poissons Ratio (z) = 0.06631 0.32800
#
# Static dielectric constant tensor:
#      x y z
#    x 1.738540 -0.002640 -0.002910 
#    y -0.002640 1.793360 0.031850 
#    z -0.002910 0.031850 1.798830 
# 
# From -- ./inp_files/217450.got.cif
#   From: 2010.05.17/outbox.cif.g08.bks.cpg/sg2_109_cif.got.tgz:217450.got - 2010.06.03 11:33:40.
