data_PCOD9042077
_publ_section_title
;
Structure prediction by ZEFSAII (Michael W. Deem and Ramdas Pophale) SiO2 
 PCOD9042077
Probable space group: P -1
;
_chemical_formula_sum "Si O2"
_cell_formula_units_Z 14
_cell_length_a 9.139611
_cell_length_b 18.410343
_cell_length_c 11.874162
_cell_angle_alpha 42.718538
_cell_angle_beta 142.945909
_cell_angle_gamma 109.874579
_cell_volume 651.729609
_symmetry_space_group_name_H-M "P -1"
_symmetry_group_IT_number 2
_symmetry_cell_setting 'triclinic'
loop_
_space_group_symop_operation_xyz
x,y,z
-x,-y,-z
loop_
_atom_site_type_symbol
_atom_site_label
_atom_site_fract_x
_atom_site_fract_y
_atom_site_fract_z
Si Si1 0.759123 0.141110 0.247445
Si Si2 0.588801 0.531139 0.136961
Si Si3 0.239854 0.528671 0.143607
Si Si4 0.846832 0.180202 0.487748
Si Si5 0.144962 0.071459 0.193069
Si Si6 0.766095 0.293631 0.891131
Si Si7 0.113465 0.236798 0.789660
O O1 0.934418 0.155825 0.437957
O O2 0.616884 0.256036 0.935331
O O3 0.473672 0.156662 0.107682
O O4 0.000000 0.000000 0.500000
O O5 0.381541 0.544121 0.099541
O O6 0.928800 0.395802 0.518191
O O7 0.500000 0.500000 0.000000
O O8 0.496755 0.679050 0.889403
O O9 0.523592 0.405745 0.528140
O O10 0.097011 0.650695 0.007087
O O11 0.000000 0.500000 0.000000
O O12 0.030492 0.210561 0.646504
O O13 0.890959 0.046581 0.706376
O O14 0.500000 0.000000 0.500000
O O15 0.015441 0.173837 0.892131
O O16 0.994104 0.161197 0.109791
#
# Coordination Sequence:
#
# PCOD9042077 Si02
#       7
#     2   2   2   2   2   2   2
#     4  12  24  45  67  99 135 175 227 279 343 408
#     4  10  23  44  69 103 132 173 235 275 331 408
#     4  11  25  46  69 100 136 180 224 279 340 404
#     4  11  24  43  69 100 136 174 230 277 337 407
#     4  12  23  47  69 102 137 180 226 284 341 400
#     4  11  25  44  67 100 138 173 227 280 338 409
#     4  11  25  45  71  97 137 183 226 283 338 398
#
# _framework density 21.481300999999998
#
# number of rings (size 3 to 8) (size 9 to 14) (size 15 to 20)
#    0.000    0.857    5.714    0.429    4.000    3.429 
#    7.714    0.000    0.000    0.000    0.000    0.000 
#    0.000    0.000    0.000    0.000    0.000    0.000 
#
# Total GULP energy -78107.398423 kJ/mol
# GULP energy per Si atom -5579.099887 kJ/mol
# Density = 2.143241 g / cm^3
# Si number density = 21.481301 Si / 1000 Ang^3
#
#
#
# Elastic Constant Matrix: (Units=GPa)
#
#
# Indices 1 2 3 4 5 6 
#
# 1 93.8381 35.0136 21.7536 -2.7506 -16.0614 -19.2482
# 2 35.0136 140.0195 39.5919 -16.1408 9.8505 -26.1853
# 3 21.7536 39.5919 81.4434 -22.4972 -9.0819 -6.7011
# 4 -2.7506 -16.1408 -22.4972 46.5156 -5.2618 -3.5762
# 5 -16.0614 9.8505 -9.0819 -5.2618 43.6400 1.0660
# 6 -19.2482 -26.1853 -6.7011 -3.5762 1.0660 34.2816
#
#
#
# Elastic Compliance Matrix: (Units=1/GPa)
#
#
# Indices 1 2 3 4 5 6 
#
# 1 0.013932 -0.002361 -0.001430 0.000340 0.005267 0.005611
# 2 -0.002361 0.010478 -0.003958 0.001604 -0.004016 0.006196
# 3 -0.001430 -0.003958 0.017183 0.007412 0.004833 0.000156
# 4 0.000340 0.001604 0.007412 0.026577 0.004376 0.005501
# 5 0.005267 -0.004016 0.004833 0.004376 0.027282 0.000443
# 6 0.005611 0.006196 0.000156 0.005501 0.000443 0.037643
#
#
# Mechanical properties :
#
#
# Convention : Reuss Voigt Hill
#
# Bulk Modulus (GPa) = 38.32345 56.44658 47.38501
# Shear Modulus (GPa) = 31.78797 39.48356 35.63577
#
# Velocity S-wave (km/s) = 3.85099 4.29189 4.07740
# Velocity P-wave (km/s) = 6.13617 7.13404 6.65384
#
# Compressibility (1/GPa) = 0.02609368
#
# Stress axis : x y z
#
# Youngs Moduli (GPa) = 71.77918 95.44253 58.19552
#
# Poissons Ratio (x) = 0.22538 0.08325
# Poissons Ratio (y) = 0.16950 0.23031
# Poissons Ratio (z) = 0.10268 0.37772
#
# Static dielectric constant tensor:
#      x y z
#    x 1.852970 -0.028640 -0.076390 
#    y -0.028640 1.810700 -0.028950 
#    z -0.076390 -0.028950 1.829300 
# 
# From -- ./inp_files/285241.got.cif
#   From: 2010.05.17/outbox.cif.g08.bks.cpg/sg2_143_cif.got.tgz:285241.got - 2010.06.03 11:33:40.
