data_PCOD9042661
_publ_section_title
;
Structure prediction by ZEFSAII (Michael W. Deem and Ramdas Pophale) SiO2 
 PCOD9042661
Probable space group: P -1
;
_chemical_formula_sum "Si O2"
_cell_formula_units_Z 16
_cell_length_a 9.032615
_cell_length_b 11.737205
_cell_length_c 9.174599
_cell_angle_alpha 72.760711
_cell_angle_beta 121.683731
_cell_angle_gamma 128.501580
_cell_volume 647.068280
_symmetry_space_group_name_H-M "P -1"
_symmetry_group_IT_number 2
_symmetry_cell_setting 'triclinic'
loop_
_space_group_symop_operation_xyz
x,y,z
-x,-y,-z
loop_
_atom_site_type_symbol
_atom_site_label
_atom_site_fract_x
_atom_site_fract_y
_atom_site_fract_z
Si Si1 0.729391 0.213871 0.100356
Si Si2 0.664626 0.315349 0.302250
Si Si3 0.220321 0.823548 0.338995
Si Si4 0.937033 0.385113 0.881753
Si Si5 0.174828 0.079489 0.185803
Si Si6 0.280001 0.507470 0.480510
Si Si7 0.400901 0.081519 0.735728
Si Si8 0.234932 0.245747 0.430579
O O1 0.759721 0.334405 0.183786
O O2 0.719263 0.088730 0.232814
O O3 0.878141 0.261190 0.020498
O O4 0.509679 0.150988 0.922453
O O5 0.726404 0.228629 0.469759
O O6 0.408229 0.211602 0.198197
O O7 0.755883 0.461226 0.386139
O O8 0.016653 0.687416 0.200309
O O9 0.201551 0.955437 0.306463
O O10 0.582111 0.122317 0.692599
O O11 0.790133 0.420406 0.699914
O O12 0.000000 0.500000 0.000000
O O13 0.123407 0.144990 0.270323
O O14 0.000000 0.000000 0.000000
O O15 0.168897 0.338799 0.448135
O O16 0.536069 0.614954 0.561676
O O17 0.275908 0.148382 0.592899
#
# Coordination Sequence:
#
# PCOD9042661 Si02
#       8
#     2   2   2   2   2   2   2   2
#     4  10  19  31  59  90 111 141 202 248 280 330
#     4  10  18  36  60  86 112 154 202 235 271 350
#     4  10  18  36  57  86 111 156 197 223 288 356
#     4  10  21  37  58  86 112 151 192 245 291 342
#     4  11  21  30  54  92 117 143 188 246 288 326
#     4   9  19  35  58  79 111 163 196 220 281 358
#     4  10  17  33  59  86 111 148 194 240 280 337
#     4  10  18  35  56  82 116 154 201 224 278 359
#
# _framework density 24.726911999999999
#
# number of rings (size 3 to 8) (size 9 to 14) (size 15 to 20)
#    0.000    2.000    6.250    1.125    1.750    0.000 
#    0.000    3.125    0.000    4.500    0.000    0.000 
#    0.000    0.000    0.000    0.000    0.000    0.000 
#
# Total GULP energy -89146.094173 kJ/mol
# GULP energy per Si atom -5571.630886 kJ/mol
# Density = 2.467063 g / cm^3
# Si number density = 24.726912 Si / 1000 Ang^3
#
#
#
# Elastic Constant Matrix: (Units=GPa)
#
#
# Indices 1 2 3 4 5 6 
#
# 1 67.7373 33.0770 57.1099 6.7620 -11.2215 -12.2244
# 2 33.0770 117.2090 83.5884 19.0928 -0.2251 -41.0343
# 3 57.1099 83.5884 153.6412 30.7495 -28.1806 -20.8077
# 4 6.7620 19.0928 30.7495 55.9121 -6.0148 -9.6974
# 5 -11.2215 -0.2251 -28.1806 -6.0148 32.1965 3.7734
# 6 -12.2244 -41.0343 -20.8077 -9.6974 3.7734 41.5589
#
#
#
# Elastic Compliance Matrix: (Units=1/GPa)
#
#
# Indices 1 2 3 4 5 6 
#
# 1 0.022049 0.000653 -0.008522 0.002418 0.000283 0.003402
# 2 0.000653 0.024723 -0.013806 0.000913 -0.013757 0.019153
# 3 -0.008522 -0.013806 0.019607 -0.005036 0.014183 -0.008784
# 4 0.002418 0.000913 -0.005036 0.020718 -0.000150 0.003939
# 5 0.000283 -0.013757 0.014183 -0.000150 0.044677 -0.010491
# 6 0.003402 0.019153 -0.008784 0.003939 -0.010491 0.041448
#
#
# Mechanical properties :
#
#
# Convention : Reuss Voigt Hill
#
# Bulk Modulus (GPa) = 43.42223 76.23756 59.82989
# Shear Modulus (GPa) = 22.29666 36.92098 29.60882
#
# Velocity S-wave (km/s) = 3.00612 3.86832 3.46415
# Velocity P-wave (km/s) = 5.44498 7.13096 6.34423
#
# Compressibility (1/GPa) = 0.02302968
#
# Stress axis : x y z
#
# Youngs Moduli (GPa) = 45.35420 40.44753 51.00150
#
# Poissons Ratio (x) = -0.02642 0.43466
# Poissons Ratio (y) = -0.02963 0.70411
# Poissons Ratio (z) = 0.38653 0.55841
#
# Static dielectric constant tensor:
#      x y z
#    x 2.076210 0.123890 0.046130 
#    y 0.123890 2.105250 0.113700 
#    z 0.046130 0.113700 1.913140 
# 
# From -- ./inp_files/258272.got.cif
#   From: 2010.05.17/outbox.cif.g08.bks.cpg/sg2_130_cif.got.tgz:258272.got - 2010.06.03 11:33:40.
