data_PCOD9042168
_publ_section_title
;
Structure prediction by ZEFSAII (Michael W. Deem and Ramdas Pophale) SiO2 
 PCOD9042168
Probable space group: P -1
;
_chemical_formula_sum "Si O2"
_cell_formula_units_Z 14
_cell_length_a 8.859288
_cell_length_b 17.223133
_cell_length_c 11.426387
_cell_angle_alpha 43.191668
_cell_angle_beta 129.123189
_cell_angle_gamma 146.113839
_cell_volume 663.810545
_symmetry_space_group_name_H-M "P -1"
_symmetry_group_IT_number 2
_symmetry_cell_setting 'triclinic'
loop_
_space_group_symop_operation_xyz
x,y,z
-x,-y,-z
loop_
_atom_site_type_symbol
_atom_site_label
_atom_site_fract_x
_atom_site_fract_y
_atom_site_fract_z
Si Si1 0.780086 0.662666 0.007558
Si Si2 0.081491 0.556864 0.340547
Si Si3 0.441229 0.927467 0.704641
Si Si4 0.868265 0.914851 0.905909
Si Si5 0.910844 0.252317 0.501194
Si Si6 0.040213 0.150480 0.341148
Si Si7 0.288693 0.236730 0.612952
O O1 0.968043 0.631527 0.161820
O O2 0.500000 0.500000 0.000000
O O3 0.803776 0.757525 0.024560
O O4 0.847926 0.773843 0.812033
O O5 0.402259 0.678513 0.334214
O O6 0.000000 0.500000 0.500000
O O7 0.945067 0.398576 0.374822
O O8 0.581541 0.863631 0.827725
O O9 0.251408 0.855714 0.574971
O O10 0.229030 0.881680 0.746919
O O11 0.698361 0.115721 0.640152
O O12 0.075890 0.054503 0.757567
O O13 0.000000 0.000000 0.000000
O O14 0.199387 0.305938 0.576248
O O15 0.228540 0.252392 0.433223
O O16 0.000000 0.000000 0.500000
#
# Coordination Sequence:
#
# PCOD9042168 Si02
#       7
#     2   2   2   2   2   2   2
#     4  12  28  46  69 105 140 180 234 289 346 406
#     4  12  27  41  67 102 145 177 220 292 354 404
#     4   9  21  40  72  93 126 186 231 267 339 409
#     4  11  25  44  69 101 142 180 229 287 339 420
#     4   9  20  42  67  95 131 179 228 272 332 420
#     4  11  23  44  73  99 135 181 234 286 334 415
#     4  10  23  44  69  98 135 185 228 278 350 411
#
# _framework density 21.090354999999999
#
# number of rings (size 3 to 8) (size 9 to 14) (size 15 to 20)
#    0.000    1.429    1.429    3.000   10.000    0.571 
#    5.143    3.571    0.000    0.000    0.000    0.000 
#    0.000    0.000    0.000    0.000    0.000    0.000 
#
# Total GULP energy -77965.602268 kJ/mol
# GULP energy per Si atom -5568.971591 kJ/mol
# Density = 2.104235 g / cm^3
# Si number density = 21.090355 Si / 1000 Ang^3
#
#
#
# Elastic Constant Matrix: (Units=GPa)
#
#
# Indices 1 2 3 4 5 6 
#
# 1 81.2902 64.3604 31.5347 -12.7916 28.4289 3.2948
# 2 64.3604 93.6934 34.6115 0.5358 18.7160 5.3638
# 3 31.5347 34.6115 93.7030 -1.9004 19.8357 -5.0189
# 4 -12.7916 0.5358 -1.9004 30.3568 -8.3808 14.6727
# 5 28.4289 18.7160 19.8357 -8.3808 49.1635 4.9246
# 6 3.2948 5.3638 -5.0189 14.6727 4.9246 33.7422
#
#
#
# Elastic Compliance Matrix: (Units=1/GPa)
#
#
# Indices 1 2 3 4 5 6 
#
# 1 0.036731 -0.022448 -0.002313 0.016486 -0.008318 -0.006317
# 2 -0.022448 0.026703 -0.002853 -0.010397 0.002019 0.001749
# 3 -0.002313 -0.002853 0.013569 -0.003565 -0.004145 0.004853
# 4 0.016486 -0.010397 -0.003565 0.054086 0.007599 -0.025115
# 5 -0.008318 0.002019 -0.004145 0.007599 0.028104 -0.007531
# 6 -0.006317 0.001749 0.004853 -0.025115 -0.007531 0.042718
#
#
# Mechanical properties :
#
#
# Convention : Reuss Voigt Hill
#
# Bulk Modulus (GPa) = 45.92415 58.85551 52.38983
# Shear Modulus (GPa) = 18.91088 31.86452 25.38770
#
# Velocity S-wave (km/s) = 2.99768 3.89119 3.47329
# Velocity P-wave (km/s) = 5.81409 6.93941 6.40153
#
# Compressibility (1/GPa) = 0.02177504
#
# Stress axis : x y z
#
# Youngs Moduli (GPa) = 27.22497 37.44836 73.69528
#
# Poissons Ratio (x) = 0.84065 0.17045
# Poissons Ratio (y) = 0.61115 0.21028
# Poissons Ratio (z) = 0.06297 0.10685
#
# Static dielectric constant tensor:
#      x y z
#    x 1.246970 -0.038200 -0.122660 
#    y -0.038200 1.871590 0.037220 
#    z -0.122660 0.037220 1.814370 
# 
# From -- ./inp_files/159392.got.cif
#   From: 2010.05.17/outbox.cif.g08.bks.cpg/sg2_80_cif.got.tgz:159392.got - 2010.06.03 11:33:40.
