data_PCOD9042510
_publ_section_title
;
Structure prediction by ZEFSAII (Michael W. Deem and Ramdas Pophale) SiO2 
 PCOD9042510
Probable space group: P -1
;
_chemical_formula_sum "Si O2"
_cell_formula_units_Z 16
_cell_length_a 13.392248
_cell_length_b 11.402493
_cell_length_c 8.967845
_cell_angle_alpha 111.999883
_cell_angle_beta 104.827481
_cell_angle_gamma 34.064999
_cell_volume 707.297078
_symmetry_space_group_name_H-M "P -1"
_symmetry_group_IT_number 2
_symmetry_cell_setting 'triclinic'
loop_
_space_group_symop_operation_xyz
x,y,z
-x,-y,-z
loop_
_atom_site_type_symbol
_atom_site_label
_atom_site_fract_x
_atom_site_fract_y
_atom_site_fract_z
Si Si1 0.843841 0.008486 0.028992
Si Si2 0.238838 0.524653 0.987886
Si Si3 0.225108 0.214042 0.093362
Si Si4 0.377432 0.309864 0.251374
Si Si5 0.425704 0.709153 0.174641
Si Si6 0.846650 0.667479 0.220976
Si Si7 0.575042 0.366364 0.310273
Si Si8 0.449774 0.913318 0.501338
O O1 0.749875 0.158843 0.918805
O O2 0.763513 0.945218 0.950222
O O3 0.776415 0.150932 0.218286
O O4 0.055072 0.779568 0.002878
O O5 0.413654 0.418598 0.940187
O O6 0.229357 0.399088 0.839383
O O7 0.240983 0.488100 0.149969
O O8 0.388055 0.147230 0.153206
O O9 0.057803 0.442391 0.228974
O O10 0.172346 0.271336 0.927741
O O11 0.522908 0.270884 0.252118
O O12 0.389289 0.300093 0.431934
O O13 0.480576 0.547434 0.236676
O O14 0.403195 0.858823 0.332977
O O15 0.729137 0.880095 0.372904
O O16 0.500000 0.500000 0.500000
O O17 0.500000 0.000000 0.500000
#
# Coordination Sequence:
#
# PCOD9042510 Si02
#       8
#     2   2   2   2   2   2   2   2
#     4  11  24  46  74 100 135 178 231 282 348 399
#     4  10  23  44  72 103 130 182 230 285 335 407
#     4   9  20  38  68 102 126 173 226 286 332 403
#     4  11  23  43  70  99 140 175 234 276 339 407
#     4  12  25  45  67 101 141 179 233 276 339 403
#     4   9  19  37  63 102 138 164 226 276 343 408
#     4  12  26  47  68  99 139 185 228 282 332 411
#     4  12  23  39  68 102 138 181 216 284 352 399
#
# _framework density 22.62133
#
# number of rings (size 3 to 8) (size 9 to 14) (size 15 to 20)
#    0.000    1.250    3.750    2.625    0.000    2.000 
#    2.250    2.500    0.000    0.000    0.000    0.000 
#    0.000    0.000    0.000    0.000    0.000    0.000 
#
# Total GULP energy -89147.359059 kJ/mol
# GULP energy per Si atom -5571.709941 kJ/mol
# Density = 2.256984 g / cm^3
# Si number density = 22.621330 Si / 1000 Ang^3
#
#
#
# Elastic Constant Matrix: (Units=GPa)
#
#
# Indices 1 2 3 4 5 6 
#
# 1 80.5716 30.0649 28.3130 -5.9225 2.1039 18.5481
# 2 30.0649 123.6311 61.7301 3.4378 -10.8834 -2.1042
# 3 28.3130 61.7301 141.4225 14.4255 8.2474 -12.9136
# 4 -5.9225 3.4378 14.4255 39.1385 12.1269 -2.9488
# 5 2.1039 -10.8834 8.2474 12.1269 27.7948 -7.8340
# 6 18.5481 -2.1042 -12.9136 -2.9488 -7.8340 29.0063
#
#
#
# Elastic Compliance Matrix: (Units=1/GPa)
#
#
# Indices 1 2 3 4 5 6 
#
# 1 0.019863 -0.004274 -0.003729 0.006471 -0.009572 -0.016599
# 2 -0.004274 0.012193 -0.004372 -0.002466 0.008520 0.003721
# 3 -0.003729 -0.004372 0.010696 -0.003202 -0.001486 0.006102
# 4 0.006471 -0.002466 -0.003202 0.032569 -0.016669 -0.006933
# 5 -0.009572 0.008520 -0.001486 -0.016669 0.053024 0.018703
# 6 -0.016599 0.003721 0.006102 -0.006933 0.018703 0.052423
#
#
# Mechanical properties :
#
#
# Convention : Reuss Voigt Hill
#
# Bulk Modulus (GPa) = 55.54483 65.09344 60.31914
# Shear Modulus (GPa) = 23.63875 34.22242 28.93059
#
# Velocity S-wave (km/s) = 3.23612 3.89374 3.58006
# Velocity P-wave (km/s) = 6.21054 7.00376 6.61904
#
# Compressibility (1/GPa) = 0.01800348
#
# Stress axis : x y z
#
# Youngs Moduli (GPa) = 50.34470 82.01612 93.48961
#
# Poissons Ratio (x) = 0.35051 0.34859
# Poissons Ratio (y) = 0.21516 0.40874
# Poissons Ratio (z) = 0.18772 0.35857
#
# Static dielectric constant tensor:
#      x y z
#    x 1.887300 0.011860 -0.029630 
#    y 0.011860 1.874930 -0.002040 
#    z -0.029630 -0.002040 1.873610 
# 
# From -- ./inp_files/308067.got.cif
#   From: 2010.05.17/outbox.cif.g08.bks.cpg/sg2_155_cif.got.tgz:308067.got - 2010.06.03 11:33:40.
