data_PCOD9042866
_publ_section_title
;
Structure prediction by ZEFSAII (Michael W. Deem and Ramdas Pophale) SiO2 
 PCOD9042866
Probable space group: P -1
;
_chemical_formula_sum "Si O2"
_cell_formula_units_Z 12
_cell_length_a 8.200146
_cell_length_b 8.949103
_cell_length_c 7.989938
_cell_angle_alpha 82.583225
_cell_angle_beta 124.436192
_cell_angle_gamma 115.634447
_cell_volume 430.687139
_symmetry_space_group_name_H-M "P -1"
_symmetry_group_IT_number 2
_symmetry_cell_setting 'triclinic'
loop_
_space_group_symop_operation_xyz
x,y,z
-x,-y,-z
loop_
_atom_site_type_symbol
_atom_site_label
_atom_site_fract_x
_atom_site_fract_y
_atom_site_fract_z
Si Si1 0.929232 0.184468 0.291659
Si Si2 0.183122 0.555518 0.456876
Si Si3 0.354627 0.195636 0.181070
Si Si4 0.743091 0.967486 0.516483
Si Si5 0.450942 0.753196 0.075773
Si Si6 0.092816 0.394732 0.958620
O O1 0.740521 0.185819 0.062625
O O2 0.127080 0.372368 0.374894
O O3 0.036736 0.060327 0.340640
O O4 0.809307 0.128918 0.411743
O O5 0.427411 0.646720 0.648755
O O6 0.000000 0.500000 0.500000
O O7 0.103856 0.666119 0.279387
O O8 0.331916 0.057727 0.329199
O O9 0.400182 0.179184 0.014260
O O10 0.153684 0.247086 0.065904
O O11 0.576792 0.820718 0.314001
O O12 0.324171 0.550724 0.014424
O O13 0.000000 0.500000 0.000000
#
# Coordination Sequence:
#
# PCOD9042866 Si02
#       6
#     2   2   2   2   2   2
#     4  10  23  45  65  93 136 175 218 267 334 386
#     4  11  22  41  68  95 129 170 215 278 323 379
#     4  12  24  41  70 102 128 173 225 269 332 388
#     4  11  25  43  68  93 136 178 212 272 328 398
#     4  11  23  41  66  96 130 172 222 273 321 388
#     4  11  23  39  64  99 134 169 219 274 328 391
#
# _framework density 27.862454
#
# number of rings (size 3 to 8) (size 9 to 14) (size 15 to 20)
#    0.000    1.000    3.333    5.000    2.333    2.667 
#    0.000    3.333    0.000    0.000    0.000    0.000 
#    0.000    0.000    0.000    0.000    0.000    0.000 
#
# Total GULP energy -67132.122104 kJ/mol
# GULP energy per Si atom -5594.343509 kJ/mol
# Density = 2.779904 g / cm^3
# Si number density = 27.862454 Si / 1000 Ang^3
#
#
#
# Elastic Constant Matrix: (Units=GPa)
#
#
# Indices 1 2 3 4 5 6 
#
# 1 89.6242 -9.9096 36.8693 -5.9186 -0.3346 13.5942
# 2 -9.9096 111.2974 33.6858 -13.0852 2.4581 19.4720
# 3 36.8693 33.6858 179.7273 -16.0150 25.4511 5.3688
# 4 -5.9186 -13.0852 -16.0150 64.8695 2.9830 -2.5521
# 5 -0.3346 2.4581 25.4511 2.9830 59.9549 -14.7150
# 6 13.5942 19.4720 5.3688 -2.5521 -14.7150 32.4840
#
#
#
# Elastic Compliance Matrix: (Units=1/GPa)
#
#
# Indices 1 2 3 4 5 6 
#
# 1 0.014131 0.003726 -0.003175 0.000980 -0.000705 -0.007865
# 2 0.003726 0.011835 -0.002296 0.001891 -0.001776 -0.008930
# 3 -0.003175 -0.002296 0.007159 0.001161 -0.002953 0.000275
# 4 0.000980 0.001891 0.001161 0.016202 -0.001670 -0.001219
# 5 -0.000705 -0.001776 -0.002953 -0.001670 0.020821 0.011148
# 6 -0.007865 -0.008930 0.000275 -0.001219 0.011148 0.044337
#
#
# Mechanical properties :
#
#
# Convention : Reuss Voigt Hill
#
# Bulk Modulus (GPa) = 33.74373 55.77111 44.75742
# Shear Modulus (GPa) = 39.10721 52.79525 45.95123
#
# Velocity S-wave (km/s) = 3.75050 4.35771 4.06546
# Velocity P-wave (km/s) = 5.55807 6.73644 6.17542
#
# Compressibility (1/GPa) = 0.02963514
#
# Stress axis : x y z
#
# Youngs Moduli (GPa) = 70.76752 84.49184 139.68386
#
# Poissons Ratio (x) = -0.31481 0.44350
# Poissons Ratio (y) = -0.26367 0.32070
# Poissons Ratio (z) = 0.22469 0.19399
#
# Static dielectric constant tensor:
#      x y z
#    x 2.447080 -0.266210 -0.551390 
#    y -0.266210 2.742400 0.647560 
#    z -0.551390 0.647560 2.957630 
# 
# From -- ./inp_files/156482.got.cif
#   From: 2010.05.17/outbox.cif.g08.bks.cpg/sg2_79_cif.got.tgz:156482.got - 2010.06.03 11:33:40.
