data_PCOD9042210
_publ_section_title
;
Structure prediction by ZEFSAII (Michael W. Deem and Ramdas Pophale) SiO2 
 PCOD9042210
Probable space group: P -1
;
_chemical_formula_sum "Si O2"
_cell_formula_units_Z 16
_cell_length_a 18.938678
_cell_length_b 6.513449
_cell_length_c 7.528034
_cell_angle_alpha 61.719829
_cell_angle_beta 58.755122
_cell_angle_gamma 61.639569
_cell_volume 665.971849
_symmetry_space_group_name_H-M "P -1"
_symmetry_group_IT_number 2
_symmetry_cell_setting 'triclinic'
loop_
_space_group_symop_operation_xyz
x,y,z
-x,-y,-z
loop_
_atom_site_type_symbol
_atom_site_label
_atom_site_fract_x
_atom_site_fract_y
_atom_site_fract_z
Si Si1 0.508186 0.234982 0.788638
Si Si2 0.403763 0.034703 0.548219
Si Si3 0.770216 0.940552 0.630121
Si Si4 0.965812 0.794068 0.377021
Si Si5 0.762148 0.020740 0.192625
Si Si6 0.950129 0.789202 0.972794
Si Si7 0.681257 0.547563 0.028750
Si Si8 0.638914 0.431452 0.734004
O O1 0.550345 0.381782 0.808168
O O2 0.576753 0.132451 0.585163
O O3 0.411886 0.368640 0.785160
O O4 0.500000 0.000000 0.000000
O O5 0.329585 0.968845 0.780796
O O6 0.361972 0.319031 0.457412
O O7 0.500000 0.000000 0.500000
O O8 0.871955 0.882845 0.554842
O O9 0.763515 0.919967 0.432493
O O10 0.725445 0.757836 0.855486
O O11 0.717480 0.208127 0.655112
O O12 0.000000 0.500000 0.500000
O O13 0.955300 0.813628 0.169422
O O14 0.014790 0.003819 0.254963
O O15 0.846708 0.867312 0.041465
O O16 0.752913 0.307369 0.105512
O O17 0.000000 0.500000 0.000000
O O18 0.650118 0.485882 0.901551
#
# Coordination Sequence:
#
# PCOD9042210 Si02
#       8
#     2   2   2   2   2   2   2   2
#     4  12  23  43  61  92 134 173 226 280 323 386
#     4  12  27  42  64  98 130 180 229 270 331 395
#     4  11  24  44  66  97 135 173 219 281 332 400
#     4  10  23  44  70 101 135 175 223 280 347 408
#     4  11  24  46  65  96 137 173 220 278 332 398
#     4  10  24  44  70 102 137 175 223 284 343 409
#     4  12  25  41  67  95 132 178 225 273 330 397
#     4  12  23  42  64  91 132 178 221 276 334 387
#
# _framework density 24.025039
#
# number of rings (size 3 to 8) (size 9 to 14) (size 15 to 20)
#    0.000    0.750    5.000    1.875    5.250    2.500 
#    0.000    0.000    0.000    0.000    0.000    0.000 
#    0.000    0.000    0.000    0.000    0.000    0.000 
#
# Total GULP energy -89429.030341 kJ/mol
# GULP energy per Si atom -5589.314396 kJ/mol
# Density = 2.397036 g / cm^3
# Si number density = 24.025039 Si / 1000 Ang^3
#
#
#
# Elastic Constant Matrix: (Units=GPa)
#
#
# Indices 1 2 3 4 5 6 
#
# 1 74.6597 40.2825 47.1133 13.8746 -34.1258 -9.0553
# 2 40.2825 174.2893 76.5539 -12.3328 -41.6963 -29.9977
# 3 47.1133 76.5539 107.2450 -11.4668 -36.9991 -11.6819
# 4 13.8746 -12.3328 -11.4668 53.3500 -10.1220 -1.4054
# 5 -34.1258 -41.6963 -36.9991 -10.1220 44.7120 12.4218
# 6 -9.0553 -29.9977 -11.6819 -1.4054 12.4218 50.4498
#
#
#
# Elastic Compliance Matrix: (Units=1/GPa)
#
#
# Indices 1 2 3 4 5 6 
#
# 1 0.024214 -0.000213 -0.007372 -0.005862 0.010952 -0.000347
# 2 -0.000213 0.009682 -0.004608 0.002264 0.004568 0.003590
# 3 -0.007372 -0.004608 0.019014 0.006349 0.007626 -0.001361
# 4 -0.005862 0.002264 0.006349 0.023713 0.008143 0.000420
# 5 0.010952 0.004568 0.007626 0.008143 0.044315 -0.004237
# 6 -0.000347 0.003590 -0.001361 0.000420 -0.004237 0.022634
#
#
# Mechanical properties :
#
#
# Convention : Reuss Voigt Hill
#
# Bulk Modulus (GPa) = 35.05878 76.01036 55.53457
# Shear Modulus (GPa) = 28.17454 42.51866 35.34660
#
# Velocity S-wave (km/s) = 3.42821 4.21142 3.83984
# Velocity P-wave (km/s) = 5.50404 7.44008 6.54405
#
# Compressibility (1/GPa) = 0.02852352
#
# Stress axis : x y z
#
# Youngs Moduli (GPa) = 41.29844 103.28450 52.59314
#
# Poissons Ratio (x) = 0.02202 0.38769
# Poissons Ratio (y) = 0.00880 0.24237
# Poissons Ratio (z) = 0.30443 0.47598
#
# Static dielectric constant tensor:
#      x y z
#    x 2.361370 0.365360 -0.368810 
#    y 0.365360 2.363650 -0.464000 
#    z -0.368810 -0.464000 2.399850 
# 
# From -- ./inp_files/340089.got.cif
#   From: 2010.05.17/outbox.cif.g08.bks.cpg/sg2_171_cif.got.tgz:340089.got - 2010.06.03 11:33:40.
