data_PCOD9042918
_publ_section_title
;
Structure prediction by ZEFSAII (Michael W. Deem and Ramdas Pophale) SiO2 
 PCOD9042918
Probable space group: P -1
;
_chemical_formula_sum "Si O2"
_cell_formula_units_Z 14
_cell_length_a 5.341485
_cell_length_b 24.472243
_cell_length_c 7.763735
_cell_angle_alpha 45.648354
_cell_angle_beta 120.699082
_cell_angle_gamma 99.179018
_cell_volume 590.968506
_symmetry_space_group_name_H-M "P -1"
_symmetry_group_IT_number 2
_symmetry_cell_setting 'triclinic'
loop_
_space_group_symop_operation_xyz
x,y,z
-x,-y,-z
loop_
_atom_site_type_symbol
_atom_site_label
_atom_site_fract_x
_atom_site_fract_y
_atom_site_fract_z
Si Si1 0.402341 0.927240 0.799103
Si Si2 0.116770 0.860218 0.151006
Si Si3 0.248966 0.685844 0.192084
Si Si4 0.613908 0.075295 0.587830
Si Si5 0.329592 0.255539 0.981369
Si Si6 0.666951 0.552016 0.836433
Si Si7 0.655404 0.694413 0.778899
O O1 0.261291 0.943646 0.521657
O O2 0.445385 0.009573 0.705316
O O3 0.201387 0.893526 0.928721
O O4 0.758311 0.867977 0.029483
O O5 0.170212 0.916894 0.198865
O O6 0.381121 0.774378 0.455896
O O7 0.464249 0.740159 0.115710
O O8 0.463471 0.595973 0.504247
O O9 0.034434 0.709843 0.233791
O O10 0.995440 0.702387 0.913921
O O11 0.401987 0.168358 0.284531
O O12 0.410110 0.315339 0.018957
O O13 0.686240 0.622925 0.815864
O O14 0.500000 0.500000 0.000000
O O15 0.000000 0.500000 0.000000
#
# Coordination Sequence:
#
# PCOD9042918 Si02
#       7
#     2   2   2   2   2   2   2
#     4  11  26  40  65 101 136 184 223 285 335 381
#     4  11  25  42  68  97 132 182 233 272 326 400
#     4  10  23  45  66  95 127 170 211 267 320 389
#     4  10  24  43  65  97 143 176 230 281 335 380
#     4   9  22  41  68  91 128 176 217 262 314 387
#     4  12  28  44  69 102 129 162 209 266 329 401
#     4   9  26  42  70  93 131 171 218 261 327 389
#
# _framework density 23.689927000000001
#
# number of rings (size 3 to 8) (size 9 to 14) (size 15 to 20)
#    0.857    0.857    0.000    1.714   10.000    5.714 
#    0.000    0.000    0.000    0.000    0.000    0.000 
#    0.000    0.000    0.000    0.000    0.000    0.000 
#
# Total GULP energy -78115.404454 kJ/mol
# GULP energy per Si atom -5579.671747 kJ/mol
# Density = 2.363601 g / cm^3
# Si number density = 23.689927 Si / 1000 Ang^3
#
#
#
# Elastic Constant Matrix: (Units=GPa)
#
#
# Indices 1 2 3 4 5 6 
#
# 1 181.2519 37.5472 72.9197 -11.3074 28.1616 11.2445
# 2 37.5472 142.8476 22.5350 3.6544 9.7031 -10.0130
# 3 72.9197 22.5350 110.1736 -13.6624 26.1085 1.2835
# 4 -11.3074 3.6544 -13.6624 44.8692 -9.3625 2.9250
# 5 28.1616 9.7031 26.1085 -9.3625 36.9652 -7.6377
# 6 11.2445 -10.0130 1.2835 2.9250 -7.6377 22.9257
#
#
#
# Elastic Compliance Matrix: (Units=1/GPa)
#
#
# Indices 1 2 3 4 5 6 
#
# 1 0.008680 -0.001780 -0.004211 0.000557 -0.004335 -0.006314
# 2 -0.001780 0.007936 -0.000791 -0.001557 0.000412 0.004719
# 3 -0.004211 -0.000791 0.013721 0.002007 -0.006039 -0.001316
# 4 0.000557 -0.001557 0.002007 0.024207 0.004123 -0.002781
# 5 -0.004335 0.000412 -0.006039 0.004123 0.038655 0.014996
# 6 -0.006314 0.004719 -0.001316 -0.002781 0.014996 0.054201
#
#
# Mechanical properties :
#
#
# Convention : Reuss Voigt Hill
#
# Bulk Modulus (GPa) = 59.61955 77.80854 68.71405
# Shear Modulus (GPa) = 30.02028 41.03678 35.52853
#
# Velocity S-wave (km/s) = 3.56366 4.16654 3.87684
# Velocity P-wave (km/s) = 6.49262 7.48750 7.00774
#
# Compressibility (1/GPa) = 0.01677302
#
# Stress axis : x y z
#
# Youngs Moduli (GPa) = 115.20778 126.01339 72.88225
#
# Poissons Ratio (x) = 0.22425 0.30691
# Poissons Ratio (y) = 0.20502 0.05765
# Poissons Ratio (z) = 0.48514 0.09969
#
# Static dielectric constant tensor:
#      x y z
#    x 1.917240 -0.020500 0.026690 
#    y -0.020500 1.985170 -0.009010 
#    z 0.026690 -0.009010 1.939250 
# 
# From -- ./inp_files/143094.got.cif
#   From: 2010.05.17/outbox.cif.g08.bks.cpg/sg2_72_cif.got.tgz:143094.got - 2010.06.03 11:33:40.
