data_PCOD9042123
_publ_section_title
;
Structure prediction by ZEFSAII (Michael W. Deem and Ramdas Pophale) SiO2 
 PCOD9042123
Probable space group: P -1
;
_chemical_formula_sum "Si O2"
_cell_formula_units_Z 14
_cell_length_a 11.737420
_cell_length_b 9.672182
_cell_length_c 8.765471
_cell_angle_alpha 42.348745
_cell_angle_beta 115.087425
_cell_angle_gamma 117.444546
_cell_volume 589.092430
_symmetry_space_group_name_H-M "P -1"
_symmetry_group_IT_number 2
_symmetry_cell_setting 'triclinic'
loop_
_space_group_symop_operation_xyz
x,y,z
-x,-y,-z
loop_
_atom_site_type_symbol
_atom_site_label
_atom_site_fract_x
_atom_site_fract_y
_atom_site_fract_z
Si Si1 0.362275 0.674835 0.004961
Si Si2 0.267281 0.633971 0.331410
Si Si3 0.418139 0.007119 0.294483
Si Si4 0.996593 0.293097 0.771920
Si Si5 0.142053 0.897224 0.630342
Si Si6 0.768258 0.753218 0.857350
Si Si7 0.096952 0.184999 0.621693
O O1 0.327283 0.654367 0.180157
O O2 0.341075 0.445447 0.103918
O O3 0.496440 0.835736 0.908179
O O4 0.253117 0.775927 0.784856
O O5 0.217708 0.385078 0.544074
O O6 0.140044 0.728465 0.204032
O O7 0.370473 0.772514 0.391786
O O8 0.297224 0.103180 0.189834
O O9 0.500000 0.000000 0.500000
O O10 0.022835 0.136796 0.779191
O O11 0.000000 0.500000 0.500000
O O12 0.117481 0.322290 0.930389
O O13 0.006347 0.758210 0.603514
O O14 0.175833 0.101194 0.373681
O O15 0.132731 0.989782 0.717110
#
# Coordination Sequence:
#
# PCOD9042123 Si02
#       7
#     2   2   2   2   2   2   2
#     4  12  26  48  71 107 145 198 246 298 356 436
#     4  11  25  47  74 106 147 193 242 303 365 428
#     4  12  28  49  74 105 147 199 252 297 352 436
#     4  10  24  43  74 109 141 181 234 302 367 431
#     4  11  24  43  73 111 150 186 240 300 370 442
#     4  12  26  49  78 107 148 191 241 304 376 424
#     4  10  23  44  69 112 148 187 234 306 370 434
#
# _framework density 23.765369
#
# number of rings (size 3 to 8) (size 9 to 14) (size 15 to 20)
#    0.000    0.857    2.857    3.429   10.000    2.286 
#    0.000    1.429    0.000    0.000    0.000    0.000 
#    0.000    0.000    0.000    0.000    0.000    0.000 
#
# Total GULP energy -78390.438816 kJ/mol
# GULP energy per Si atom -5599.317058 kJ/mol
# Density = 2.371128 g / cm^3
# Si number density = 23.765369 Si / 1000 Ang^3
#
#
#
# Elastic Constant Matrix: (Units=GPa)
#
#
# Indices 1 2 3 4 5 6 
#
# 1 82.5756 13.7079 9.7778 1.4640 -33.8035 -9.1157
# 2 13.7079 168.2668 19.1296 0.3684 -23.3834 5.6153
# 3 9.7778 19.1296 90.5285 8.6772 -19.0808 2.1195
# 4 1.4640 0.3684 8.6772 20.4897 -3.0269 -1.0158
# 5 -33.8035 -23.3834 -19.0808 -3.0269 41.8112 2.6587
# 6 -9.1157 5.6153 2.1195 -1.0158 2.6587 39.8681
#
#
#
# Elastic Compliance Matrix: (Units=1/GPa)
#
#
# Indices 1 2 3 4 5 6 
#
# 1 0.018655 0.000430 0.001056 0.000680 0.015655 0.003122
# 2 0.000430 0.006547 -0.000663 0.000645 0.003819 -0.001027
# 3 0.001056 -0.000663 0.012812 -0.004639 0.006049 -0.000868
# 4 0.000680 0.000645 -0.004639 0.051136 0.002403 0.001454
# 5 0.015655 0.003819 0.006049 0.002403 0.041644 0.000004
# 6 0.003122 -0.001027 -0.000868 0.001454 0.000004 0.026024
#
#
# Mechanical properties :
#
#
# Convention : Reuss Voigt Hill
#
# Bulk Modulus (GPa) = 25.21449 47.40016 36.30732
# Shear Modulus (GPa) = 29.69258 40.35083 35.02171
#
# Velocity S-wave (km/s) = 3.53853 4.12501 3.84297
# Velocity P-wave (km/s) = 5.22759 6.53268 5.91623
#
# Compressibility (1/GPa) = 0.03965974
#
# Stress axis : x y z
#
# Youngs Moduli (GPa) = 53.60506 152.74714 78.05062
#
# Poissons Ratio (x) = -0.06570 -0.08239
# Poissons Ratio (y) = -0.02306 0.05173
# Poissons Ratio (z) = -0.05659 0.10125
#
# Static dielectric constant tensor:
#      x y z
#    x 1.896640 -0.002830 -0.004660 
#    y -0.002830 1.932940 -0.020500 
#    z -0.004660 -0.020500 1.920730 
# 
# From -- ./inp_files/242307.got.cif
#   From: 2010.05.17/outbox.cif.g08.bks.cpg/sg2_122_cif.got.tgz:242307.got - 2010.06.03 11:33:40.
