data_PCOD9042650
_publ_section_title
;
Structure prediction by ZEFSAII (Michael W. Deem and Ramdas Pophale) SiO2 
 PCOD9042650
Probable space group: P -1
;
_chemical_formula_sum "Si O2"
_cell_formula_units_Z 14
_cell_length_a 6.987316
_cell_length_b 12.326024
_cell_length_c 14.717876
_cell_angle_alpha 151.205495
_cell_angle_beta 113.941061
_cell_angle_gamma 55.731554
_cell_volume 492.186419
_symmetry_space_group_name_H-M "P -1"
_symmetry_group_IT_number 2
_symmetry_cell_setting 'triclinic'
loop_
_space_group_symop_operation_xyz
x,y,z
-x,-y,-z
loop_
_atom_site_type_symbol
_atom_site_label
_atom_site_fract_x
_atom_site_fract_y
_atom_site_fract_z
Si Si1 0.205559 0.103368 0.801160
Si Si2 0.415714 0.308589 0.212397
Si Si3 0.250984 0.761287 0.398094
Si Si4 0.064180 0.754572 0.594473
Si Si5 0.270444 0.299065 0.636127
Si Si6 0.699148 0.572607 0.062344
Si Si7 0.904995 0.268461 0.223902
O O1 0.294857 0.862413 0.575865
O O2 0.163281 0.962155 0.775396
O O3 0.364345 0.229980 0.888383
O O4 0.000000 0.000000 0.500000
O O5 0.259884 0.489407 0.228575
O O6 0.269250 0.475175 0.394046
O O7 0.644974 0.344519 0.266331
O O8 0.500000 0.000000 0.000000
O O9 0.460690 0.751951 0.368397
O O10 0.062345 0.674691 0.104224
O O11 0.960268 0.746000 0.666984
O O12 0.846024 0.855520 0.552716
O O13 0.245846 0.320213 0.755117
O O14 0.122312 0.555885 0.738276
O O15 0.500000 0.500000 0.000000
O O16 0.000000 0.000000 0.000000
#
# Coordination Sequence:
#
# PCOD9042650 Si02
#       7
#     2   2   2   2   2   2   2
#     4  10  25  44  70 105 148 203 260 324 398 472
#     4  10  23  44  73 109 152 210 265 326 403 480
#     4  10  23  45  73 111 155 204 269 327 403 484
#     4  11  24  46  74 114 156 204 269 333 407 487
#     4  11  25  43  76 110 151 209 261 337 400 480
#     4  11  25  47  69 104 154 205 267 322 399 480
#     4  11  23  46  73 112 155 203 268 331 405 482
#
# _framework density 28.444507999999999
#
# number of rings (size 3 to 8) (size 9 to 14) (size 15 to 20)
#    0.000    1.429    0.000    3.429    6.000    0.571 
#   10.286    0.000    0.000    0.000    0.000    0.000 
#    0.000    0.000    0.000    0.000    0.000    0.000 
#
# Total GULP energy -78126.071397 kJ/mol
# GULP energy per Si atom -5580.433671 kJ/mol
# Density = 2.837977 g / cm^3
# Si number density = 28.444508 Si / 1000 Ang^3
#
#
#
# Elastic Constant Matrix: (Units=GPa)
#
#
# Indices 1 2 3 4 5 6 
#
# 1 136.8324 19.7726 45.6099 16.2752 10.8600 7.3291
# 2 19.7726 142.6068 86.5337 3.2668 1.2407 22.4566
# 3 45.6099 86.5337 139.5311 21.8085 -9.6510 24.5237
# 4 16.2752 3.2668 21.8085 72.0409 10.9982 1.0217
# 5 10.8600 1.2407 -9.6510 10.9982 57.7249 5.4829
# 6 7.3291 22.4566 24.5237 1.0217 5.4829 54.4621
#
#
#
# Elastic Compliance Matrix: (Units=1/GPa)
#
#
# Indices 1 2 3 4 5 6 
#
# 1 0.008555 0.000899 -0.003450 -0.000610 -0.002114 0.000256
# 2 0.000899 0.011822 -0.007840 0.001955 -0.001983 -0.001303
# 3 -0.003450 -0.007840 0.014639 -0.003910 0.004319 -0.003256
# 4 -0.000610 0.001955 -0.003910 0.015658 -0.003670 0.001112
# 5 -0.002114 -0.001983 0.004319 -0.003670 0.019445 -0.002732
# 6 0.000256 -0.001303 -0.003256 0.001112 -0.002732 0.020585
#
#
# Mechanical properties :
#
#
# Convention : Reuss Voigt Hill
#
# Bulk Modulus (GPa) = 70.24737 80.31140 75.27939
# Shear Modulus (GPa) = 43.01857 54.64918 48.83388
#
# Velocity S-wave (km/s) = 3.89314 4.38797 4.14794
# Velocity P-wave (km/s) = 6.70512 7.34630 7.03302
#
# Compressibility (1/GPa) = 0.01423541
#
# Stress axis : x y z
#
# Youngs Moduli (GPa) = 116.89300 84.58591 68.31194
#
# Poissons Ratio (x) = -0.07608 0.23567
# Poissons Ratio (y) = -0.10514 0.53554
# Poissons Ratio (z) = 0.40328 0.66313
#
# Static dielectric constant tensor:
#      x y z
#    x 2.924050 -0.309580 0.233900 
#    y -0.309580 2.774190 -0.024570 
#    z 0.233900 -0.024570 2.307090 
# 
# From -- ./inp_files/498645.got.cif
#   From: 2010.05.17/outbox.cif.g08.bks.cpg/sg2_250_cif.got.tgz:498645.got - 2010.06.03 11:33:40.
