data_PCOD9042599
_publ_section_title
;
Structure prediction by ZEFSAII (Michael W. Deem and Ramdas Pophale) SiO2 
 PCOD9042599
Probable space group: P -1
;
_chemical_formula_sum "Si O2"
_cell_formula_units_Z 16
_cell_length_a 18.582344
_cell_length_b 7.423003
_cell_length_c 9.132313
_cell_angle_alpha 34.398209
_cell_angle_beta 113.648827
_cell_angle_gamma 114.048504
_cell_volume 644.716297
_symmetry_space_group_name_H-M "P -1"
_symmetry_group_IT_number 2
_symmetry_cell_setting 'triclinic'
loop_
_space_group_symop_operation_xyz
x,y,z
-x,-y,-z
loop_
_atom_site_type_symbol
_atom_site_label
_atom_site_fract_x
_atom_site_fract_y
_atom_site_fract_z
Si Si1 0.480728 0.654905 0.535092
Si Si2 0.075829 0.680629 0.851102
Si Si3 0.422995 0.720709 0.911108
Si Si4 0.168906 0.214330 0.395841
Si Si5 0.021431 0.649304 0.263177
Si Si6 0.288307 0.234199 0.969752
Si Si7 0.670259 0.809620 0.284350
Si Si8 0.190943 0.773182 0.425563
O O1 0.500000 0.500000 0.500000
O O2 0.387952 0.527853 0.560645
O O3 0.515457 0.029287 0.299890
O O4 0.527795 0.486050 0.808131
O O5 0.146057 0.536864 0.087392
O O6 0.106295 0.048904 0.580426
O O7 0.000000 0.500000 0.000000
O O8 0.043263 0.546947 0.760459
O O9 0.361692 0.486694 0.920492
O O10 0.374327 0.937615 0.831232
O O11 0.170617 0.979298 0.412689
O O12 0.253271 0.244558 0.523699
O O13 0.116607 0.687042 0.312455
O O14 0.000000 0.500000 0.500000
O O15 0.000000 0.000000 0.000000
O O16 0.308862 0.073445 0.941996
O O17 0.220812 0.452844 0.724534
O O18 0.257368 0.992296 0.236872
#
# Coordination Sequence:
#
# PCOD9042599 Si02
#       8
#     2   2   2   2   2   2   2   2
#     4  10  23  44  73 102 136 189 228 284 350 414
#     4  12  27  45  67 104 135 181 233 286 347 407
#     4  11  24  47  73  98 144 183 231 287 348 412
#     4  12  26  46  71  96 141 190 222 288 354 409
#     4  12  23  43  69  92 125 177 231 273 336 412
#     4  12  28  43  71 106 138 183 234 288 343 412
#     4  11  27  45  72 107 141 181 238 286 350 414
#     4  12  25  47  67 100 139 182 233 285 351 413
#
# _framework density 24.817118000000001
#
# number of rings (size 3 to 8) (size 9 to 14) (size 15 to 20)
#    0.000    0.500    3.750    4.125    5.250    5.000 
#    0.000    0.000    0.000    0.000    0.000    0.000 
#    0.000    0.000    0.000    0.000    0.000    0.000 
#
# Total GULP energy -89578.148748 kJ/mol
# GULP energy per Si atom -5598.634297 kJ/mol
# Density = 2.476063 g / cm^3
# Si number density = 24.817118 Si / 1000 Ang^3
#
#
#
# Elastic Constant Matrix: (Units=GPa)
#
#
# Indices 1 2 3 4 5 6 
#
# 1 68.3078 46.1803 40.2013 1.2765 -14.4862 7.8781
# 2 46.1803 143.2609 51.2231 14.6360 2.9990 28.7380
# 3 40.2013 51.2231 179.9272 18.8658 -4.3787 7.6557
# 4 1.2765 14.6360 18.8658 33.9718 10.2766 1.9902
# 5 -14.4862 2.9990 -4.3787 10.2766 50.8885 4.9995
# 6 7.8781 28.7380 7.6557 1.9902 4.9995 31.1489
#
#
#
# Elastic Compliance Matrix: (Units=1/GPa)
#
#
# Indices 1 2 3 4 5 6 
#
# 1 0.021975 -0.006240 -0.003174 0.001818 0.005993 -0.000099
# 2 -0.006240 0.011436 -0.001198 -0.003211 -0.001090 -0.008298
# 3 -0.003174 -0.001198 0.006957 -0.003373 0.000413 0.000347
# 4 0.001818 -0.003211 -0.003373 0.034545 -0.006777 0.002212
# 5 0.005993 -0.001090 0.000413 -0.006777 0.023208 -0.003904
# 6 -0.000099 -0.008298 0.000347 0.002212 -0.003904 0.040184
#
#
# Mechanical properties :
#
#
# Convention : Reuss Voigt Hill
#
# Bulk Modulus (GPa) = 52.23898 74.07836 63.15867
# Shear Modulus (GPa) = 30.13687 40.12792 35.13240
#
# Velocity S-wave (km/s) = 3.48854 4.02549 3.76660
# Velocity P-wave (km/s) = 6.10916 7.17778 6.66492
#
# Compressibility (1/GPa) = 0.01914279
#
# Stress axis : x y z
#
# Youngs Moduli (GPa) = 45.50726 87.44671 143.74032
#
# Poissons Ratio (x) = 0.54568 0.45622
# Poissons Ratio (y) = 0.28397 0.17221
# Poissons Ratio (z) = 0.14444 0.10477
#
# Static dielectric constant tensor:
#      x y z
#    x 2.109030 -0.008900 -0.020640 
#    y -0.008900 1.981520 -0.058060 
#    z -0.020640 -0.058060 1.848250 
# 
# From -- ./inp_files/343223.got.cif
#   From: 2010.05.17/outbox.cif.g08.bks.cpg/sg2_172_cif.got.tgz:343223.got - 2010.06.03 11:33:40.
