data_PCOD9042579
_publ_section_title
;
Structure prediction by ZEFSAII (Michael W. Deem and Ramdas Pophale) SiO2 
 PCOD9042579
Probable space group: P -1
;
_chemical_formula_sum "Si O2"
_cell_formula_units_Z 14
_cell_length_a 16.214642
_cell_length_b 8.660301
_cell_length_c 6.472288
_cell_angle_alpha 126.152757
_cell_angle_beta 98.717069
_cell_angle_gamma 59.027403
_cell_volume 613.858366
_symmetry_space_group_name_H-M "P -1"
_symmetry_group_IT_number 2
_symmetry_cell_setting 'triclinic'
loop_
_space_group_symop_operation_xyz
x,y,z
-x,-y,-z
loop_
_atom_site_type_symbol
_atom_site_label
_atom_site_fract_x
_atom_site_fract_y
_atom_site_fract_z
Si Si1 0.791847 0.381342 0.294189
Si Si2 0.695523 0.863820 0.790099
Si Si3 0.426334 0.042279 0.816452
Si Si4 0.008223 0.680152 0.783373
Si Si5 0.827475 0.009210 0.763177
Si Si6 0.488549 0.738163 0.217677
Si Si7 0.088508 0.018030 0.647511
O O1 0.711812 0.625491 0.540891
O O2 0.842378 0.202629 0.360280
O O3 0.879097 0.395821 0.233013
O O4 0.760168 0.263824 0.020767
O O5 0.789303 0.870736 0.759431
O O6 0.607634 0.069411 0.790955
O O7 0.672045 0.895914 0.050145
O O8 0.425496 0.232613 0.823646
O O9 0.468391 0.824547 0.514227
O O10 0.500000 0.000000 0.000000
O O11 0.000000 0.500000 0.500000
O O12 0.938124 0.911317 0.811968
O O13 0.961791 0.755870 0.052985
O O14 0.842281 0.979789 0.503217
O O15 0.500000 0.500000 0.000000
O O16 0.000000 0.000000 0.500000
#
# Coordination Sequence:
#
# PCOD9042579 Si02
#       7
#     2   2   2   2   2   2   2
#     4  11  23  41  61  89 135 168 218 275 319 374
#     4  11  25  40  62  99 133 167 208 268 324 378
#     4   9  22  45  70  99 130 165 204 255 329 390
#     4  11  21  40  63  88 125 175 224 268 322 375
#     4  11  23  40  61  94 128 173 224 266 320 374
#     4  10  23  44  73 100 127 164 214 253 319 401
#     4  11  21  39  63  86 120 177 226 267 316 367
#
# _framework density 22.806564000000002
#
# number of rings (size 3 to 8) (size 9 to 14) (size 15 to 20)
#    0.000    1.429    4.286    0.857    0.000   12.000 
#    2.571    0.000    0.000    0.000    0.000    0.000 
#    0.000    0.000    0.000    0.000    0.000    0.000 
#
# Total GULP energy -78169.289169 kJ/mol
# GULP energy per Si atom -5583.520655 kJ/mol
# Density = 2.275466 g / cm^3
# Si number density = 22.806564 Si / 1000 Ang^3
#
#
#
# Elastic Constant Matrix: (Units=GPa)
#
#
# Indices 1 2 3 4 5 6 
#
# 1 82.4830 24.9402 54.4184 -7.6803 -22.4843 26.0545
# 2 24.9402 77.3687 69.9013 18.5995 -17.0291 4.1533
# 3 54.4184 69.9013 234.3830 10.6239 -19.7439 40.4723
# 4 -7.6803 18.5995 10.6239 43.0647 11.8967 -1.5948
# 5 -22.4843 -17.0291 -19.7439 11.8967 39.5258 -8.9739
# 6 26.0545 4.1533 40.4723 -1.5948 -8.9739 35.1992
#
#
#
# Elastic Compliance Matrix: (Units=1/GPa)
#
#
# Indices 1 2 3 4 5 6 
#
# 1 0.019422 -0.004738 -0.000912 0.003997 0.004766 -0.011372
# 2 -0.004738 0.025668 -0.006858 -0.012954 0.011254 0.010646
# 3 -0.000912 -0.006858 0.007660 0.001102 -0.001731 -0.007714
# 4 0.003997 -0.012954 0.001102 0.032872 -0.013719 -0.004706
# 5 0.004766 0.011254 -0.001731 -0.013719 0.037503 0.006074
# 6 -0.011372 0.010646 -0.007714 -0.004706 0.006074 0.045776
#
#
# Mechanical properties :
#
#
# Convention : Reuss Voigt Hill
#
# Bulk Modulus (GPa) = 36.05811 76.97271 56.51541
# Shear Modulus (GPa) = 24.61070 39.88961 32.25015
#
# Velocity S-wave (km/s) = 3.28854 4.18669 3.76450
# Velocity P-wave (km/s) = 5.50128 7.56272 6.61282
#
# Compressibility (1/GPa) = 0.02773301
#
# Stress axis : x y z
#
# Youngs Moduli (GPa) = 51.48888 38.95834 130.54608
#
# Poissons Ratio (x) = 0.18458 0.11911
# Poissons Ratio (y) = 0.24394 0.89534
# Poissons Ratio (z) = 0.04698 0.26719
#
# Static dielectric constant tensor:
#      x y z
#    x 1.991910 -0.016870 -0.005260 
#    y -0.016870 1.864370 0.021440 
#    z -0.005260 0.021440 1.926720 
# 
# From -- ./inp_files/107810.got.cif
#   From: 2010.05.17/outbox.cif.g08.bks.cpg/sg2_54_cif.got.tgz:107810.got - 2010.06.03 11:33:40.
