data_PCOD9042677
_publ_section_title
;
Structure prediction by ZEFSAII (Michael W. Deem and Ramdas Pophale) SiO2 
 PCOD9042677
Probable space group: P -1
;
_chemical_formula_sum "Si O2"
_cell_formula_units_Z 16
_cell_length_a 9.953496
_cell_length_b 8.753926
_cell_length_c 17.936911
_cell_angle_alpha 46.479117
_cell_angle_beta 142.109065
_cell_angle_gamma 122.770931
_cell_volume 696.008847
_symmetry_space_group_name_H-M "P -1"
_symmetry_group_IT_number 2
_symmetry_cell_setting 'triclinic'
loop_
_space_group_symop_operation_xyz
x,y,z
-x,-y,-z
loop_
_atom_site_type_symbol
_atom_site_label
_atom_site_fract_x
_atom_site_fract_y
_atom_site_fract_z
Si Si1 0.070095 0.326808 0.790848
Si Si2 0.563371 0.298899 0.545061
Si Si3 0.403434 0.486777 0.262236
Si Si4 0.683724 0.331299 0.154744
Si Si5 0.924391 0.154432 0.017916
Si Si6 0.430429 0.167303 0.239865
Si Si7 0.169280 0.350383 0.665770
Si Si8 0.732997 0.079169 0.111395
O O1 0.098317 0.529349 0.786653
O O2 0.208532 0.396042 0.755026
O O3 0.177275 0.160056 0.104805
O O4 0.138823 0.096576 0.930837
O O5 0.500000 0.500000 0.500000
O O6 0.460600 0.340287 0.405801
O O7 0.826985 0.301467 0.661751
O O8 0.505045 0.065694 0.625332
O O9 0.209025 0.651676 0.141193
O O10 0.409993 0.338433 0.240933
O O11 0.608618 0.639589 0.286143
O O12 0.597599 0.216109 0.229779
O O13 0.690271 0.198557 0.127769
O O14 0.500000 0.500000 0.000000
O O15 0.865781 0.197167 0.065322
O O16 0.000000 0.500000 0.500000
O O17 0.107733 0.108696 0.728468
O O18 0.500000 0.000000 0.000000
#
# Coordination Sequence:
#
# PCOD9042677 Si02
#       8
#     2   2   2   2   2   2   2   2
#     4  10  23  45  66 103 135 179 226 282 339 408
#     4  11  27  45  67  97 145 186 227 279 348 411
#     4  12  22  43  73  96 133 187 231 280 337 410
#     4  12  25  42  73 107 139 172 232 290 336 407
#     4  10  23  44  74 100 139 179 229 283 349 407
#     4  11  26  46  68 106 139 180 233 288 343 401
#     4  11  21  39  69  95 129 179 230 271 340 400
#     4  11  23  43  70 102 136 178 226 279 344 406
#
# _framework density 22.988213999999999
#
# number of rings (size 3 to 8) (size 9 to 14) (size 15 to 20)
#    0.000    1.000    3.750    3.000    1.750    2.000 
#    2.250    5.625    0.000    0.000    0.000    0.000 
#    0.000    0.000    0.000    0.000    0.000    0.000 
#
# Total GULP energy -89296.489877 kJ/mol
# GULP energy per Si atom -5581.030617 kJ/mol
# Density = 2.293589 g / cm^3
# Si number density = 22.988214 Si / 1000 Ang^3
#
#
#
# Elastic Constant Matrix: (Units=GPa)
#
#
# Indices 1 2 3 4 5 6 
#
# 1 82.7025 45.4623 31.3944 -6.7507 -15.1324 -8.6801
# 2 45.4623 122.7800 56.3906 -1.2558 -9.9211 -19.9200
# 3 31.3944 56.3906 152.8884 -26.0986 -14.4701 1.2211
# 4 -6.7507 -1.2558 -26.0986 28.5435 -8.1730 -1.8056
# 5 -15.1324 -9.9211 -14.4701 -8.1730 32.8378 -7.5889
# 6 -8.6801 -19.9200 1.2211 -1.8056 -7.5889 33.4549
#
#
#
# Elastic Compliance Matrix: (Units=1/GPa)
#
#
# Indices 1 2 3 4 5 6 
#
# 1 0.017519 -0.005202 0.000414 0.007235 0.009399 0.003956
# 2 -0.005202 0.013178 -0.004619 -0.004495 -0.000091 0.006402
# 3 0.000414 -0.004619 0.010678 0.011333 0.006080 -0.001042
# 4 0.007235 -0.004495 0.011333 0.053583 0.021839 0.006633
# 5 0.009399 -0.000091 0.006080 0.021839 0.046058 0.013789
# 6 0.003956 0.006402 -0.001042 0.006633 0.013789 0.038253
#
#
# Mechanical properties :
#
#
# Convention : Reuss Voigt Hill
#
# Bulk Modulus (GPa) = 44.32468 69.42948 56.87708
# Shear Modulus (GPa) = 24.31868 33.97548 29.14708
#
# Velocity S-wave (km/s) = 3.25603 3.84859 3.56464
# Velocity P-wave (km/s) = 5.78437 7.07224 6.46048
#
# Compressibility (1/GPa) = 0.02256079
#
# Stress axis : x y z
#
# Youngs Moduli (GPa) = 57.07979 75.88555 93.65208
#
# Poissons Ratio (x) = 0.39475 -0.03879
# Poissons Ratio (y) = 0.29693 0.43260
# Poissons Ratio (z) = -0.02364 0.35054
#
# Static dielectric constant tensor:
#      x y z
#    x 2.027040 0.091560 -0.037160 
#    y 0.091560 1.764620 0.028350 
#    z -0.037160 0.028350 1.894680 
# 
# From -- ./inp_files/515083.got.cif
#   From: 2010.05.17/outbox.cif.g08.bks.cpg/sg2_258_cif.got.tgz:515083.got - 2010.06.03 11:33:40.
