data_PCOD9042760
_publ_section_title
;
Structure prediction by ZEFSAII (Michael W. Deem and Ramdas Pophale) SiO2 
 PCOD9042760
Probable space group: P -1
;
_chemical_formula_sum "Si O2"
_cell_formula_units_Z 10
_cell_length_a 9.415863
_cell_length_b 7.045977
_cell_length_c 10.104431
_cell_angle_alpha 134.831442
_cell_angle_beta 58.537408
_cell_angle_gamma 101.790973
_cell_volume 390.399953
_symmetry_space_group_name_H-M "P -1"
_symmetry_group_IT_number 2
_symmetry_cell_setting 'triclinic'
loop_
_space_group_symop_operation_xyz
x,y,z
-x,-y,-z
loop_
_atom_site_type_symbol
_atom_site_label
_atom_site_fract_x
_atom_site_fract_y
_atom_site_fract_z
Si Si1 0.372912 0.555562 0.965537
Si Si2 0.938164 0.961208 0.180422
Si Si3 0.410976 0.616244 0.461702
Si Si4 0.793828 0.818996 0.709534
Si Si5 0.016550 0.397596 0.757373
O O1 0.189810 0.534098 0.098693
O O2 0.332037 0.872837 0.090003
O O3 0.500000 0.500000 0.000000
O O4 0.450012 0.363844 0.707805
O O5 0.919058 0.814275 0.257467
O O6 0.745505 0.112030 0.303486
O O7 0.047349 0.698862 0.914201
O O8 0.060670 0.164630 0.246431
O O9 0.500000 0.500000 0.500000
O O10 0.313779 0.404525 0.336658
O O11 0.896700 0.747225 0.486709
#
# Coordination Sequence:
#
# PCOD9042760 Si02
#       5
#     2   2   2   2   2
#     4  11  24  46  73 101 141 186 231 287 346 411
#     4  10  23  45  70  95 138 186 235 272 343 417
#     4  12  28  43  68 109 147 176 223 297 358 399
#     4  11  24  46  70 100 139 184 235 279 348 415
#     4  10  23  44  75  98 129 186 248 275 328 422
#
# _framework density 25.61476
#
# number of rings (size 3 to 8) (size 9 to 14) (size 15 to 20)
#    0.000    1.200    0.000    6.000   11.200    1.600 
#    3.600    0.000    0.000    0.000    0.000    0.000 
#    0.000    0.000    0.000    0.000    0.000    0.000 
#
# Total GULP energy -56087.351900 kJ/mol
# GULP energy per Si atom -5608.735190 kJ/mol
# Density = 2.555646 g / cm^3
# Si number density = 25.614760 Si / 1000 Ang^3
#
#
#
# Elastic Constant Matrix: (Units=GPa)
#
#
# Indices 1 2 3 4 5 6 
#
# 1 130.4033 35.8586 18.9482 -3.0967 -23.9791 -27.2495
# 2 35.8586 54.3440 41.8323 -12.8401 -11.7234 -4.1376
# 3 18.9482 41.8323 101.1788 -10.8164 -11.2428 -10.9684
# 4 -3.0967 -12.8401 -10.8164 60.9467 -1.0258 2.2923
# 5 -23.9791 -11.7234 -11.2428 -1.0258 50.9753 6.6071
# 6 -27.2495 -4.1376 -10.9684 2.2923 6.6071 61.3420
#
#
#
# Elastic Compliance Matrix: (Units=1/GPa)
#
#
# Indices 1 2 3 4 5 6 
#
# 1 0.011078 -0.008014 0.001980 -0.000886 0.003214 0.004422
# 2 -0.008014 0.034576 -0.012470 0.004844 0.002029 -0.003857
# 3 0.001980 -0.012470 0.015076 0.000068 0.001051 0.002619
# 4 -0.000886 0.004844 0.000068 0.017446 0.001171 -0.000833
# 5 0.003214 0.002029 0.001051 0.001171 0.021936 -0.000654
# 6 0.004422 -0.003857 0.002619 -0.000833 -0.000654 0.018576
#
#
# Mechanical properties :
#
#
# Convention : Reuss Voigt Hill
#
# Bulk Modulus (GPa) = 42.14998 53.24493 47.69745
# Shear Modulus (GPa) = 30.56165 47.27192 38.91679
#
# Velocity S-wave (km/s) = 3.45791 4.30058 3.90206
# Velocity P-wave (km/s) = 5.69508 6.74477 6.24203
#
# Compressibility (1/GPa) = 0.02372481
#
# Stress axis : x y z
#
# Youngs Moduli (GPa) = 90.26602 28.92144 66.32995
#
# Poissons Ratio (x) = 0.23177 -0.13136
# Poissons Ratio (y) = 0.72337 0.82711
# Poissons Ratio (z) = -0.17876 0.36064
#
# Static dielectric constant tensor:
#      x y z
#    x 2.030880 0.036660 0.043670 
#    y 0.036660 2.057810 0.033630 
#    z 0.043670 0.033630 1.970110 
# 
# From -- ./inp_files/230117.got.cif
#   From: 2010.05.17/outbox.cif.g08.bks.cpg/sg2_116_cif.got.tgz:230117.got - 2010.06.03 11:33:40.
