data_PCOD9042071
_publ_section_title
;
Structure prediction by ZEFSAII (Michael W. Deem and Ramdas Pophale) SiO2 
 PCOD9042071
Probable space group: P -1
;
_chemical_formula_sum "Si O2"
_cell_formula_units_Z 16
_cell_length_a 9.377407
_cell_length_b 8.768390
_cell_length_c 11.318626
_cell_angle_alpha 128.142955
_cell_angle_beta 90.997386
_cell_angle_gamma 89.505391
_cell_volume 731.833578
_symmetry_space_group_name_H-M "P -1"
_symmetry_group_IT_number 2
_symmetry_cell_setting 'triclinic'
loop_
_space_group_symop_operation_xyz
x,y,z
-x,-y,-z
loop_
_atom_site_type_symbol
_atom_site_label
_atom_site_fract_x
_atom_site_fract_y
_atom_site_fract_z
Si Si1 0.364118 0.102287 0.348116
Si Si2 0.270740 0.682812 0.248379
Si Si3 0.101209 0.990762 0.883915
Si Si4 0.081343 0.294447 0.411895
Si Si5 0.148920 0.384238 0.947569
Si Si6 0.954837 0.780987 0.363499
Si Si7 0.578515 0.138201 0.158185
Si Si8 0.504754 0.441108 0.614091
O O1 0.237752 0.221801 0.334140
O O2 0.501212 0.085971 0.256471
O O3 0.414025 0.244687 0.520908
O O4 0.312787 0.894906 0.298406
O O5 0.106849 0.688061 0.290177
O O6 0.357228 0.614778 0.332929
O O7 0.270462 0.529098 0.066037
O O8 0.253612 0.894552 0.858683
O O9 0.022358 0.870256 0.721604
O O10 0.132344 0.210561 0.955406
O O11 0.000000 0.000000 0.000000
O O12 0.000000 0.500000 0.500000
O O13 0.105467 0.290465 0.549323
O O14 0.153222 0.274957 0.769297
O O15 0.000000 0.500000 0.000000
O O16 0.000000 0.000000 0.500000
O O17 0.553680 0.363119 0.236950
O O18 0.500000 0.000000 0.000000
O O19 0.500000 0.500000 0.500000
#
# Coordination Sequence:
#
# PCOD9042071 Si02
#       8
#     2   2   2   2   2   2   2   2
#     4  11  24  46  67 103 142 181 237 284 351 416
#     4  11  23  44  70 100 143 188 230 292 346 417
#     4  12  26  45  71 102 137 184 233 288 355 418
#     4  12  26  42  70 108 136 185 239 291 346 416
#     4  10  23  44  69 102 140 181 227 295 352 412
#     4  11  22  42  69 101 142 180 238 289 347 411
#     4  11  25  46  68 100 142 183 229 290 351 419
#     4  10  24  43  70  98 139 187 231 283 344 414
#
# _framework density 21.862894000000001
#
# number of rings (size 3 to 8) (size 9 to 14) (size 15 to 20)
#    0.000    1.000    2.500    3.375   10.500    0.000 
#    4.500    1.250    0.000    0.000    0.000    0.000 
#    0.000    0.000    0.000    0.000    0.000    0.000 
#
# Total GULP energy -89194.884169 kJ/mol
# GULP energy per Si atom -5574.680261 kJ/mol
# Density = 2.181313 g / cm^3
# Si number density = 21.862894 Si / 1000 Ang^3
#
#
#
# Elastic Constant Matrix: (Units=GPa)
#
#
# Indices 1 2 3 4 5 6 
#
# 1 121.4804 26.6179 47.8212 -4.0281 6.0455 -15.4452
# 2 26.6179 100.0589 50.0386 14.3571 3.4188 -8.1284
# 3 47.8212 50.0386 155.4193 13.1732 31.2241 1.6822
# 4 -4.0281 14.3571 13.1732 44.0685 4.8353 -0.2716
# 5 6.0455 3.4188 31.2241 4.8353 47.2228 -2.5680
# 6 -15.4452 -8.1284 1.6822 -0.2716 -2.5680 34.0964
#
#
#
# Elastic Compliance Matrix: (Units=1/GPa)
#
#
# Indices 1 2 3 4 5 6 
#
# 1 0.010381 -0.001095 -0.003269 0.002208 0.000940 0.004691
# 2 -0.001095 0.012955 -0.004063 -0.003351 0.002392 0.002946
# 3 -0.003269 -0.004063 0.010109 -0.001358 -0.006018 -0.003412
# 4 0.002208 -0.003351 -0.001358 0.024573 -0.001640 0.000341
# 5 0.000940 0.002392 -0.006018 -0.001640 0.025203 0.003178
# 6 0.004691 0.002946 -0.003412 0.000341 0.003178 0.032567
#
#
# Mechanical properties :
#
#
# Convention : Reuss Voigt Hill
#
# Bulk Modulus (GPa) = 60.26504 69.54599 64.90552
# Shear Modulus (GPa) = 36.18684 41.90959 39.04822
#
# Velocity S-wave (km/s) = 4.07279 4.38302 4.23075
# Velocity P-wave (km/s) = 7.05278 7.58246 7.32241
#
# Compressibility (1/GPa) = 0.01659337
#
# Stress axis : x y z
#
# Youngs Moduli (GPa) = 96.32732 77.18731 98.92188
#
# Poissons Ratio (x) = 0.08452 0.32334
# Poissons Ratio (y) = 0.10548 0.40188
# Poissons Ratio (z) = 0.31486 0.31358
#
# Static dielectric constant tensor:
#      x y z
#    x 1.712800 0.045600 -0.104310 
#    y 0.045600 1.787490 -0.022070 
#    z -0.104310 -0.022070 2.160740 
# 
# From -- ./inp_files/244198.got.cif
#   From: 2010.05.17/outbox.cif.g08.bks.cpg/sg2_123_cif.got.tgz:244198.got - 2010.06.03 11:33:40.
