data_PCOD9042310
_publ_section_title
;
Structure prediction by ZEFSAII (Michael W. Deem and Ramdas Pophale) SiO2 
 PCOD9042310
Probable space group: P -1
;
_chemical_formula_sum "Si O2"
_cell_formula_units_Z 16
_cell_length_a 14.110128
_cell_length_b 9.075306
_cell_length_c 8.554513
_cell_angle_alpha 134.838089
_cell_angle_beta 107.997710
_cell_angle_gamma 66.459803
_cell_volume 711.502437
_symmetry_space_group_name_H-M "P -1"
_symmetry_group_IT_number 2
_symmetry_cell_setting 'triclinic'
loop_
_space_group_symop_operation_xyz
x,y,z
-x,-y,-z
loop_
_atom_site_type_symbol
_atom_site_label
_atom_site_fract_x
_atom_site_fract_y
_atom_site_fract_z
Si Si1 0.888268 0.978305 0.378027
Si Si2 0.646709 0.496796 0.526859
Si Si3 0.206307 0.313598 0.447398
Si Si4 0.111402 0.484247 0.834715
Si Si5 0.387382 0.993791 0.491925
Si Si6 0.070338 0.108837 0.007017
Si Si7 0.274315 0.662165 0.232260
Si Si8 0.549069 0.129847 0.243080
O O1 0.884787 0.737484 0.241415
O O2 0.804952 0.148087 0.566825
O O3 0.879326 0.018565 0.217528
O O4 0.000000 0.000000 0.500000
O O5 0.744022 0.531849 0.512783
O O6 0.669027 0.501020 0.726853
O O7 0.617951 0.274172 0.311712
O O8 0.545658 0.692972 0.590414
O O9 0.122619 0.437704 0.621265
O O10 0.299011 0.170232 0.491906
O O11 0.156433 0.168765 0.202608
O O12 0.006283 0.672375 0.939481
O O13 0.206471 0.569368 0.008988
O O14 0.500000 0.000000 0.500000
O O15 0.357906 0.769298 0.278855
O O16 0.387305 0.016740 0.697047
O O17 0.000000 0.000000 0.000000
O O18 0.500000 0.000000 0.000000
#
# Coordination Sequence:
#
# PCOD9042310 Si02
#       8
#     2   2   2   2   2   2   2   2
#     4  12  25  46  74 101 142 188 234 288 350 413
#     4  10  24  42  65 102 133 176 232 285 339 416
#     4  12  25  43  70 102 141 180 232 285 350 414
#     4  12  26  47  71 103 142 186 233 288 350 423
#     4  11  23  47  68  98 143 180 230 291 340 420
#     4  12  27  46  72 104 144 183 234 290 352 422
#     4  11  25  45  72 102 140 185 238 281 349 423
#     4  10  23  44  70  94 134 180 232 286 347 404
#
# _framework density 22.487624
#
# number of rings (size 3 to 8) (size 9 to 14) (size 15 to 20)
#    0.000    0.750    3.750    3.000    5.250    3.000 
#    0.000    1.250    0.000    0.000    0.000    0.000 
#    0.000    0.000    0.000    0.000    0.000    0.000 
#
# Total GULP energy -89565.061710 kJ/mol
# GULP energy per Si atom -5597.816357 kJ/mol
# Density = 2.243644 g / cm^3
# Si number density = 22.487624 Si / 1000 Ang^3
#
#
#
# Elastic Constant Matrix: (Units=GPa)
#
#
# Indices 1 2 3 4 5 6 
#
# 1 118.8052 26.8422 47.6918 2.5301 27.4940 20.7098
# 2 26.8422 84.8596 37.8730 4.2110 14.2589 3.1847
# 3 47.6918 37.8730 137.0798 -21.7780 36.8597 14.3412
# 4 2.5301 4.2110 -21.7780 24.0235 -6.9581 9.3164
# 5 27.4940 14.2589 36.8597 -6.9581 38.2874 -4.3824
# 6 20.7098 3.1847 14.3412 9.3164 -4.3824 52.3037
#
#
#
# Elastic Compliance Matrix: (Units=1/GPa)
#
#
# Indices 1 2 3 4 5 6 
#
# 1 0.011986 -0.001400 -0.001886 -0.003230 -0.007336 -0.004183
# 2 -0.001400 0.014894 -0.004876 -0.008094 -0.001051 0.002338
# 3 -0.001886 -0.004876 0.014631 0.014111 -0.009064 -0.006241
# 4 -0.003230 -0.008094 0.014111 0.061624 0.001465 -0.012951
# 5 -0.007336 -0.001051 -0.009064 0.001465 0.041765 0.008692
# 6 -0.004183 0.002338 -0.006241 -0.012951 0.008692 0.025379
#
#
# Mechanical properties :
#
#
# Convention : Reuss Voigt Hill
#
# Bulk Modulus (GPa) = 39.70412 62.83983 51.27198
# Shear Modulus (GPa) = 25.64127 38.14542 31.89335
#
# Velocity S-wave (km/s) = 3.38041 4.12307 3.77007
# Velocity P-wave (km/s) = 5.73851 7.11836 6.46535
#
# Compressibility (1/GPa) = 0.02518630
#
# Stress axis : x y z
#
# Youngs Moduli (GPa) = 83.42951 67.14333 68.35001
#
# Poissons Ratio (x) = 0.09397 0.12894
# Poissons Ratio (y) = 0.11677 0.33327
# Poissons Ratio (z) = 0.15739 0.32738
#
# Static dielectric constant tensor:
#      x y z
#    x 1.883060 -0.013860 -0.048770 
#    y -0.013860 1.843390 0.021210 
#    z -0.048770 0.021210 1.820920 
# 
# From -- ./inp_files/208580.got.cif
#   From: 2010.05.17/outbox.cif.g08.bks.cpg/sg2_105_cif.got.tgz:208580.got - 2010.06.03 11:33:40.
