data_PCOD9042449
_publ_section_title
;
Structure prediction by ZEFSAII (Michael W. Deem and Ramdas Pophale) SiO2 
 PCOD9042449
Probable space group: P -1
;
_chemical_formula_sum "Si O2"
_cell_formula_units_Z 16
_cell_length_a 10.252526
_cell_length_b 8.984334
_cell_length_c 10.898303
_cell_angle_alpha 123.892869
_cell_angle_beta 61.179548
_cell_angle_gamma 86.634354
_cell_volume 651.846176
_symmetry_space_group_name_H-M "P -1"
_symmetry_group_IT_number 2
_symmetry_cell_setting 'triclinic'
loop_
_space_group_symop_operation_xyz
x,y,z
-x,-y,-z
loop_
_atom_site_type_symbol
_atom_site_label
_atom_site_fract_x
_atom_site_fract_y
_atom_site_fract_z
Si Si1 0.585766 0.607024 0.188569
Si Si2 0.962686 0.173463 0.491265
Si Si3 0.264893 0.935632 0.617948
Si Si4 0.823472 0.002923 0.041760
Si Si5 0.162793 0.416480 0.131602
Si Si6 0.549248 0.231458 0.067879
Si Si7 0.685631 0.833886 0.687469
Si Si8 0.196411 0.342882 0.708647
O O1 0.428545 0.794886 0.402338
O O2 0.545325 0.424802 0.096009
O O3 0.722656 0.536439 0.202789
O O4 0.674859 0.652668 0.056657
O O5 0.877743 0.120176 0.392296
O O6 0.849619 0.397050 0.695581
O O7 0.131922 0.181851 0.382049
O O8 0.000000 0.000000 0.500000
O O9 0.282162 0.919552 0.748351
O O10 0.212108 0.162302 0.705532
O O11 0.708755 0.135619 0.043631
O O12 0.847177 0.777958 0.899913
O O13 0.000000 0.000000 0.000000
O O14 0.994167 0.523510 0.176935
O O15 0.384719 0.283492 0.247586
O O16 0.567263 0.063563 0.883376
O O17 0.699473 0.759012 0.507983
#
# Coordination Sequence:
#
# PCOD9042449 Si02
#       8
#     2   2   2   2   2   2   2   2
#     4  12  26  43  71 106 139 182 237 284 346 421
#     4  11  22  43  71 102 138 180 232 292 347 408
#     4  12  26  43  71 106 140 179 229 294 352 403
#     4  12  27  45  70 105 146 184 233 288 347 422
#     4  11  25  42  75 102 134 190 235 282 346 415
#     4  11  26  45  68 101 147 186 226 288 353 407
#     4  10  23  44  71  93 140 189 224 279 357 405
#     4  11  23  44  72 101 139 177 233 290 345 408
#
# _framework density 24.545669
#
# number of rings (size 3 to 8) (size 9 to 14) (size 15 to 20)
#    0.000    0.750    3.750    3.750    3.500    6.500 
#    0.000    3.750    0.000    0.000    0.000    0.000 
#    0.000    0.000    0.000    0.000    0.000    0.000 
#
# Total GULP energy -89634.669694 kJ/mol
# GULP energy per Si atom -5602.166856 kJ/mol
# Density = 2.448980 g / cm^3
# Si number density = 24.545669 Si / 1000 Ang^3
#
#
#
# Elastic Constant Matrix: (Units=GPa)
#
#
# Indices 1 2 3 4 5 6 
#
# 1 101.8559 44.4540 12.2875 -4.0005 -7.3479 3.8297
# 2 44.4540 112.8806 34.8460 16.4325 -7.0397 14.9352
# 3 12.2875 34.8460 98.4142 -17.1923 0.9526 -1.7993
# 4 -4.0005 16.4325 -17.1923 36.1019 8.9990 -2.3080
# 5 -7.3479 -7.0397 0.9526 8.9990 47.4685 3.3486
# 6 3.8297 14.9352 -1.7993 -2.3080 3.3486 47.2606
#
#
#
# Elastic Compliance Matrix: (Units=1/GPa)
#
#
# Indices 1 2 3 4 5 6 
#
# 1 0.012552 -0.006379 0.001622 0.005179 -0.000111 0.001321
# 2 -0.006379 0.016814 -0.007684 -0.013570 0.004662 -0.006082
# 3 0.001622 -0.007684 0.014865 0.011917 -0.003708 0.003708
# 4 0.005179 -0.013570 0.011917 0.043106 -0.010126 0.007145
# 5 -0.000111 0.004662 -0.003708 -0.010126 0.024003 -0.003801
# 6 0.001321 -0.006082 0.003708 0.007145 -0.003801 0.023734
#
#
# Mechanical properties :
#
#
# Convention : Reuss Voigt Hill
#
# Bulk Modulus (GPa) = 51.68600 55.14729 53.41665
# Shear Modulus (GPa) = 30.04677 40.93709 35.49193
#
# Velocity S-wave (km/s) = 3.50253 4.08829 3.80670
# Velocity P-wave (km/s) = 6.12044 6.69339 6.41332
#
# Compressibility (1/GPa) = 0.01934760
#
# Stress axis : x y z
#
# Youngs Moduli (GPa) = 79.66762 59.47335 67.27237
#
# Poissons Ratio (x) = 0.37941 -0.10908
# Poissons Ratio (y) = 0.50823 0.51692
# Poissons Ratio (z) = -0.12918 0.45699
#
# Static dielectric constant tensor:
#      x y z
#    x 1.980880 -0.022020 -0.022900 
#    y -0.022020 1.907210 -0.022940 
#    z -0.022900 -0.022940 1.959770 
# 
# From -- ./inp_files/319088.got.cif
#   From: 2010.05.17/outbox.cif.g08.bks.cpg/sg2_160_cif.got.tgz:319088.got - 2010.06.03 11:33:40.
