data_PCOD9042199
_publ_section_title
;
Structure prediction by ZEFSAII (Michael W. Deem and Ramdas Pophale) SiO2 
 PCOD9042199
Probable space group: P -1
;
_chemical_formula_sum "Si O2"
_cell_formula_units_Z 16
_cell_length_a 9.041267
_cell_length_b 13.133272
_cell_length_c 10.830978
_cell_angle_alpha 49.878455
_cell_angle_beta 62.770039
_cell_angle_gamma 92.133377
_cell_volume 763.063837
_symmetry_space_group_name_H-M "P -1"
_symmetry_group_IT_number 2
_symmetry_cell_setting 'triclinic'
loop_
_space_group_symop_operation_xyz
x,y,z
-x,-y,-z
loop_
_atom_site_type_symbol
_atom_site_label
_atom_site_fract_x
_atom_site_fract_y
_atom_site_fract_z
Si Si1 0.067175 0.385117 0.513492
Si Si2 0.385585 0.140194 0.523230
Si Si3 0.574455 0.890170 0.003523
Si Si4 0.470182 0.566908 0.333454
Si Si5 0.276172 0.525433 0.811923
Si Si6 0.021952 0.933985 0.173385
Si Si7 0.429726 0.854929 0.811137
Si Si8 0.091987 0.520072 0.146221
O O1 0.278370 0.447907 0.434113
O O2 0.068256 0.400602 0.353799
O O3 0.000000 0.500000 0.500000
O O4 0.950849 0.213723 0.739110
O O5 0.549334 0.300365 0.391845
O O6 0.442507 0.140206 0.358509
O O7 0.176214 0.118786 0.638267
O O8 0.389478 0.996150 0.697816
O O9 0.533771 0.872750 0.886892
O O10 0.793098 0.951066 0.910824
O O11 0.463684 0.721373 0.234958
O O12 0.500000 0.000000 0.000000
O O13 0.500000 0.500000 0.500000
O O14 0.640928 0.586263 0.164580
O O15 0.112409 0.500158 0.797064
O O16 0.183132 0.497031 0.004705
O O17 0.000000 0.000000 0.000000
O O18 0.236927 0.691192 0.004736
#
# Coordination Sequence:
#
# PCOD9042199 Si02
#       8
#     2   2   2   2   2   2   2   2
#     4  12  25  43  67  98 130 173 223 279 330 390
#     4  10  23  44  70 100 136 175 218 272 335 399
#     4  12  27  44  67  96 135 179 221 275 330 393
#     4  12  25  43  67  98 130 173 223 279 330 390
#     4  10  23  44  71 101 134 173 219 274 335 397
#     4  12  27  44  67  96 135 179 221 275 330 393
#     4  10  23  44  70 100 136 175 218 272 335 399
#     4  10  23  44  71 101 134 173 219 274 335 397
#
# _framework density 20.9681
#
# number of rings (size 3 to 8) (size 9 to 14) (size 15 to 20)
#    0.000    1.000    2.500    3.000    7.000    2.000 
#    0.000    0.000    0.000    0.000    0.000    0.000 
#    0.000    0.000    0.000    0.000    0.000    0.000 
#
# Total GULP energy -89525.736043 kJ/mol
# GULP energy per Si atom -5595.358503 kJ/mol
# Density = 2.092038 g / cm^3
# Si number density = 20.968100 Si / 1000 Ang^3
#
#
#
# Elastic Constant Matrix: (Units=GPa)
#
#
# Indices 1 2 3 4 5 6 
#
# 1 131.3415 47.6458 35.3771 7.7372 5.9808 41.2959
# 2 47.6458 85.3820 28.3447 -12.0980 8.8487 4.9646
# 3 35.3771 28.3447 75.3805 -11.0875 16.8297 16.5066
# 4 7.7372 -12.0980 -11.0875 29.1913 -6.4218 0.9287
# 5 5.9808 8.8487 16.8297 -6.4218 50.5572 -3.0124
# 6 41.2959 4.9646 16.5066 0.9287 -3.0124 38.9866
#
#
#
# Elastic Compliance Matrix: (Units=1/GPa)
#
#
# Indices 1 2 3 4 5 6 
#
# 1 0.017059 -0.008990 -0.002018 -0.008914 -0.001859 -0.016002
# 2 -0.008990 0.018549 -0.003472 0.008608 0.000571 0.008469
# 3 -0.002018 -0.003472 0.018707 0.005274 -0.005060 -0.005857
# 4 -0.008914 0.008608 0.005274 0.042800 0.003548 0.005367
# 5 -0.001859 0.000571 -0.005060 0.003548 0.022373 0.005683
# 6 -0.016002 0.008469 -0.005857 0.005367 0.005683 0.044313
#
#
# Mechanical properties :
#
#
# Convention : Reuss Voigt Hill
#
# Bulk Modulus (GPa) = 39.43764 57.20436 48.32100
# Shear Modulus (GPa) = 24.84941 35.79610 30.32276
#
# Velocity S-wave (km/s) = 3.44627 4.13627 3.80694
# Velocity P-wave (km/s) = 5.88939 7.08184 6.51297
#
# Compressibility (1/GPa) = 0.02535648
#
# Stress axis : x y z
#
# Youngs Moduli (GPa) = 58.61846 53.91057 53.45704
#
# Poissons Ratio (x) = 0.48464 0.10787
# Poissons Ratio (y) = 0.52696 0.18559
# Poissons Ratio (z) = 0.11829 0.18716
#
# Static dielectric constant tensor:
#      x y z
#    x 1.733840 -0.010080 -0.011440 
#    y -0.010080 1.768070 -0.005700 
#    z -0.011440 -0.005700 1.770380 
# 
# From -- ./inp_files/271390.got.cif
#   From: 2010.05.17/outbox.cif.g08.bks.cpg/sg2_136_cif.got.tgz:271390.got - 2010.06.03 11:33:40.
