data_PCOD9042713
_publ_section_title
;
Structure prediction by ZEFSAII (Michael W. Deem and Ramdas Pophale) SiO2 
 PCOD9042713
Probable space group: P -1
;
_chemical_formula_sum "Si O2"
_cell_formula_units_Z 16
_cell_length_a 11.481034
_cell_length_b 31.502401
_cell_length_c 21.219421
_cell_angle_alpha 168.710888
_cell_angle_beta 22.482262
_cell_angle_gamma 152.267598
_cell_volume 551.462311
_symmetry_space_group_name_H-M "P -1"
_symmetry_group_IT_number 2
_symmetry_cell_setting 'triclinic'
loop_
_space_group_symop_operation_xyz
x,y,z
-x,-y,-z
loop_
_atom_site_type_symbol
_atom_site_label
_atom_site_fract_x
_atom_site_fract_y
_atom_site_fract_z
Si Si1 0.862075 0.766675 0.470412
Si Si2 0.272621 0.430360 0.319874
Si Si3 0.330699 0.675728 0.531978
Si Si4 0.619409 0.647450 0.207192
Si Si5 0.755237 0.912676 0.302503
Si Si6 0.457099 0.496858 0.443628
Si Si7 0.659124 0.980242 0.206398
Si Si8 0.854001 0.760277 0.612989
O O1 0.507170 0.816733 0.691269
O O2 0.555919 0.416816 0.206072
O O3 0.918910 0.785023 0.543208
O O4 0.000000 0.500000 0.000000
O O5 0.382868 0.459051 0.236360
O O6 0.265104 0.289802 0.238450
O O7 0.051231 0.261586 0.186839
O O8 0.017620 0.665771 0.812536
O O9 0.459504 0.651815 0.362250
O O10 0.544430 0.886195 0.556995
O O11 0.500000 0.500000 0.000000
O O12 0.978588 0.500517 0.828039
O O13 0.570827 0.937789 0.498240
O O14 0.500000 0.000000 0.500000
O O15 0.967836 0.081540 0.432564
O O16 0.500000 0.500000 0.500000
O O17 0.489281 0.759294 0.800094
O O18 0.964021 0.081227 0.210825
#
# Coordination Sequence:
#
# PCOD9042713 Si02
#       8
#     2   2   2   2   2   2   2   2
#     4  12  22  42  72 111 144 193 251 316 376 451
#     4  11  27  48  72 110 154 196 252 320 385 446
#     4  11  24  43  73 102 155 198 242 313 386 436
#     4  10  23  44  74 111 149 205 259 313 374 458
#     4  12  26  46  77 108 147 192 256 313 376 459
#     4  12  30  51  76 112 160 201 256 320 383 462
#     4  11  27  49  78 110 151 207 257 307 392 455
#     4  11  23  47  77 108 155 197 261 313 378 454
#
# _framework density 29.013770000000001
#
# number of rings (size 3 to 8) (size 9 to 14) (size 15 to 20)
#    0.000    0.750    3.750    3.000    8.750    2.500 
#    4.500    0.000    0.000    0.000    0.000    0.000 
#    0.000    0.000    0.000    0.000    0.000    0.000 
#
# Total GULP energy -89086.544631 kJ/mol
# GULP energy per Si atom -5567.909039 kJ/mol
# Density = 2.894773 g / cm^3
# Si number density = 29.013770 Si / 1000 Ang^3
#
#
#
# Elastic Constant Matrix: (Units=GPa)
#
#
# Indices 1 2 3 4 5 6 
#
# 1 248.6831 78.3735 25.3071 6.7354 -11.5657 -1.7844
# 2 78.3735 220.3175 38.8448 14.3827 1.6023 -7.7208
# 3 25.3071 38.8448 153.0025 9.5437 1.4452 11.5461
# 4 6.7354 14.3827 9.5437 41.2483 2.1925 19.0223
# 5 -11.5657 1.6023 1.4452 2.1925 31.7346 16.1015
# 6 -1.7844 -7.7208 11.5461 19.0223 16.1015 84.0365
#
#
#
# Elastic Compliance Matrix: (Units=1/GPa)
#
#
# Indices 1 2 3 4 5 6 
#
# 1 0.004658 -0.001620 -0.000347 -0.000050 0.001987 -0.000372
# 2 -0.001620 0.005490 -0.001092 -0.001932 -0.001352 0.001317
# 3 -0.000347 -0.001092 0.006986 -0.000762 0.000130 -0.000920
# 4 -0.000050 -0.001932 -0.000762 0.028128 0.001594 -0.006746
# 5 0.001987 -0.001352 0.000130 0.001594 0.035913 -0.007342
# 6 -0.000372 0.001317 -0.000920 -0.006746 -0.007342 0.015073
#
#
# Mechanical properties :
#
#
# Convention : Reuss Voigt Hill
#
# Bulk Modulus (GPa) = 90.77206 100.78378 95.77792
# Shear Modulus (GPa) = 47.15314 63.36907 55.26110
#
# Velocity S-wave (km/s) = 4.03575 4.67851 4.36897
# Velocity P-wave (km/s) = 7.28492 7.99978 7.65071
#
# Compressibility (1/GPa) = 0.01101661
#
# Stress axis : x y z
#
# Youngs Moduli (GPa) = 214.67646 182.15387 143.14121
#
# Poissons Ratio (x) = 0.29512 0.04964
# Poissons Ratio (y) = 0.34781 0.15629
# Poissons Ratio (z) = 0.07444 0.19888
#
# Static dielectric constant tensor:
#      x y z
#    x 2.640770 0.243270 -0.299610 
#    y 0.243270 2.466640 -0.093690 
#    z -0.299610 -0.093690 2.745300 
# 
# From -- ./inp_files/596446.got.cif
#   From: 2010.05.17/outbox.cif.g08.bks.cpg/sg2_299_cif.got.tgz:596446.got - 2010.06.03 11:33:40.
