data_PCOD9042653
_publ_section_title
;
Structure prediction by ZEFSAII (Michael W. Deem and Ramdas Pophale) SiO2 
 PCOD9042653
Probable space group: P -1
;
_chemical_formula_sum "Si O2"
_cell_formula_units_Z 16
_cell_length_a 9.657740
_cell_length_b 9.711196
_cell_length_c 11.618698
_cell_angle_alpha 100.101941
_cell_angle_beta 71.759957
_cell_angle_gamma 64.519412
_cell_volume 871.044429
_symmetry_space_group_name_H-M "P -1"
_symmetry_group_IT_number 2
_symmetry_cell_setting 'triclinic'
loop_
_space_group_symop_operation_xyz
x,y,z
-x,-y,-z
loop_
_atom_site_type_symbol
_atom_site_label
_atom_site_fract_x
_atom_site_fract_y
_atom_site_fract_z
Si Si1 0.536746 0.272040 0.532222
Si Si2 0.016736 0.844378 0.319622
Si Si3 0.678814 0.984972 0.284993
Si Si4 0.810754 0.147728 0.100473
Si Si5 0.576622 0.114715 0.736538
Si Si6 0.356613 0.688088 0.072779
Si Si7 0.053622 0.158197 0.399852
Si Si8 0.228016 0.622122 0.650081
O O1 0.657751 0.327563 0.449445
O O2 0.603940 0.200720 0.630826
O O3 0.944821 0.310468 0.366998
O O4 0.347119 0.428893 0.609493
O O5 0.193591 0.718942 0.194334
O O6 0.013096 0.016857 0.351950
O O7 0.855592 0.876354 0.291299
O O8 0.000695 0.799861 0.447507
O O9 0.554123 0.126119 0.427843
O O10 0.717007 0.071726 0.183769
O O11 0.590164 0.891005 0.247895
O O12 0.812547 0.278886 0.205792
O O13 0.713634 0.234808 0.022236
O O14 0.000000 0.000000 0.000000
O O15 0.570260 0.213948 0.864615
O O16 0.742746 0.933436 0.675893
O O17 0.500000 0.500000 0.000000
#
# Coordination Sequence:
#
# PCOD9042653 Si02
#       8
#     2   2   2   2   2   2   2   2
#     4  10  19  34  58  86 113 143 182 236 286 339
#     4  10  18  34  59  83 109 145 193 226 272 337
#     4  11  21  37  59  85 111 152 187 228 287 344
#     4  11  20  37  61  79 110 155 198 228 266 336
#     4  11  22  36  60  83 116 147 187 232 286 338
#     4  11  23  38  59  86 110 147 194 239 272 322
#     4  10  17  33  59  86 109 141 186 236 274 327
#     4  10  19  33  57  89 111 143 191 237 279 323
#
# _framework density 18.368752000000001
#
# number of rings (size 3 to 8) (size 9 to 14) (size 15 to 20)
#    0.000    1.500    5.000    3.375    0.000    2.500 
#    0.000    1.250    2.750    0.000    0.000    0.000 
#    0.000    0.000    0.000    0.000    0.000    0.000 
#
# Total GULP energy -89361.880193 kJ/mol
# GULP energy per Si atom -5585.117512 kJ/mol
# Density = 1.832694 g / cm^3
# Si number density = 18.368752 Si / 1000 Ang^3
#
#
#
# Elastic Constant Matrix: (Units=GPa)
#
#
# Indices 1 2 3 4 5 6 
#
# 1 109.9264 35.7535 60.5785 7.6036 13.2798 -27.8178
# 2 35.7535 66.7581 56.8509 -0.4164 -1.0145 -36.6880
# 3 60.5785 56.8509 129.3516 -8.6792 -4.7113 -28.0009
# 4 7.6036 -0.4164 -8.6792 26.0526 -13.0808 -3.6099
# 5 13.2798 -1.0145 -4.7113 -13.0808 28.2424 2.0027
# 6 -27.8178 -36.6880 -28.0009 -3.6099 2.0027 34.5432
#
#
#
# Elastic Compliance Matrix: (Units=1/GPa)
#
#
# Indices 1 2 3 4 5 6 
#
# 1 0.020295 0.004081 -0.010842 -0.018171 -0.020414 0.011174
# 2 0.004081 0.048984 -0.014386 -0.002578 -0.006857 0.043779
# 3 -0.010842 -0.014386 0.019116 0.016167 0.015807 -0.007742
# 4 -0.018171 -0.002578 0.016167 0.071267 0.044112 0.000624
# 5 -0.020414 -0.006857 0.015807 0.044112 0.068557 -0.010274
# 6 0.011174 0.043779 -0.007742 0.000624 -0.010274 0.078830
#
#
# Mechanical properties :
#
#
# Convention : Reuss Voigt Hill
#
# Bulk Modulus (GPa) = 21.69165 68.04466 44.86815
# Shear Modulus (GPa) = 13.70955 27.95785 20.83370
#
# Velocity S-wave (km/s) = 2.73491 3.90556 3.37143
# Velocity P-wave (km/s) = 4.66986 7.58037 6.29562
#
# Compressibility (1/GPa) = 0.04610068
#
# Stress axis : x y z
#
# Youngs Moduli (GPa) = 49.27223 20.41495 52.31261
#
# Poissons Ratio (x) = -0.08332 0.56720
# Poissons Ratio (y) = -0.20109 0.75256
# Poissons Ratio (z) = 0.53423 0.29369
#
# Static dielectric constant tensor:
#      x y z
#    x 1.656210 -0.004690 -0.005280 
#    y -0.004690 1.622530 -0.003420 
#    z -0.005280 -0.003420 1.626530 
# 
# From -- ./inp_files/493668.got.cif
#   From: 2010.05.17/outbox.cif.g08.bks.cpg/sg2_247_cif.got.tgz:493668.got - 2010.06.03 11:33:40.
