data_PCOD9042913
_publ_section_title
;
Structure prediction by ZEFSAII (Michael W. Deem and Ramdas Pophale) SiO2 
 PCOD9042913
Probable space group: P -1
;
_chemical_formula_sum "Si O2"
_cell_formula_units_Z 12
_cell_length_a 15.276175
_cell_length_b 17.908691
_cell_length_c 12.810349
_cell_angle_alpha 151.218970
_cell_angle_beta 151.579823
_cell_angle_gamma 22.510681
_cell_volume 597.909761
_symmetry_space_group_name_H-M "P -1"
_symmetry_group_IT_number 2
_symmetry_cell_setting 'triclinic'
loop_
_space_group_symop_operation_xyz
x,y,z
-x,-y,-z
loop_
_atom_site_type_symbol
_atom_site_label
_atom_site_fract_x
_atom_site_fract_y
_atom_site_fract_z
Si Si1 0.784259 0.662276 0.391957
Si Si2 0.012927 0.182123 0.491320
Si Si3 0.417792 0.709339 0.720065
Si Si4 0.238304 0.063307 0.810048
Si Si5 0.907980 0.522061 0.113373
Si Si6 0.770193 0.024042 0.751421
O O1 0.848542 0.560041 0.219850
O O2 0.509901 0.761195 0.259353
O O3 0.000000 0.500000 0.500000
O O4 0.782596 0.850032 0.608020
O O5 0.143447 0.088940 0.625311
O O6 0.953166 0.397441 0.673735
O O7 0.762528 0.225901 0.293142
O O8 0.183470 0.033058 0.392544
O O9 0.500000 0.500000 0.500000
O O10 0.278100 0.888143 0.705765
O O11 0.655676 0.664713 0.957298
O O12 0.054398 0.286674 0.946857
O O13 0.500000 0.000000 0.000000
O O14 0.000000 0.000000 0.000000
#
# Coordination Sequence:
#
# PCOD9042913 Si02
#       6
#     2   2   2   2   2   2
#     4  10  24  43  67  95 125 172 218 263 320 377
#     4  11  23  42  65  95 128 169 210 262 316 378
#     4  12  24  42  63  94 133 165 210 258 317 383
#     4  12  24  40  66  95 129 168 208 257 323 380
#     4  11  24  43  64  92 133 166 209 265 313 380
#     4  10  23  45  66  93 132 166 216 271 315 374
#
# _framework density 20.069918000000001
#
# number of rings (size 3 to 8) (size 9 to 14) (size 15 to 20)
#    0.000    1.000    3.333    3.000    2.333    3.333 
#    0.000    0.000    0.000    0.000    0.000    0.000 
#    0.000    0.000    0.000    0.000    0.000    0.000 
#
# Total GULP energy -67098.481939 kJ/mol
# GULP energy per Si atom -5591.540162 kJ/mol
# Density = 2.002424 g / cm^3
# Si number density = 20.069918 Si / 1000 Ang^3
#
#
#
# Elastic Constant Matrix: (Units=GPa)
#
#
# Indices 1 2 3 4 5 6 
#
# 1 122.6614 70.4992 37.4900 11.7059 1.1520 4.2391
# 2 70.4992 133.5829 42.3269 -4.2361 -10.4337 6.4876
# 3 37.4900 42.3269 82.4583 -4.3537 -5.4432 3.3208
# 4 11.7059 -4.2361 -4.3537 19.4625 -1.9079 10.0425
# 5 1.1520 -10.4337 -5.4432 -1.9079 37.2946 -13.9972
# 6 4.2391 6.4876 3.3208 10.0425 -13.9972 29.4189
#
#
#
# Elastic Compliance Matrix: (Units=1/GPa)
#
#
# Indices 1 2 3 4 5 6 
#
# 1 0.014732 -0.007300 -0.003949 -0.013261 -0.002530 0.003256
# 2 -0.007300 0.012753 -0.002478 0.008469 0.002708 -0.003083
# 3 -0.003949 -0.002478 0.015722 0.006701 0.001169 -0.002390
# 4 -0.013261 0.008469 0.006701 0.077083 -0.002974 -0.028441
# 5 -0.002530 0.002708 0.001169 -0.002974 0.033980 0.016818
# 6 0.003256 -0.003083 -0.002390 -0.028441 0.016818 0.052183
#
#
# Mechanical properties :
#
#
# Convention : Reuss Voigt Hill
#
# Bulk Modulus (GPa) = 63.47527 71.03722 67.25625
# Shear Modulus (GPa) = 20.90681 29.79429 25.35055
#
# Velocity S-wave (km/s) = 3.23104 3.85713 3.55788
# Velocity P-wave (km/s) = 6.75390 7.43696 7.10364
#
# Compressibility (1/GPa) = 0.01575417
#
# Stress axis : x y z
#
# Youngs Moduli (GPa) = 67.88060 78.41114 63.60591
#
# Poissons Ratio (x) = 0.57238 0.25119
# Poissons Ratio (y) = 0.49551 0.15759
# Poissons Ratio (z) = 0.26807 0.19427
#
# Static dielectric constant tensor:
#      x y z
#    x 1.698950 -0.020320 0.024080 
#    y -0.020320 1.699160 -0.001540 
#    z 0.024080 -0.001540 1.710880 
# 
# From -- ./inp_files/21889.got.cif
#   From: 2010.05.17/outbox.cif.g08.bks.cpg/sg2_11_cif.got.tgz:21889.got - 2010.06.03 11:33:40.
