data_PCOD9042512
_publ_section_title
;
Structure prediction by ZEFSAII (Michael W. Deem and Ramdas Pophale) SiO2 
 PCOD9042512
Probable space group: P -1
;
_chemical_formula_sum "Si O2"
_cell_formula_units_Z 14
_cell_length_a 13.008801
_cell_length_b 5.343529
_cell_length_c 20.772661
_cell_angle_alpha 123.328223
_cell_angle_beta 29.403942
_cell_angle_gamma 113.389279
_cell_volume 580.481171
_symmetry_space_group_name_H-M "P -1"
_symmetry_group_IT_number 2
_symmetry_cell_setting 'triclinic'
loop_
_space_group_symop_operation_xyz
x,y,z
-x,-y,-z
loop_
_atom_site_type_symbol
_atom_site_label
_atom_site_fract_x
_atom_site_fract_y
_atom_site_fract_z
Si Si1 0.425097 0.508759 0.852238
Si Si2 0.209554 0.844108 0.322290
Si Si3 0.924291 0.568435 0.356425
Si Si4 0.397227 0.372925 0.351268
Si Si5 0.648234 0.729956 0.421129
Si Si6 0.221170 0.009394 0.848867
Si Si7 0.027092 0.100578 0.827152
O O1 0.632770 0.450821 0.775190
O O2 0.515047 0.424518 0.719442
O O3 0.298090 0.238640 0.889341
O O4 0.227957 0.789412 0.006576
O O5 0.122999 0.725425 0.287104
O O6 0.345579 0.109766 0.293160
O O7 0.000000 0.000000 0.500000
O O8 0.813280 0.516952 0.477418
O O9 0.759268 0.806460 0.437450
O O10 0.953344 0.243938 0.259144
O O11 0.586831 0.278948 0.286521
O O12 0.500000 0.500000 0.500000
O O13 0.862584 0.687162 0.251474
O O14 0.500000 0.000000 0.500000
O O15 0.158931 0.091917 0.820805
O O16 0.000000 0.000000 0.000000
#
# Coordination Sequence:
#
# PCOD9042512 Si02
#       7
#     2   2   2   2   2   2   2
#     4  11  25  43  73 103 143 195 250 309 374 447
#     4   9  23  48  69 103 141 195 252 308 369 450
#     4  11  26  44  73 106 150 194 248 312 377 444
#     4  10  23  44  72 103 140 194 251 303 372 445
#     4  12  27  48  71 109 159 200 244 302 381 454
#     4  11  24  42  71 104 150 190 242 306 378 452
#     4  12  27  43  72 115 151 194 248 312 385 448
#
# _framework density 24.117922
#
# number of rings (size 3 to 8) (size 9 to 14) (size 15 to 20)
#    0.000    1.143    2.857    1.286    4.000    7.429 
#    0.000    1.429    0.000    0.000    0.000    0.000 
#    0.000    0.000    0.000    0.000    0.000    0.000 
#
# Total GULP energy -77938.261795 kJ/mol
# GULP energy per Si atom -5567.018700 kJ/mol
# Density = 2.406303 g / cm^3
# Si number density = 24.117922 Si / 1000 Ang^3
#
#
#
# Elastic Constant Matrix: (Units=GPa)
#
#
# Indices 1 2 3 4 5 6 
#
# 1 161.4787 42.4413 44.5492 -3.3333 -34.3848 10.1405
# 2 42.4413 64.6340 21.1218 -1.5356 -5.1850 3.6698
# 3 44.5492 21.1218 94.2699 1.7576 -12.8472 2.6399
# 4 -3.3333 -1.5356 1.7576 35.1587 -2.9182 8.8063
# 5 -34.3848 -5.1850 -12.8472 -2.9182 43.9776 -3.2294
# 6 10.1405 3.6698 2.6399 8.8063 -3.2294 37.4800
#
#
#
# Elastic Compliance Matrix: (Units=1/GPa)
#
#
# Indices 1 2 3 4 5 6 
#
# 1 0.009662 -0.004844 -0.002618 0.001813 0.006204 -0.001847
# 2 -0.004844 0.019287 -0.002323 0.000496 -0.002212 -0.000722
# 3 -0.002618 -0.002323 0.012551 -0.000966 0.001311 0.000392
# 4 0.001813 0.000496 -0.000966 0.030779 0.002687 -0.007471
# 5 0.006204 -0.002212 0.001311 0.002687 0.027906 0.000219
# 6 -0.001847 -0.000722 0.000392 -0.007471 0.000219 0.028998
#
#
# Mechanical properties :
#
#
# Convention : Reuss Voigt Hill
#
# Bulk Modulus (GPa) = 45.59563 59.62300 52.60931
# Shear Modulus (GPa) = 32.03872 37.47463 34.75668
#
# Velocity S-wave (km/s) = 3.64870 3.94611 3.80032
# Velocity P-wave (km/s) = 6.05781 6.74815 6.41228
#
# Compressibility (1/GPa) = 0.02193193
#
# Stress axis : x y z
#
# Youngs Moduli (GPa) = 103.49431 51.84919 79.67550
#
# Poissons Ratio (x) = 0.25114 0.20855
# Poissons Ratio (y) = 0.50130 0.18507
# Poissons Ratio (z) = 0.27090 0.12043
#
# Static dielectric constant tensor:
#      x y z
#    x 1.918650 -0.090320 -0.063650 
#    y -0.090320 1.978340 -0.007820 
#    z -0.063650 -0.007820 1.989660 
# 
# From -- ./inp_files/592818.got.cif
#   From: 2010.05.17/outbox.cif.g08.bks.cpg/sg2_297_cif.got.tgz:592818.got - 2010.06.03 11:33:40.
