data_PCOD9042990
_publ_section_title
;
Structure prediction by ZEFSAII (Michael W. Deem and Ramdas Pophale) SiO2 
 PCOD9042990
Probable space group: P -1
;
_chemical_formula_sum "Si O2"
_cell_formula_units_Z 12
_cell_length_a 9.358571
_cell_length_b 8.702267
_cell_length_c 7.506955
_cell_angle_alpha 102.688315
_cell_angle_beta 75.686257
_cell_angle_gamma 74.355299
_cell_volume 542.925062
_symmetry_space_group_name_H-M "P -1"
_symmetry_group_IT_number 2
_symmetry_cell_setting 'triclinic'
loop_
_space_group_symop_operation_xyz
x,y,z
-x,-y,-z
loop_
_atom_site_type_symbol
_atom_site_label
_atom_site_fract_x
_atom_site_fract_y
_atom_site_fract_z
Si Si1 0.629157 0.618827 0.268565
Si Si2 0.823146 0.497586 0.600385
Si Si3 0.142466 0.051019 0.907604
Si Si4 0.040290 0.364473 0.795719
Si Si5 0.656609 0.306462 0.355134
Si Si6 0.369453 0.186302 0.052071
O O1 0.641423 0.423201 0.213304
O O2 0.490580 0.678830 0.470516
O O3 0.600740 0.724052 0.119170
O O4 0.684132 0.672137 0.740205
O O5 0.879473 0.409053 0.750221
O O6 0.768388 0.373145 0.463236
O O7 0.000000 0.500000 0.500000
O O8 0.789155 0.628181 0.313029
O O9 0.208796 0.149021 0.055054
O O10 0.085632 0.175461 0.794058
O O11 0.277099 0.883062 0.770559
O O12 0.000000 0.000000 0.000000
O O13 0.000000 0.500000 0.000000
O O14 0.500000 0.000000 0.000000
#
# Coordination Sequence:
#
# PCOD9042990 Si02
#       6
#     2   2   2   2   2   2
#     4  10  23  45  67  94 140 177 218 271 352 394
#     4  12  24  42  70 100 133 174 229 276 333 400
#     4  11  24  42  69  97 132 174 225 274 333 402
#     4  11  21  44  69  93 131 183 215 268 345 399
#     4  11  25  41  68 105 131 175 225 284 332 394
#     4  11  27  45  69  97 137 183 223 274 340 410
#
# _framework density 22.102498000000001
#
# number of rings (size 3 to 8) (size 9 to 14) (size 15 to 20)
#    0.000    1.000    5.000    2.000    4.667    6.667 
#    0.000    0.000    0.000    0.000    0.000    0.000 
#    0.000    0.000    0.000    0.000    0.000    0.000 
#
# Total GULP energy -66830.806590 kJ/mol
# GULP energy per Si atom -5569.233882 kJ/mol
# Density = 2.205219 g / cm^3
# Si number density = 22.102498 Si / 1000 Ang^3
#
#
#
# Elastic Constant Matrix: (Units=GPa)
#
#
# Indices 1 2 3 4 5 6 
#
# 1 95.8382 13.6137 12.8489 -17.1844 -12.6439 20.5292
# 2 13.6137 134.8059 16.0165 -5.0816 -15.6629 -4.7173
# 3 12.8489 16.0165 51.6809 -0.7014 6.3953 13.8881
# 4 -17.1844 -5.0816 -0.7014 24.9829 5.5614 -2.8983
# 5 -12.6439 -15.6629 6.3953 5.5614 39.7153 -4.4357
# 6 20.5292 -4.7173 13.8881 -2.8983 -4.4357 46.9451
#
#
#
# Elastic Compliance Matrix: (Units=1/GPa)
#
#
# Indices 1 2 3 4 5 6 
#
# 1 0.013612 -0.000651 -0.002179 0.008013 0.002790 -0.004615
# 2 -0.000651 0.008490 -0.003655 0.000605 0.003939 0.002629
# 3 -0.002179 -0.003655 0.023745 -0.000927 -0.006624 -0.007122
# 4 0.008013 0.000605 -0.000927 0.046368 -0.003627 -0.000649
# 5 0.002790 0.003939 -0.006624 -0.003627 0.029610 0.003709
# 6 -0.004615 0.002629 -0.007122 -0.000649 0.003709 0.026001
#
#
# Mechanical properties :
#
#
# Convention : Reuss Voigt Hill
#
# Bulk Modulus (GPa) = 30.41536 40.80924 35.61230
# Shear Modulus (GPa) = 29.11105 38.31839 33.71472
#
# Velocity S-wave (km/s) = 3.63311 4.16825 3.90985
# Velocity P-wave (km/s) = 5.60270 6.45519 6.04400
#
# Compressibility (1/GPa) = 0.03287812
#
# Stress axis : x y z
#
# Youngs Moduli (GPa) = 73.46269 117.77889 42.11407
#
# Poissons Ratio (x) = 0.07668 0.09176
# Poissons Ratio (y) = 0.04783 0.15393
# Poissons Ratio (z) = 0.16006 0.43048
#
# Static dielectric constant tensor:
#      x y z
#    x 1.854170 -0.071110 -0.105670 
#    y -0.071110 2.039070 -0.258510 
#    z -0.105670 -0.258510 2.122030 
# 
# From -- ./inp_files/59926.got.cif
#   From: 2010.05.17/outbox.cif.g08.bks.cpg/sg2_30_cif.got.tgz:59926.got - 2010.06.03 11:33:40.
