data_PCOD9042413
_publ_section_title
;
Structure prediction by ZEFSAII (Michael W. Deem and Ramdas Pophale) SiO2 
 PCOD9042413
Probable space group: P -1
;
_chemical_formula_sum "Si O2"
_cell_formula_units_Z 16
_cell_length_a 10.473355
_cell_length_b 12.195661
_cell_length_c 7.811410
_cell_angle_alpha 50.693682
_cell_angle_beta 61.020812
_cell_angle_gamma 83.153860
_cell_volume 648.879582
_symmetry_space_group_name_H-M "P -1"
_symmetry_group_IT_number 2
_symmetry_cell_setting 'triclinic'
loop_
_space_group_symop_operation_xyz
x,y,z
-x,-y,-z
loop_
_atom_site_type_symbol
_atom_site_label
_atom_site_fract_x
_atom_site_fract_y
_atom_site_fract_z
Si Si1 0.815793 0.812458 0.031716
Si Si2 0.640198 0.434167 0.966586
Si Si3 0.099884 0.018990 0.743099
Si Si4 0.826536 0.266760 0.479105
Si Si5 0.866904 0.526829 0.435475
Si Si6 0.615539 0.012358 0.070316
Si Si7 0.824246 0.698296 0.786992
Si Si8 0.646467 0.127181 0.391456
O O1 0.877956 0.694322 0.213503
O O2 0.693263 0.877916 0.142037
O O3 0.750208 0.740361 0.965271
O O4 0.964874 0.947501 0.768303
O O5 0.715748 0.467614 0.700760
O O6 0.757403 0.532907 0.929413
O O7 0.500000 0.500000 0.000000
O O8 0.605618 0.263051 0.194232
O O9 0.227400 0.932327 0.730225
O O10 0.181742 0.186854 0.473774
O O11 0.000000 0.000000 0.000000
O O12 0.844673 0.431400 0.371882
O O13 0.729812 0.203425 0.437839
O O14 0.998007 0.269998 0.326242
O O15 0.749732 0.159625 0.793947
O O16 0.000000 0.500000 0.500000
O O17 0.504610 0.993463 0.323832
O O18 0.500000 0.000000 0.000000
#
# Coordination Sequence:
#
# PCOD9042413 Si02
#       8
#     2   2   2   2   2   2   2   2
#     4  12  24  44  73 105 144 188 244 296 352 436
#     4  12  28  47  68 104 151 189 236 293 367 435
#     4  12  26  43  72 111 145 183 237 299 365 427
#     4  11  23  45  75 106 137 185 244 299 351 431
#     4  12  26  43  69 104 145 187 238 300 363 423
#     4  10  23  44  71 105 139 178 236 299 356 420
#     4  12  24  45  75 106 141 187 245 294 355 427
#     4  11  25  47  74 104 145 191 237 294 363 432
#
# _framework density 24.657886999999999
#
# number of rings (size 3 to 8) (size 9 to 14) (size 15 to 20)
#    0.000    0.500    3.750    4.875    1.750    4.000 
#    0.000    6.250    0.000    0.000    0.000    0.000 
#    0.000    0.000    0.000    0.000    0.000    0.000 
#
# Total GULP energy -89615.860207 kJ/mol
# GULP energy per Si atom -5600.991263 kJ/mol
# Density = 2.460176 g / cm^3
# Si number density = 24.657887 Si / 1000 Ang^3
#
#
#
# Elastic Constant Matrix: (Units=GPa)
#
#
# Indices 1 2 3 4 5 6 
#
# 1 82.1432 31.6698 20.4090 1.1665 -8.7979 -17.5370
# 2 31.6698 165.1769 53.1116 7.3040 0.7816 -17.7846
# 3 20.4090 53.1116 123.9173 4.5902 5.1459 -20.9488
# 4 1.1665 7.3040 4.5902 56.6119 -2.0979 -4.6915
# 5 -8.7979 0.7816 5.1459 -2.0979 36.1112 2.2223
# 6 -17.5370 -17.7846 -20.9488 -4.6915 2.2223 49.8489
#
#
#
# Elastic Compliance Matrix: (Units=1/GPa)
#
#
# Indices 1 2 3 4 5 6 
#
# 1 0.014398 -0.002066 -0.001007 0.000496 0.003491 0.003796
# 2 -0.002066 0.007422 -0.002674 -0.000649 -0.000367 0.000752
# 3 -0.001007 -0.002674 0.009963 -0.000266 -0.001803 0.002934
# 4 0.000496 -0.000649 -0.000266 0.017923 0.001124 0.001468
# 5 0.003491 -0.000367 -0.001803 0.001124 0.028925 -0.000844
# 6 0.003796 0.000752 0.002934 0.001468 -0.000844 0.023073
#
#
# Mechanical properties :
#
#
# Convention : Reuss Voigt Hill
#
# Bulk Modulus (GPa) = 49.29366 64.62425 56.95896
# Shear Modulus (GPa) = 41.68028 46.25087 43.96558
#
# Velocity S-wave (km/s) = 4.11584 4.33564 4.22717
# Velocity P-wave (km/s) = 6.52850 7.16442 6.85384
#
# Compressibility (1/GPa) = 0.02028658
#
# Stress axis : x y z
#
# Youngs Moduli (GPa) = 69.45353 134.74150 100.37516
#
# Poissons Ratio (x) = 0.27844 0.10111
# Poissons Ratio (y) = 0.14352 0.26842
# Poissons Ratio (z) = 0.06996 0.36032
#
# Static dielectric constant tensor:
#      x y z
#    x 2.020520 0.040150 0.052620 
#    y 0.040150 1.935880 0.011080 
#    z 0.052620 0.011080 1.925640 
# 
# From -- ./inp_files/261424.got.cif
#   From: 2010.05.17/outbox.cif.g08.bks.cpg/sg2_131_cif.got.tgz:261424.got - 2010.06.03 11:33:40.
