data_PCOD9042388
_publ_section_title
;
Structure prediction by ZEFSAII (Michael W. Deem and Ramdas Pophale) SiO2 
 PCOD9042388
Probable space group: P -1
;
_chemical_formula_sum "Si O2"
_cell_formula_units_Z 14
_cell_length_a 11.010511
_cell_length_b 13.898908
_cell_length_c 8.749994
_cell_angle_alpha 49.831000
_cell_angle_beta 140.312833
_cell_angle_gamma 112.660930
_cell_volume 636.263346
_symmetry_space_group_name_H-M "P -1"
_symmetry_group_IT_number 2
_symmetry_cell_setting 'triclinic'
loop_
_space_group_symop_operation_xyz
x,y,z
-x,-y,-z
loop_
_atom_site_type_symbol
_atom_site_label
_atom_site_fract_x
_atom_site_fract_y
_atom_site_fract_z
Si Si1 0.974708 0.229527 0.859531
Si Si2 0.016145 0.373501 0.250789
Si Si3 0.726654 0.807459 0.094943
Si Si4 0.424148 0.933533 0.141240
Si Si5 0.853916 0.543150 0.173186
Si Si6 0.933960 0.137791 0.219069
Si Si7 0.519817 0.249072 0.344194
O O1 0.744989 0.255730 0.570618
O O2 0.106852 0.203431 0.863635
O O3 0.038867 0.345975 0.893420
O O4 0.013525 0.122392 0.138416
O O5 0.862123 0.429298 0.178562
O O6 0.983748 0.252016 0.248451
O O7 0.210129 0.311221 0.602854
O O8 0.000000 0.500000 0.000000
O O9 0.531945 0.804240 0.814561
O O10 0.700533 0.942273 0.017782
O O11 0.533925 0.843752 0.477601
O O12 0.298255 0.839077 0.045975
O O13 0.500000 0.000000 0.000000
O O14 0.000000 0.500000 0.500000
O O15 0.634770 0.613898 0.930441
O O16 0.000000 0.000000 0.500000
#
# Coordination Sequence:
#
# PCOD9042388 Si02
#       7
#     2   2   2   2   2   2   2
#     4  10  23  44  71 102 139 186 243 297 349 429
#     4  12  24  43  73 103 140 189 238 290 360 429
#     4  11  24  45  72 102 139 196 233 298 363 415
#     4  11  26  45  68 103 147 185 240 299 361 419
#     4  11  22  45  70 100 142 185 235 295 362 417
#     4  11  24  43  70 104 139 190 238 291 361 421
#     4  10  24  43  69 106 137 185 243 297 352 429
#
# _framework density 22.003468000000002
#
# number of rings (size 3 to 8) (size 9 to 14) (size 15 to 20)
#    0.000    1.143    5.714    0.429    6.000    4.000 
#    0.000    2.857    0.000    0.000    0.000    0.000 
#    0.000    0.000    0.000    0.000    0.000    0.000 
#
# Total GULP energy -77997.863442 kJ/mol
# GULP energy per Si atom -5571.275960 kJ/mol
# Density = 2.195339 g / cm^3
# Si number density = 22.003468 Si / 1000 Ang^3
#
#
#
# Elastic Constant Matrix: (Units=GPa)
#
#
# Indices 1 2 3 4 5 6 
#
# 1 84.7421 39.6923 33.1772 5.3386 -8.7339 -11.0993
# 2 39.6923 111.2902 43.5650 9.7691 -2.1559 -19.5723
# 3 33.1772 43.5650 129.7104 -4.8561 -22.6877 -5.1498
# 4 5.3386 9.7691 -4.8561 42.3543 6.7776 4.4645
# 5 -8.7339 -2.1559 -22.6877 6.7776 42.4660 -0.1109
# 6 -11.0993 -19.5723 -5.1498 4.4645 -0.1109 35.6520
#
#
#
# Elastic Compliance Matrix: (Units=1/GPa)
#
#
# Indices 1 2 3 4 5 6 
#
# 1 0.015135 -0.003909 -0.002169 -0.001846 0.002057 0.002490
# 2 -0.003909 0.013053 -0.003536 -0.003302 -0.001488 0.005847
# 3 -0.002169 -0.003536 0.010264 0.001672 0.004588 -0.001329
# 4 -0.001846 -0.003302 0.001672 0.025977 -0.003814 -0.005411
# 5 0.002057 -0.001488 0.004588 -0.003814 0.026958 0.001048
# 6 0.002490 0.005847 -0.001329 -0.005411 0.001048 0.032523
#
#
# Mechanical properties :
#
#
# Convention : Reuss Voigt Hill
#
# Bulk Modulus (GPa) = 52.01695 62.06800 57.04247
# Shear Modulus (GPa) = 33.43440 38.04834 35.74137
#
# Velocity S-wave (km/s) = 3.90231 4.16287 4.03470
# Velocity P-wave (km/s) = 6.63293 7.16767 6.90548
#
# Compressibility (1/GPa) = 0.01922450
#
# Stress axis : x y z
#
# Youngs Moduli (GPa) = 66.07164 76.60958 97.42705
#
# Poissons Ratio (x) = 0.29948 0.21130
# Poissons Ratio (y) = 0.25829 0.34450
# Poissons Ratio (z) = 0.14329 0.27089
#
# Static dielectric constant tensor:
#      x y z
#    x 1.926960 0.049230 -0.043160 
#    y 0.049230 1.852770 -0.012130 
#    z -0.043160 -0.012130 1.951740 
# 
# From -- ./inp_files/271949.got.cif
#   From: 2010.05.17/outbox.cif.g08.bks.cpg/sg2_136_cif.got.tgz:271949.got - 2010.06.03 11:33:40.
