data_PCOD9042887
_publ_section_title
;
Structure prediction by ZEFSAII (Michael W. Deem and Ramdas Pophale) SiO2 
 PCOD9042887
Probable space group: P -1
;
_chemical_formula_sum "Si O2"
_cell_formula_units_Z 14
_cell_length_a 15.907654
_cell_length_b 5.898334
_cell_length_c 25.037754
_cell_angle_alpha 71.932975
_cell_angle_beta 162.147995
_cell_angle_gamma 99.821104
_cell_volume 618.923689
_symmetry_space_group_name_H-M "P -1"
_symmetry_group_IT_number 2
_symmetry_cell_setting 'triclinic'
loop_
_space_group_symop_operation_xyz
x,y,z
-x,-y,-z
loop_
_atom_site_type_symbol
_atom_site_label
_atom_site_fract_x
_atom_site_fract_y
_atom_site_fract_z
Si Si1 0.665472 0.726641 0.291209
Si Si2 0.338289 0.420335 0.153247
Si Si3 0.691512 0.012300 0.032682
Si Si4 0.337924 0.135942 0.597481
Si Si5 0.394487 0.759225 0.458147
Si Si6 0.255595 0.618666 0.208558
Si Si7 0.694868 0.591844 0.148507
O O1 0.429837 0.592912 0.155925
O O2 0.645734 0.818633 0.333117
O O3 0.000000 0.500000 0.500000
O O4 0.537717 0.970340 0.155217
O O5 0.247124 0.566421 0.144093
O O6 0.630037 0.157432 0.365563
O O7 0.081769 0.336801 0.981703
O O8 0.735093 0.815849 0.122342
O O9 0.030696 0.914978 0.223388
O O10 0.498379 0.294296 0.923283
O O11 0.607980 0.164586 0.724970
O O12 0.021770 0.358646 0.371967
O O13 0.500000 0.500000 0.500000
O O14 0.518640 0.620920 0.600838
O O15 0.500000 0.000000 0.500000
O O16 0.500000 0.500000 0.000000
#
# Coordination Sequence:
#
# PCOD9042887 Si02
#       7
#     2   2   2   2   2   2   2
#     4  11  24  43  63  98 137 175 229 284 356 423
#     4  10  24  40  70  95 134 182 230 299 350 431
#     4  11  26  47  67  99 144 181 238 298 356 438
#     4  11  23  42  71  97 128 182 233 292 359 423
#     4  12  29  46  74 105 150 194 242 299 372 435
#     4  10  23  45  65  99 135 178 243 286 360 425
#     4  11  26  42  72 100 133 189 237 296 366 428
#
# _framework density 22.619913
#
# number of rings (size 3 to 8) (size 9 to 14) (size 15 to 20)
#    0.000    1.143    2.857    1.286   10.000    1.714 
#    0.000    0.000    0.000    0.000    0.000    0.000 
#    0.000    0.000    0.000    0.000    0.000    0.000 
#
# Total GULP energy -78068.900185 kJ/mol
# GULP energy per Si atom -5576.350013 kJ/mol
# Density = 2.256843 g / cm^3
# Si number density = 22.619913 Si / 1000 Ang^3
#
#
#
# Elastic Constant Matrix: (Units=GPa)
#
#
# Indices 1 2 3 4 5 6 
#
# 1 62.5741 2.0573 25.1761 10.6494 4.5395 10.0215
# 2 2.0573 45.3726 4.7786 -3.9417 17.4768 -1.6943
# 3 25.1761 4.7786 142.9563 -9.9234 2.3698 -3.2815
# 4 10.6494 -3.9417 -9.9234 25.9426 2.8611 -13.4521
# 5 4.5395 17.4768 2.3698 2.8611 45.8680 -8.5503
# 6 10.0215 -1.6943 -3.2815 -13.4521 -8.5503 6.3302
#
#
#
# Elastic Compliance Matrix: (Units=1/GPa)
#
#
# Indices 1 2 3 4 5 6 
#
# 1 0.005140 0.000666 0.001265 0.019276 0.005673 0.041322
# 2 0.000666 0.026378 -0.000778 0.002141 -0.011116 -0.004862
# 3 0.001265 -0.000778 0.006071 -0.006013 -0.002639 -0.015406
# 4 0.019276 0.002141 -0.006013 -0.013015 -0.017268 -0.084043
# 5 0.005673 -0.011116 -0.002639 -0.017268 0.023209 -0.018670
# 6 0.041322 -0.004862 -0.015406 -0.084043 -0.018670 -0.120548
#
#
# Mechanical properties :
#
#
# Convention : Reuss Voigt Hill
#
# Bulk Modulus (GPa) = 25.06493 34.99189 30.02841
# Shear Modulus (GPa) = -80.94060 30.22090 -25.35985
#
# Velocity S-wave (km/s) = -5.98837 3.65914 -3.35196
# Velocity P-wave (km/s) = 6.05881 5.77542 1.29492
#
# Compressibility (1/GPa) = 0.03989638
#
# Stress axis : x y z
#
# Youngs Moduli (GPa) = 194.54719 37.91074 164.71508
#
# Poissons Ratio (x) = -0.02526 -0.20837
# Poissons Ratio (y) = -0.12965 0.12811
# Poissons Ratio (z) = -0.24611 0.02949
#
# Static dielectric constant tensor:
#      x y z
#    x 2.297630 -0.142770 0.011090 
#    y -0.142770 1.981310 -0.019350 
#    z 0.011090 -0.019350 1.852690 
# 
# From -- ./inp_files/28281.got.cif
#   From: 2010.05.17/outbox.cif.g08.bks.cpg/sg2_15_cif.got.tgz:28281.got - 2010.06.03 11:33:40.
