data_PCOD9042285
_publ_section_title
;
Structure prediction by ZEFSAII (Michael W. Deem and Ramdas Pophale) SiO2 
 PCOD9042285
Probable space group: P -1
;
_chemical_formula_sum "Si O2"
_cell_formula_units_Z 12
_cell_length_a 11.959751
_cell_length_b 6.664036
_cell_length_c 12.503568
_cell_angle_alpha 117.538219
_cell_angle_beta 35.900714
_cell_angle_gamma 106.962450
_cell_volume 511.539484
_symmetry_space_group_name_H-M "P -1"
_symmetry_group_IT_number 2
_symmetry_cell_setting 'triclinic'
loop_
_space_group_symop_operation_xyz
x,y,z
-x,-y,-z
loop_
_atom_site_type_symbol
_atom_site_label
_atom_site_fract_x
_atom_site_fract_y
_atom_site_fract_z
Si Si1 0.888718 0.829335 0.456523
Si Si2 0.581492 0.732263 0.515760
Si Si3 0.209828 0.058884 0.980436
Si Si4 0.323829 0.196686 0.161047
Si Si5 0.154445 0.649928 0.366596
Si Si6 0.886431 0.743667 0.113542
O O1 0.764635 0.694397 0.444412
O O2 0.796751 0.833474 0.646337
O O3 0.101980 0.704700 0.295248
O O4 0.855998 0.096639 0.512409
O O5 0.500000 0.500000 0.500000
O O6 0.408945 0.905814 0.746745
O O7 0.683019 0.804924 0.347771
O O8 0.154699 0.248391 0.978604
O O9 0.031907 0.916820 0.076764
O O10 0.238748 0.139931 0.097849
O O11 0.344623 0.466120 0.199829
O O12 0.500000 0.000000 0.000000
O O13 0.000000 0.500000 0.500000
O O14 0.000000 0.500000 0.000000
#
# Coordination Sequence:
#
# PCOD9042285 Si02
#       6
#     2   2   2   2   2   2
#     4  10  23  44  70 106 140 191 240 299 370 427
#     4  12  25  48  74 104 148 189 243 301 360 433
#     4  11  26  48  70 109 143 187 245 297 365 432
#     4  11  23  44  69 105 147 184 234 305 366 433
#     4   9  22  42  67 101 141 186 239 293 358 436
#     4  11  26  47  74 100 141 198 240 297 358 427
#
# _framework density 23.458599
#
# number of rings (size 3 to 8) (size 9 to 14) (size 15 to 20)
#    0.000    1.333    3.333    0.500    9.333    0.667 
#   12.000    0.000    0.000    0.000    0.000    0.000 
#    0.000    0.000    0.000    0.000    0.000    0.000 
#
# Total GULP energy -66922.557341 kJ/mol
# GULP energy per Si atom -5576.879778 kJ/mol
# Density = 2.340521 g / cm^3
# Si number density = 23.458599 Si / 1000 Ang^3
#
#
#
# Elastic Constant Matrix: (Units=GPa)
#
#
# Indices 1 2 3 4 5 6 
#
# 1 138.4544 45.4991 6.0583 6.1514 22.2512 -12.8093
# 2 45.4991 119.1026 37.8346 10.5380 0.0903 -27.9638
# 3 6.0583 37.8346 98.8436 -7.9292 9.3328 -9.5012
# 4 6.1514 10.5380 -7.9292 42.9386 -8.6925 -11.2128
# 5 22.2512 0.0903 9.3328 -8.6925 43.8018 3.1889
# 6 -12.8093 -27.9638 -9.5012 -11.2128 3.1889 38.3714
#
#
#
# Elastic Compliance Matrix: (Units=1/GPa)
#
#
# Indices 1 2 3 4 5 6 
#
# 1 0.009360 -0.003696 0.001347 -0.001022 -0.005303 0.000906
# 2 -0.003696 0.012830 -0.004360 -0.001318 0.002047 0.006481
# 3 0.001347 -0.004360 0.012344 0.002958 -0.002822 0.001428
# 4 -0.001022 -0.001318 0.002958 0.027084 0.004760 0.006950
# 5 -0.005303 0.002047 -0.002822 0.004760 0.027200 -0.001847
# 6 0.000906 0.006481 0.001428 0.006950 -0.001847 0.033625
#
#
# Mechanical properties :
#
#
# Convention : Reuss Voigt Hill
#
# Bulk Modulus (GPa) = 47.35943 59.46495 53.41219
# Shear Modulus (GPa) = 34.98932 42.82294 38.90613
#
# Velocity S-wave (km/s) = 3.86623 4.27719 4.07689
# Velocity P-wave (km/s) = 6.33740 7.05665 6.70668
#
# Compressibility (1/GPa) = 0.02111512
#
# Stress axis : x y z
#
# Youngs Moduli (GPa) = 106.83976 77.94198 81.00785
#
# Poissons Ratio (x) = 0.28809 -0.10912
# Poissons Ratio (y) = 0.39490 0.35323
# Poissons Ratio (z) = -0.14391 0.33986
#
# Static dielectric constant tensor:
#      x y z
#    x 2.207340 -0.061630 -0.362230 
#    y -0.061630 1.944000 0.094490 
#    z -0.362230 0.094490 2.320420 
# 
# From -- ./inp_files/40451.got.cif
#   From: 2010.05.17/outbox.cif.g08.bks.cpg/sg2_21_cif.got.tgz:40451.got - 2010.06.03 11:33:40.
