data_PCOD9042420
_publ_section_title
;
Structure prediction by ZEFSAII (Michael W. Deem and Ramdas Pophale) SiO2 
 PCOD9042420
Probable space group: P -1
;
_chemical_formula_sum "Si O2"
_cell_formula_units_Z 13
_cell_length_a 11.897267
_cell_length_b 8.915125
_cell_length_c 7.869548
_cell_angle_alpha 74.676275
_cell_angle_beta 105.496778
_cell_angle_gamma 48.432800
_cell_volume 475.731933
_symmetry_space_group_name_H-M "P -1"
_symmetry_group_IT_number 2
_symmetry_cell_setting 'triclinic'
loop_
_space_group_symop_operation_xyz
x,y,z
-x,-y,-z
loop_
_atom_site_type_symbol
_atom_site_label
_atom_site_fract_x
_atom_site_fract_y
_atom_site_fract_z
Si Si1 0.481872 0.403038 0.368698
Si Si2 0.430773 0.023267 0.161646
Si Si3 0.926328 0.252806 0.440157
Si Si4 0.930670 0.250610 0.850205
Si Si5 0.000000 0.500000 0.000000
Si Si6 0.728977 0.930918 0.428234
Si Si7 0.487850 0.686928 0.082102
O O1 0.500000 0.500000 0.500000
O O2 0.290213 0.515164 0.269048
O O3 0.655967 0.105652 0.504326
O O4 0.464353 0.531887 0.158362
O O5 0.613523 0.893458 0.380845
O O6 0.429583 0.841749 0.181882
O O7 0.230864 0.286023 0.084403
O O8 0.500000 0.000000 0.000000
O O9 0.943469 0.249809 0.651134
O O10 0.712213 0.483698 0.216203
O O11 0.000000 0.000000 0.500000
O O12 0.046453 0.276645 0.413027
O O13 0.004294 0.325045 0.956240
O O14 0.000000 0.000000 0.000000
O O15 0.650132 0.106258 0.180861
#
# Coordination Sequence:
#
# PCOD9042420 Si02
#       7
#     2   2   2   2   1   2   2
#     4  12  22  43  66  99 144 180 241 311 366 442
#     4  10  23  44  71 105 145 191 249 308 378 456
#     4  12  25  44  73 109 147 194 256 313 378 465
#     4  12  26  44  75 109 145 199 254 311 388 463
#     4  12  24  48  76 110 154 200 256 316 388 462
#     4  11  23  45  70  98 142 191 237 306 375 445
#     4  11  24  44  74 104 142 195 249 306 380 460
#
# _framework density 27.326314
#
# number of rings (size 3 to 8) (size 9 to 14) (size 15 to 20)
#    0.000    0.615    4.615    4.154    2.154    0.615 
#    0.000    7.692    0.000    0.000    0.000    0.000 
#    0.000    0.000    0.000    0.000    0.000    0.000 
#
# Total GULP energy -72489.977702 kJ/mol
# GULP energy per Si atom -5576.152131 kJ/mol
# Density = 2.726412 g / cm^3
# Si number density = 27.326314 Si / 1000 Ang^3
#
#
#
# Elastic Constant Matrix: (Units=GPa)
#
#
# Indices 1 2 3 4 5 6 
#
# 1 143.1012 85.8246 54.5059 -2.4229 40.7901 -5.4694
# 2 85.8246 122.1606 33.3160 14.0211 24.4241 9.1853
# 3 54.5059 33.3160 125.8459 -0.4016 21.4234 -2.3147
# 4 -2.4229 14.0211 -0.4016 47.9830 0.9504 20.7999
# 5 40.7901 24.4241 21.4234 0.9504 50.0786 -8.4406
# 6 -5.4694 9.1853 -2.3147 20.7999 -8.4406 63.1214
#
#
#
# Elastic Compliance Matrix: (Units=1/GPa)
#
#
# Indices 1 2 3 4 5 6 
#
# 1 0.015850 -0.009300 -0.003194 0.003386 -0.006978 0.000561
# 2 -0.009300 0.015368 -0.000069 -0.004240 -0.000090 -0.001660
# 3 -0.003194 -0.000069 0.009600 0.000021 -0.001492 -0.000121
# 4 0.003386 -0.004240 0.000021 0.025727 -0.002520 -0.007903
# 5 -0.006978 -0.000090 -0.001492 -0.002520 0.027022 0.003798
# 6 0.000561 -0.001660 -0.000121 -0.007903 0.003798 0.019240
#
#
# Mechanical properties :
#
#
# Convention : Reuss Voigt Hill
#
# Bulk Modulus (GPa) = 63.72935 82.04453 72.88694
# Shear Modulus (GPa) = 34.92491 46.73403 40.82947
#
# Velocity S-wave (km/s) = 3.57889 4.13997 3.86961
# Velocity P-wave (km/s) = 6.36004 7.27610 6.83344
#
# Compressibility (1/GPa) = 0.01569136
#
# Stress axis : x y z
#
# Youngs Moduli (GPa) = 63.09084 65.06974 104.16956
#
# Poissons Ratio (x) = 0.60517 0.33270
# Poissons Ratio (y) = 0.58676 0.00721
# Poissons Ratio (z) = 0.20150 0.00450
#
# Static dielectric constant tensor:
#      x y z
#    x 2.048710 -0.028730 -0.121630 
#    y -0.028730 2.112740 0.030660 
#    z -0.121630 0.030660 2.380430 
# 
# From -- ./inp_files/231233.got.cif
#   From: 2010.05.17/outbox.cif.g08.bks.cpg/sg2_116_cif.got.tgz:231233.got - 2010.06.03 11:33:40.
