data_PCOD9042736
_publ_section_title
;
Structure prediction by ZEFSAII (Michael W. Deem and Ramdas Pophale) SiO2 
 PCOD9042736
Probable space group: P -1
;
_chemical_formula_sum "Si O2"
_cell_formula_units_Z 14
_cell_length_a 9.614927
_cell_length_b 12.127185
_cell_length_c 9.220208
_cell_angle_alpha 79.935703
_cell_angle_beta 63.361908
_cell_angle_gamma 41.897187
_cell_volume 618.560341
_symmetry_space_group_name_H-M "P -1"
_symmetry_group_IT_number 2
_symmetry_cell_setting 'triclinic'
loop_
_space_group_symop_operation_xyz
x,y,z
-x,-y,-z
loop_
_atom_site_type_symbol
_atom_site_label
_atom_site_fract_x
_atom_site_fract_y
_atom_site_fract_z
Si Si1 0.217618 0.142933 0.749101
Si Si2 0.327306 0.805258 0.264727
Si Si3 0.121819 0.536383 0.846799
Si Si4 0.784409 0.548485 0.518860
Si Si5 0.272153 0.610643 0.184765
Si Si6 0.597443 0.106621 0.519876
Si Si7 0.269250 0.056628 0.043599
O O1 0.387528 0.156270 0.693945
O O2 0.940490 0.320155 0.831996
O O3 0.266365 0.066688 0.584507
O O4 0.280003 0.024295 0.875217
O O5 0.604715 0.614755 0.191110
O O6 0.209074 0.764765 0.250120
O O7 0.272460 0.878880 0.436928
O O8 0.271582 0.943649 0.161834
O O9 0.140477 0.514169 0.668187
O O10 0.959131 0.736585 0.889235
O O11 0.000000 0.500000 0.000000
O O12 0.716873 0.479557 0.664295
O O13 0.544869 0.750402 0.569338
O O14 0.000000 0.500000 0.500000
O O15 0.500000 0.500000 0.000000
O O16 0.500000 0.000000 0.000000
#
# Coordination Sequence:
#
# PCOD9042736 Si02
#       7
#     2   2   2   2   2   2   2
#     4  11  24  45  70 110 142 188 250 303 356 449
#     4  11  26  46  68 106 149 193 237 309 373 431
#     4  11  24  43  74 111 142 184 254 305 349 449
#     4  11  25  44  76 102 136 199 242 295 373 432
#     4  12  29  47  72 108 156 190 243 310 377 436
#     4  10  23  44  75 104 143 180 256 304 355 446
#     4  12  23  40  74 105 139 194 240 295 372 426
#
# _framework density 22.633199999999999
#
# number of rings (size 3 to 8) (size 9 to 14) (size 15 to 20)
#    0.000    0.857    4.286    1.714    8.000    3.429 
#    2.571    0.000    0.000    0.000    0.000    0.000 
#    0.000    0.000    0.000    0.000    0.000    0.000 
#
# Total GULP energy -78184.320803 kJ/mol
# GULP energy per Si atom -5584.594343 kJ/mol
# Density = 2.258169 g / cm^3
# Si number density = 22.633200 Si / 1000 Ang^3
#
#
#
# Elastic Constant Matrix: (Units=GPa)
#
#
# Indices 1 2 3 4 5 6 
#
# 1 74.1485 21.6899 30.2191 0.3563 2.4198 1.3240
# 2 21.6899 127.0607 46.4394 -27.9406 -2.6202 9.4367
# 3 30.2191 46.4394 124.1815 -13.6862 7.9260 4.1228
# 4 0.3563 -27.9406 -13.6862 51.9008 4.8207 3.3181
# 5 2.4198 -2.6202 7.9260 4.8207 32.8861 -1.9652
# 6 1.3240 9.4367 4.1228 3.3181 -1.9652 41.0681
#
#
#
# Elastic Compliance Matrix: (Units=1/GPa)
#
#
# Indices 1 2 3 4 5 6 
#
# 1 0.015379 -0.001913 -0.003250 -0.002003 -0.000182 0.000423
# 2 -0.001913 0.010557 -0.002900 0.005013 0.000800 -0.002440
# 3 -0.003250 -0.002900 0.010279 0.001456 -0.002713 -0.000508
# 4 -0.002003 0.005013 0.001456 0.022883 -0.003352 -0.003243
# 5 -0.000182 0.000800 -0.002713 -0.003352 0.031743 0.001884
# 6 0.000423 -0.002440 -0.000508 -0.003243 0.001884 0.025300
#
#
# Mechanical properties :
#
#
# Convention : Reuss Voigt Hill
#
# Bulk Modulus (GPa) = 49.78051 58.00972 53.89511
# Shear Modulus (GPa) = 35.98116 40.30715 38.14415
#
# Velocity S-wave (km/s) = 3.99149 4.22463 4.10972
# Velocity P-wave (km/s) = 6.57913 7.03439 6.81057
#
# Compressibility (1/GPa) = 0.02008818
#
# Stress axis : x y z
#
# Youngs Moduli (GPa) = 65.02550 94.72566 97.28938
#
# Poissons Ratio (x) = 0.18120 0.31620
# Poissons Ratio (y) = 0.12438 0.28213
# Poissons Ratio (z) = 0.21134 0.27470
#
# Static dielectric constant tensor:
#      x y z
#    x 1.833210 0.006780 0.002210 
#    y 0.006780 1.868670 0.076130 
#    z 0.002210 0.076130 1.922710 
# 
# From -- ./inp_files/158372.got.cif
#   From: 2010.05.17/outbox.cif.g08.bks.cpg/sg2_80_cif.got.tgz:158372.got - 2010.06.03 11:33:40.
