data_PCOD9042864
_publ_section_title
;
Structure prediction by ZEFSAII (Michael W. Deem and Ramdas Pophale) SiO2 
 PCOD9042864
Probable space group: P -1
;
_chemical_formula_sum "Si O2"
_cell_formula_units_Z 16
_cell_length_a 12.624586
_cell_length_b 9.184249
_cell_length_c 9.696932
_cell_angle_alpha 136.622634
_cell_angle_beta 74.583721
_cell_angle_gamma 90.850098
_cell_volume 716.882682
_symmetry_space_group_name_H-M "P -1"
_symmetry_group_IT_number 2
_symmetry_cell_setting 'triclinic'
loop_
_space_group_symop_operation_xyz
x,y,z
-x,-y,-z
loop_
_atom_site_type_symbol
_atom_site_label
_atom_site_fract_x
_atom_site_fract_y
_atom_site_fract_z
Si Si1 0.720179 0.067499 0.956071
Si Si2 0.250107 0.078739 0.674374
Si Si3 0.596059 0.259946 0.416319
Si Si4 0.093074 0.835031 0.447830
Si Si5 0.641658 0.675442 0.595444
Si Si6 0.023462 0.172247 0.223336
Si Si7 0.208238 0.514380 0.827848
Si Si8 0.953827 0.603475 0.887006
O O1 0.649927 0.911375 0.806484
O O2 0.845899 0.912934 0.834485
O O3 0.660214 0.162647 0.185411
O O4 0.743572 0.277046 0.013009
O O5 0.264231 0.295824 0.744543
O O6 0.354326 0.918595 0.607413
O O7 0.201947 0.929787 0.482015
O O8 0.144753 0.183744 0.886931
O O9 0.622054 0.497769 0.592012
O O10 0.463484 0.298684 0.455904
O O11 0.102574 0.597221 0.218756
O O12 0.051507 0.820781 0.610137
O O13 0.000000 0.000000 0.500000
O O14 0.754859 0.557015 0.391191
O O15 0.011508 0.381677 0.274037
O O16 0.000000 0.000000 0.000000
O O17 0.070196 0.573174 0.912505
#
# Coordination Sequence:
#
# PCOD9042864 Si02
#       8
#     2   2   2   2   2   2   2   2
#     4  11  21  40  66  91 121 165 212 261 323 377
#     4  12  25  42  62  95 134 171 209 266 322 383
#     4  10  23  45  65  93 121 159 221 271 322 367
#     4  12  26  39  62  96 135 176 212 252 322 391
#     4  10  24  43  68  90 120 165 215 276 315 376
#     4  12  22  40  64  94 132 169 212 261 312 382
#     4  11  24  39  63  92 133 167 205 259 328 379
#     4  12  24  41  62  95 135 168 210 263 314 385
#
# _framework density 22.318854999999999
#
# number of rings (size 3 to 8) (size 9 to 14) (size 15 to 20)
#    0.000    0.750    5.000    1.875    5.250    0.500 
#    0.000    0.625    0.000    0.000    0.000    0.000 
#    0.000    0.000    0.000    0.000    0.000    0.000 
#
# Total GULP energy -89442.463943 kJ/mol
# GULP energy per Si atom -5590.153996 kJ/mol
# Density = 2.226806 g / cm^3
# Si number density = 22.318855 Si / 1000 Ang^3
#
#
#
# Elastic Constant Matrix: (Units=GPa)
#
#
# Indices 1 2 3 4 5 6 
#
# 1 76.2201 45.4990 8.7842 20.6283 9.5461 -0.2253
# 2 45.4990 162.1412 23.2887 28.8700 27.9662 -1.5522
# 3 8.7842 23.2887 62.5577 17.0548 26.1544 15.8190
# 4 20.6283 28.8700 17.0548 40.4030 9.2246 3.6428
# 5 9.5461 27.9662 26.1544 9.2246 34.4340 10.3160
# 6 -0.2253 -1.5522 15.8190 3.6428 10.3160 38.9803
#
#
#
# Elastic Compliance Matrix: (Units=1/GPa)
#
#
# Indices 1 2 3 4 5 6 
#
# 1 0.016998 -0.003618 0.000978 -0.006327 -0.000941 0.000398
# 2 -0.003618 0.008815 0.000078 -0.003316 -0.005984 0.002192
# 3 0.000978 0.000078 0.026138 -0.007306 -0.016574 -0.005530
# 4 -0.006327 -0.003316 -0.007306 0.033197 0.001298 -0.000650
# 5 -0.000941 -0.005984 -0.016574 0.001298 0.048329 -0.006429
# 6 0.000398 0.002192 -0.005530 -0.000650 -0.006429 0.029750
#
#
# Mechanical properties :
#
#
# Convention : Reuss Voigt Hill
#
# Bulk Modulus (GPa) = 21.35501 50.67366 36.01433
# Shear Modulus (GPa) = 27.17979 37.65326 32.41653
#
# Velocity S-wave (km/s) = 3.49348 4.11184 3.81521
# Velocity P-wave (km/s) = 5.08541 6.73028 5.96482
#
# Compressibility (1/GPa) = 0.04682742
#
# Stress axis : x y z
#
# Youngs Moduli (GPa) = 58.82967 113.44372 38.25810
#
# Poissons Ratio (x) = 0.41040 -0.03741
# Poissons Ratio (y) = 0.21282 -0.00298
# Poissons Ratio (z) = -0.05752 -0.00883
#
# Static dielectric constant tensor:
#      x y z
#    x 1.821200 0.076670 0.044940 
#    y 0.076670 1.918940 0.030630 
#    z 0.044940 0.030630 1.925420 
# 
# From -- ./inp_files/245864.got.cif
#   From: 2010.05.17/outbox.cif.g08.bks.cpg/sg2_123_cif.got.tgz:245864.got - 2010.06.03 11:33:40.
