data_PCOD9042927
_publ_section_title
;
Structure prediction by ZEFSAII (Michael W. Deem and Ramdas Pophale) SiO2 
 PCOD9042927
Probable space group: P -1
;
_chemical_formula_sum "Si O2"
_cell_formula_units_Z 14
_cell_length_a 21.732820
_cell_length_b 8.032950
_cell_length_c 13.681182
_cell_angle_alpha 61.862350
_cell_angle_beta 27.342726
_cell_angle_gamma 43.338696
_cell_volume 627.092901
_symmetry_space_group_name_H-M "P -1"
_symmetry_group_IT_number 2
_symmetry_cell_setting 'triclinic'
loop_
_space_group_symop_operation_xyz
x,y,z
-x,-y,-z
loop_
_atom_site_type_symbol
_atom_site_label
_atom_site_fract_x
_atom_site_fract_y
_atom_site_fract_z
Si Si1 0.644394 0.352875 0.144436
Si Si2 0.067196 0.701486 0.738153
Si Si3 0.867122 0.600152 0.911535
Si Si4 0.228473 0.190983 0.365427
Si Si5 0.655549 0.654013 0.368723
Si Si6 0.619359 0.818780 0.034257
Si Si7 0.576548 0.416403 0.805282
O O1 0.477381 0.394048 0.418957
O O2 0.602605 0.368770 0.082812
O O3 0.609901 0.611285 0.138042
O O4 0.872802 0.046094 0.937476
O O5 0.177541 0.513909 0.733193
O O6 0.245558 0.621134 0.451965
O O7 0.969964 0.641941 0.825604
O O8 0.682754 0.868487 0.026135
O O9 0.034482 0.361818 0.660664
O O10 0.774961 0.542143 0.129134
O O11 0.221083 0.327307 0.240985
O O12 0.318876 0.896750 0.281348
O O13 0.399885 0.102057 0.218547
O O14 0.500000 0.000000 0.500000
O O15 0.500000 0.500000 0.000000
#
# Coordination Sequence:
#
# PCOD9042927 Si02
#       7
#     2   2   2   2   2   2   2
#     4  10  23  45  66  98 136 175 227 278 326 401
#     4  11  25  41  69 102 132 173 232 277 334 398
#     4  12  25  39  72  98 132 180 220 278 334 395
#     4  10  24  44  66  98 140 172 226 272 331 402
#     4  11  25  45  68 100 133 175 234 280 329 394
#     4  10  24  44  66  97 138 176 219 277 335 399
#     4  10  24  43  69  98 137 179 221 275 332 400
#
# _framework density 22.325239
#
# number of rings (size 3 to 8) (size 9 to 14) (size 15 to 20)
#    0.000    1.429    1.429    1.714   10.000    1.143 
#    0.000   10.000    0.000    0.000    0.000    0.000 
#    0.000    0.000    0.000    0.000    0.000    0.000 
#
# Total GULP energy -78296.381411 kJ/mol
# GULP energy per Si atom -5592.598672 kJ/mol
# Density = 2.227443 g / cm^3
# Si number density = 22.325239 Si / 1000 Ang^3
#
#
#
# Elastic Constant Matrix: (Units=GPa)
#
#
# Indices 1 2 3 4 5 6 
#
# 1 127.5714 39.7017 51.3375 -14.6225 -6.5762 -32.5739
# 2 39.7017 89.0709 35.1400 -16.5165 -2.2552 -9.6774
# 3 51.3375 35.1400 120.1361 -29.6005 9.2636 -21.4687
# 4 -14.6225 -16.5165 -29.6005 34.8527 -8.0695 3.8369
# 5 -6.5762 -2.2552 9.2636 -8.0695 33.1034 4.3592
# 6 -32.5739 -9.6774 -21.4687 3.8369 4.3592 39.2041
#
#
#
# Elastic Compliance Matrix: (Units=1/GPa)
#
#
# Indices 1 2 3 4 5 6 
#
# 1 0.012088 -0.003253 -0.002878 0.000789 0.002211 0.007342
# 2 -0.003253 0.014217 -0.002064 0.004201 0.002051 -0.000962
# 3 -0.002878 -0.002064 0.012962 0.007724 -0.002953 0.003770
# 4 0.000789 0.004201 0.007724 0.039217 0.007679 0.001231
# 5 0.002211 0.002051 -0.002953 0.007679 0.033987 -0.003805
# 6 0.007342 -0.000962 0.003770 0.001231 -0.003805 0.033737
#
#
# Mechanical properties :
#
#
# Convention : Reuss Voigt Hill
#
# Bulk Modulus (GPa) = 43.70889 65.45966 54.58427
# Shear Modulus (GPa) = 29.37308 35.47198 32.42253
#
# Velocity S-wave (km/s) = 3.63118 3.99039 3.81502
# Velocity P-wave (km/s) = 6.09929 7.11446 6.62634
#
# Compressibility (1/GPa) = 0.02287864
#
# Stress axis : x y z
#
# Youngs Moduli (GPa) = 82.72403 70.33679 77.14796
#
# Poissons Ratio (x) = 0.22878 0.22205
# Poissons Ratio (y) = 0.26907 0.15921
# Poissons Ratio (z) = 0.23810 0.14515
#
# Static dielectric constant tensor:
#      x y z
#    x 1.818460 -0.004450 -0.032000 
#    y -0.004450 1.837040 0.016210 
#    z -0.032000 0.016210 1.834350 
# 
# From -- ./inp_files/469883.got.cif
#   From: 2010.05.17/outbox.cif.g08.bks.cpg/sg2_235_cif.got.tgz:469883.got - 2010.06.03 11:33:40.
