data_PCOD9042937
_publ_section_title
;
Structure prediction by ZEFSAII (Michael W. Deem and Ramdas Pophale) SiO2 
 PCOD9042937
Probable space group: P -1
;
_chemical_formula_sum "Si O2"
_cell_formula_units_Z 12
_cell_length_a 6.565002
_cell_length_b 12.477924
_cell_length_c 17.923777
_cell_angle_alpha 27.063338
_cell_angle_beta 62.987383
_cell_angle_gamma 77.504467
_cell_volume 527.194472
_symmetry_space_group_name_H-M "P -1"
_symmetry_group_IT_number 2
_symmetry_cell_setting 'triclinic'
loop_
_space_group_symop_operation_xyz
x,y,z
-x,-y,-z
loop_
_atom_site_type_symbol
_atom_site_label
_atom_site_fract_x
_atom_site_fract_y
_atom_site_fract_z
Si Si1 0.859080 0.650653 0.888197
Si Si2 0.698408 0.089519 0.844295
Si Si3 0.778421 0.533603 0.448571
Si Si4 0.724362 0.233694 0.367172
Si Si5 0.503459 0.443682 0.868443
Si Si6 0.074816 0.785076 0.500354
O O1 0.989930 0.676974 0.769129
O O2 0.930697 0.960813 0.694344
O O3 0.578187 0.514830 0.059927
O O4 0.000000 0.500000 0.000000
O O5 0.738011 0.370469 0.632693
O O6 0.992305 0.166138 0.769809
O O7 0.500000 0.000000 0.000000
O O8 0.580959 0.863611 0.941694
O O9 0.500000 0.500000 0.500000
O O10 0.860816 0.387353 0.461989
O O11 0.660763 0.476224 0.212671
O O12 0.726137 0.144531 0.506888
O O13 0.500000 0.000000 0.500000
O O14 0.795169 0.614241 0.689172
#
# Coordination Sequence:
#
# PCOD9042937 Si02
#       6
#     2   2   2   2   2   2
#     4  10  23  45  67 100 138 179 230 284 345 410
#     4  11  24  46  72 100 142 182 231 291 348 417
#     4  11  27  44  71 106 141 181 233 290 350 417
#     4  11  25  43  70  99 141 181 228 290 343 408
#     4  11  24  44  69 101 136 183 231 284 349 416
#     4  12  24  45  71 100 140 184 231 287 349 412
#
# _framework density 22.761997999999998
#
# number of rings (size 3 to 8) (size 9 to 14) (size 15 to 20)
#    0.000    1.000    5.000    0.500    2.333    4.000 
#    6.000    0.000    0.000    0.000    0.000    0.000 
#    0.000    0.000    0.000    0.000    0.000    0.000 
#
# Total GULP energy -66917.065896 kJ/mol
# GULP energy per Si atom -5576.422158 kJ/mol
# Density = 2.271019 g / cm^3
# Si number density = 22.761998 Si / 1000 Ang^3
#
#
#
# Elastic Constant Matrix: (Units=GPa)
#
#
# Indices 1 2 3 4 5 6 
#
# 1 89.9320 37.4210 36.9110 14.1424 -22.6627 -9.1183
# 2 37.4210 96.0268 27.9705 38.9195 4.8520 -3.9247
# 3 36.9110 27.9705 124.5708 23.4636 -13.7995 -1.9074
# 4 14.1424 38.9195 23.4636 44.5595 -12.6711 -4.5571
# 5 -22.6627 4.8520 -13.7995 -12.6711 26.7696 10.1233
# 6 -9.1183 -3.9247 -1.9074 -4.5571 10.1233 37.0770
#
#
#
# Elastic Compliance Matrix: (Units=1/GPa)
#
#
# Indices 1 2 3 4 5 6 
#
# 1 0.024965 -0.018007 -0.003286 0.018494 0.032408 -0.002511
# 2 -0.018007 0.033616 -0.000066 -0.034342 -0.039811 0.005775
# 3 -0.003286 -0.000066 0.009835 -0.003951 0.000814 -0.001017
# 4 0.018494 -0.034342 -0.003951 0.062770 0.051709 -0.005694
# 5 0.032408 -0.039811 0.000814 0.051709 0.103779 -0.018182
# 6 -0.002511 0.005775 -0.001017 -0.005694 -0.018182 0.031177
#
#
# Mechanical properties :
#
#
# Convention : Reuss Voigt Hill
#
# Bulk Modulus (GPa) = 38.91209 57.23716 48.07462
# Shear Modulus (GPa) = 15.75177 35.56305 25.65741
#
# Velocity S-wave (km/s) = 2.63348 3.95699 3.36103
# Velocity P-wave (km/s) = 5.13608 6.78805 6.01901
#
# Compressibility (1/GPa) = 0.02569896
#
# Stress axis : x y z
#
# Youngs Moduli (GPa) = 40.05629 29.74738 101.68077
#
# Poissons Ratio (x) = 0.53566 0.33410
# Poissons Ratio (y) = 0.72130 0.00668
# Poissons Ratio (z) = 0.13161 0.00195
#
# Static dielectric constant tensor:
#      x y z
#    x 1.996540 0.037110 -0.022270 
#    y 0.037110 1.872830 -0.003700 
#    z -0.022270 -0.003700 1.868920 
# 
# From -- ./inp_files/39583.got.cif
#   From: 2010.05.17/outbox.cif.g08.bks.cpg/sg2_20_cif.got.tgz:39583.got - 2010.06.03 11:33:40.
