data_PCOD9042609
_publ_section_title
;
Structure prediction by ZEFSAII (Michael W. Deem and Ramdas Pophale) SiO2 
 PCOD9042609
Probable space group: P -1
;
_chemical_formula_sum "Si O2"
_cell_formula_units_Z 16
_cell_length_a 21.165171
_cell_length_b 5.119615
_cell_length_c 18.612278
_cell_angle_alpha 83.927391
_cell_angle_beta 160.049910
_cell_angle_gamma 95.184034
_cell_volume 684.021699
_symmetry_space_group_name_H-M "P -1"
_symmetry_group_IT_number 2
_symmetry_cell_setting 'triclinic'
loop_
_space_group_symop_operation_xyz
x,y,z
-x,-y,-z
loop_
_atom_site_type_symbol
_atom_site_label
_atom_site_fract_x
_atom_site_fract_y
_atom_site_fract_z
Si Si1 0.193071 0.123181 0.686136
Si Si2 0.207045 0.514821 0.962662
Si Si3 0.264856 0.816779 0.418559
Si Si4 0.146954 0.988852 0.991553
Si Si5 0.399949 0.275058 0.646420
Si Si6 0.538854 0.265398 0.105889
Si Si7 0.826240 0.548863 0.479681
Si Si8 0.370756 0.756102 0.369422
O O1 0.146517 0.363276 0.575984
O O2 0.327902 0.937667 0.787764
O O3 0.328720 0.175760 0.896953
O O4 0.000000 0.000000 0.500000
O O5 0.246490 0.254390 0.061656
O O6 0.025651 0.452083 0.723636
O O7 0.144058 0.767371 0.934396
O O8 0.391409 0.626826 0.118982
O O9 0.302274 0.533149 0.500685
O O10 0.286143 0.766060 0.358026
O O11 0.057406 0.912667 0.209954
O O12 0.389482 0.038012 0.584410
O O13 0.230700 0.829579 0.153605
O O14 0.271102 0.229549 0.579677
O O15 0.655794 0.352698 0.296193
O O16 0.500000 0.500000 0.000000
O O17 0.500000 0.500000 0.500000
O O18 0.500000 0.000000 0.500000
#
# Coordination Sequence:
#
# PCOD9042609 Si02
#       8
#     2   2   2   2   2   2   2   2
#     4  10  23  44  73 103 139 179 232 292 350 419
#     4  12  26  44  70 102 144 192 237 298 356 437
#     4  12  24  47  70 101 143 191 240 307 356 425
#     4  12  24  47  68 104 143 185 248 300 358 430
#     4  12  26  45  70 101 145 190 241 293 365 426
#     4   9  22  43  68  98 139 174 225 285 347 412
#     4  11  25  43  68 101 140 185 235 287 358 432
#     4  12  25  42  71 104 140 190 250 297 365 426
#
# _framework density 23.391069999999999
#
# number of rings (size 3 to 8) (size 9 to 14) (size 15 to 20)
#    0.000    0.750    2.500    4.875    3.500    6.000 
#    0.000    3.750    0.000    0.000    0.000    0.000 
#    0.000    0.000    0.000    0.000    0.000    0.000 
#
# Total GULP energy -89369.562895 kJ/mol
# GULP energy per Si atom -5585.597681 kJ/mol
# Density = 2.333783 g / cm^3
# Si number density = 23.391070 Si / 1000 Ang^3
#
#
#
# Elastic Constant Matrix: (Units=GPa)
#
#
# Indices 1 2 3 4 5 6 
#
# 1 58.0148 3.7191 38.7780 -2.5711 8.2373 12.2354
# 2 3.7191 119.8688 17.1093 -12.4194 -1.5614 4.6068
# 3 38.7780 17.1093 151.0072 4.3666 18.9957 3.1055
# 4 -2.5711 -12.4194 4.3666 36.0784 0.0856 1.6358
# 5 8.2373 -1.5614 18.9957 0.0856 33.6391 -2.1550
# 6 12.2354 4.6068 3.1055 1.6358 -2.1550 30.5245
#
#
#
# Elastic Compliance Matrix: (Units=1/GPa)
#
#
# Indices 1 2 3 4 5 6 
#
# 1 0.023494 0.000703 -0.005611 0.003026 -0.003158 -0.009338
# 2 0.000703 0.008938 -0.001371 0.003364 0.000906 -0.001608
# 3 -0.005611 -0.001371 0.008686 -0.001980 -0.003498 0.001432
# 4 0.003026 0.003364 -0.001980 0.029470 0.000261 -0.003080
# 5 -0.003158 0.000906 -0.003498 0.000261 0.032760 0.003784
# 6 -0.009338 -0.001608 0.001432 -0.003080 0.003784 0.037033
#
#
# Mechanical properties :
#
#
# Convention : Reuss Voigt Hill
#
# Bulk Modulus (GPa) = 35.01346 49.78928 42.40137
# Shear Modulus (GPa) = 30.77678 38.00069 34.38873
#
# Velocity S-wave (km/s) = 3.63126 4.03498 3.83843
# Velocity P-wave (km/s) = 5.70812 6.56048 6.14909
#
# Compressibility (1/GPa) = 0.02856045
#
# Stress axis : x y z
#
# Youngs Moduli (GPa) = 42.56345 111.87568 115.12321
#
# Poissons Ratio (x) = -0.07868 0.64597
# Poissons Ratio (y) = -0.02993 0.15789
# Poissons Ratio (z) = 0.23883 0.15343
#
# Static dielectric constant tensor:
#      x y z
#    x -6.256180 0.393750 5.880440 
#    y 0.393750 1.902910 -0.189300 
#    z 5.880440 -0.189300 -2.321030 
# 
# From -- ./inp_files/576811.got.cif
#   From: 2010.05.17/outbox.cif.g08.bks.cpg/sg2_289_cif.got.tgz:576811.got - 2010.06.03 11:33:40.
