data_PCOD9042586
_publ_section_title
;
Structure prediction by ZEFSAII (Michael W. Deem and Ramdas Pophale) SiO2 
 PCOD9042586
Probable space group: P -1
;
_chemical_formula_sum "Si O2"
_cell_formula_units_Z 16
_cell_length_a 11.573593
_cell_length_b 14.548707
_cell_length_c 8.699145
_cell_angle_alpha 146.306876
_cell_angle_beta 70.273526
_cell_angle_gamma 92.607830
_cell_volume 682.808894
_symmetry_space_group_name_H-M "P -1"
_symmetry_group_IT_number 2
_symmetry_cell_setting 'triclinic'
loop_
_space_group_symop_operation_xyz
x,y,z
-x,-y,-z
loop_
_atom_site_type_symbol
_atom_site_label
_atom_site_fract_x
_atom_site_fract_y
_atom_site_fract_z
Si Si1 0.958313 0.479871 0.664938
Si Si2 0.275842 0.176629 0.570963
Si Si3 0.151584 0.922919 0.403815
Si Si4 0.746351 0.048617 0.300104
Si Si5 0.338086 0.563128 0.683572
Si Si6 0.228127 0.675981 0.567749
Si Si7 0.754517 0.738272 0.648916
Si Si8 0.536500 0.663628 0.147257
O O1 0.088627 0.414101 0.622814
O O2 0.000000 0.500000 0.500000
O O3 0.903595 0.327113 0.455214
O O4 0.844685 0.658872 0.049355
O O5 0.269086 0.175978 0.389295
O O6 0.402985 0.225025 0.618688
O O7 0.249191 0.004327 0.396155
O O8 0.135939 0.989208 0.681124
O O9 0.246753 0.699350 0.050754
O O10 0.000000 0.000000 0.500000
O O11 0.747232 0.173848 0.330263
O O12 0.603348 0.174425 0.625824
O O13 0.740732 0.872922 0.983379
O O14 0.500000 0.500000 0.500000
O O15 0.243942 0.687774 0.757735
O O16 0.334565 0.369135 0.434413
O O17 0.343865 0.461655 0.195481
O O18 0.500000 0.500000 0.000000
#
# Coordination Sequence:
#
# PCOD9042586 Si02
#       8
#     2   2   2   2   2   2   2   2
#     4  11  22  44  71 102 140 185 239 293 363 430
#     4  11  26  45  72 103 146 190 241 303 358 434
#     4  12  29  48  71 107 148 192 248 306 365 437
#     4  11  26  45  74 103 142 189 239 296 365 435
#     4  12  28  46  73 107 149 190 241 301 369 431
#     4  10  23  44  73 100 139 187 236 295 360 433
#     4  12  27  43  72 105 142 189 240 297 362 435
#     4   9  22  44  75 103 140 182 242 294 367 428
#
# _framework density 23.432617
#
# number of rings (size 3 to 8) (size 9 to 14) (size 15 to 20)
#    0.000    1.000    1.250    3.375   15.750    1.500 
#    0.000    0.000    0.000    0.000    0.000    0.000 
#    0.000    0.000    0.000    0.000    0.000    0.000 
#
# Total GULP energy -89267.289942 kJ/mol
# GULP energy per Si atom -5579.205621 kJ/mol
# Density = 2.337928 g / cm^3
# Si number density = 23.432617 Si / 1000 Ang^3
#
#
#
# Elastic Constant Matrix: (Units=GPa)
#
#
# Indices 1 2 3 4 5 6 
#
# 1 80.6948 17.7203 20.9357 -4.0794 10.2902 5.1981
# 2 17.7203 94.6666 7.0976 7.3032 19.2937 -2.9048
# 3 20.9357 7.0976 103.6212 0.6806 19.9924 5.9681
# 4 -4.0794 7.3032 0.6806 29.3128 0.5193 15.3416
# 5 10.2902 19.2937 19.9924 0.5193 35.2930 -2.8952
# 6 5.1981 -2.9048 5.9681 15.3416 -2.8952 37.7163
#
#
#
# Elastic Compliance Matrix: (Units=1/GPa)
#
#
# Indices 1 2 3 4 5 6 
#
# 1 0.014256 -0.002606 -0.002139 0.004764 -0.001911 -0.003912
# 2 -0.002606 0.012745 0.000752 -0.004863 -0.006340 0.002713
# 3 -0.002139 0.000752 0.011390 0.000484 -0.006423 -0.002139
# 4 0.004764 -0.004863 0.000484 0.046545 -0.001342 -0.020143
# 5 -0.001911 -0.006340 -0.006423 -0.001342 0.036354 0.004128
# 6 -0.003912 0.002713 -0.002139 -0.020143 0.004128 0.036111
#
#
# Mechanical properties :
#
#
# Convention : Reuss Voigt Hill
#
# Bulk Modulus (GPa) = 32.88821 41.16554 37.02687
# Shear Modulus (GPa) = 28.48641 36.01300 32.24970
#
# Velocity S-wave (km/s) = 3.49043 3.92455 3.71384
# Velocity P-wave (km/s) = 5.50544 6.17591 5.85029
#
# Compressibility (1/GPa) = 0.03040603
#
# Stress axis : x y z
#
# Youngs Moduli (GPa) = 70.14496 78.45984 87.79340
#
# Poissons Ratio (x) = 0.20449 0.18780
# Poissons Ratio (y) = 0.18282 -0.06606
# Poissons Ratio (z) = 0.15005 -0.05903
#
# Static dielectric constant tensor:
#      x y z
#    x 1.986070 0.056960 0.006970 
#    y 0.056960 1.889710 -0.027010 
#    z 0.006970 -0.027010 1.995730 
# 
# From -- ./inp_files/274816.got.cif
#   From: 2010.05.17/outbox.cif.g08.bks.cpg/sg2_138_cif.got.tgz:274816.got - 2010.06.03 11:33:40.
