data_PCOD9042442
_publ_section_title
;
Structure prediction by ZEFSAII (Michael W. Deem and Ramdas Pophale) SiO2 
 PCOD9042442
Probable space group: P -1
;
_chemical_formula_sum "Si O2"
_cell_formula_units_Z 15
_cell_length_a 12.178916
_cell_length_b 20.957628
_cell_length_c 14.274141
_cell_angle_alpha 161.265048
_cell_angle_beta 139.574393
_cell_angle_gamma 31.770866
_cell_volume 595.054969
_symmetry_space_group_name_H-M "P -1"
_symmetry_group_IT_number 2
_symmetry_cell_setting 'triclinic'
loop_
_space_group_symop_operation_xyz
x,y,z
-x,-y,-z
loop_
_atom_site_type_symbol
_atom_site_label
_atom_site_fract_x
_atom_site_fract_y
_atom_site_fract_z
Si Si1 0.500000 0.500000 0.500000
Si Si2 0.849738 0.589439 0.439033
Si Si3 0.056447 0.166210 0.715961
Si Si4 0.356227 0.925286 0.268702
Si Si5 0.705341 0.275833 0.876447
Si Si6 0.947538 0.257665 0.365179
Si Si7 0.426818 0.942246 0.776895
Si Si8 0.653066 0.427012 0.694422
O O1 0.678166 0.343116 0.485870
O O2 0.695670 0.452349 0.495383
O O3 0.948383 0.665366 0.533609
O O4 0.612259 0.812028 0.635712
O O5 0.000000 0.500000 0.500000
O O6 0.858708 0.354551 0.084864
O O7 0.842855 0.387426 0.827872
O O8 0.209400 0.982860 0.476537
O O9 0.206781 0.168056 0.892520
O O10 0.000000 0.000000 0.500000
O O11 0.355897 0.743670 0.087574
O O12 0.500000 0.000000 0.500000
O O13 0.111403 0.165289 0.429240
O O14 0.476160 0.733283 0.992598
O O15 0.500000 0.500000 0.000000
O O16 0.000000 0.000000 0.000000
O O17 0.398375 0.736833 0.509446
O O18 0.500000 0.000000 0.000000
#
# Coordination Sequence:
#
# PCOD9042442 Si02
#       8
#     1   2   2   2   2   2   2   2
#     4  12  26  52  78 104 160 208 256 322 398 470
#     4  12  26  45  76 113 149 207 269 328 397 469
#     4  10  23  44  71 108 152 198 254 326 388 462
#     4  12  26  49  77 114 155 208 262 325 408 472
#     4  12  22  47  75 104 154 205 260 326 383 471
#     4  12  27  50  75 113 159 209 261 327 398 480
#     4  11  25  45  76 115 154 197 264 332 394 465
#     4  11  24  50  73 112 156 206 260 323 393 477
#
# _framework density 25.207754999999999
#
# number of rings (size 3 to 8) (size 9 to 14) (size 15 to 20)
#    0.000    0.533    4.000    4.000    5.600    0.000 
#    2.400    1.333    0.000    0.000    0.000    0.000 
#    0.000    0.000    0.000    0.000    0.000    0.000 
#
# Total GULP energy -83584.715086 kJ/mol
# GULP energy per Si atom -5572.314339 kJ/mol
# Density = 2.515038 g / cm^3
# Si number density = 25.207755 Si / 1000 Ang^3
#
#
#
# Elastic Constant Matrix: (Units=GPa)
#
#
# Indices 1 2 3 4 5 6 
#
# 1 124.3074 42.5392 27.0188 -0.9790 21.5896 -8.8390
# 2 42.5392 222.4045 34.5430 -10.9877 8.4688 -8.5677
# 3 27.0188 34.5430 78.6185 -25.8763 9.5504 -12.9251
# 4 -0.9790 -10.9877 -25.8763 43.6548 -5.1206 2.2591
# 5 21.5896 8.4688 9.5504 -5.1206 34.2171 6.1988
# 6 -8.8390 -8.5677 -12.9251 2.2591 6.1988 44.8363
#
#
#
# Elastic Compliance Matrix: (Units=1/GPa)
#
#
# Indices 1 2 3 4 5 6 
#
# 1 0.010283 -0.001363 -0.002702 -0.002535 -0.006132 0.001963
# 2 -0.001363 0.005028 -0.001629 0.000268 0.000074 0.000199
# 3 -0.002702 -0.001629 0.018699 0.010107 -0.002390 0.004368
# 4 -0.002535 0.000268 0.010107 0.029228 0.002981 0.000580
# 5 -0.006132 0.000074 -0.002390 0.002981 0.035445 -0.006934
# 6 0.001963 0.000199 0.004368 0.000580 -0.006934 0.024917
#
#
# Mechanical properties :
#
#
# Convention : Reuss Voigt Hill
#
# Bulk Modulus (GPa) = 44.20447 70.39248 57.29848
# Shear Modulus (GPa) = 35.08090 45.95693 40.51891
#
# Velocity S-wave (km/s) = 3.73456 4.27444 4.01359
# Velocity P-wave (km/s) = 6.01415 7.23510 6.65269
#
# Compressibility (1/GPa) = 0.02262214
#
# Stress axis : x y z
#
# Youngs Moduli (GPa) = 97.24896 198.88141 53.47969
#
# Poissons Ratio (x) = 0.27114 0.14448
# Poissons Ratio (y) = 0.13258 0.08711
# Poissons Ratio (z) = 0.26272 0.32396
#
# Static dielectric constant tensor:
#      x y z
#    x 2.170070 0.005430 -0.167440 
#    y 0.005430 2.243770 0.096550 
#    z -0.167440 0.096550 2.164610 
# 
# From -- ./inp_files/524154.got.cif
#   From: 2010.05.17/outbox.cif.g08.bks.cpg/sg2_263_cif.got.tgz:524154.got - 2010.06.03 11:33:40.
