data_PCOD9042692
_publ_section_title
;
Structure prediction by ZEFSAII (Michael W. Deem and Ramdas Pophale) SiO2 
 PCOD9042692
Probable space group: P -1
;
_chemical_formula_sum "Si O2"
_cell_formula_units_Z 14
_cell_length_a 11.063672
_cell_length_b 4.935765
_cell_length_c 11.734650
_cell_angle_alpha 89.522988
_cell_angle_beta 85.065537
_cell_angle_gamma 60.320661
_cell_volume 554.237150
_symmetry_space_group_name_H-M "P -1"
_symmetry_group_IT_number 2
_symmetry_cell_setting 'triclinic'
loop_
_space_group_symop_operation_xyz
x,y,z
-x,-y,-z
loop_
_atom_site_type_symbol
_atom_site_label
_atom_site_fract_x
_atom_site_fract_y
_atom_site_fract_z
Si Si1 0.959917 0.791889 0.081095
Si Si2 0.827959 0.169780 0.612764
Si Si3 0.526871 0.260487 0.848318
Si Si4 0.647083 0.047046 0.073168
Si Si5 0.290557 0.061153 0.569939
Si Si6 0.008212 0.537689 0.321817
Si Si7 0.421558 0.219179 0.346952
O O1 0.028527 0.664448 0.198734
O O2 0.794063 0.968014 0.111667
O O3 0.000000 0.500000 0.000000
O O4 0.000000 0.000000 0.000000
O O5 0.767625 0.121923 0.499553
O O6 0.905653 0.833947 0.669245
O O7 0.693771 0.441130 0.689066
O O8 0.932866 0.307802 0.593235
O O9 0.396314 0.213974 0.900343
O O10 0.567155 0.060461 0.730611
O O11 0.643120 0.094996 0.937273
O O12 0.529191 0.373028 0.135526
O O13 0.353510 0.198114 0.471955
O O14 0.156589 0.324864 0.645949
O O15 0.423794 0.842690 0.637534
#
# Coordination Sequence:
#
# PCOD9042692 Si02
#       7
#     2   2   2   2   2   2   2
#     4  12  27  48  74 108 144 188 247 306 364 438
#     4  12  26  49  71 112 148 201 248 302 367 441
#     4  10  23  44  74 104 139 191 233 302 368 430
#     4  10  23  46  71 104 143 182 244 296 368 434
#     4  11  26  49  73 114 151 197 253 302 373 436
#     4  12  28  48  77 105 151 202 242 306 377 447
#     4  11  26  45  78 110 154 193 251 310 362 441
#
# _framework density 25.259947
#
# number of rings (size 3 to 8) (size 9 to 14) (size 15 to 20)
#    0.000    0.857    1.429    3.857    6.000    2.286 
#    7.714    0.000    0.000    0.000    0.000    0.000 
#    0.000    0.000    0.000    0.000    0.000    0.000 
#
# Total GULP energy -78444.109376 kJ/mol
# GULP energy per Si atom -5603.150670 kJ/mol
# Density = 2.520245 g / cm^3
# Si number density = 25.259947 Si / 1000 Ang^3
#
#
#
# Elastic Constant Matrix: (Units=GPa)
#
#
# Indices 1 2 3 4 5 6 
#
# 1 125.5640 63.1038 18.4054 -3.2056 6.4832 -21.6660
# 2 63.1038 144.6770 40.9209 7.6851 -0.1874 -4.5710
# 3 18.4054 40.9209 113.0230 -7.8822 4.6124 -14.7781
# 4 -3.2056 7.6851 -7.8822 36.4225 -4.4303 -2.9435
# 5 6.4832 -0.1874 4.6124 -4.4303 30.9085 1.9167
# 6 -21.6660 -4.5710 -14.7781 -2.9435 1.9167 50.1533
#
#
#
# Elastic Compliance Matrix: (Units=1/GPa)
#
#
# Indices 1 2 3 4 5 6 
#
# 1 0.011537 -0.005279 0.000964 0.002433 -0.002559 0.005028
# 2 -0.005279 0.010310 -0.003513 -0.003447 0.001363 -0.002630
# 3 0.000964 -0.003513 0.010711 0.003235 -0.001575 0.003502
# 4 0.002433 -0.003447 0.003235 0.029735 0.003042 0.003319
# 5 -0.002559 0.001363 -0.001575 0.003042 0.033728 -0.002556
# 6 0.005028 -0.002630 0.003502 0.003319 -0.002556 0.023195
#
#
# Mechanical properties :
#
#
# Convention : Reuss Voigt Hill
#
# Bulk Modulus (GPa) = 59.16459 69.79157 64.47808
# Shear Modulus (GPa) = 35.58564 40.88580 38.23572
#
# Velocity S-wave (km/s) = 3.75744 4.02755 3.89484
# Velocity P-wave (km/s) = 6.50366 7.02264 6.76813
#
# Compressibility (1/GPa) = 0.01690200
#
# Stress axis : x y z
#
# Youngs Moduli (GPa) = 86.67527 96.99619 93.36574
#
# Poissons Ratio (x) = 0.51200 -0.08998
# Poissons Ratio (y) = 0.45752 0.32800
# Poissons Ratio (z) = -0.08354 0.34075
#
# Static dielectric constant tensor:
#      x y z
#    x 2.140400 -0.156250 -0.005850 
#    y -0.156250 2.109760 -0.117370 
#    z -0.005850 -0.117370 2.117060 
# 
# From -- ./inp_files/409294.got.cif
#   From: 2010.05.17/outbox.cif.g08.bks.cpg/sg2_205_cif.got.tgz:409294.got - 2010.06.03 11:33:40.
