data_PCOD9042775
_publ_section_title
;
Structure prediction by ZEFSAII (Michael W. Deem and Ramdas Pophale) SiO2 
 PCOD9042775
Probable space group: P -1
;
_chemical_formula_sum "Si O2"
_cell_formula_units_Z 10
_cell_length_a 5.190626
_cell_length_b 13.942341
_cell_length_c 9.708198
_cell_angle_alpha 136.877836
_cell_angle_beta 63.152433
_cell_angle_gamma 96.979179
_cell_volume 402.762826
_symmetry_space_group_name_H-M "P -1"
_symmetry_group_IT_number 2
_symmetry_cell_setting 'triclinic'
loop_
_space_group_symop_operation_xyz
x,y,z
-x,-y,-z
loop_
_atom_site_type_symbol
_atom_site_label
_atom_site_fract_x
_atom_site_fract_y
_atom_site_fract_z
Si Si1 0.607655 0.321959 0.574806
Si Si2 0.532230 0.041825 0.190485
Si Si3 0.291746 0.145159 0.622577
Si Si4 0.719109 0.364569 0.146192
Si Si5 0.892938 0.717304 0.769879
O O1 0.615213 0.190542 0.328746
O O2 0.488282 0.257952 0.670109
O O3 0.376899 0.481667 0.754693
O O4 0.951821 0.318613 0.457249
O O5 0.257357 0.086195 0.414465
O O6 0.500000 0.000000 0.000000
O O7 0.790601 0.891376 0.022088
O O8 0.500000 0.000000 0.500000
O O9 0.977905 0.237134 0.866316
O O10 0.417232 0.320127 0.187896
O O11 0.865992 0.374753 0.270079
#
# Coordination Sequence:
#
# PCOD9042775 Si02
#       5
#     2   2   2   2   2
#     4  10  24  45  76 108 152 197 252 306 376 448
#     4  10  23  44  76 107 150 197 256 297 376 444
#     4  10  23  49  77 108 154 195 256 308 381 439
#     4  12  25  49  74 117 148 200 244 324 370 450
#     4  12  25  46  76 109 155 195 254 300 383 449
#
# _framework density 24.828510999999999
#
# number of rings (size 3 to 8) (size 9 to 14) (size 15 to 20)
#    1.200    0.000    2.000    3.600    0.000    4.000 
#    3.600    2.000    0.000    0.000    0.000    0.000 
#    0.000    0.000    0.000    0.000    0.000    0.000 
#
# Total GULP energy -55883.005233 kJ/mol
# GULP energy per Si atom -5588.300523 kJ/mol
# Density = 2.477200 g / cm^3
# Si number density = 24.828511 Si / 1000 Ang^3
#
#
#
# Elastic Constant Matrix: (Units=GPa)
#
#
# Indices 1 2 3 4 5 6 
#
# 1 90.9659 58.1604 41.9867 -13.7062 -28.1725 14.3574
# 2 58.1604 163.7866 60.7250 14.8078 -37.1415 -5.0050
# 3 41.9867 60.7250 151.3989 9.1272 -30.0448 5.8807
# 4 -13.7062 14.8078 9.1272 62.1293 -4.6682 -7.6858
# 5 -28.1725 -37.1415 -30.0448 -4.6682 41.7953 -5.8484
# 6 14.3574 -5.0050 5.8807 -7.6858 -5.8484 22.1220
#
#
#
# Elastic Compliance Matrix: (Units=1/GPa)
#
#
# Indices 1 2 3 4 5 6 
#
# 1 0.019818 -0.005747 -0.001911 0.005207 0.006025 -0.010252
# 2 -0.005747 0.010278 -0.001723 -0.002243 0.004749 0.006989
# 3 -0.001911 -0.001723 0.008541 -0.001163 0.003048 -0.001018
# 4 0.005207 -0.002243 -0.001163 0.018664 0.003294 0.003778
# 5 0.006025 0.004749 0.003048 0.003294 0.035739 0.006947
# 6 -0.010252 0.006989 -0.001018 0.003778 0.006947 0.056858
#
#
# Mechanical properties :
#
#
# Convention : Reuss Voigt Hill
#
# Bulk Modulus (GPa) = 50.31179 80.87731 65.59455
# Shear Modulus (GPa) = 28.52508 41.56128 35.04318
#
# Velocity S-wave (km/s) = 3.39320 4.09581 3.76095
# Velocity P-wave (km/s) = 5.97155 7.41705 6.73320
#
# Compressibility (1/GPa) = 0.01987606
#
# Stress axis : x y z
#
# Youngs Moduli (GPa) = 50.45910 97.29421 117.08909
#
# Poissons Ratio (x) = 0.55911 0.22378
# Poissons Ratio (y) = 0.28997 0.20169
# Poissons Ratio (z) = 0.09644 0.16760
#
# Static dielectric constant tensor:
#      x y z
#    x 1.999300 -0.005740 -0.001840 
#    y -0.005740 2.167070 -0.019360 
#    z -0.001840 -0.019360 1.942410 
# 
# From -- ./inp_files/33749.got.cif
#   From: 2010.05.17/outbox.cif.g08.bks.cpg/sg2_17_cif.got.tgz:33749.got - 2010.06.03 11:33:40.
