data_PCOD9042070
_publ_section_title
;
Structure prediction by ZEFSAII (Michael W. Deem and Ramdas Pophale) SiO2 
 PCOD9042070
Probable space group: P -1
;
_chemical_formula_sum "Si O2"
_cell_formula_units_Z 16
_cell_length_a 11.387777
_cell_length_b 12.274417
_cell_length_c 5.948255
_cell_angle_alpha 120.185625
_cell_angle_beta 90.377880
_cell_angle_gamma 74.467351
_cell_volume 684.213365
_symmetry_space_group_name_H-M "P -1"
_symmetry_group_IT_number 2
_symmetry_cell_setting 'triclinic'
loop_
_space_group_symop_operation_xyz
x,y,z
-x,-y,-z
loop_
_atom_site_type_symbol
_atom_site_label
_atom_site_fract_x
_atom_site_fract_y
_atom_site_fract_z
Si Si1 0.582998 0.614369 0.909587
Si Si2 0.738389 0.142057 0.441104
Si Si3 0.728231 0.727747 0.693333
Si Si4 0.962801 0.627146 0.290203
Si Si5 0.682442 0.383540 0.015329
Si Si6 0.109378 0.155717 0.860979
Si Si7 0.524102 0.866349 0.503427
Si Si8 0.873695 0.290098 0.278887
O O1 0.650004 0.642722 0.719522
O O2 0.662428 0.489947 0.926604
O O3 0.450480 0.593001 0.845819
O O4 0.559283 0.742140 0.203983
O O5 0.720984 0.238658 0.753915
O O6 0.603225 0.131500 0.375642
O O7 0.793075 0.210744 0.317841
O O8 0.830628 0.998139 0.343747
O O9 0.840414 0.645833 0.454026
O O10 0.634322 0.839230 0.655025
O O11 0.789439 0.791018 0.956156
O O12 0.934503 0.757736 0.271461
O O13 0.072724 0.627008 0.459134
O O14 0.000000 0.500000 0.000000
O O15 0.789177 0.381112 0.185144
O O16 0.992377 0.188197 0.057811
O O17 0.500000 0.000000 0.500000
#
# Coordination Sequence:
#
# PCOD9042070 Si02
#       8
#     2   2   2   2   2   2   2   2
#     4  10  23  44  69 102 139 176 227 285 343 409
#     4  11  24  43  68 101 139 180 229 282 340 406
#     4  11  24  44  72  98 135 183 227 278 345 410
#     4  11  27  48  69 101 138 179 230 286 344 407
#     4  10  24  44  69 101 138 180 226 284 345 406
#     4  11  26  44  65 100 141 181 231 285 336 402
#     4  11  24  42  70 105 141 180 226 285 341 403
#     4  11  25  44  71  98 134 184 230 280 345 409
#
# _framework density 23.384518
#
# number of rings (size 3 to 8) (size 9 to 14) (size 15 to 20)
#    0.000    1.250    0.000    4.125    0.000   17.000 
#    0.000    5.625    0.000    2.250    0.000    0.000 
#    0.000    0.000    0.000    0.000    0.000    0.000 
#
# Total GULP energy -89770.623521 kJ/mol
# GULP energy per Si atom -5610.663970 kJ/mol
# Density = 2.333129 g / cm^3
# Si number density = 23.384518 Si / 1000 Ang^3
#
#
#
# Elastic Constant Matrix: (Units=GPa)
#
#
# Indices 1 2 3 4 5 6 
#
# 1 151.3788 65.5643 45.0111 -13.8893 -11.9160 -8.9742
# 2 65.5643 126.1039 57.4164 14.6588 2.1220 -14.0775
# 3 45.0111 57.4164 89.0852 13.1870 -8.0420 -14.0121
# 4 -13.8893 14.6588 13.1870 35.7590 -4.4237 -3.4414
# 5 -11.9160 2.1220 -8.0420 -4.4237 49.2279 -21.2385
# 6 -8.9742 -14.0775 -14.0121 -3.4414 -21.2385 43.7944
#
#
#
# Elastic Compliance Matrix: (Units=1/GPa)
#
#
# Indices 1 2 3 4 5 6 
#
# 1 0.010825 -0.005203 -0.002551 0.008025 0.004178 0.002386
# 2 -0.005203 0.014043 -0.005969 -0.006106 -0.003708 -0.000740
# 3 -0.002551 -0.005969 0.018212 -0.004200 0.004497 0.005236
# 4 0.008025 -0.006106 -0.004200 0.036393 0.006710 0.004452
# 5 0.004178 -0.003708 0.004497 0.006710 0.029751 0.016058
# 6 0.002386 -0.000740 0.005236 0.004452 0.016058 0.032898
#
#
# Mechanical properties :
#
#
# Convention : Reuss Voigt Hill
#
# Bulk Modulus (GPa) = 63.96563 78.06130 71.01346
# Shear Modulus (GPa) = 28.60768 38.99465 33.80117
#
# Velocity S-wave (km/s) = 3.50145 4.08798 3.80603
# Velocity P-wave (km/s) = 6.61514 7.46567 7.05324
#
# Compressibility (1/GPa) = 0.01563340
#
# Stress axis : x y z
#
# Youngs Moduli (GPa) = 92.38082 71.21232 54.90754
#
# Poissons Ratio (x) = 0.37054 0.14007
# Poissons Ratio (y) = 0.48068 0.32773
# Poissons Ratio (z) = 0.23567 0.42505
#
# Static dielectric constant tensor:
#      x y z
#    x 1.878330 0.010940 -0.005850 
#    y 0.010940 1.821310 0.002680 
#    z -0.005850 0.002680 1.874950 
# 
# From -- ./inp_files/71836.got.cif
#   From: 2010.05.17/outbox.cif.g08.bks.cpg/sg2_36_cif.got.tgz:71836.got - 2010.06.03 11:33:40.
