data_PCOD9042298
_publ_section_title
;
Structure prediction by ZEFSAII (Michael W. Deem and Ramdas Pophale) SiO2 
 PCOD9042298
Probable space group: P -1
;
_chemical_formula_sum "Si O2"
_cell_formula_units_Z 16
_cell_length_a 10.540477
_cell_length_b 18.821867
_cell_length_c 10.749337
_cell_angle_alpha 153.962147
_cell_angle_beta 60.416059
_cell_angle_gamma 133.941341
_cell_volume 614.605131
_symmetry_space_group_name_H-M "P -1"
_symmetry_group_IT_number 2
_symmetry_cell_setting 'triclinic'
loop_
_space_group_symop_operation_xyz
x,y,z
-x,-y,-z
loop_
_atom_site_type_symbol
_atom_site_label
_atom_site_fract_x
_atom_site_fract_y
_atom_site_fract_z
Si Si1 0.678410 0.723324 0.708990
Si Si2 0.821562 0.432175 0.167438
Si Si3 0.477325 0.804801 0.266782
Si Si4 0.406328 0.987980 0.238567
Si Si5 0.044019 0.356976 0.313782
Si Si6 0.941903 0.151114 0.389423
Si Si7 0.365494 0.081004 0.158461
Si Si8 0.882138 0.917810 0.295965
O O1 0.500000 0.500000 0.500000
O O2 0.883660 0.793064 0.689550
O O3 0.741858 0.924233 0.080983
O O4 0.611071 0.731230 0.619346
O O5 0.819504 0.514560 0.433342
O O6 0.019450 0.630571 0.313878
O O7 0.666731 0.372443 0.043715
O O8 0.423523 0.821374 0.458407
O O9 0.500000 0.000000 0.500000
O O10 0.241812 0.792925 0.102799
O O11 0.350085 0.083507 0.317897
O O12 0.476467 0.909432 0.977960
O O13 0.840163 0.145946 0.133635
O O14 0.000000 0.500000 0.500000
O O15 0.114515 0.264261 0.044918
O O16 0.661085 0.825327 0.246204
O O17 0.973685 0.105360 0.441211
O O18 0.000000 0.000000 0.500000
#
# Coordination Sequence:
#
# PCOD9042298 Si02
#       8
#     2   2   2   2   2   2   2   2
#     4  11  23  41  72 107 156 199 261 343 412 479
#     4  11  23  45  75 109 157 202 273 339 405 490
#     4  10  26  48  75 112 163 219 269 338 415 491
#     4  10  23  44  70 108 152 209 265 331 407 498
#     4  12  24  47  78 116 157 208 270 340 421 487
#     4  11  24  44  67 117 147 205 273 336 404 497
#     4  11  21  42  72 106 147 199 267 334 404 493
#     4  12  28  51  79 113 171 216 270 347 414 503
#
# _framework density 26.032975
#
# number of rings (size 3 to 8) (size 9 to 14) (size 15 to 20)
#    0.000    1.000    3.750    2.250    7.000    0.500 
#    2.250    3.750    0.000    0.000    0.000    0.000 
#    0.000    0.000    0.000    0.000    0.000    0.000 
#
# Total GULP energy -89115.270352 kJ/mol
# GULP energy per Si atom -5569.704397 kJ/mol
# Density = 2.597372 g / cm^3
# Si number density = 26.032975 Si / 1000 Ang^3
#
#
#
# Elastic Constant Matrix: (Units=GPa)
#
#
# Indices 1 2 3 4 5 6 
#
# 1 123.0203 73.7981 64.5421 -3.6335 20.2017 -25.6713
# 2 73.7981 182.5755 74.0655 28.6715 21.9575 -44.7820
# 3 64.5421 74.0655 158.4166 -13.2922 31.9601 -17.5710
# 4 -3.6335 28.6715 -13.2922 50.8085 -7.1987 14.0167
# 5 20.2017 21.9575 31.9601 -7.1987 56.1803 -9.9178
# 6 -25.6713 -44.7820 -17.5710 14.0167 -9.9178 54.8109
#
#
#
# Elastic Compliance Matrix: (Units=1/GPa)
#
#
# Indices 1 2 3 4 5 6 
#
# 1 0.012272 -0.003687 -0.002805 0.001756 -0.000936 0.001218
# 2 -0.003687 0.013388 -0.004365 -0.012066 -0.001081 0.010702
# 3 -0.002805 -0.004365 0.010164 0.005480 -0.002995 -0.003565
# 4 0.001756 -0.012066 0.005480 0.032583 0.002465 -0.015165
# 5 -0.000936 -0.001081 -0.002995 0.002465 0.020727 0.000839
# 6 0.001218 0.010702 -0.003565 -0.015165 0.000839 0.030446
#
#
# Mechanical properties :
#
#
# Convention : Reuss Voigt Hill
#
# Bulk Modulus (GPa) = 70.86324 98.75819 84.81071
# Shear Modulus (GPa) = 34.24760 49.13372 41.69066
#
# Velocity S-wave (km/s) = 3.63098 4.34909 4.00616
# Velocity P-wave (km/s) = 6.69764 7.95221 7.35174
#
# Compressibility (1/GPa) = 0.01411169
#
# Stress axis : x y z
#
# Youngs Moduli (GPa) = 81.48858 74.69454 98.38227
#
# Poissons Ratio (x) = 0.27540 0.27593
# Poissons Ratio (y) = 0.30045 0.42939
# Poissons Ratio (z) = 0.22855 0.32600
#
# Static dielectric constant tensor:
#      x y z
#    x 2.380580 -0.075870 -0.172730 
#    y -0.075870 2.072590 0.040840 
#    z -0.172730 0.040840 2.313770 
# 
# From -- ./inp_files/274641.got.cif
#   From: 2010.05.17/outbox.cif.g08.bks.cpg/sg2_138_cif.got.tgz:274641.got - 2010.06.03 11:33:40.
