data_PCOD9042179
_publ_section_title
;
Structure prediction by ZEFSAII (Michael W. Deem and Ramdas Pophale) SiO2 
 PCOD9042179
Probable space group: P -1
;
_chemical_formula_sum "Si O2"
_cell_formula_units_Z 12
_cell_length_a 12.382096
_cell_length_b 9.218386
_cell_length_c 9.760911
_cell_angle_alpha 43.055945
_cell_angle_beta 129.900547
_cell_angle_gamma 104.067628
_cell_volume 526.600748
_symmetry_space_group_name_H-M "P -1"
_symmetry_group_IT_number 2
_symmetry_cell_setting 'triclinic'
loop_
_space_group_symop_operation_xyz
x,y,z
-x,-y,-z
loop_
_atom_site_type_symbol
_atom_site_label
_atom_site_fract_x
_atom_site_fract_y
_atom_site_fract_z
Si Si1 0.264966 0.388944 0.184026
Si Si2 0.058340 0.776197 0.389914
Si Si3 0.777380 0.194907 0.965813
Si Si4 0.506030 0.056870 0.806403
Si Si5 0.385295 0.377327 0.009937
Si Si6 0.984463 0.736872 0.062119
O O1 0.242351 0.650612 0.022467
O O2 0.104966 0.382731 0.012076
O O3 0.340894 0.223126 0.490313
O O4 0.385857 0.288674 0.226004
O O5 0.208944 0.574434 0.713802
O O6 0.105995 0.980308 0.229818
O O7 0.997575 0.691645 0.265001
O O8 0.913247 0.926924 0.266791
O O9 0.619107 0.187153 0.798222
O O10 0.847196 0.312245 0.828655
O O11 0.577110 0.821947 0.935500
O O12 0.500000 0.000000 0.000000
O O13 0.500000 0.500000 0.000000
#
# Coordination Sequence:
#
# PCOD9042179 Si02
#       6
#     2   2   2   2   2   2
#     4  12  25  44  71 101 136 176 227 280 334 397
#     4   9  22  42  69  97 138 172 227 267 344 390
#     4  10  23  44  69  99 135 175 222 281 332 397
#     4  12  28  45  70  98 137 183 225 276 339 399
#     4  12  27  44  69 102 139 177 226 278 336 404
#     4   9  21  42  69 101 131 178 219 277 331 397
#
# _framework density 22.787659999999999
#
# number of rings (size 3 to 8) (size 9 to 14) (size 15 to 20)
#    1.000    0.333    0.000    4.500    4.667    3.333 
#    3.000    0.000    0.000    0.000    0.000    0.000 
#    0.000    0.000    0.000    0.000    0.000    0.000 
#
# Total GULP energy -67087.870369 kJ/mol
# GULP energy per Si atom -5590.655864 kJ/mol
# Density = 2.273579 g / cm^3
# Si number density = 22.787660 Si / 1000 Ang^3
#
#
#
# Elastic Constant Matrix: (Units=GPa)
#
#
# Indices 1 2 3 4 5 6 
#
# 1 87.4592 39.3473 4.4577 13.9154 -19.5640 -5.5129
# 2 39.3473 166.7590 24.3138 26.3279 0.4938 -13.4618
# 3 4.4577 24.3138 91.3006 8.0514 -8.4062 -15.4492
# 4 13.9154 26.3279 8.0514 25.4894 -4.4824 13.3688
# 5 -19.5640 0.4938 -8.4062 -4.4824 21.7152 2.0238
# 6 -5.5129 -13.4618 -15.4492 13.3688 2.0238 53.2015
#
#
#
# Elastic Compliance Matrix: (Units=1/GPa)
#
#
# Indices 1 2 3 4 5 6 
#
# 1 0.017236 -0.003464 0.002318 -0.005078 0.015244 0.002279
# 2 -0.003464 0.009025 -0.001130 -0.010546 -0.006359 0.004488
# 3 0.002318 -0.001130 0.013007 -0.005865 0.005473 0.004997
# 4 -0.005078 -0.010546 -0.005865 0.068174 0.009554 -0.022393
# 5 0.015244 -0.006359 0.005473 0.009554 0.064326 -0.003288
# 6 0.002279 0.004488 0.004997 -0.022393 -0.003288 0.027371
#
#
# Mechanical properties :
#
#
# Convention : Reuss Voigt Hill
#
# Bulk Modulus (GPa) = 28.80603 53.52849 41.16726
# Shear Modulus (GPa) = 23.22719 38.57458 30.90089
#
# Velocity S-wave (km/s) = 3.19609 4.11881 3.68643
# Velocity P-wave (km/s) = 5.12723 6.79416 6.01868
#
# Compressibility (1/GPa) = 0.03471495
#
# Stress axis : x y z
#
# Youngs Moduli (GPa) = 58.01864 110.80264 76.87976
#
# Poissons Ratio (x) = 0.38385 -0.17820
# Poissons Ratio (y) = 0.20099 0.08689
# Poissons Ratio (z) = -0.13448 0.12524
#
# Static dielectric constant tensor:
#      x y z
#    x 1.868080 -0.013210 -0.015270 
#    y -0.013210 1.853460 -0.024080 
#    z -0.015270 -0.024080 1.832450 
# 
# From -- ./inp_files/242315.got.cif
#   From: 2010.05.17/outbox.cif.g08.bks.cpg/sg2_122_cif.got.tgz:242315.got - 2010.06.03 11:33:40.
