data_PCOD9042734
_publ_section_title
;
Structure prediction by ZEFSAII (Michael W. Deem and Ramdas Pophale) SiO2 
 PCOD9042734
Probable space group: P -1
;
_chemical_formula_sum "Si O2"
_cell_formula_units_Z 14
_cell_length_a 16.251920
_cell_length_b 8.426482
_cell_length_c 5.462439
_cell_angle_alpha 65.170927
_cell_angle_beta 70.473141
_cell_angle_gamma 53.043447
_cell_volume 539.053454
_symmetry_space_group_name_H-M "P -1"
_symmetry_group_IT_number 2
_symmetry_cell_setting 'triclinic'
loop_
_space_group_symop_operation_xyz
x,y,z
-x,-y,-z
loop_
_atom_site_type_symbol
_atom_site_label
_atom_site_fract_x
_atom_site_fract_y
_atom_site_fract_z
Si Si1 0.387274 0.990904 0.123205
Si Si2 0.068538 0.529146 0.111497
Si Si3 0.223981 0.599829 0.110944
Si Si4 0.707649 0.797805 0.409747
Si Si5 0.125758 0.140341 0.635181
Si Si6 0.582407 0.558793 0.294314
Si Si7 0.755871 0.200089 0.630610
O O1 0.504987 0.797081 0.137387
O O2 0.314020 0.898839 0.225833
O O3 0.363580 0.087544 0.356085
O O4 0.353950 0.141080 0.822973
O O5 0.162488 0.566656 0.974240
O O6 0.116403 0.309468 0.340381
O O7 0.986020 0.733908 0.212900
O O8 0.000000 0.500000 0.000000
O O9 0.228573 0.438207 0.410958
O O10 0.184004 0.804298 0.182862
O O11 0.337644 0.540966 0.948107
O O12 0.787012 0.874446 0.264706
O O13 0.165518 0.929485 0.585476
O O14 0.500000 0.500000 0.500000
O O15 0.668715 0.440178 0.496558
#
# Coordination Sequence:
#
# PCOD9042734 Si02
#       7
#     2   2   2   2   2   2   2
#     4  10  24  44  73 101 146 209 250 299 366 439
#     4  10  23  44  75 104 140 186 244 305 372 445
#     4  11  26  42  71 111 144 193 248 313 365 440
#     4  10  24  43  73 106 144 198 256 305 363 439
#     4   9  22  43  69 101 137 194 236 299 377 435
#     4  10  25  44  68 105 151 200 238 305 368 435
#     4  10  24  43  69 101 151 190 246 298 369 448
#
# _framework density 25.971449
#
# number of rings (size 3 to 8) (size 9 to 14) (size 15 to 20)
#    0.000    2.000    0.000    0.000   16.000    5.143 
#    0.000    1.429    0.000    0.000    0.000    0.000 
#    0.000    0.000    0.000    0.000    0.000    0.000 
#
# Total GULP energy -78069.141004 kJ/mol
# GULP energy per Si atom -5576.367215 kJ/mol
# Density = 2.591234 g / cm^3
# Si number density = 25.971449 Si / 1000 Ang^3
#
#
#
# Elastic Constant Matrix: (Units=GPa)
#
#
# Indices 1 2 3 4 5 6 
#
# 1 136.8642 53.5044 49.6848 12.9034 9.2388 7.8745
# 2 53.5044 82.8761 4.6802 7.0547 -2.8436 -18.0519
# 3 49.6848 4.6802 92.9012 -11.1654 2.4477 0.8338
# 4 12.9034 7.0547 -11.1654 40.8702 -0.9879 1.8796
# 5 9.2388 -2.8436 2.4477 -0.9879 42.1820 -1.9096
# 6 7.8745 -18.0519 0.8338 1.8796 -1.9096 35.8987
#
#
#
# Elastic Compliance Matrix: (Units=1/GPa)
#
#
# Indices 1 2 3 4 5 6 
#
# 1 0.016353 -0.011812 -0.008569 -0.005145 -0.004422 -0.009293
# 2 -0.011812 0.022559 0.005017 0.000669 0.004467 0.014021
# 3 -0.008569 0.005017 0.015739 0.006003 0.001615 0.003809
# 4 -0.005145 0.000669 0.006003 0.027654 0.001469 -0.000044
# 5 -0.004422 0.004467 0.001615 0.001469 0.025118 0.004438
# 6 -0.009293 0.014021 0.003809 -0.000044 0.004438 0.037095
#
#
# Mechanical properties :
#
#
# Convention : Reuss Voigt Hill
#
# Bulk Modulus (GPa) = 41.79908 58.70891 50.25399
# Shear Modulus (GPa) = 27.28973 37.44164 32.36569
#
# Velocity S-wave (km/s) = 3.24506 3.80102 3.53399
# Velocity P-wave (km/s) = 5.49270 6.47441 6.00365
#
# Compressibility (1/GPa) = 0.02392397
#
# Stress axis : x y z
#
# Youngs Moduli (GPa) = 61.15075 44.32891 63.53650
#
# Poissons Ratio (x) = 0.52359 0.54445
# Poissons Ratio (y) = 0.72229 -0.31879
# Poissons Ratio (z) = 0.52401 -0.22242
#
# Static dielectric constant tensor:
#      x y z
#    x 2.073950 0.039300 0.025040 
#    y 0.039300 2.071490 -0.043200 
#    z 0.025040 -0.043200 2.153840 
# 
# From -- ./inp_files/106224.got.cif
#   From: 2010.05.17/outbox.cif.g08.bks.cpg/sg2_54_cif.got.tgz:106224.got - 2010.06.03 11:33:40.
