data_PCOD9042149
_publ_section_title
;
Structure prediction by ZEFSAII (Michael W. Deem and Ramdas Pophale) SiO2 
 PCOD9042149
Probable space group: P -1
;
_chemical_formula_sum "Si O2"
_cell_formula_units_Z 10
_cell_length_a 8.171033
_cell_length_b 10.855527
_cell_length_c 5.197008
_cell_angle_alpha 80.106495
_cell_angle_beta 119.866003
_cell_angle_gamma 100.793586
_cell_volume 391.011640
_symmetry_space_group_name_H-M "P -1"
_symmetry_group_IT_number 2
_symmetry_cell_setting 'triclinic'
loop_
_space_group_symop_operation_xyz
x,y,z
-x,-y,-z
loop_
_atom_site_type_symbol
_atom_site_label
_atom_site_fract_x
_atom_site_fract_y
_atom_site_fract_z
Si Si1 0.003225 0.839129 0.284009
Si Si2 0.301831 0.472450 0.622199
Si Si3 0.775075 0.901281 0.593826
Si Si4 0.442857 0.705754 0.325074
Si Si5 0.902347 0.378665 0.224043
O O1 0.073501 0.710867 0.479213
O O2 0.868865 0.876682 0.399920
O O3 0.177430 0.950680 0.366900
O O4 0.886493 0.836279 0.930000
O O5 0.421537 0.598606 0.565375
O O6 0.425092 0.357513 0.756149
O O7 0.210732 0.509496 0.803411
O O8 0.117877 0.433124 0.309916
O O9 0.559133 0.836985 0.445180
O O10 0.233299 0.705348 0.046583
#
# Coordination Sequence:
#
# PCOD9042149 Si02
#       5
#     2   2   2   2   2
#     4  10  23  44  69  96 133 174 217 275 335 387
#     4  10  24  40  60  98 138 170 218 272 334 384
#     4  10  23  44  69  96 133 174 217 275 335 387
#     4  11  23  40  67  96 131 175 222 271 326 397
#     4  11  23  40  67  96 131 175 222 271 326 397
#
# _framework density 25.574687999999998
#
# number of rings (size 3 to 8) (size 9 to 14) (size 15 to 20)
#    0.000    1.600    2.000    1.200    5.600    7.200 
#    0.000    1.000    0.000    0.000    0.000    0.000 
#    0.000    0.000    0.000    0.000    0.000    0.000 
#
# Total GULP energy -55994.256945 kJ/mol
# GULP energy per Si atom -5599.425695 kJ/mol
# Density = 2.551648 g / cm^3
# Si number density = 25.574688 Si / 1000 Ang^3
#
#
#
# Elastic Constant Matrix: (Units=GPa)
#
#
# Indices 1 2 3 4 5 6 
#
# 1 91.0872 28.1487 37.9835 12.5535 9.4044 8.8090
# 2 28.1487 110.0836 30.0061 32.9223 11.8841 50.6117
# 3 37.9835 30.0061 113.8184 33.1969 15.3481 34.5735
# 4 12.5535 32.9223 33.1969 47.2032 20.3143 19.4043
# 5 9.4044 11.8841 15.3481 20.3143 35.1235 6.7949
# 6 8.8090 50.6117 34.5735 19.4043 6.7949 44.2940
#
#
#
# Elastic Compliance Matrix: (Units=1/GPa)
#
#
# Indices 1 2 3 4 5 6 
#
# 1 0.014626 -0.006506 -0.006200 0.002319 -0.002022 0.008659
# 2 -0.006506 0.024364 0.006725 -0.008967 0.001172 -0.028046
# 3 -0.006200 0.006725 0.016138 -0.007982 -0.000043 -0.015543
# 4 0.002319 -0.008967 -0.007982 0.039161 -0.017033 0.001473
# 5 -0.002022 0.001172 -0.000043 -0.017033 0.038356 0.000675
# 6 0.008659 -0.028046 -0.015543 0.001473 0.000675 0.064284
#
#
# Mechanical properties :
#
#
# Convention : Reuss Voigt Hill
#
# Bulk Modulus (GPa) = 23.16680 56.36288 39.76484
# Shear Modulus (GPa) = 22.39342 39.91420 31.15381
#
# Velocity S-wave (km/s) = 2.96228 3.95484 3.49399
# Velocity P-wave (km/s) = 4.55832 6.55292 5.64442
#
# Compressibility (1/GPa) = 0.04316521
#
# Stress axis : x y z
#
# Youngs Moduli (GPa) = 68.37040 41.04381 61.96737
#
# Poissons Ratio (x) = 0.26704 0.38418
# Poissons Ratio (y) = 0.44484 -0.41671
# Poissons Ratio (z) = 0.42388 -0.27601
#
# Static dielectric constant tensor:
#      x y z
#    x 2.090730 -0.018670 -0.033450 
#    y -0.018670 1.995040 0.040730 
#    z -0.033450 0.040730 2.040660 
# 
# From -- ./inp_files/1711.got.cif
#   From: 2010.05.17/outbox.cif.g08.bks.cpg/sg2_1_cif.got.tgz:1711.got - 2010.06.03 11:33:40.
