data_PCOD9042820
_publ_section_title
;
Structure prediction by ZEFSAII (Michael W. Deem and Ramdas Pophale) SiO2 
 PCOD9042820
Probable space group: P -1
;
_chemical_formula_sum "Si O2"
_cell_formula_units_Z 16
_cell_length_a 7.952392
_cell_length_b 21.775950
_cell_length_c 5.279317
_cell_angle_alpha 70.093735
_cell_angle_beta 59.795388
_cell_angle_gamma 57.553773
_cell_volume 663.636116
_symmetry_space_group_name_H-M "P -1"
_symmetry_group_IT_number 2
_symmetry_cell_setting 'triclinic'
loop_
_space_group_symop_operation_xyz
x,y,z
-x,-y,-z
loop_
_atom_site_type_symbol
_atom_site_label
_atom_site_fract_x
_atom_site_fract_y
_atom_site_fract_z
Si Si1 0.813744 0.697645 0.841448
Si Si2 0.034171 0.780469 0.746516
Si Si3 0.681102 0.540509 0.583174
Si Si4 0.524671 0.816383 0.560242
Si Si5 0.612294 0.955251 0.227557
Si Si6 0.206587 0.542659 0.886869
Si Si7 0.512733 0.301801 0.568071
Si Si8 0.079490 0.856431 0.101331
O O1 0.746783 0.746416 0.575286
O O2 0.844856 0.755881 0.917982
O O3 0.014953 0.619589 0.835166
O O4 0.597142 0.691003 0.089309
O O5 0.245391 0.707896 0.599119
O O6 0.063945 0.802519 0.974217
O O7 0.022509 0.837026 0.452590
O O8 0.440244 0.543921 0.738163
O O9 0.773460 0.513865 0.271031
O O10 0.640375 0.622817 0.559576
O O11 0.818022 0.485284 0.777575
O O12 0.575316 0.882585 0.356892
O O13 0.449076 0.775795 0.465289
O O14 0.322983 0.847936 0.876050
O O15 0.500000 0.000000 0.500000
O O16 0.870853 0.931890 0.078547
O O17 0.500000 0.000000 0.000000
#
# Coordination Sequence:
#
# PCOD9042820 Si02
#       8
#     2   2   2   2   2   2   2   2
#     4  12  24  42  71 103 133 190 234 296 335 421
#     4  11  23  42  70 102 138 182 233 286 344 394
#     4  10  23  45  62  96 139 187 232 289 356 408
#     4  11  27  45  73 108 140 177 242 282 345 413
#     4  12  28  48  76 106 145 184 222 276 347 422
#     4  10  24  41  67  94 138 186 235 286 351 416
#     4  11  25  43  71 103 138 183 240 295 342 408
#     4  11  24  46  72 103 142 181 221 290 334 408
#
# _framework density 24.109596
#
# number of rings (size 3 to 8) (size 9 to 14) (size 15 to 20)
#    0.000    1.000    3.750    1.500    5.250    2.000 
#    0.000    0.000    0.000    0.000    0.000    0.000 
#    0.000    0.000    0.000    0.000    0.000    0.000 
#
# Total GULP energy -89297.739380 kJ/mol
# GULP energy per Si atom -5581.108711 kJ/mol
# Density = 2.405472 g / cm^3
# Si number density = 24.109596 Si / 1000 Ang^3
#
#
#
# Elastic Constant Matrix: (Units=GPa)
#
#
# Indices 1 2 3 4 5 6 
#
# 1 73.2800 40.5733 31.0727 -3.4519 8.1791 -16.7161
# 2 40.5733 131.0785 48.2484 -21.4507 12.2563 -21.2461
# 3 31.0727 48.2484 113.7553 -5.8641 4.3367 -9.4191
# 4 -3.4519 -21.4507 -5.8641 31.5400 -8.7852 4.6831
# 5 8.1791 12.2563 4.3367 -8.7852 43.3436 -2.0706
# 6 -16.7161 -21.2461 -9.4191 4.6831 -2.0706 55.3991
#
#
#
# Elastic Compliance Matrix: (Units=1/GPa)
#
#
# Indices 1 2 3 4 5 6 
#
# 1 0.018136 -0.004167 -0.002941 -0.002557 -0.002301 0.003505
# 2 -0.004167 0.011542 -0.003234 0.006268 -0.000785 0.002060
# 3 -0.002941 -0.003234 0.010916 -0.000377 0.000290 -0.000229
# 4 -0.002557 0.006268 -0.000377 0.037577 0.006299 -0.001373
# 5 -0.002301 -0.000785 0.000290 0.006299 0.024949 -0.000546
# 6 0.003505 0.002060 -0.000229 -0.001373 -0.000546 0.019955
#
#
# Mechanical properties :
#
#
# Convention : Reuss Voigt Hill
#
# Bulk Modulus (GPa) = 50.21985 61.98918 56.10451
# Shear Modulus (GPa) = 33.24581 39.27116 36.25849
#
# Velocity S-wave (km/s) = 3.71744 4.04029 3.88223
# Velocity P-wave (km/s) = 6.26904 6.89438 6.58914
#
# Compressibility (1/GPa) = 0.01991245
#
# Stress axis : x y z
#
# Youngs Moduli (GPa) = 55.13933 86.63915 91.60712
#
# Poissons Ratio (x) = 0.36098 0.26938
# Poissons Ratio (y) = 0.22974 0.29623
# Poissons Ratio (z) = 0.16214 0.28017
#
# Static dielectric constant tensor:
#      x y z
#    x 2.035550 -0.033880 -0.024360 
#    y -0.033880 1.938870 0.005600 
#    z -0.024360 0.005600 1.955420 
# 
# From -- ./inp_files/52696.got.cif
#   From: 2010.05.17/outbox.cif.g08.bks.cpg/sg2_27_cif.got.tgz:52696.got - 2010.06.03 11:33:40.
