data_PCOD9042905
_publ_section_title
;
Structure prediction by ZEFSAII (Michael W. Deem and Ramdas Pophale) SiO2 
 PCOD9042905
Probable space group: P -1
;
_chemical_formula_sum "Si O2"
_cell_formula_units_Z 10
_cell_length_a 10.660956
_cell_length_b 8.483783
_cell_length_c 11.268393
_cell_angle_alpha 90.423705
_cell_angle_beta 37.223189
_cell_angle_gamma 115.742056
_cell_volume 435.218964
_symmetry_space_group_name_H-M "P -1"
_symmetry_group_IT_number 2
_symmetry_cell_setting 'triclinic'
loop_
_space_group_symop_operation_xyz
x,y,z
-x,-y,-z
loop_
_atom_site_type_symbol
_atom_site_label
_atom_site_fract_x
_atom_site_fract_y
_atom_site_fract_z
Si Si1 0.410697 0.277660 0.917091
Si Si2 0.898437 0.369934 0.448750
Si Si3 0.158276 0.516790 0.762649
Si Si4 0.848397 0.865798 0.235088
Si Si5 0.774477 0.749038 0.709391
O O1 0.553652 0.219468 0.729007
O O2 0.577633 0.534845 0.766197
O O3 0.450368 0.290530 0.029597
O O4 0.065880 0.068573 0.162472
O O5 0.960674 0.473910 0.272155
O O6 0.000000 0.500000 0.500000
O O7 0.020857 0.263508 0.373867
O O8 0.510781 0.735478 0.503236
O O9 0.131762 0.312942 0.773230
O O10 0.000000 0.500000 0.000000
O O11 0.000000 0.000000 0.000000
O O12 0.000000 0.000000 0.500000
#
# Coordination Sequence:
#
# PCOD9042905 Si02
#       5
#     2   2   2   2   2
#     4  10  23  45  66 104 145 183 239 294 365 426
#     4  10  23  46  70 103 144 185 241 297 362 429
#     4  11  27  47  73 109 145 195 245 296 361 436
#     4  11  25  46  74 101 152 192 237 302 363 431
#     4  10  24  43  72 103 142 188 238 301 360 431
#
# _framework density 22.976939000000002
#
# number of rings (size 3 to 8) (size 9 to 14) (size 15 to 20)
#    0.000    1.600    2.000    0.000    8.400    3.200 
#   14.400    0.000    0.000    0.000    0.000    0.000 
#    0.000    0.000    0.000    0.000    0.000    0.000 
#
# Total GULP energy -55683.595527 kJ/mol
# GULP energy per Si atom -5568.359553 kJ/mol
# Density = 2.292464 g / cm^3
# Si number density = 22.976939 Si / 1000 Ang^3
#
#
#
# Elastic Constant Matrix: (Units=GPa)
#
#
# Indices 1 2 3 4 5 6 
#
# 1 151.8916 64.9023 68.6870 -2.4076 9.6111 -4.0724
# 2 64.9023 118.4256 84.9221 -0.5562 -3.5262 7.1781
# 3 68.6870 84.9221 177.9400 -5.9341 6.6331 -3.7043
# 4 -2.4076 -0.5562 -5.9341 63.5835 13.0503 3.2687
# 5 9.6111 -3.5262 6.6331 13.0503 36.4093 -11.6674
# 6 -4.0724 7.1781 -3.7043 3.2687 -11.6674 29.5806
#
#
#
# Elastic Compliance Matrix: (Units=1/GPa)
#
#
# Indices 1 2 3 4 5 6 
#
# 1 0.009198 -0.004143 -0.001439 0.000627 -0.002454 0.001054
# 2 -0.004143 0.015249 -0.005892 -0.000944 0.002759 -0.003816
# 3 -0.001439 -0.005892 0.009118 0.001013 -0.001706 0.001589
# 4 0.000627 -0.000944 0.001013 0.017803 -0.008369 -0.004826
# 5 -0.002454 0.002759 -0.001706 -0.008369 0.036168 0.013969
# 6 0.001054 -0.003816 0.001589 -0.004826 0.013969 0.041119
#
#
# Mechanical properties :
#
#
# Convention : Reuss Voigt Hill
#
# Bulk Modulus (GPa) = 94.19203 98.36446 96.27824
# Shear Modulus (GPa) = 32.22851 41.23107 36.72979
#
# Velocity S-wave (km/s) = 3.74925 4.24070 4.00253
# Velocity P-wave (km/s) = 7.73471 8.17808 7.95948
#
# Compressibility (1/GPa) = 0.01061661
#
# Stress axis : x y z
#
# Youngs Moduli (GPa) = 108.71698 65.57853 109.67630
#
# Poissons Ratio (x) = 0.27170 0.15782
# Poissons Ratio (y) = 0.45044 0.64621
# Poissons Ratio (z) = 0.15643 0.38639
#
# Static dielectric constant tensor:
#      x y z
#    x 1.762700 -0.129840 -0.074180 
#    y -0.129840 1.836390 0.066920 
#    z -0.074180 0.066920 2.021320 
# 
# From -- ./inp_files/78747.got.cif
#   From: 2010.05.17/outbox.cif.g08.bks.cpg/sg2_40_cif.got.tgz:78747.got - 2010.06.03 11:33:40.
