data_PCOD9042924
_publ_section_title
;
Structure prediction by ZEFSAII (Michael W. Deem and Ramdas Pophale) SiO2 
 PCOD9042924
Probable space group: P -1
;
_chemical_formula_sum "Si O2"
_cell_formula_units_Z 14
_cell_length_a 8.943454
_cell_length_b 13.137539
_cell_length_c 9.187934
_cell_angle_alpha 70.898704
_cell_angle_beta 143.228865
_cell_angle_gamma 114.312790
_cell_volume 588.912118
_symmetry_space_group_name_H-M "P -1"
_symmetry_group_IT_number 2
_symmetry_cell_setting 'triclinic'
loop_
_space_group_symop_operation_xyz
x,y,z
-x,-y,-z
loop_
_atom_site_type_symbol
_atom_site_label
_atom_site_fract_x
_atom_site_fract_y
_atom_site_fract_z
Si Si1 0.406293 0.079745 0.280783
Si Si2 0.785218 0.724661 0.970117
Si Si3 0.286782 0.523940 0.636967
Si Si4 0.407668 0.310926 0.745245
Si Si5 0.045093 0.814080 0.443023
Si Si6 0.680389 0.934375 0.094965
Si Si7 0.161712 0.594199 0.189459
O O1 0.253057 0.163009 0.185749
O O2 0.659565 0.161767 0.367882
O O3 0.500000 0.000000 0.500000
O O4 0.277871 0.023901 0.058889
O O5 0.507662 0.633425 0.806338
O O6 0.910837 0.763647 0.208401
O O7 0.981741 0.672364 0.060988
O O8 0.427026 0.423047 0.800440
O O9 0.237931 0.541202 0.420520
O O10 0.000000 0.500000 0.500000
O O11 0.093602 0.269764 0.500377
O O12 0.449906 0.199197 0.907347
O O13 0.582625 0.339815 0.727645
O O14 0.971047 0.929667 0.366072
O O15 0.500000 0.000000 0.000000
O O16 0.000000 0.500000 0.000000
#
# Coordination Sequence:
#
# PCOD9042924 Si02
#       7
#     2   2   2   2   2   2   2
#     4  11  24  45  73 102 133 176 236 282 340 416
#     4  11  24  44  69 100 138 181 230 273 349 401
#     4  12  26  43  73 100 138 186 231 276 343 413
#     4  10  23  45  66  96 146 175 226 280 337 409
#     4   9  23  45  68 100 132 182 227 275 345 408
#     4   9  23  44  68 101 134 176 225 282 351 392
#     4  12  26  42  66 103 141 179 230 281 340 400
#
# _framework density 23.772649000000001
#
# number of rings (size 3 to 8) (size 9 to 14) (size 15 to 20)
#    0.857    0.571    1.429    3.000    2.000    8.571 
#    0.000    0.000    0.000    0.000    0.000    0.000 
#    0.000    0.000    0.000    0.000    0.000    0.000 
#
# Total GULP energy -78038.365896 kJ/mol
# GULP energy per Si atom -5574.168993 kJ/mol
# Density = 2.371854 g / cm^3
# Si number density = 23.772649 Si / 1000 Ang^3
#
#
#
# Elastic Constant Matrix: (Units=GPa)
#
#
# Indices 1 2 3 4 5 6 
#
# 1 162.5016 63.2441 29.7642 -16.8209 14.2579 -1.0028
# 2 63.2441 109.0040 34.8461 -38.7418 8.4153 -18.5353
# 3 29.7642 34.8461 60.7513 -9.7617 -10.7735 3.8691
# 4 -16.8209 -38.7418 -9.7617 48.2638 7.7699 15.4336
# 5 14.2579 8.4153 -10.7735 7.7699 41.2489 -8.0024
# 6 -1.0028 -18.5353 3.8691 15.4336 -8.0024 64.8331
#
#
#
# Elastic Compliance Matrix: (Units=1/GPa)
#
#
# Indices 1 2 3 4 5 6 
#
# 1 0.008425 -0.004199 -0.002144 0.000009 -0.002869 -0.001299
# 2 -0.004199 0.019998 -0.008654 0.013275 -0.006972 0.002148
# 3 -0.002144 -0.008654 0.023589 -0.003763 0.009006 -0.001908
# 4 0.000009 0.013275 -0.003763 0.034179 -0.011199 -0.005499
# 5 -0.002869 -0.006972 0.009006 -0.011199 0.031901 0.004028
# 6 -0.001299 0.002148 -0.001908 -0.005499 0.004028 0.017938
#
#
# Mechanical properties :
#
#
# Convention : Reuss Voigt Hill
#
# Bulk Modulus (GPa) = 45.41577 65.32952 55.37264
# Shear Modulus (GPa) = 28.84124 44.49600 36.66862
#
# Velocity S-wave (km/s) = 3.48690 4.33104 3.93169
# Velocity P-wave (km/s) = 5.94617 7.24922 6.62979
#
# Compressibility (1/GPa) = 0.02201878
#
# Stress axis : x y z
#
# Youngs Moduli (GPa) = 118.68848 50.00463 42.39316
#
# Poissons Ratio (x) = 0.20997 0.09089
# Poissons Ratio (y) = 0.49837 0.36686
# Poissons Ratio (z) = 0.25448 0.43273
#
# Static dielectric constant tensor:
#      x y z
#    x 1.940710 -0.011650 0.024440 
#    y -0.011650 2.020740 0.088300 
#    z 0.024440 0.088300 2.023520 
# 
# From -- ./inp_files/201194.got.cif
#   From: 2010.05.17/outbox.cif.g08.bks.cpg/sg2_101_cif.got.tgz:201194.got - 2010.06.03 11:33:40.
