data_PCOD9042712
_publ_section_title
;
Structure prediction by ZEFSAII (Michael W. Deem and Ramdas Pophale) SiO2 
 PCOD9042712
Probable space group: P -1
;
_chemical_formula_sum "Si O2"
_cell_formula_units_Z 10
_cell_length_a 9.488760
_cell_length_b 5.039124
_cell_length_c 10.142751
_cell_angle_alpha 89.440746
_cell_angle_beta 58.377131
_cell_angle_gamma 68.168982
_cell_volume 372.676810
_symmetry_space_group_name_H-M "P -1"
_symmetry_group_IT_number 2
_symmetry_cell_setting 'triclinic'
loop_
_space_group_symop_operation_xyz
x,y,z
-x,-y,-z
loop_
_atom_site_type_symbol
_atom_site_label
_atom_site_fract_x
_atom_site_fract_y
_atom_site_fract_z
Si Si1 0.064818 0.209010 0.551063
Si Si2 0.097391 0.362449 0.811576
Si Si3 0.650641 0.184420 0.981355
Si Si4 0.289296 0.716146 0.789173
Si Si5 0.583700 0.101618 0.746015
O O1 0.997770 0.319300 0.731551
O O2 0.000000 0.500000 0.500000
O O3 0.286588 0.073066 0.434867
O O4 0.000000 0.000000 0.500000
O O5 0.188624 0.586849 0.740609
O O6 0.258462 0.032936 0.752504
O O7 0.000000 0.500000 0.000000
O O8 0.718915 0.045147 0.807195
O O9 0.500000 0.500000 0.000000
O O10 0.788958 0.203422 0.021945
O O11 0.553358 0.013961 0.114023
O O12 0.476928 0.434447 0.740247
#
# Coordination Sequence:
#
# PCOD9042712 Si02
#       5
#     2   2   2   2   2
#     4  12  31  49  73 108 154 201 241 307 370 447
#     4  12  28  47  73 109 149 197 243 302 379 437
#     4   9  20  39  73 110 139 188 236 308 360 433
#     4  11  23  45  75 105 141 190 248 311 357 435
#     4  10  23  44  74 110 146 191 256 295 376 432
#
# _framework density 26.832899999999999
#
# number of rings (size 3 to 8) (size 9 to 14) (size 15 to 20)
#    0.000    1.200    2.000    1.800   11.200    1.600 
#    0.000    0.000    0.000    0.000    0.000    0.000 
#    0.000    0.000    0.000    0.000    0.000    0.000 
#
# Total GULP energy -55681.264407 kJ/mol
# GULP energy per Si atom -5568.126441 kJ/mol
# Density = 2.677183 g / cm^3
# Si number density = 26.832900 Si / 1000 Ang^3
#
#
#
# Elastic Constant Matrix: (Units=GPa)
#
#
# Indices 1 2 3 4 5 6 
#
# 1 89.8739 33.3148 44.1435 5.5204 47.3922 29.1656
# 2 33.3148 184.6260 23.6826 17.9936 -3.8118 -0.0874
# 3 44.1435 23.6826 160.3180 7.8964 14.6517 10.1149
# 4 5.5204 17.9936 7.8964 24.8718 -0.5156 9.5600
# 5 47.3922 -3.8118 14.6517 -0.5156 58.7505 12.6272
# 6 29.1656 -0.0874 10.1149 9.5600 12.6272 50.2672
#
#
#
# Elastic Compliance Matrix: (Units=1/GPa)
#
#
# Indices 1 2 3 4 5 6 
#
# 1 0.030511 -0.005597 -0.005039 0.003041 -0.021119 -0.011972
# 2 -0.005597 0.006977 0.000174 -0.004969 0.004212 0.003112
# 3 -0.005039 0.000174 0.007431 -0.001823 0.001929 0.001291
# 4 0.003041 -0.004969 -0.001823 0.047782 0.000374 -0.010588
# 5 -0.021119 0.004212 0.001929 0.000374 0.033104 0.003486
# 6 -0.011972 0.003112 0.001291 -0.010588 0.003486 0.027724
#
#
# Mechanical properties :
#
#
# Convention : Reuss Voigt Hill
#
# Bulk Modulus (GPa) = 41.67456 70.78883 56.23170
# Shear Modulus (GPa) = 27.40455 49.02303 38.21379
#
# Velocity S-wave (km/s) = 3.19925 4.27895 3.77787
# Velocity P-wave (km/s) = 5.40480 7.13100 6.32704
#
# Compressibility (1/GPa) = 0.02399545
#
# Stress axis : x y z
#
# Youngs Moduli (GPa) = 32.77468 143.33321 134.56495
#
# Poissons Ratio (x) = 0.80228 0.67804
# Poissons Ratio (y) = 0.18345 -0.02342
# Poissons Ratio (z) = 0.16514 -0.02495
#
# Static dielectric constant tensor:
#      x y z
#    x 2.290570 0.141100 0.059120 
#    y 0.141100 2.132210 0.102880 
#    z 0.059120 0.102880 2.187250 
# 
# From -- ./inp_files/229687.got.cif
#   From: 2010.05.17/outbox.cif.g08.bks.cpg/sg2_115_cif.got.tgz:229687.got - 2010.06.03 11:33:40.
