data_PCOD9042578
_publ_section_title
;
Structure prediction by ZEFSAII (Michael W. Deem and Ramdas Pophale) SiO2 
 PCOD9042578
Probable space group: P -1
;
_chemical_formula_sum "Si O2"
_cell_formula_units_Z 16
_cell_length_a 5.970027
_cell_length_b 11.071850
_cell_length_c 25.817592
_cell_angle_alpha 31.278227
_cell_angle_beta 53.505039
_cell_angle_gamma 50.020388
_cell_volume 674.452400
_symmetry_space_group_name_H-M "P -1"
_symmetry_group_IT_number 2
_symmetry_cell_setting 'triclinic'
loop_
_space_group_symop_operation_xyz
x,y,z
-x,-y,-z
loop_
_atom_site_type_symbol
_atom_site_label
_atom_site_fract_x
_atom_site_fract_y
_atom_site_fract_z
Si Si1 0.073209 0.001026 0.067687
Si Si2 0.683987 0.728252 0.556782
Si Si3 0.574483 0.226685 0.615030
Si Si4 0.009294 0.766114 0.266899
Si Si5 0.240363 0.830659 0.489325
Si Si6 0.430713 0.300048 0.046023
Si Si7 0.377556 0.397191 0.900088
Si Si8 0.999725 0.917082 0.750448
O O1 0.073237 0.934820 0.152492
O O2 0.283581 0.759096 0.099764
O O3 0.733408 0.087102 0.068115
O O4 0.200091 0.227390 0.961861
O O5 0.719788 0.485900 0.674962
O O6 0.521827 0.694598 0.537781
O O7 0.015113 0.734408 0.519920
O O8 0.500000 0.000000 0.500000
O O9 0.500000 0.500000 0.500000
O O10 0.607551 0.066568 0.615975
O O11 0.319279 0.254005 0.683700
O O12 0.866207 0.080676 0.659580
O O13 0.965542 0.894294 0.281187
O O14 0.000000 0.000000 0.500000
O O15 0.230538 0.192807 0.148582
O O16 0.500000 0.500000 0.000000
O O17 0.314196 0.413358 0.964632
O O18 0.269809 0.671463 0.792363
#
# Coordination Sequence:
#
# PCOD9042578 Si02
#       8
#     2   2   2   2   2   2   2   2
#     4  11  24  45  71 103 151 186 234 305 374 447
#     4  10  23  44  72  99 141 193 247 309 380 445
#     4  12  26  45  70 100 140 189 248 303 368 442
#     4  12  25  44  72 103 142 193 246 308 370 453
#     4  10  23  45  69  98 137 191 241 306 376 437
#     4  12  22  44  75 104 147 192 238 301 376 449
#     4  11  25  45  70 109 144 188 236 302 380 448
#     4  12  26  43  73 108 140 188 253 299 370 458
#
# _framework density 23.722947999999999
#
# number of rings (size 3 to 8) (size 9 to 14) (size 15 to 20)
#    0.000    0.750    5.000    2.250    1.750    3.000 
#    2.250    0.000    0.000    0.000    0.000    0.000 
#    0.000    0.000    0.000    0.000    0.000    0.000 
#
# Total GULP energy -89080.939281 kJ/mol
# GULP energy per Si atom -5567.558705 kJ/mol
# Density = 2.366895 g / cm^3
# Si number density = 23.722948 Si / 1000 Ang^3
#
#
#
# Elastic Constant Matrix: (Units=GPa)
#
#
# Indices 1 2 3 4 5 6 
#
# 1 98.1513 4.7569 24.2960 -10.2349 19.4805 0.5253
# 2 4.7569 122.1921 18.9276 -20.1813 14.8990 -15.6358
# 3 24.2960 18.9276 84.2327 -25.9400 31.5578 5.3146
# 4 -10.2349 -20.1813 -25.9400 46.5197 -4.3129 11.1340
# 5 19.4805 14.8990 31.5578 -4.3129 42.1429 7.1530
# 6 0.5253 -15.6358 5.3146 11.1340 7.1530 31.1973
#
#
#
# Elastic Compliance Matrix: (Units=1/GPa)
#
#
# Indices 1 2 3 4 5 6 
#
# 1 0.011546 0.000671 -0.001408 0.001406 -0.004532 0.000919
# 2 0.000671 0.009776 -0.000376 0.002619 -0.004056 0.004948
# 3 -0.001408 -0.000376 0.020946 0.011140 -0.012957 -0.004738
# 4 0.001406 0.002619 0.011140 0.031242 -0.004915 -0.010632
# 5 -0.004532 -0.004056 -0.012957 -0.004915 0.037579 -0.006612
# 6 0.000919 0.004948 -0.004738 -0.010632 -0.006612 0.040636
#
#
# Mechanical properties :
#
#
# Convention : Reuss Voigt Hill
#
# Bulk Modulus (GPa) = 24.97424 44.50412 34.73918
# Shear Modulus (GPa) = 29.88644 41.07835 35.48240
#
# Velocity S-wave (km/s) = 3.55323 4.16575 3.87162
# Velocity P-wave (km/s) = 5.23300 6.47600 5.88740
#
# Compressibility (1/GPa) = 0.04004126
#
# Stress axis : x y z
#
# Youngs Moduli (GPa) = 86.61356 102.28851 47.74080
#
# Poissons Ratio (x) = -0.06864 0.06723
# Poissons Ratio (y) = -0.05812 0.01797
# Poissons Ratio (z) = 0.12196 0.03850
#
# Static dielectric constant tensor:
#      x y z
#    x 2.154810 -0.123960 -0.170140 
#    y -0.123960 2.183340 0.073730 
#    z -0.170140 0.073730 1.988050 
# 
# From -- ./inp_files/500359.got.cif
#   From: 2010.05.17/outbox.cif.g08.bks.cpg/sg2_251_cif.got.tgz:500359.got - 2010.06.03 11:33:40.
