data_PCOD9042267
_publ_section_title
;
Structure prediction by ZEFSAII (Michael W. Deem and Ramdas Pophale) SiO2 
 PCOD9042267
Probable space group: P -1
;
_chemical_formula_sum "Si O2"
_cell_formula_units_Z 16
_cell_length_a 13.847390
_cell_length_b 8.841517
_cell_length_c 9.574307
_cell_angle_alpha 81.134066
_cell_angle_beta 110.216522
_cell_angle_gamma 49.394424
_cell_volume 707.116644
_symmetry_space_group_name_H-M "P -1"
_symmetry_group_IT_number 2
_symmetry_cell_setting 'triclinic'
loop_
_space_group_symop_operation_xyz
x,y,z
-x,-y,-z
loop_
_atom_site_type_symbol
_atom_site_label
_atom_site_fract_x
_atom_site_fract_y
_atom_site_fract_z
Si Si1 0.663761 0.751475 0.556089
Si Si2 0.872546 0.748123 0.483055
Si Si3 0.188271 0.613810 0.083714
Si Si4 0.319790 0.368778 0.893542
Si Si5 0.664553 0.227624 0.796615
Si Si6 0.304445 0.034158 0.901962
Si Si7 0.688615 0.442617 0.408448
Si Si8 0.874375 0.971342 0.701528
O O1 0.751641 0.775183 0.500922
O O2 0.776000 0.559684 0.762423
O O3 0.638849 0.637487 0.456390
O O4 0.500000 0.000000 0.500000
O O5 0.778401 0.935174 0.282891
O O6 0.923824 0.806004 0.622275
O O7 0.000000 0.500000 0.500000
O O8 0.250264 0.704925 0.159907
O O9 0.286310 0.469158 0.014284
O O10 0.010537 0.821865 0.907288
O O11 0.258140 0.264120 0.868607
O O12 0.258093 0.545246 0.712866
O O13 0.507971 0.164390 0.995357
O O14 0.477248 0.462022 0.695837
O O15 0.715796 0.102839 0.689180
O O16 0.724856 0.042334 0.971126
O O17 0.827453 0.185994 0.580010
#
# Coordination Sequence:
#
# PCOD9042267 Si02
#       8
#     2   2   2   2   2   2   2   2
#     4  12  27  48  79 107 146 194 252 306 364 438
#     4  12  28  47  73 107 148 195 246 300 372 440
#     4  12  28  45  71 104 150 189 241 300 375 425
#     4  10  23  44  70 104 140 188 239 297 363 430
#     4  11  26  45  73 106 145 190 245 301 363 438
#     4  10  23  44  72 100 143 185 243 300 356 433
#     4  11  25  47  75 107 143 193 248 301 363 440
#     4  12  28  47  71 105 150 190 240 304 367 439
#
# _framework density 22.627101
#
# number of rings (size 3 to 8) (size 9 to 14) (size 15 to 20)
#    0.000    0.750    2.500    3.000   12.250    2.000 
#    0.000    0.000    0.000    0.000    0.000    0.000 
#    0.000    0.000    0.000    0.000    0.000    0.000 
#
# Total GULP energy -89509.272803 kJ/mol
# GULP energy per Si atom -5594.329550 kJ/mol
# Density = 2.257560 g / cm^3
# Si number density = 22.627101 Si / 1000 Ang^3
#
#
#
# Elastic Constant Matrix: (Units=GPa)
#
#
# Indices 1 2 3 4 5 6 
#
# 1 38.1105 22.2268 4.6482 -4.2582 -9.3164 -12.5343
# 2 22.2268 80.9275 -1.9359 17.4021 -5.7261 -9.7681
# 3 4.6482 -1.9359 110.1158 -2.1071 -21.3591 1.1297
# 4 -4.2582 17.4021 -2.1071 39.4305 -0.6226 -8.2039
# 5 -9.3164 -5.7261 -21.3591 -0.6226 44.1124 12.7304
# 6 -12.5343 -9.7681 1.1297 -8.2039 12.7304 16.9376
#
#
#
# Elastic Compliance Matrix: (Units=1/GPa)
#
#
# Indices 1 2 3 4 5 6 
#
# 1 0.049109 -0.013028 -0.003290 0.019567 -0.004794 0.042129
# 2 -0.013028 0.017590 0.001015 -0.010274 0.001518 -0.005682
# 3 -0.003290 0.001015 0.010677 -0.001968 0.007142 -0.008883
# 4 0.019567 -0.010274 -0.001968 0.038589 -0.007037 0.032666
# 5 -0.004794 0.001518 0.007142 -0.007037 0.034613 -0.032572
# 6 0.042129 -0.005682 -0.008883 0.032666 -0.032572 0.127836
#
#
# Mechanical properties :
#
#
# Convention : Reuss Voigt Hill
#
# Bulk Modulus (GPa) = 21.38081 31.00355 26.19218
# Shear Modulus (GPa) = 15.40310 33.71042 24.55676
#
# Velocity S-wave (km/s) = 2.61192 3.86401 3.29793
# Velocity P-wave (km/s) = 4.30882 5.79993 5.10906
#
# Compressibility (1/GPa) = 0.04677092
#
# Stress axis : x y z
#
# Youngs Moduli (GPa) = 20.36276 56.85009 93.65973
#
# Poissons Ratio (x) = 0.74066 0.30812
# Poissons Ratio (y) = 0.26529 -0.09510
# Poissons Ratio (z) = 0.06699 -0.05772
#
# Static dielectric constant tensor:
#      x y z
#    x 1.824070 0.015830 0.031360 
#    y 0.015830 1.864600 -0.007420 
#    z 0.031360 -0.007420 1.852560 
# 
# From -- ./inp_files/243697.got.cif
#   From: 2010.05.17/outbox.cif.g08.bks.cpg/sg2_122_cif.got.tgz:243697.got - 2010.06.03 11:33:40.
