data_PCOD9042747
_publ_section_title
;
Structure prediction by ZEFSAII (Michael W. Deem and Ramdas Pophale) SiO2 
 PCOD9042747
Probable space group: P -1
;
_chemical_formula_sum "Si O2"
_cell_formula_units_Z 14
_cell_length_a 17.017245
_cell_length_b 8.794927
_cell_length_c 5.377084
_cell_angle_alpha 112.028864
_cell_angle_beta 70.503456
_cell_angle_gamma 69.414836
_cell_volume 589.338482
_symmetry_space_group_name_H-M "P -1"
_symmetry_group_IT_number 2
_symmetry_cell_setting 'triclinic'
loop_
_space_group_symop_operation_xyz
x,y,z
-x,-y,-z
loop_
_atom_site_type_symbol
_atom_site_label
_atom_site_fract_x
_atom_site_fract_y
_atom_site_fract_z
Si Si1 0.096947 0.684158 0.387351
Si Si2 0.116644 0.030306 0.364617
Si Si3 0.257272 0.432587 0.440184
Si Si4 0.522433 0.881092 0.153723
Si Si5 0.695674 0.286536 0.265727
Si Si6 0.403207 0.691172 0.117818
Si Si7 0.118824 0.348553 0.827290
O O1 0.108361 0.846724 0.333800
O O2 0.164946 0.622186 0.518064
O O3 0.131936 0.470540 0.106402
O O4 0.977271 0.806554 0.597789
O O5 0.127282 0.142529 0.656909
O O6 0.213976 0.926756 0.033679
O O7 0.288126 0.535301 0.674631
O O8 0.203027 0.328636 0.536544
O O9 0.360012 0.295125 0.095284
O O10 0.435326 0.841036 0.210511
O O11 0.500000 0.000000 0.500000
O O12 0.500000 0.000000 0.000000
O O13 0.675588 0.278671 0.573195
O O14 0.616690 0.327139 0.159236
O O15 0.500000 0.500000 0.000000
O O16 0.000000 0.500000 0.000000
#
# Coordination Sequence:
#
# PCOD9042747 Si02
#       7
#     2   2   2   2   2   2   2
#     4  10  23  49  71 108 153 202 252 320 379 466
#     4  10  23  44  75 110 152 198 260 309 386 465
#     4  12  27  47  77 103 156 204 251 317 402 450
#     4  12  31  50  76 114 154 200 258 327 385 456
#     4  12  26  47  78 114 146 203 256 317 385 458
#     4  12  27  49  77 107 148 199 260 313 383 458
#     4  10  24  46  70 108 151 198 252 320 379 457
#
# _framework density 23.75545
#
# number of rings (size 3 to 8) (size 9 to 14) (size 15 to 20)
#    0.000    0.857    2.857    2.143    8.000    2.857 
#    7.714    0.000    0.000    0.000    0.000    0.000 
#    0.000    0.000    0.000    0.000    0.000    0.000 
#
# Total GULP energy -78007.489575 kJ/mol
# GULP energy per Si atom -5571.963541 kJ/mol
# Density = 2.370138 g / cm^3
# Si number density = 23.755450 Si / 1000 Ang^3
#
#
#
# Elastic Constant Matrix: (Units=GPa)
#
#
# Indices 1 2 3 4 5 6 
#
# 1 115.8054 19.3433 24.7697 6.8931 20.9624 7.7877
# 2 19.3433 42.3891 20.5361 3.2703 2.7275 -11.7705
# 3 24.7697 20.5361 111.7282 30.5516 10.6661 5.3335
# 4 6.8931 3.2703 30.5516 28.3669 -3.2929 -1.5847
# 5 20.9624 2.7275 10.6661 -3.2929 47.5597 8.7271
# 6 7.7877 -11.7705 5.3335 -1.5847 8.7271 40.2812
#
#
#
# Elastic Compliance Matrix: (Units=1/GPa)
#
#
# Indices 1 2 3 4 5 6 
#
# 1 0.010568 -0.004998 -0.000290 -0.002291 -0.003970 -0.002695
# 2 -0.004998 0.031899 -0.006838 0.005560 0.000206 0.011367
# 3 -0.000290 -0.006838 0.015164 -0.016070 -0.003283 -0.003871
# 4 -0.002291 0.005560 -0.016070 0.053570 0.007131 0.004758
# 5 -0.003970 0.000206 -0.003283 0.007131 0.024693 -0.003807
# 6 -0.002695 0.011367 -0.003871 0.004758 -0.003807 0.030192
#
#
# Mechanical properties :
#
#
# Convention : Reuss Voigt Hill
#
# Bulk Modulus (GPa) = 29.95936 44.35787 37.15862
# Shear Modulus (GPa) = 24.81824 36.92646 30.87235
#
# Velocity S-wave (km/s) = 3.23575 3.94692 3.60889
# Velocity P-wave (km/s) = 5.15743 6.28364 5.74818
#
# Compressibility (1/GPa) = 0.03337855
#
# Stress axis : x y z
#
# Youngs Moduli (GPa) = 94.62146 31.34940 65.94555
#
# Poissons Ratio (x) = 0.15669 0.01913
# Poissons Ratio (y) = 0.47295 0.45092
# Poissons Ratio (z) = 0.02745 0.21436
#
# Static dielectric constant tensor:
#      x y z
#    x 1.957200 0.029150 -0.069850 
#    y 0.029150 1.892880 -0.040390 
#    z -0.069850 -0.040390 2.073840 
# 
# From -- ./inp_files/105751.got.cif
#   From: 2010.05.17/outbox.cif.g08.bks.cpg/sg2_53_cif.got.tgz:105751.got - 2010.06.03 11:33:40.
