data_PCOD9042988
_publ_section_title
;
Structure prediction by ZEFSAII (Michael W. Deem and Ramdas Pophale) SiO2 
 PCOD9042988
Probable space group: P -1
;
_chemical_formula_sum "Si O2"
_cell_formula_units_Z 14
_cell_length_a 14.185519
_cell_length_b 16.249261
_cell_length_c 14.409443
_cell_angle_alpha 35.969556
_cell_angle_beta 159.632044
_cell_angle_gamma 141.429998
_cell_volume 674.637543
_symmetry_space_group_name_H-M "P -1"
_symmetry_group_IT_number 2
_symmetry_cell_setting 'triclinic'
loop_
_space_group_symop_operation_xyz
x,y,z
-x,-y,-z
loop_
_atom_site_type_symbol
_atom_site_label
_atom_site_fract_x
_atom_site_fract_y
_atom_site_fract_z
Si Si1 0.704021 0.577369 0.693558
Si Si2 0.367465 0.266864 0.854392
Si Si3 0.827737 0.897395 0.505934
Si Si4 0.291155 0.493145 0.729875
Si Si5 0.960334 0.412511 0.229876
Si Si6 0.258395 0.944664 0.016914
Si Si7 0.291173 0.657865 0.401993
O O1 0.500000 0.500000 0.500000
O O2 0.828465 0.732515 0.633756
O O3 0.511069 0.614522 0.569155
O O4 0.912012 0.480779 0.022879
O O5 0.287888 0.352906 0.792028
O O6 0.203504 0.321447 0.564990
O O7 0.301729 0.100841 0.954463
O O8 0.685081 0.314529 0.087889
O O9 0.981705 0.921868 0.723660
O O10 0.516099 0.928996 0.200798
O O11 0.000000 0.000000 0.500000
O O12 0.364313 0.618929 0.608643
O O13 0.000000 0.500000 0.500000
O O14 0.500000 0.500000 0.000000
O O15 0.022631 0.550881 0.226287
O O16 0.255828 0.818668 0.202966
#
# Coordination Sequence:
#
# PCOD9042988 Si02
#       7
#     2   2   2   2   2   2   2
#     4  11  24  41  68  97 129 175 228 272 320 383
#     4  11  24  41  69  96 129 170 218 266 332 392
#     4  11  25  42  62  93 133 176 226 272 322 379
#     4  11  23  40  70 101 128 164 216 273 333 392
#     4  11  20  42  64  93 128 170 220 268 320 377
#     4  11  24  45  65  90 131 183 212 266 338 387
#     4  10  23  45  67  94 134 173 217 271 330 392
#
# _framework density 20.751885000000001
#
# number of rings (size 3 to 8) (size 9 to 14) (size 15 to 20)
#    0.000    1.143    4.286    3.000    2.000    1.714 
#    5.143    1.429    0.000    0.000    0.000    0.000 
#    0.000    0.000    0.000    0.000    0.000    0.000 
#
# Total GULP energy -78310.857807 kJ/mol
# GULP energy per Si atom -5593.632700 kJ/mol
# Density = 2.070465 g / cm^3
# Si number density = 20.751885 Si / 1000 Ang^3
#
#
#
# Elastic Constant Matrix: (Units=GPa)
#
#
# Indices 1 2 3 4 5 6 
#
# 1 94.7915 30.2295 24.3562 -4.3590 -38.3591 9.2045
# 2 30.2295 169.7967 35.8904 -16.5325 -27.9338 20.4851
# 3 24.3562 35.8904 105.5455 12.2478 -23.3347 5.3579
# 4 -4.3590 -16.5325 12.2478 41.6813 4.9361 -1.4097
# 5 -38.3591 -27.9338 -23.3347 4.9361 40.8844 -0.7449
# 6 9.2045 20.4851 5.3579 -1.4097 -0.7449 31.1906
#
#
#
# Elastic Compliance Matrix: (Units=1/GPa)
#
#
# Indices 1 2 3 4 5 6 
#
# 1 0.017716 0.000200 -0.000232 -0.000126 0.016552 -0.004930
# 2 0.000200 0.007761 -0.001936 0.003047 0.003934 -0.004592
# 3 -0.000232 -0.001936 0.012145 -0.005099 0.005992 -0.000834
# 4 -0.000126 0.003047 -0.005099 0.027187 -0.004229 0.000040
# 5 0.016552 0.003934 0.005992 -0.004229 0.046469 -0.007579
# 6 -0.004930 -0.004592 -0.000834 0.000040 -0.007579 0.036496
#
#
# Mechanical properties :
#
#
# Convention : Reuss Voigt Hill
#
# Bulk Modulus (GPa) = 29.68520 61.23178 45.45849
# Shear Modulus (GPa) = 30.68654 41.39510 36.04082
#
# Velocity S-wave (km/s) = 3.84960 4.47112 4.17195
# Velocity P-wave (km/s) = 5.83910 7.49835 6.72013
#
# Compressibility (1/GPa) = 0.03368682
#
# Stress axis : x y z
#
# Youngs Moduli (GPa) = 56.44601 128.85281 82.33732
#
# Poissons Ratio (x) = -0.02583 0.01911
# Poissons Ratio (y) = -0.01132 0.15940
# Poissons Ratio (z) = 0.01310 0.24946
#
# Static dielectric constant tensor:
#      x y z
#    x 1.748430 0.019140 0.046800 
#    y 0.019140 1.712370 -0.022040 
#    z 0.046800 -0.022040 1.776580 
# 
# From -- ./inp_files/533724.got.cif
#   From: 2010.05.17/outbox.cif.g08.bks.cpg/sg2_267_cif.got.tgz:533724.got - 2010.06.03 11:33:40.
