data_PCOD9042020
_publ_section_title
;
Structure prediction by ZEFSAII (Michael W. Deem and Ramdas Pophale) SiO2 
 PCOD9042020
Probable space group: P -1
;
_chemical_formula_sum "Si O2"
_cell_formula_units_Z 16
_cell_length_a 9.882731
_cell_length_b 13.055781
_cell_length_c 11.613634
_cell_angle_alpha 98.573046
_cell_angle_beta 122.236641
_cell_angle_gamma 42.400054
_cell_volume 771.919235
_symmetry_space_group_name_H-M "P -1"
_symmetry_group_IT_number 2
_symmetry_cell_setting 'triclinic'
loop_
_space_group_symop_operation_xyz
x,y,z
-x,-y,-z
loop_
_atom_site_type_symbol
_atom_site_label
_atom_site_fract_x
_atom_site_fract_y
_atom_site_fract_z
Si Si1 0.034446 0.858288 0.995461
Si Si2 0.492694 0.976560 0.126700
Si Si3 0.747432 0.643996 0.247800
Si Si4 0.496745 0.492671 0.731745
Si Si5 0.692349 0.609420 0.456058
Si Si6 0.378845 0.712614 0.919996
Si Si7 0.248955 0.950932 0.715800
Si Si8 0.667019 0.262796 0.477932
O O1 0.153636 0.779448 0.908975
O O2 0.250829 0.703951 0.156348
O O3 0.770581 0.937174 0.927114
O O4 0.000000 0.000000 0.000000
O O5 0.708065 0.778371 0.204767
O O6 0.559442 0.052743 0.223756
O O7 0.500000 0.000000 0.000000
O O8 0.613731 0.712711 0.324650
O O9 0.049953 0.475105 0.384357
O O10 0.607737 0.633391 0.097896
O O11 0.271927 0.523837 0.606051
O O12 0.452291 0.590544 0.836866
O O13 0.500996 0.563540 0.633384
O O14 0.478271 0.705565 0.471920
O O15 0.297519 0.858540 0.838179
O O16 0.287482 0.850207 0.613777
O O17 0.959837 0.145492 0.622434
#
# Coordination Sequence:
#
# PCOD9042020 Si02
#       8
#     2   2   2   2   2   2   2   2
#     4  12  24  41  68 102 131 177 222 275 340 393
#     4  12  24  39  66 101 131 171 226 282 327 392
#     4  11  24  41  64  97 134 176 221 278 338 386
#     4  11  24  42  71  99 126 181 225 276 332 402
#     4  11  24  41  66  92 137 177 221 274 336 407
#     4  11  23  45  71  97 138 173 227 282 331 397
#     4  10  23  44  68  99 135 175 222 286 332 390
#     4  10  24  43  68  95 136 178 225 270 343 405
#
# _framework density 20.727557999999998
#
# number of rings (size 3 to 8) (size 9 to 14) (size 15 to 20)
#    0.000    1.000    3.750    1.500    7.000    1.000 
#    2.250    3.125    0.000    0.000    0.000    0.000 
#    0.000    0.000    0.000    0.000    0.000    0.000 
#
# Total GULP energy -89303.672758 kJ/mol
# GULP energy per Si atom -5581.479547 kJ/mol
# Density = 2.068038 g / cm^3
# Si number density = 20.727558 Si / 1000 Ang^3
#
#
#
# Elastic Constant Matrix: (Units=GPa)
#
#
# Indices 1 2 3 4 5 6 
#
# 1 155.1702 33.1876 59.8291 -2.2402 -1.8579 -1.6187
# 2 33.1876 52.6416 41.0911 -9.6576 -5.5518 2.6455
# 3 59.8291 41.0911 114.3517 4.4430 -5.4401 -9.3611
# 4 -2.2402 -9.6576 4.4430 28.8798 3.4766 -6.1522
# 5 -1.8579 -5.5518 -5.4401 3.4766 46.3622 1.5118
# 6 -1.6187 2.6455 -9.3611 -6.1522 1.5118 28.4937
#
#
#
# Elastic Compliance Matrix: (Units=1/GPa)
#
#
# Indices 1 2 3 4 5 6 
#
# 1 0.008330 -0.002448 -0.003540 0.000340 -0.000388 -0.000369
# 2 -0.002448 0.031198 -0.010617 0.010754 0.001726 -0.004293
# 3 -0.003540 -0.010617 0.015017 -0.005236 0.000593 0.004556
# 4 0.000340 0.010754 -0.005236 0.040689 -0.002567 0.006222
# 5 -0.000388 0.001726 0.000593 -0.002567 0.022078 -0.001713
# 6 -0.000369 -0.004293 0.004556 0.006222 -0.001713 0.038404
#
#
# Mechanical properties :
#
#
# Convention : Reuss Voigt Hill
#
# Bulk Modulus (GPa) = 46.87370 65.59770 56.23570
# Shear Modulus (GPa) = 25.50528 33.28417 29.39473
#
# Velocity S-wave (km/s) = 3.51166 4.01158 3.76991
# Velocity P-wave (km/s) = 6.25345 7.29201 6.79260
#
# Compressibility (1/GPa) = 0.02133393
#
# Stress axis : x y z
#
# Youngs Moduli (GPa) = 120.05478 32.05354 66.59092
#
# Poissons Ratio (x) = 0.07846 0.23575
# Poissons Ratio (y) = 0.29386 0.70701
# Poissons Ratio (z) = 0.42503 0.34032
#
# Static dielectric constant tensor:
#      x y z
#    x 1.840700 0.098040 0.038210 
#    y 0.098040 1.826210 0.030560 
#    z 0.038210 0.030560 1.810240 
# 
# From -- ./inp_files/392622.got.cif
#   From: 2010.05.17/outbox.cif.g08.bks.cpg/sg2_197_cif.got.tgz:392622.got - 2010.06.03 11:33:40.
