data_PCOD9042246
_publ_section_title
;
Structure prediction by ZEFSAII (Michael W. Deem and Ramdas Pophale) SiO2 
 PCOD9042246
Probable space group: P -1
;
_chemical_formula_sum "Si O2"
_cell_formula_units_Z 10
_cell_length_a 5.566703
_cell_length_b 6.712377
_cell_length_c 12.449585
_cell_angle_alpha 114.671504
_cell_angle_beta 62.843106
_cell_angle_gamma 99.173314
_cell_volume 375.845010
_symmetry_space_group_name_H-M "P -1"
_symmetry_group_IT_number 2
_symmetry_cell_setting 'triclinic'
loop_
_space_group_symop_operation_xyz
x,y,z
-x,-y,-z
loop_
_atom_site_type_symbol
_atom_site_label
_atom_site_fract_x
_atom_site_fract_y
_atom_site_fract_z
Si Si1 0.655460 0.941746 0.344085
Si Si2 0.958519 0.684411 0.707640
Si Si3 0.899569 0.213354 0.635399
Si Si4 0.043344 0.336216 0.051600
Si Si5 0.559812 0.065438 0.124571
O O1 0.775684 0.169129 0.324255
O O2 0.500000 0.000000 0.500000
O O3 0.423994 0.811417 0.299426
O O4 0.920543 0.797827 0.294627
O O5 0.974820 0.435369 0.607364
O O6 0.858126 0.629819 0.838628
O O7 0.719388 0.845680 0.746585
O O8 0.000000 0.000000 0.500000
O O9 0.743203 0.270350 0.124352
O O10 0.000000 0.500000 0.000000
O O11 0.232401 0.130977 0.924276
O O12 0.500000 0.000000 0.000000
#
# Coordination Sequence:
#
# PCOD9042246 Si02
#       5
#     2   2   2   2   2
#     4  10  25  46  71 107 149 192 251 311 369 441
#     4  11  25  43  74 105 147 199 245 302 380 445
#     4  10  25  45  72 109 147 195 251 308 371 441
#     4  10  23  44  70 102 146 188 243 307 370 440
#     4   9  22  43  64 101 140 187 240 303 362 440
#
# _framework density 26.606712999999999
#
# number of rings (size 3 to 8) (size 9 to 14) (size 15 to 20)
#    0.000    2.000    0.000    0.000    5.600   16.000 
#    0.000    0.000    0.000    0.000    0.000    0.000 
#    0.000    0.000    0.000    0.000    0.000    0.000 
#
# Total GULP energy -55782.797949 kJ/mol
# GULP energy per Si atom -5578.279795 kJ/mol
# Density = 2.654615 g / cm^3
# Si number density = 26.606713 Si / 1000 Ang^3
#
#
#
# Elastic Constant Matrix: (Units=GPa)
#
#
# Indices 1 2 3 4 5 6 
#
# 1 203.8637 77.8715 1.5662 -9.4927 -20.3521 -0.3678
# 2 77.8715 223.7670 49.2241 -12.6256 -16.7122 -18.8273
# 3 1.5662 49.2241 71.5195 -15.1035 -14.0017 4.0973
# 4 -9.4927 -12.6256 -15.1035 47.5118 -2.0117 2.5110
# 5 -20.3521 -16.7122 -14.0017 -2.0117 37.3764 -8.1596
# 6 -0.3678 -18.8273 4.0973 2.5110 -8.1596 38.2203
#
#
#
# Elastic Compliance Matrix: (Units=1/GPa)
#
#
# Indices 1 2 3 4 5 6 
#
# 1 0.006217 -0.002478 0.002566 0.001578 0.003133 -0.000871
# 2 -0.002478 0.006746 -0.004757 -0.000394 0.000735 0.003992
# 3 0.002566 -0.004757 0.019904 0.006027 0.006286 -0.003506
# 4 0.001578 -0.000394 0.006027 0.023419 0.003865 -0.001539
# 5 0.003133 0.000735 0.006286 0.003865 0.032763 0.006459
# 6 -0.000871 0.003992 -0.003506 -0.001539 0.006459 0.029978
#
#
# Mechanical properties :
#
#
# Convention : Reuss Voigt Hill
#
# Bulk Modulus (GPa) = 42.50039 84.05265 63.27652
# Shear Modulus (GPa) = 36.70836 49.32092 43.01464
#
# Velocity S-wave (km/s) = 3.71841 4.31013 4.02516
# Velocity P-wave (km/s) = 5.86888 7.51193 6.74065
#
# Compressibility (1/GPa) = 0.02352920
#
# Stress axis : x y z
#
# Youngs Moduli (GPa) = 160.85374 148.22810 50.24013
#
# Poissons Ratio (x) = 0.36733 -0.12892
# Poissons Ratio (y) = 0.39862 0.23899
# Poissons Ratio (z) = -0.41275 0.70513
#
# Static dielectric constant tensor:
#      x y z
#    x 1.418810 0.328110 -0.471640 
#    y 0.328110 1.949900 0.310730 
#    z -0.471640 0.310730 1.793080 
# 
# From -- ./inp_files/2173.got.cif
#   From: 2010.05.17/outbox.cif.g08.bks.cpg/sg2_2_cif.got.tgz:2173.got - 2010.06.03 11:33:40.
