data_PCOD9042419
_publ_section_title
;
Structure prediction by ZEFSAII (Michael W. Deem and Ramdas Pophale) SiO2 
 PCOD9042419
Probable space group: P -1
;
_chemical_formula_sum "Si O2"
_cell_formula_units_Z 14
_cell_length_a 10.083966
_cell_length_b 14.942775
_cell_length_c 5.559084
_cell_angle_alpha 120.447489
_cell_angle_beta 52.555741
_cell_angle_gamma 100.464580
_cell_volume 563.465992
_symmetry_space_group_name_H-M "P -1"
_symmetry_group_IT_number 2
_symmetry_cell_setting 'triclinic'
loop_
_space_group_symop_operation_xyz
x,y,z
-x,-y,-z
loop_
_atom_site_type_symbol
_atom_site_label
_atom_site_fract_x
_atom_site_fract_y
_atom_site_fract_z
Si Si1 0.801978 0.130906 0.509452
Si Si2 0.851972 0.940468 0.491149
Si Si3 0.129604 0.219537 0.399028
Si Si4 0.964147 0.444984 0.713590
Si Si5 0.420075 0.931007 0.686836
Si Si6 0.463155 0.230866 0.290942
Si Si7 0.416593 0.474289 0.805131
O O1 0.810257 0.005481 0.381708
O O2 0.706542 0.142020 0.377672
O O3 0.989180 0.157581 0.349157
O O4 0.659531 0.197626 0.935967
O O5 0.902475 0.817024 0.335956
O O6 0.696165 0.986540 0.900775
O O7 0.000000 0.000000 0.500000
O O8 0.333441 0.216710 0.197447
O O9 0.069541 0.330063 0.486477
O O10 0.000000 0.500000 0.500000
O O11 0.765163 0.450353 0.912708
O O12 0.000000 0.500000 0.000000
O O13 0.553516 0.851615 0.589536
O O14 0.500000 0.000000 0.500000
O O15 0.414736 0.349062 0.609890
O O16 0.500000 0.500000 0.500000
O O17 0.500000 0.500000 0.000000
#
# Coordination Sequence:
#
# PCOD9042419 Si02
#       7
#     2   2   2   2   2   2   2
#     4  10  23  44  71 105 145 188 247 299 367 452
#     4   9  21  42  65 101 145 184 236 294 364 437
#     4  11  23  45  71 101 143 194 240 305 373 444
#     4  12  27  51  73 111 150 191 253 313 373 452
#     4  11  23  41  70 106 144 189 244 300 367 447
#     4  11  25  45  72 104 145 191 243 304 380 437
#     4  12  28  50  81 108 150 197 253 316 382 448
#
# _framework density 24.846222000000001
#
# number of rings (size 3 to 8) (size 9 to 14) (size 15 to 20)
#    0.000    1.143    1.429    3.429    4.000    5.714 
#    7.714    1.429    0.000    0.000    0.000    0.000 
#    0.000    0.000    0.000    0.000    0.000    0.000 
#
# Total GULP energy -78013.273695 kJ/mol
# GULP energy per Si atom -5572.376693 kJ/mol
# Density = 2.478967 g / cm^3
# Si number density = 24.846222 Si / 1000 Ang^3
#
#
#
# Elastic Constant Matrix: (Units=GPa)
#
#
# Indices 1 2 3 4 5 6 
#
# 1 213.8684 34.4428 40.5501 -0.8853 -3.7962 -18.9141
# 2 34.4428 168.8214 46.6714 -1.5190 -3.0259 -26.9400
# 3 40.5501 46.6714 76.9058 -10.8196 -6.2153 -10.8967
# 4 -0.8853 -1.5190 -10.8196 33.4267 -2.3394 -3.6690
# 5 -3.7962 -3.0259 -6.2153 -2.3394 42.9103 5.6304
# 6 -18.9141 -26.9400 -10.8967 -3.6690 5.6304 43.4123
#
#
#
# Elastic Compliance Matrix: (Units=1/GPa)
#
#
# Indices 1 2 3 4 5 6 
#
# 1 0.005322 -0.000126 -0.002597 -0.000544 -0.000149 0.001562
# 2 -0.000126 0.007685 -0.004217 -0.000657 -0.000598 0.003678
# 3 -0.002597 -0.004217 0.018080 0.005860 0.002281 0.000989
# 4 -0.000544 -0.000657 0.005860 0.032275 0.002083 0.003283
# 5 -0.000149 -0.000598 0.002281 0.002083 0.024062 -0.002808
# 6 0.001562 0.003678 0.000989 0.003283 -0.002808 0.026888
#
#
# Mechanical properties :
#
#
# Convention : Reuss Voigt Hill
#
# Bulk Modulus (GPa) = 58.11512 78.10265 68.10889
# Shear Modulus (GPa) = 37.33374 46.47859 41.90617
#
# Velocity S-wave (km/s) = 3.88053 4.32979 4.11130
# Velocity P-wave (km/s) = 6.59687 7.51657 7.07169
#
# Compressibility (1/GPa) = 0.01720723
#
# Stress axis : x y z
#
# Youngs Moduli (GPa) = 187.91125 130.11942 55.30890
#
# Poissons Ratio (x) = 0.01642 0.14362
# Poissons Ratio (y) = 0.02371 0.23324
# Poissons Ratio (z) = 0.48794 0.54873
#
# Static dielectric constant tensor:
#      x y z
#    x 2.132740 -0.001210 0.048280 
#    y -0.001210 2.070230 0.030230 
#    z 0.048280 0.030230 1.951990 
# 
# From -- ./inp_files/39593.got.cif
#   From: 2010.05.17/outbox.cif.g08.bks.cpg/sg2_20_cif.got.tgz:39593.got - 2010.06.03 11:33:40.
