data_PCOD9042800
_publ_section_title
;
Structure prediction by ZEFSAII (Michael W. Deem and Ramdas Pophale) SiO2 
 PCOD9042800
Probable space group: P -1
;
_chemical_formula_sum "Si O2"
_cell_formula_units_Z 15
_cell_length_a 9.429457
_cell_length_b 11.387526
_cell_length_c 14.554182
_cell_angle_alpha 150.769081
_cell_angle_beta 83.093388
_cell_angle_gamma 110.540665
_cell_volume 652.897946
_symmetry_space_group_name_H-M "P -1"
_symmetry_group_IT_number 2
_symmetry_cell_setting 'triclinic'
loop_
_space_group_symop_operation_xyz
x,y,z
-x,-y,-z
loop_
_atom_site_type_symbol
_atom_site_label
_atom_site_fract_x
_atom_site_fract_y
_atom_site_fract_z
Si Si1 0.611916 0.119743 0.982956
Si Si2 0.000000 0.000000 0.500000
Si Si3 0.776169 0.768093 0.681551
Si Si4 0.694931 0.176868 0.322807
Si Si5 0.101574 0.006865 0.905942
Si Si6 0.704214 0.966175 0.377107
Si Si7 0.704443 0.708992 0.437422
Si Si8 0.410594 0.616016 0.274252
O O1 0.716149 0.967005 0.863555
O O2 0.486685 0.022780 0.840912
O O3 0.714727 0.453087 0.213680
O O4 0.500000 0.000000 0.000000
O O5 0.870041 0.978490 0.575482
O O6 0.139912 0.035082 0.592025
O O7 0.722372 0.483035 0.545181
O O8 0.700816 0.678010 0.524963
O O9 0.973599 0.939775 0.787716
O O10 0.721163 0.050516 0.327125
O O11 0.829930 0.205943 0.255445
O O12 0.266852 0.301342 0.082619
O O13 0.000000 0.000000 0.000000
O O14 0.675677 0.198968 0.589151
O O15 0.530329 0.686913 0.225332
O O16 0.541540 0.695729 0.401741
#
# Coordination Sequence:
#
# PCOD9042800 Si02
#       8
#     2   1   2   2   2   2   2   2
#     4  12  25  44  72 107 147 188 238 295 357 425
#     4  10  24  46  74 104 136 188 232 310 354 418
#     4  12  27  42  73 107 146 188 237 297 355 427
#     4  12  24  45  71 106 141 191 242 294 356 434
#     4  12  26  42  66 105 146 187 237 296 354 421
#     4  10  23  44  77  98 141 187 241 296 359 424
#     4  11  24  48  72 103 148 188 239 287 365 422
#     4  10  23  46  70 103 140 193 235 289 361 431
#
# _framework density 22.974495000000001
#
# number of rings (size 3 to 8) (size 9 to 14) (size 15 to 20)
#    0.000    0.800    2.667    4.000    3.733    0.533 
#    2.400    0.667    0.000    0.000    0.000    0.000 
#    0.000    0.000    0.000    0.000    0.000    0.000 
#
# Total GULP energy -83673.396490 kJ/mol
# GULP energy per Si atom -5578.226433 kJ/mol
# Density = 2.292220 g / cm^3
# Si number density = 22.974495 Si / 1000 Ang^3
#
#
#
# Elastic Constant Matrix: (Units=GPa)
#
#
# Indices 1 2 3 4 5 6 
#
# 1 151.5919 33.3152 37.8422 0.4119 3.9359 -0.0531
# 2 33.3152 108.9247 2.6981 -10.0134 8.2268 -12.2477
# 3 37.8422 2.6981 55.2529 -5.6156 -8.4794 -8.3402
# 4 0.4119 -10.0134 -5.6156 18.8098 -3.1737 1.4371
# 5 3.9359 8.2268 -8.4794 -3.1737 39.9679 -5.2881
# 6 -0.0531 -12.2477 -8.3402 1.4371 -5.2881 31.0639
#
#
#
# Elastic Compliance Matrix: (Units=1/GPa)
#
#
# Indices 1 2 3 4 5 6 
#
# 1 0.009288 -0.003254 -0.007595 -0.004383 -0.002675 -0.003559
# 2 -0.003254 0.011272 0.003064 0.006580 -0.000175 0.004927
# 3 -0.007595 0.003064 0.026812 0.010421 0.007857 0.009249
# 4 -0.004383 0.006580 0.010421 0.060704 0.006598 0.003700
# 5 -0.002675 -0.000175 0.007857 0.006598 0.028379 0.006561
# 6 -0.003559 0.004927 0.009249 0.003700 0.006561 0.037557
#
#
# Mechanical properties :
#
#
# Convention : Reuss Voigt Hill
#
# Bulk Modulus (GPa) = 31.44564 51.49783 41.47173
# Shear Modulus (GPa) = 24.97705 34.09593 29.53649
#
# Velocity S-wave (km/s) = 3.30079 3.85655 3.58945
# Velocity P-wave (km/s) = 5.31450 6.50342 5.93879
#
# Compressibility (1/GPa) = 0.03180091
#
# Stress axis : x y z
#
# Youngs Moduli (GPa) = 107.66700 88.71471 37.29661
#
# Poissons Ratio (x) = 0.28864 0.28329
# Poissons Ratio (y) = 0.35031 -0.11426
# Poissons Ratio (z) = 0.81778 -0.27178
#
# Static dielectric constant tensor:
#      x y z
#    x 1.856800 0.013950 0.004090 
#    y 0.013950 1.915090 0.031270 
#    z 0.004090 0.031270 1.934190 
# 
# From -- ./inp_files/501157.got.cif
#   From: 2010.05.17/outbox.cif.g08.bks.cpg/sg2_251_cif.got.tgz:501157.got - 2010.06.03 11:33:40.
