data_PCOD9042097
_publ_section_title
;
Structure prediction by ZEFSAII (Michael W. Deem and Ramdas Pophale) SiO2 
 PCOD9042097
Probable space group: P -1
;
_chemical_formula_sum "Si O2"
_cell_formula_units_Z 14
_cell_length_a 5.506220
_cell_length_b 12.573936
_cell_length_c 12.691990
_cell_angle_alpha 66.453378
_cell_angle_beta 134.128148
_cell_angle_gamma 115.086109
_cell_volume 563.841581
_symmetry_space_group_name_H-M "P -1"
_symmetry_group_IT_number 2
_symmetry_cell_setting 'triclinic'
loop_
_space_group_symop_operation_xyz
x,y,z
-x,-y,-z
loop_
_atom_site_type_symbol
_atom_site_label
_atom_site_fract_x
_atom_site_fract_y
_atom_site_fract_z
Si Si1 0.617195 0.914212 0.938155
Si Si2 0.050533 0.469922 0.347236
Si Si3 0.666434 0.855839 0.214000
Si Si4 0.561558 0.300262 0.609003
Si Si5 0.443074 0.862684 0.512500
Si Si6 0.893869 0.552490 0.054247
Si Si7 0.412920 0.260247 0.190781
O O1 0.498199 0.820709 0.845254
O O2 0.371965 0.008737 0.832330
O O3 0.632127 0.847158 0.080525
O O4 0.000000 0.000000 0.000000
O O5 0.296884 0.388130 0.497427
O O6 0.096470 0.599710 0.363772
O O7 0.125515 0.514158 0.231311
O O8 0.686916 0.377677 0.266725
O O9 0.402720 0.768390 0.245838
O O10 0.030410 0.831890 0.374862
O O11 0.420035 0.195926 0.524383
O O12 0.617818 0.815255 0.683851
O O13 0.500000 0.000000 0.500000
O O14 0.500000 0.500000 0.000000
O O15 0.896963 0.687566 0.970283
O O16 0.000000 0.500000 0.000000
#
# Coordination Sequence:
#
# PCOD9042097 Si02
#       7
#     2   2   2   2   2   2   2
#     4  11  26  48  71 107 143 188 244 301 372 442
#     4  10  24  45  68 105 139 200 238 303 368 445
#     4  11  25  46  73 103 144 190 236 309 369 438
#     4  11  24  45  71 102 149 182 248 296 372 443
#     4  12  26  44  73 106 140 191 242 307 366 446
#     4  10  23  44  69 104 144 193 249 307 370 447
#     4  11  24  46  73 104 145 188 251 304 370 446
#
# _framework density 24.829671000000001
#
# number of rings (size 3 to 8) (size 9 to 14) (size 15 to 20)
#    0.000    1.143    1.429    3.429    6.000    4.000 
#    7.714    0.000    0.000    0.000    0.000    0.000 
#    0.000    0.000    0.000    0.000    0.000    0.000 
#
# Total GULP energy -78117.787110 kJ/mol
# GULP energy per Si atom -5579.841936 kJ/mol
# Density = 2.477316 g / cm^3
# Si number density = 24.829671 Si / 1000 Ang^3
#
#
#
# Elastic Constant Matrix: (Units=GPa)
#
#
# Indices 1 2 3 4 5 6 
#
# 1 69.3459 36.5609 49.4268 -0.8136 -18.2093 -9.2579
# 2 36.5609 137.5919 61.4878 -5.5147 -25.1985 15.0332
# 3 49.4268 61.4878 194.7719 -26.5449 -29.2082 -3.8417
# 4 -0.8136 -5.5147 -26.5449 48.7051 6.0594 -5.9308
# 5 -18.2093 -25.1985 -29.2082 6.0594 41.2884 0.1953
# 6 -9.2579 15.0332 -3.8417 -5.9308 0.1953 30.3057
#
#
#
# Elastic Compliance Matrix: (Units=1/GPa)
#
#
# Indices 1 2 3 4 5 6 
#
# 1 0.021336 -0.004196 -0.003468 -0.001630 0.004597 0.007811
# 2 -0.004196 0.010675 -0.002114 -0.001303 0.003394 -0.007122
# 3 -0.003468 -0.002114 0.007518 0.003762 0.001938 0.001666
# 4 -0.001630 -0.001303 0.003762 0.023327 -0.002301 0.005205
# 5 0.004597 0.003394 0.001938 -0.002301 0.030031 -0.000677
# 6 0.007811 -0.007122 0.001666 0.005205 -0.000677 0.040151
#
#
# Mechanical properties :
#
#
# Convention : Reuss Voigt Hill
#
# Bulk Modulus (GPa) = 50.07167 77.40674 63.73921
# Shear Modulus (GPa) = 31.39668 41.00878 36.20273
#
# Velocity S-wave (km/s) = 3.55981 4.06840 3.82258
# Velocity P-wave (km/s) = 6.09149 7.30150 6.72377
#
# Compressibility (1/GPa) = 0.01997137
#
# Stress axis : x y z
#
# Youngs Moduli (GPa) = 46.86985 93.67466 133.01283
#
# Poissons Ratio (x) = 0.39308 0.46132
# Poissons Ratio (y) = 0.19668 0.28124
# Poissons Ratio (z) = 0.16255 0.19807
#
# Static dielectric constant tensor:
#      x y z
#    x 2.022880 0.157120 0.079470 
#    y 0.157120 1.914180 0.065640 
#    z 0.079470 0.065640 2.046350 
# 
# From -- ./inp_files/263835.got.cif
#   From: 2010.05.17/outbox.cif.g08.bks.cpg/sg2_132_cif.got.tgz:263835.got - 2010.06.03 11:33:40.
