data_PCOD9042263
_publ_section_title
;
Structure prediction by ZEFSAII (Michael W. Deem and Ramdas Pophale) SiO2 
 PCOD9042263
Probable space group: P -1
;
_chemical_formula_sum "Si O2"
_cell_formula_units_Z 16
_cell_length_a 8.349942
_cell_length_b 4.718550
_cell_length_c 19.732703
_cell_angle_alpha 106.493067
_cell_angle_beta 50.732264
_cell_angle_gamma 87.619811
_cell_volume 550.918574
_symmetry_space_group_name_H-M "P -1"
_symmetry_group_IT_number 2
_symmetry_cell_setting 'triclinic'
loop_
_space_group_symop_operation_xyz
x,y,z
-x,-y,-z
loop_
_atom_site_type_symbol
_atom_site_label
_atom_site_fract_x
_atom_site_fract_y
_atom_site_fract_z
Si Si1 0.301502 0.461863 0.641107
Si Si2 0.362935 0.468519 0.267829
Si Si3 0.363062 0.298269 0.989129
Si Si4 0.933453 0.368729 0.427911
Si Si5 0.280891 0.958552 0.440754
Si Si6 0.111788 0.096739 0.772116
Si Si7 0.816734 0.934140 0.093728
Si Si8 0.225046 0.275952 0.162706
O O1 0.207716 0.553163 0.598055
O O2 0.519362 0.186269 0.571499
O O3 0.141498 0.338241 0.724157
O O4 0.319046 0.785919 0.687507
O O5 0.356312 0.748894 0.339405
O O6 0.263353 0.529002 0.222238
O O7 0.178796 0.328516 0.338065
O O8 0.604930 0.234224 0.181939
O O9 0.264287 0.324831 0.942599
O O10 0.529634 0.957475 0.919223
O O11 0.500000 0.500000 0.000000
O O12 0.184210 0.338877 0.097948
O O13 0.907408 0.095144 0.463262
O O14 0.807900 0.678870 0.523613
O O15 0.104017 0.168643 0.858659
O O16 0.920721 0.946598 0.794317
O O17 0.000000 0.000000 0.000000
#
# Coordination Sequence:
#
# PCOD9042263 Si02
#       8
#     2   2   2   2   2   2   2   2
#     4  12  26  48  79 111 154 199 257 322 392 463
#     4  11  25  46  75 111 157 202 256 322 390 464
#     4  10  23  44  72 108 144 200 261 322 388 463
#     4  12  26  49  78 113 156 202 258 321 395 468
#     4  12  26  49  76 115 155 200 260 320 394 468
#     4  12  25  48  75 114 154 203 259 316 385 464
#     4  11  24  49  81 112 162 206 266 324 397 463
#     4  10  23  44  70 103 150 195 257 314 389 454
#
# _framework density 29.042406
#
# number of rings (size 3 to 8) (size 9 to 14) (size 15 to 20)
#    0.000    0.750    3.750    3.000    1.750    1.000 
#    6.750    1.250    0.000    0.000    0.000    0.000 
#    0.000    0.000    0.000    0.000    0.000    0.000 
#
# Total GULP energy -89609.729647 kJ/mol
# GULP energy per Si atom -5600.608103 kJ/mol
# Density = 2.897630 g / cm^3
# Si number density = 29.042406 Si / 1000 Ang^3
#
#
#
# Elastic Constant Matrix: (Units=GPa)
#
#
# Indices 1 2 3 4 5 6 
#
# 1 164.2155 39.9334 65.6298 7.8567 45.9650 -5.4975
# 2 39.9334 110.0739 45.4738 -12.3870 34.4953 -12.0547
# 3 65.6298 45.4738 152.5424 14.6397 3.4208 2.2108
# 4 7.8567 -12.3870 14.6397 47.2025 -0.2279 8.2955
# 5 45.9650 34.4953 3.4208 -0.2279 76.6842 10.4701
# 6 -5.4975 -12.0547 2.2108 8.2955 10.4701 54.9835
#
#
#
# Elastic Compliance Matrix: (Units=1/GPa)
#
#
# Indices 1 2 3 4 5 6 
#
# 1 0.009359 0.000250 -0.003935 -0.000717 -0.005874 0.002376
# 2 0.000250 0.013896 -0.004569 0.004307 -0.006715 0.003884
# 3 -0.003935 -0.004569 0.009854 -0.003208 0.004254 -0.002118
# 4 -0.000717 0.004307 -0.003208 0.023849 -0.000964 -0.002413
# 5 -0.005874 -0.006715 0.004254 -0.000964 0.020199 -0.005931
# 6 0.002376 0.003884 -0.002118 -0.002413 -0.005931 0.020855
#
#
# Mechanical properties :
#
#
# Convention : Reuss Voigt Hill
#
# Bulk Modulus (GPa) = 60.23745 80.98952 70.61349
# Shear Modulus (GPa) = 41.64780 54.16035 47.90407
#
# Velocity S-wave (km/s) = 3.79097 4.32310 4.06575
# Velocity P-wave (km/s) = 6.32046 7.27091 6.81228
#
# Compressibility (1/GPa) = 0.01660097
#
# Stress axis : x y z
#
# Youngs Moduli (GPa) = 106.84498 71.96341 101.48253
#
# Poissons Ratio (x) = -0.01802 0.39936
# Poissons Ratio (y) = -0.02676 0.46370
# Poissons Ratio (z) = 0.42046 0.32882
#
# Static dielectric constant tensor:
#      x y z
#    x 2.428680 0.054850 -0.122570 
#    y 0.054850 2.344380 0.003530 
#    z -0.122570 0.003530 2.371280 
# 
# From -- ./inp_files/585722.got.cif
#   From: 2010.05.17/outbox.cif.g08.bks.cpg/sg2_293_cif.got.tgz:585722.got - 2010.06.03 11:33:40.
