data_PCOD9042862
_publ_section_title
;
Structure prediction by ZEFSAII (Michael W. Deem and Ramdas Pophale) SiO2 
 PCOD9042862
Probable space group: P -1
;
_chemical_formula_sum "Si O2"
_cell_formula_units_Z 16
_cell_length_a 19.789246
_cell_length_b 12.719005
_cell_length_c 9.314530
_cell_angle_alpha 141.368896
_cell_angle_beta 112.674916
_cell_angle_gamma 38.991931
_cell_volume 760.320993
_symmetry_space_group_name_H-M "P -1"
_symmetry_group_IT_number 2
_symmetry_cell_setting 'triclinic'
loop_
_space_group_symop_operation_xyz
x,y,z
-x,-y,-z
loop_
_atom_site_type_symbol
_atom_site_label
_atom_site_fract_x
_atom_site_fract_y
_atom_site_fract_z
Si Si1 0.543466 0.555251 0.369296
Si Si2 0.028674 0.979582 0.666690
Si Si3 0.379433 0.338735 0.703279
Si Si4 0.111254 0.666108 0.802934
Si Si5 0.786639 0.057686 0.242260
Si Si6 0.434733 0.957664 0.966941
Si Si7 0.622201 0.436724 0.790273
Si Si8 0.860295 0.563248 0.687885
O O1 0.575312 0.639593 0.372988
O O2 0.672514 0.253586 0.238901
O O3 0.452757 0.789829 0.674958
O O4 0.466280 0.553093 0.227469
O O5 0.146937 0.888288 0.675903
O O6 0.052887 0.747484 0.501785
O O7 0.000000 0.000000 0.500000
O O8 0.920433 0.276538 0.993239
O O9 0.254729 0.468613 0.695014
O O10 0.500000 0.000000 0.500000
O O11 0.332922 0.549744 0.018979
O O12 0.110921 0.500655 0.527314
O O13 0.000000 0.000000 0.000000
O O14 0.730051 0.178016 0.485782
O O15 0.872186 0.727220 0.937384
O O16 0.523925 0.739492 0.941235
O O17 0.500000 0.000000 0.000000
O O18 0.285295 0.230391 0.179233
#
# Coordination Sequence:
#
# PCOD9042862 Si02
#       8
#     2   2   2   2   2   2   2   2
#     4  11  21  38  60  96 132 169 210 269 333 392
#     4  11  25  43  64  92 129 169 220 283 334 380
#     4  12  25  40  67  98 133 173 213 275 344 388
#     4  10  23  45  65  92 130 173 222 269 320 396
#     4  11  22  42  70  92 126 177 224 271 326 398
#     4  11  19  35  63  93 125 172 219 262 321 402
#     4  11  21  39  58  98 139 160 207 278 334 385
#     4  11  21  41  67  89 124 173 229 263 322 406
#
# _framework density 21.043745000000001
#
# number of rings (size 3 to 8) (size 9 to 14) (size 15 to 20)
#    0.000    1.000    2.500    7.125    0.000    2.000 
#    0.000    0.000    0.000    0.000    0.000    0.000 
#    0.000    0.000    0.000    0.000    0.000    0.000 
#
# Total GULP energy -89343.521522 kJ/mol
# GULP energy per Si atom -5583.970095 kJ/mol
# Density = 2.099585 g / cm^3
# Si number density = 21.043745 Si / 1000 Ang^3
#
#
#
# Elastic Constant Matrix: (Units=GPa)
#
#
# Indices 1 2 3 4 5 6 
#
# 1 57.3536 6.6999 2.5392 3.1280 1.1586 8.4592
# 2 6.6999 61.7763 31.4885 -19.8361 -0.4233 11.4543
# 3 2.5392 31.4885 81.2510 -13.9629 4.6387 12.4984
# 4 3.1280 -19.8361 -13.9629 32.7288 -1.2139 -4.9734
# 5 1.1586 -0.4233 4.6387 -1.2139 32.3974 -11.5910
# 6 8.4592 11.4543 12.4984 -4.9734 -11.5910 29.2511
#
#
#
# Elastic Compliance Matrix: (Units=1/GPa)
#
#
# Indices 1 2 3 4 5 6 
#
# 1 0.019032 -0.002639 0.000985 -0.004192 -0.003517 -0.006998
# 2 -0.002639 0.024354 -0.006831 0.011556 0.000503 -0.003691
# 3 0.000985 -0.006831 0.016424 0.001663 -0.004624 -0.006177
# 4 -0.004192 0.011556 0.001663 0.039356 0.002904 0.003819
# 5 -0.003517 0.000503 -0.004624 0.002904 0.038389 0.018501
# 6 -0.006998 -0.003691 -0.006177 0.003819 0.018501 0.048276
#
#
# Mechanical properties :
#
#
# Convention : Reuss Voigt Hill
#
# Bulk Modulus (GPa) = 23.34259 31.31511 27.32885
# Shear Modulus (GPa) = 23.03297 29.51901 26.27599
#
# Velocity S-wave (km/s) = 3.31195 3.74939 3.53744
# Velocity P-wave (km/s) = 5.07365 5.80148 5.44973
#
# Compressibility (1/GPa) = 0.04284014
#
# Stress axis : x y z
#
# Youngs Moduli (GPa) = 52.54284 41.06145 60.88683
#
# Poissons Ratio (x) = 0.10834 -0.05995
# Poissons Ratio (y) = 0.13864 0.41591
# Poissons Ratio (z) = -0.05174 0.28048
#
# Static dielectric constant tensor:
#      x y z
#    x 1.849440 -0.032180 0.021530 
#    y -0.032180 1.735390 -0.001580 
#    z 0.021530 -0.001580 1.815180 
# 
# From -- ./inp_files/223034.got.cif
#   From: 2010.05.17/outbox.cif.g08.bks.cpg/sg2_112_cif.got.tgz:223034.got - 2010.06.03 11:33:40.
