data_PCOD9042591
_publ_section_title
;
Structure prediction by ZEFSAII (Michael W. Deem and Ramdas Pophale) SiO2 
 PCOD9042591
Probable space group: P -1
;
_chemical_formula_sum "Si O2"
_cell_formula_units_Z 16
_cell_length_a 16.488885
_cell_length_b 6.449111
_cell_length_c 15.956868
_cell_angle_alpha 59.184381
_cell_angle_beta 33.581111
_cell_angle_gamma 54.460843
_cell_volume 762.230284
_symmetry_space_group_name_H-M "P -1"
_symmetry_group_IT_number 2
_symmetry_cell_setting 'triclinic'
loop_
_space_group_symop_operation_xyz
x,y,z
-x,-y,-z
loop_
_atom_site_type_symbol
_atom_site_label
_atom_site_fract_x
_atom_site_fract_y
_atom_site_fract_z
Si Si1 0.649896 0.027143 0.699160
Si Si2 0.312168 0.810761 0.545341
Si Si3 0.893320 0.906837 0.173440
Si Si4 0.253405 0.557978 0.205306
Si Si5 0.609445 0.781229 0.391082
Si Si6 0.867798 0.266172 0.551449
Si Si7 0.614639 0.991960 0.982468
Si Si8 0.079578 0.472871 0.219315
O O1 0.721250 0.027503 0.545449
O O2 0.716255 0.211955 0.658769
O O3 0.689319 0.746236 0.764139
O O4 0.464187 0.110760 0.851270
O O5 0.489133 0.792035 0.418540
O O6 0.327363 0.516600 0.573802
O O7 0.198076 0.926849 0.699652
O O8 0.761245 0.861212 0.237961
O O9 0.009210 0.647242 0.165757
O O10 0.000000 0.000000 0.000000
O O11 0.149121 0.639371 0.359720
O O12 0.161560 0.606733 0.187518
O O13 0.364920 0.732566 0.076687
O O14 0.500000 0.000000 0.500000
O O15 0.932549 0.431414 0.399819
O O16 0.000000 0.000000 0.500000
O O17 0.786454 0.793848 0.860699
O O18 0.500000 0.000000 0.000000
#
# Coordination Sequence:
#
# PCOD9042591 Si02
#       8
#     2   2   2   2   2   2   2   2
#     4  12  25  40  69  99 134 180 223 278 336 404
#     4  10  23  44  73 101 128 176 233 277 343 409
#     4  11  26  46  68 100 138 175 226 290 345 397
#     4  12  23  40  67  93 140 176 230 265 336 410
#     4   9  21  46  71  95 134 169 227 288 335 398
#     4  12  22  40  63  97 137 174 216 279 330 399
#     4  12  24  45  59  97 140 181 223 280 325 398
#     4  12  26  41  67  98 136 185 225 275 343 407
#
# _framework density 20.991031
#
# number of rings (size 3 to 8) (size 9 to 14) (size 15 to 20)
#    0.000    0.750    5.000    2.250    1.750    6.500 
#    0.000    0.000    0.000    0.000    0.000    0.000 
#    0.000    0.000    0.000    0.000    0.000    0.000 
#
# Total GULP energy -89163.246061 kJ/mol
# GULP energy per Si atom -5572.702879 kJ/mol
# Density = 2.094325 g / cm^3
# Si number density = 20.991031 Si / 1000 Ang^3
#
#
#
# Elastic Constant Matrix: (Units=GPa)
#
#
# Indices 1 2 3 4 5 6 
#
# 1 47.7535 8.8217 25.8250 -6.1352 -18.4353 3.9519
# 2 8.8217 77.8540 20.3594 13.4113 -10.8950 8.8547
# 3 25.8250 20.3594 124.0774 -0.7242 -14.9146 8.8614
# 4 -6.1352 13.4113 -0.7242 33.5009 9.9631 -1.7267
# 5 -18.4353 -10.8950 -14.9146 9.9631 39.9799 -5.7554
# 6 3.9519 8.8547 8.8614 -1.7267 -5.7554 32.7579
#
#
#
# Elastic Compliance Matrix: (Units=1/GPa)
#
#
# Indices 1 2 3 4 5 6 
#
# 1 0.027766 -0.000955 -0.004367 0.002298 0.010345 0.000029
# 2 -0.000955 0.015835 -0.001631 -0.008154 0.004822 -0.003306
# 3 -0.004367 -0.001631 0.009449 -0.000294 0.000933 -0.001440
# 4 0.002298 -0.008154 -0.000294 0.036641 -0.010092 0.002165
# 5 0.010345 0.004822 0.000933 -0.010092 0.034348 0.002699
# 6 0.000029 -0.003306 -0.001440 0.002165 0.002699 0.032395
#
#
# Mechanical properties :
#
#
# Convention : Reuss Voigt Hill
#
# Bulk Modulus (GPa) = 25.54811 39.96635 32.75723
# Shear Modulus (GPa) = 27.26425 34.22634 30.74530
#
# Velocity S-wave (km/s) = 3.60787 4.04235 3.83128
# Velocity P-wave (km/s) = 5.43627 6.39285 5.93387
#
# Compressibility (1/GPa) = 0.03914184
#
# Stress axis : x y z
#
# Youngs Moduli (GPa) = 36.01544 63.15186 105.82666
#
# Poissons Ratio (x) = 0.06034 0.46219
# Poissons Ratio (y) = 0.03441 0.17263
# Poissons Ratio (z) = 0.15730 0.10302
#
# Static dielectric constant tensor:
#      x y z
#    x 1.160730 -2.092770 -1.032730 
#    y -2.092770 -5.539940 -3.398700 
#    z -1.032730 -3.398700 0.297200 
# 
# From -- ./inp_files/127132.got.cif
#   From: 2010.05.17/outbox.cif.g08.bks.cpg/sg2_64_cif.got.tgz:127132.got - 2010.06.03 11:33:40.
