data_PCOD9042023
_publ_section_title
;
Structure prediction by ZEFSAII (Michael W. Deem and Ramdas Pophale) SiO2 
 PCOD9042023
Probable space group: P -1
;
_chemical_formula_sum "Si O2"
_cell_formula_units_Z 12
_cell_length_a 9.700479
_cell_length_b 8.497019
_cell_length_c 9.876891
_cell_angle_alpha 44.799349
_cell_angle_beta 117.524163
_cell_angle_gamma 96.993109
_cell_volume 480.227860
_symmetry_space_group_name_H-M "P -1"
_symmetry_group_IT_number 2
_symmetry_cell_setting 'triclinic'
loop_
_space_group_symop_operation_xyz
x,y,z
-x,-y,-z
loop_
_atom_site_type_symbol
_atom_site_label
_atom_site_fract_x
_atom_site_fract_y
_atom_site_fract_z
Si Si1 0.302012 0.695977 0.035239
Si Si2 0.805649 0.061466 0.881437
Si Si3 0.950000 0.279832 0.304163
Si Si4 0.536594 0.202617 0.479598
Si Si5 0.700705 0.794183 0.388402
Si Si6 0.815444 0.574450 0.306823
O O1 0.265997 0.754841 0.141270
O O2 0.455873 0.461473 0.222381
O O3 0.148197 0.644010 0.925495
O O4 0.316447 0.937266 0.828871
O O5 0.723915 0.139085 0.651335
O O6 0.777525 0.819874 0.059501
O O7 0.000000 0.000000 0.000000
O O8 0.828800 0.386722 0.309669
O O9 0.122676 0.320164 0.386949
O O10 0.000000 0.000000 0.500000
O O11 0.441503 0.205753 0.575583
O O12 0.500000 0.000000 0.500000
O O13 0.702124 0.645264 0.344605
O O14 0.000000 0.500000 0.500000
#
# Coordination Sequence:
#
# PCOD9042023 Si02
#       6
#     2   2   2   2   2   2
#     4  10  23  44  68  99 137 179 225 282 343 400
#     4  11  26  45  66 101 137 180 230 279 340 411
#     4   9  18  38  69 105 134 174 229 273 341 406
#     4  12  27  46  67 103 138 180 229 285 344 394
#     4   9  22  42  68  99 136 178 228 281 332 412
#     4   9  19  40  67 100 128 180 224 275 339 400
#
# _framework density 24.988136999999998
#
# number of rings (size 3 to 8) (size 9 to 14) (size 15 to 20)
#    0.000    2.000    0.000    2.500    7.000    4.000 
#    3.000    0.000    0.000    0.000    0.000    0.000 
#    0.000    0.000    0.000    0.000    0.000    0.000 
#
# Total GULP energy -67209.138311 kJ/mol
# GULP energy per Si atom -5600.761526 kJ/mol
# Density = 2.493126 g / cm^3
# Si number density = 24.988137 Si / 1000 Ang^3
#
#
#
# Elastic Constant Matrix: (Units=GPa)
#
#
# Indices 1 2 3 4 5 6 
#
# 1 67.2474 23.9571 9.8296 4.6047 7.0596 -5.2413
# 2 23.9571 196.5183 59.7304 0.8650 10.0105 -17.5959
# 3 9.8296 59.7304 147.0492 2.9697 31.0740 12.3422
# 4 4.6047 0.8650 2.9697 41.3076 6.2280 7.8051
# 5 7.0596 10.0105 31.0740 6.2280 47.9913 8.8459
# 6 -5.2413 -17.5959 12.3422 7.8051 8.8459 37.9458
#
#
#
# Elastic Compliance Matrix: (Units=1/GPa)
#
#
# Indices 1 2 3 4 5 6 
#
# 1 0.015992 -0.001573 -0.000144 -0.001873 -0.002132 0.002408
# 2 -0.001573 0.006487 -0.002858 -0.000487 0.000092 0.003799
# 3 -0.000144 -0.002858 0.009266 0.000782 -0.004860 -0.003387
# 4 -0.001873 -0.000487 0.000782 0.025776 -0.002467 -0.005466
# 5 -0.002132 0.000092 -0.004860 -0.002467 0.025349 -0.004073
# 6 0.002408 0.003799 -0.003387 -0.005466 -0.004073 0.031623
#
#
# Mechanical properties :
#
#
# Convention : Reuss Voigt Hill
#
# Bulk Modulus (GPa) = 44.25836 66.42769 55.34303
# Shear Modulus (GPa) = 38.11698 46.60213 42.35955
#
# Velocity S-wave (km/s) = 3.90988 4.32321 4.12173
# Velocity P-wave (km/s) = 6.17520 7.18064 6.69682
#
# Compressibility (1/GPa) = 0.02259460
#
# Stress axis : x y z
#
# Youngs Moduli (GPa) = 62.53223 154.16134 107.91603
#
# Poissons Ratio (x) = 0.24255 0.01550
# Poissons Ratio (y) = 0.09839 0.30844
# Poissons Ratio (z) = 0.00898 0.44061
#
# Static dielectric constant tensor:
#      x y z
#    x 2.052720 0.060360 0.023610 
#    y 0.060360 1.970880 -0.014000 
#    z 0.023610 -0.014000 2.040910 
# 
# From -- ./inp_files/204731.got.cif
#   From: 2010.05.17/outbox.cif.g08.bks.cpg/sg2_103_cif.got.tgz:204731.got - 2010.06.03 11:33:40.
