data_PCOD9042919
_publ_section_title
;
Structure prediction by ZEFSAII (Michael W. Deem and Ramdas Pophale) SiO2 
 PCOD9042919
Probable space group: P -1
;
_chemical_formula_sum "Si O2"
_cell_formula_units_Z 16
_cell_length_a 10.747286
_cell_length_b 11.030080
_cell_length_c 22.721760
_cell_angle_alpha 41.836201
_cell_angle_beta 28.210741
_cell_angle_gamma 35.387954
_cell_volume 733.860849
_symmetry_space_group_name_H-M "P -1"
_symmetry_group_IT_number 2
_symmetry_cell_setting 'triclinic'
loop_
_space_group_symop_operation_xyz
x,y,z
-x,-y,-z
loop_
_atom_site_type_symbol
_atom_site_label
_atom_site_fract_x
_atom_site_fract_y
_atom_site_fract_z
Si Si1 0.732320 0.204059 0.912739
Si Si2 0.064012 0.787321 0.347723
Si Si3 0.354352 0.424252 0.872710
Si Si4 0.890302 0.577160 0.853590
Si Si5 0.101229 0.526846 0.529716
Si Si6 0.124758 0.830871 0.955906
Si Si7 0.273823 0.732799 0.706102
Si Si8 0.860958 0.563395 0.740173
O O1 0.536622 0.297130 0.900878
O O2 0.912717 0.328201 0.800787
O O3 0.473988 0.286556 0.040461
O O4 0.951740 0.960082 0.922533
O O5 0.415724 0.733759 0.216539
O O6 0.976190 0.734535 0.466391
O O7 0.036632 0.621576 0.376687
O O8 0.847748 0.022353 0.332812
O O9 0.345959 0.635688 0.776558
O O10 0.000000 0.500000 0.000000
O O11 0.979295 0.583066 0.747227
O O12 0.025692 0.680515 0.802513
O O13 0.958707 0.348526 0.929137
O O14 0.442647 0.387794 0.412710
O O15 0.031299 0.586688 0.604815
O O16 0.491719 0.716031 0.836008
O O17 0.000000 0.000000 0.000000
#
# Coordination Sequence:
#
# PCOD9042919 Si02
#       8
#     2   2   2   2   2   2   2   2
#     4  11  21  41  65  99 130 170 219 268 330 394
#     4  10  23  45  68  92 130 177 226 270 326 395
#     4  11  23  43  64 102 133 165 216 273 334 396
#     4  11  23  41  64 100 142 165 219 272 332 400
#     4  10  23  45  66  95 127 173 236 275 311 391
#     4  11  21  40  68  97 132 179 217 266 330 392
#     4  11  25  44  65  96 138 178 211 277 338 381
#     4  11  22  41  69  99 132 171 226 274 319 397
#
# _framework density 21.802496999999999
#
# number of rings (size 3 to 8) (size 9 to 14) (size 15 to 20)
#    0.000    1.250    5.000    1.125    0.000    6.000 
#    0.000    0.625    0.000    0.000    0.000    0.000 
#    0.000    0.000    0.000    0.000    0.000    0.000 
#
# Total GULP energy -89274.920094 kJ/mol
# GULP energy per Si atom -5579.682506 kJ/mol
# Density = 2.175287 g / cm^3
# Si number density = 21.802497 Si / 1000 Ang^3
#
#
#
# Elastic Constant Matrix: (Units=GPa)
#
#
# Indices 1 2 3 4 5 6 
#
# 1 80.1853 33.1095 25.3317 -15.6007 27.4802 -17.0431
# 2 33.1095 135.9320 43.1824 -22.7919 18.9298 -34.4320
# 3 25.3317 43.1824 110.9032 0.7342 31.5863 -9.0668
# 4 -15.6007 -22.7919 0.7342 22.3115 2.8599 6.3173
# 5 27.4802 18.9298 31.5863 2.8599 39.0908 -3.6719
# 6 -17.0431 -34.4320 -9.0668 6.3173 -3.6719 32.9740
#
#
#
# Elastic Compliance Matrix: (Units=1/GPa)
#
#
# Indices 1 2 3 4 5 6 
#
# 1 0.023057 0.002238 -0.000620 0.018192 -0.017308 0.008671
# 2 0.002238 0.013783 -0.003521 0.013192 -0.005291 0.011464
# 3 -0.000620 -0.003521 0.012771 -0.003207 -0.008016 -0.000764
# 4 0.018192 0.013192 -0.003207 0.072121 -0.021288 0.006109
# 5 -0.017308 -0.005291 -0.008016 -0.021288 0.047660 -0.007289
# 6 0.008671 0.011464 -0.000764 0.006109 -0.007289 0.044588
#
#
# Mechanical properties :
#
#
# Convention : Reuss Voigt Hill
#
# Bulk Modulus (GPa) = 21.83198 58.91863 40.37530
# Shear Modulus (GPa) = 21.45428 33.90172 27.67800
#
# Velocity S-wave (km/s) = 3.14033 3.94756 3.56685
# Velocity P-wave (km/s) = 4.81499 6.91810 5.96004
#
# Compressibility (1/GPa) = 0.04580437
#
# Stress axis : x y z
#
# Youngs Moduli (GPa) = 43.37121 72.55476 78.30123
#
# Poissons Ratio (x) = -0.16236 0.04854
# Poissons Ratio (y) = -0.09705 0.27570
# Poissons Ratio (z) = 0.02689 0.25546
#
# Static dielectric constant tensor:
#      x y z
#    x 1.892780 -0.033590 0.010810 
#    y -0.033590 1.794210 0.009960 
#    z 0.010810 0.009960 1.843450 
# 
# From -- ./inp_files/610344.got.cif
#   From: 2010.05.17/outbox.cif.g08.bks.cpg/sg2_306_cif.got.tgz:610344.got - 2010.06.03 11:33:40.
