data_PCOD9042017
_publ_section_title
;
Structure prediction by ZEFSAII (Michael W. Deem and Ramdas Pophale) SiO2 
 PCOD9042017
Probable space group: P -1
;
_chemical_formula_sum "Si O2"
_cell_formula_units_Z 12
_cell_length_a 9.387132
_cell_length_b 8.097553
_cell_length_c 9.364401
_cell_angle_alpha 132.808015
_cell_angle_beta 105.425948
_cell_angle_gamma 67.808950
_cell_volume 483.485709
_symmetry_space_group_name_H-M "P -1"
_symmetry_group_IT_number 2
_symmetry_cell_setting 'triclinic'
loop_
_space_group_symop_operation_xyz
x,y,z
-x,-y,-z
loop_
_atom_site_type_symbol
_atom_site_label
_atom_site_fract_x
_atom_site_fract_y
_atom_site_fract_z
Si Si1 0.871930 0.495615 0.848676
Si Si2 0.003187 0.732217 0.544484
Si Si3 0.155599 0.983654 0.946933
Si Si4 0.660429 0.819899 0.495764
Si Si5 0.448692 0.994631 0.145479
Si Si6 0.343631 0.435005 0.925166
O O1 0.938441 0.331171 0.637634
O O2 0.749096 0.436198 0.887228
O O3 0.000000 0.500000 0.000000
O O4 0.827659 0.758140 0.927846
O O5 0.823427 0.884412 0.583995
O O6 0.000000 0.500000 0.500000
O O7 0.123752 0.851206 0.720282
O O8 0.305974 0.879389 0.022321
O O9 0.000000 0.000000 0.000000
O O10 0.708740 0.599054 0.269939
O O11 0.500000 0.000000 0.500000
O O12 0.615500 0.792991 0.634385
O O13 0.602825 0.834457 0.164009
O O14 0.500000 0.000000 0.000000
O O15 0.500000 0.500000 0.000000
#
# Coordination Sequence:
#
# PCOD9042017 Si02
#       6
#     2   2   2   2   2   2
#     4  12  26  46  71 108 143 184 246 291 353 433
#     4  12  25  44  77 108 142 189 242 296 361 432
#     4  12  25  45  73 104 146 188 232 300 363 416
#     4  10  23  44  68  98 143 187 231 292 360 420
#     4  11  23  45  71  97 138 185 239 288 354 425
#     4  11  26  45  68 100 145 183 232 298 355 423
#
# _framework density 24.819762000000001
#
# number of rings (size 3 to 8) (size 9 to 14) (size 15 to 20)
#    0.000    0.667    6.667    0.000    4.667    2.000 
#    3.000    1.667    0.000    0.000    0.000    0.000 
#    0.000    0.000    0.000    0.000    0.000    0.000 
#
# Total GULP energy -66880.485207 kJ/mol
# GULP energy per Si atom -5573.373767 kJ/mol
# Density = 2.476327 g / cm^3
# Si number density = 24.819762 Si / 1000 Ang^3
#
#
#
# Elastic Constant Matrix: (Units=GPa)
#
#
# Indices 1 2 3 4 5 6 
#
# 1 143.9603 10.3847 42.2214 -14.4800 -37.0305 -1.5413
# 2 10.3847 59.6119 27.8826 -7.6358 -3.5332 -16.2980
# 3 42.2214 27.8826 206.0067 -44.3232 -45.8483 17.7514
# 4 -14.4800 -7.6358 -44.3232 40.0316 8.4323 -0.5938
# 5 -37.0305 -3.5332 -45.8483 8.4323 61.1033 -18.6248
# 6 -1.5413 -16.2980 17.7514 -0.5938 -18.6248 40.4248
#
#
#
# Elastic Compliance Matrix: (Units=1/GPa)
#
#
# Indices 1 2 3 4 5 6 
#
# 1 0.008738 0.000131 -0.000499 0.001477 0.005719 0.003262
# 2 0.000131 0.021543 -0.003403 0.000098 0.002167 0.011185
# 3 -0.000499 -0.003403 0.008053 0.007288 0.003570 -0.003176
# 4 0.001477 0.000098 0.007288 0.033333 0.001131 -0.002094
# 5 0.005719 0.002167 0.003570 0.001131 0.025989 0.011515
# 6 0.003262 0.011185 -0.003176 -0.002094 0.011515 0.036040
#
#
# Mechanical properties :
#
#
# Convention : Reuss Voigt Hill
#
# Bulk Modulus (GPa) = 32.47580 63.39515 47.93548
# Shear Modulus (GPa) = 33.00286 50.25129 41.62707
#
# Velocity S-wave (km/s) = 3.65046 4.50449 4.09977
# Velocity P-wave (km/s) = 5.55706 7.25614 6.46268
#
# Compressibility (1/GPa) = 0.03079216
#
# Stress axis : x y z
#
# Youngs Moduli (GPa) = 114.44548 46.41884 124.17396
#
# Poissons Ratio (x) = -0.00609 0.06198
# Poissons Ratio (y) = -0.01501 0.42256
# Poissons Ratio (z) = 0.05713 0.15796
#
# Static dielectric constant tensor:
#      x y z
#    x 1.959750 0.005890 0.009510 
#    y 0.005890 2.693480 -0.073210 
#    z 0.009510 -0.073210 1.986470 
# 
# From -- ./inp_files/156508.got.cif
#   From: 2010.05.17/outbox.cif.g08.bks.cpg/sg2_79_cif.got.tgz:156508.got - 2010.06.03 11:33:40.
