data_PCOD9042606
_publ_section_title
;
Structure prediction by ZEFSAII (Michael W. Deem and Ramdas Pophale) SiO2 
 PCOD9042606
Probable space group: P -1
;
_chemical_formula_sum "Si O2"
_cell_formula_units_Z 14
_cell_length_a 8.316064
_cell_length_b 13.939699
_cell_length_c 19.937941
_cell_angle_alpha 26.863383
_cell_angle_beta 147.682173
_cell_angle_gamma 135.474002
_cell_volume 550.256550
_symmetry_space_group_name_H-M "P -1"
_symmetry_group_IT_number 2
_symmetry_cell_setting 'triclinic'
loop_
_space_group_symop_operation_xyz
x,y,z
-x,-y,-z
loop_
_atom_site_type_symbol
_atom_site_label
_atom_site_fract_x
_atom_site_fract_y
_atom_site_fract_z
Si Si1 0.664387 0.187714 0.462308
Si Si2 0.293492 0.211238 0.826354
Si Si3 0.734422 0.707038 0.380180
Si Si4 0.313015 0.596859 0.039911
Si Si5 0.583723 0.193538 0.585344
Si Si6 0.483171 0.272083 0.100430
Si Si7 0.171254 0.580728 0.282095
O O1 0.556305 0.377206 0.253879
O O2 0.563394 0.249006 0.464456
O O3 0.029158 0.132723 0.627394
O O4 0.500000 0.000000 0.500000
O O5 0.255552 0.355951 0.654784
O O6 0.512259 0.293778 0.907504
O O7 0.948471 0.172808 0.745031
O O8 0.500000 0.000000 0.000000
O O9 0.385658 0.764178 0.242619
O O10 0.849742 0.512617 0.593021
O O11 0.291183 0.737070 0.877756
O O12 0.000000 0.500000 0.000000
O O13 0.352335 0.375477 0.431500
O O14 0.486009 0.957296 0.708288
O O15 0.500000 0.500000 0.000000
O O16 0.143213 0.316028 0.923760
#
# Coordination Sequence:
#
# PCOD9042606 Si02
#       7
#     2   2   2   2   2   2   2
#     4  11  24  47  72 105 150 198 249 302 366 451
#     4  11  26  47  76 110 150 194 258 309 362 454
#     4  10  23  44  73 102 145 192 243 309 366 421
#     4  12  29  48  76 108 152 199 245 308 387 444
#     4  11  27  45  80 107 143 200 254 297 383 439
#     4  12  29  50  72 112 157 191 246 319 376 444
#     4  11  24  47  75 106 147 192 248 316 366 444
#
# _framework density 25.442677
#
# number of rings (size 3 to 8) (size 9 to 14) (size 15 to 20)
#    0.000    0.857    1.429    3.429   14.000    3.429 
#    0.000    0.000    0.000    0.000    0.000    0.000 
#    0.000    0.000    0.000    0.000    0.000    0.000 
#
# Total GULP energy -78224.995565 kJ/mol
# GULP energy per Si atom -5587.499683 kJ/mol
# Density = 2.538477 g / cm^3
# Si number density = 25.442677 Si / 1000 Ang^3
#
#
#
# Elastic Constant Matrix: (Units=GPa)
#
#
# Indices 1 2 3 4 5 6 
#
# 1 108.0778 40.3073 12.5225 -8.1506 -14.4003 12.0745
# 2 40.3073 158.3109 -11.1932 12.1200 4.1100 11.8215
# 3 12.5225 -11.1932 56.0367 -8.7186 -0.5439 5.3059
# 4 -8.1506 12.1200 -8.7186 50.6768 3.1729 8.7325
# 5 -14.4003 4.1100 -0.5439 3.1729 47.9947 -0.5928
# 6 12.0745 11.8215 5.3059 8.7325 -0.5928 53.2013
#
#
#
# Elastic Compliance Matrix: (Units=1/GPa)
#
#
# Indices 1 2 3 4 5 6 
#
# 1 0.011659 -0.003279 -0.002676 0.002318 0.003571 -0.001991
# 2 -0.003279 0.007532 0.002034 -0.001736 -0.001502 -0.000864
# 3 -0.002676 0.002034 0.019506 0.002892 -0.000975 -0.002276
# 4 0.002318 -0.001736 0.002892 0.021747 -0.000610 -0.004005
# 5 0.003571 -0.001502 -0.000975 -0.000610 0.022064 -0.000033
# 6 -0.001991 -0.000864 -0.002276 -0.004005 -0.000033 0.020324
#
#
# Mechanical properties :
#
#
# Convention : Reuss Voigt Hill
#
# Bulk Modulus (GPa) = 32.41062 45.07763 38.74412
# Shear Modulus (GPa) = 41.33624 49.09381 45.21503
#
# Velocity S-wave (km/s) = 4.03511 4.39747 4.22018
# Velocity P-wave (km/s) = 5.87161 6.59844 6.24561
#
# Compressibility (1/GPa) = 0.03085409
#
# Stress axis : x y z
#
# Youngs Moduli (GPa) = 85.77271 132.76984 51.26660
#
# Poissons Ratio (x) = 0.43537 0.13721
# Poissons Ratio (y) = 0.28126 -0.10430
# Poissons Ratio (z) = 0.22957 -0.27011
#
# Static dielectric constant tensor:
#      x y z
#    x 2.044590 0.023580 0.004820 
#    y 0.023580 2.085330 -0.027350 
#    z 0.004820 -0.027350 2.045240 
# 
# From -- ./inp_files/590254.got.cif
#   From: 2010.05.17/outbox.cif.g08.bks.cpg/sg2_296_cif.got.tgz:590254.got - 2010.06.03 11:33:40.
