data_PCOD9042669
_publ_section_title
;
Structure prediction by ZEFSAII (Michael W. Deem and Ramdas Pophale) SiO2 
 PCOD9042669
Probable space group: P -1
;
_chemical_formula_sum "Si O2"
_cell_formula_units_Z 14
_cell_length_a 9.249590
_cell_length_b 6.837283
_cell_length_c 17.433663
_cell_angle_alpha 137.203733
_cell_angle_beta 54.356454
_cell_angle_gamma 128.103122
_cell_volume 571.759019
_symmetry_space_group_name_H-M "P -1"
_symmetry_group_IT_number 2
_symmetry_cell_setting 'triclinic'
loop_
_space_group_symop_operation_xyz
x,y,z
-x,-y,-z
loop_
_atom_site_type_symbol
_atom_site_label
_atom_site_fract_x
_atom_site_fract_y
_atom_site_fract_z
Si Si1 0.608835 0.282188 0.932211
Si Si2 0.285654 0.041947 0.065524
Si Si3 0.825760 0.726049 0.300761
Si Si4 0.967786 0.722255 0.870387
Si Si5 0.468541 0.621878 0.279071
Si Si6 0.865634 0.704356 0.597661
Si Si7 0.670811 0.818715 0.538918
O O1 0.407439 0.014318 0.944339
O O2 0.500000 0.500000 0.000000
O O3 0.783699 0.419588 0.857667
O O4 0.729912 0.240275 0.955897
O O5 0.092696 0.111859 0.134108
O O6 0.417027 0.361755 0.155792
O O7 0.677124 0.708033 0.274575
O O8 0.759653 0.839492 0.433144
O O9 0.862812 0.411775 0.219342
O O10 0.022077 0.996533 0.302504
O O11 0.000000 0.000000 0.000000
O O12 0.329936 0.475216 0.351210
O O13 0.413785 0.907945 0.347769
O O14 0.812477 0.800310 0.557848
O O15 0.000000 0.500000 0.500000
O O16 0.500000 0.500000 0.500000
#
# Coordination Sequence:
#
# PCOD9042669 Si02
#       7
#     2   2   2   2   2   2   2
#     4   9  21  44  70  93 134 175 235 279 341 399
#     4  10  23  44  73  98 135 184 227 284 352 402
#     4  12  26  46  70 106 139 182 236 285 344 413
#     4  11  26  45  68 101 141 178 233 287 341 411
#     4  12  26  46  72 105 142 181 231 284 349 416
#     4  12  25  45  75  99 145 184 228 287 342 412
#     4  12  25  47  71 103 144 185 227 283 348 415
#
# _framework density 24.485838999999999
#
# number of rings (size 3 to 8) (size 9 to 14) (size 15 to 20)
#    0.000    0.857    2.857    3.429    8.000    2.857 
#    5.143    0.000    0.000    0.000    0.000    0.000 
#    0.000    0.000    0.000    0.000    0.000    0.000 
#
# Total GULP energy -77944.948369 kJ/mol
# GULP energy per Si atom -5567.496312 kJ/mol
# Density = 2.443011 g / cm^3
# Si number density = 24.485839 Si / 1000 Ang^3
#
#
#
# Elastic Constant Matrix: (Units=GPa)
#
#
# Indices 1 2 3 4 5 6 
#
# 1 207.0134 25.1443 54.3171 34.6229 -7.2341 -39.0827
# 2 25.1443 71.1260 3.2949 8.8994 0.6950 -31.9625
# 3 54.3171 3.2949 97.7065 32.5626 -14.5502 -8.3868
# 4 34.6229 8.8994 32.5626 41.1539 -10.2741 -8.6009
# 5 -7.2341 0.6950 -14.5502 -10.2741 46.0752 12.5472
# 6 -39.0827 -31.9625 -8.3868 -8.6009 12.5472 50.3594
#
#
#
# Elastic Compliance Matrix: (Units=1/GPa)
#
#
# Indices 1 2 3 4 5 6 
#
# 1 0.006903 0.000382 -0.002617 -0.003221 -0.001848 0.005074
# 2 0.000382 0.020742 0.000832 -0.003675 -0.004658 0.014133
# 3 -0.002617 0.000832 0.015124 -0.009568 0.002561 -0.001256
# 4 -0.003221 -0.003675 -0.009568 0.036321 0.005029 -0.001475
# 5 -0.001848 -0.004658 0.002561 0.005029 0.026025 -0.009590
# 6 0.005074 0.014133 -0.001256 -0.001475 -0.009590 0.034694
#
#
# Mechanical properties :
#
#
# Convention : Reuss Voigt Hill
#
# Bulk Modulus (GPa) = 25.02231 60.15095 42.58663
# Shear Modulus (GPa) = 32.06464 47.05701 39.56082
#
# Velocity S-wave (km/s) = 3.62265 4.38860 4.02389
# Velocity P-wave (km/s) = 5.26682 7.09215 6.24652
#
# Compressibility (1/GPa) = 0.03996434
#
# Stress axis : x y z
#
# Youngs Moduli (GPa) = 144.86868 48.21062 66.12144
#
# Poissons Ratio (x) = -0.01843 0.17302
# Poissons Ratio (y) = -0.05539 -0.05502
# Poissons Ratio (z) = 0.37907 -0.04012
#
# Static dielectric constant tensor:
#      x y z
#    x 2.011020 0.025850 -0.022850 
#    y 0.025850 2.012920 -0.069150 
#    z -0.022850 -0.069150 2.048620 
# 
# From -- ./inp_files/107731.got.cif
#   From: 2010.05.17/outbox.cif.g08.bks.cpg/sg2_54_cif.got.tgz:107731.got - 2010.06.03 11:33:40.
