data_PCOD9042284
_publ_section_title
;
Structure prediction by ZEFSAII (Michael W. Deem and Ramdas Pophale) SiO2 
 PCOD9042284
Probable space group: P -1
;
_chemical_formula_sum "Si O2"
_cell_formula_units_Z 16
_cell_length_a 14.376488
_cell_length_b 9.419077
_cell_length_c 8.863403
_cell_angle_alpha 89.929073
_cell_angle_beta 146.428435
_cell_angle_gamma 97.299409
_cell_volume 646.230812
_symmetry_space_group_name_H-M "P -1"
_symmetry_group_IT_number 2
_symmetry_cell_setting 'triclinic'
loop_
_space_group_symop_operation_xyz
x,y,z
-x,-y,-z
loop_
_atom_site_type_symbol
_atom_site_label
_atom_site_fract_x
_atom_site_fract_y
_atom_site_fract_z
Si Si1 0.640927 0.193198 0.591138
Si Si2 0.190193 0.601107 0.446802
Si Si3 0.085106 0.861631 0.813246
Si Si4 0.490610 0.757623 0.034065
Si Si5 0.813611 0.713076 0.652183
Si Si6 0.352520 0.358797 0.256713
Si Si7 0.056785 0.358470 0.642015
Si Si8 0.383259 0.010624 0.055524
O O1 0.753492 0.306554 0.627225
O O2 0.465159 0.241739 0.384359
O O3 0.558521 0.042200 0.394472
O O4 0.756163 0.191104 0.892226
O O5 0.125169 0.431589 0.320190
O O6 0.061416 0.672542 0.368774
O O7 0.361156 0.623508 0.780913
O O8 0.949901 0.852095 0.767533
O O9 0.986175 0.760588 0.546977
O O10 0.199889 0.004622 0.888928
O O11 0.630485 0.713023 0.328895
O O12 0.380002 0.855709 0.973050
O O13 0.583395 0.865059 0.026701
O O14 0.776741 0.693050 0.778919
O O15 0.500000 0.500000 0.500000
O O16 0.249545 0.386390 0.968349
O O17 0.000000 0.500000 0.500000
#
# Coordination Sequence:
#
# PCOD9042284 Si02
#       8
#     2   2   2   2   2   2   2   2
#     4  11  25  47  74  99 138 191 231 279 349 411
#     4  11  23  42  71 101 144 174 229 285 355 410
#     4  12  25  44  70 103 141 186 229 289 341 411
#     4  10  23  44  70 106 133 187 232 292 335 416
#     4  12  26  41  70 103 143 178 232 284 358 403
#     4  12  27  45  68 105 143 180 227 285 343 424
#     4  12  26  41  68 105 142 179 226 285 351 407
#     4  10  23  46  72  96 139 189 237 280 344 404
#
# _framework density 24.758955
#
# number of rings (size 3 to 8) (size 9 to 14) (size 15 to 20)
#    0.000    0.750    3.750    3.000    5.250    1.500 
#    0.000    1.250    0.000    0.000    0.000    0.000 
#    0.000    0.000    0.000    0.000    0.000    0.000 
#
# Total GULP energy -89558.082277 kJ/mol
# GULP energy per Si atom -5597.380142 kJ/mol
# Density = 2.470260 g / cm^3
# Si number density = 24.758955 Si / 1000 Ang^3
#
#
#
# Elastic Constant Matrix: (Units=GPa)
#
#
# Indices 1 2 3 4 5 6 
#
# 1 129.3296 12.1474 17.9084 5.4631 -2.5099 29.4307
# 2 12.1474 27.6569 24.0968 3.7800 -6.9929 5.4921
# 3 17.9084 24.0968 181.7773 -19.8229 -21.6943 9.4336
# 4 5.4631 3.7800 -19.8229 32.6446 10.1816 3.2443
# 5 -2.5099 -6.9929 -21.6943 10.1816 33.5545 1.8247
# 6 29.4307 5.4921 9.4336 3.2443 1.8247 33.4408
#
#
#
# Elastic Compliance Matrix: (Units=1/GPa)
#
#
# Indices 1 2 3 4 5 6 
#
# 1 0.009905 -0.002107 -0.000276 -0.001039 0.000886 -0.008241
# 2 -0.002107 0.046868 -0.005925 -0.011242 0.009386 -0.003593
# 3 -0.000276 -0.005925 0.007124 0.004555 0.002042 -0.001347
# 4 -0.001039 -0.011242 0.004555 0.038490 -0.011065 -0.001655
# 5 0.000886 0.009386 0.002042 -0.011065 0.036710 -0.003827
# 6 -0.008241 -0.003593 -0.001347 -0.001655 -0.003827 0.038495
#
#
# Mechanical properties :
#
#
# Convention : Reuss Voigt Hill
#
# Bulk Modulus (GPa) = 21.15020 49.67433 35.41227
# Shear Modulus (GPa) = 23.81300 38.90206 31.35753
#
# Velocity S-wave (km/s) = 3.10464 3.96818 3.56267
# Velocity P-wave (km/s) = 4.62739 6.41108 5.59083
#
# Compressibility (1/GPa) = 0.04728087
#
# Stress axis : x y z
#
# Youngs Moduli (GPa) = 100.96228 21.33644 140.36714
#
# Poissons Ratio (x) = 0.04496 0.03879
# Poissons Ratio (y) = 0.21273 0.83163
# Poissons Ratio (z) = 0.02790 0.12641
#
# Static dielectric constant tensor:
#      x y z
#    x 2.069190 -0.024440 -0.040250 
#    y -0.024440 2.002820 0.052110 
#    z -0.040250 0.052110 1.986050 
# 
# From -- ./inp_files/307647.got.cif
#   From: 2010.05.17/outbox.cif.g08.bks.cpg/sg2_154_cif.got.tgz:307647.got - 2010.06.03 11:33:40.
