data_PCOD9042187
_publ_section_title
;
Structure prediction by ZEFSAII (Michael W. Deem and Ramdas Pophale) SiO2 
 PCOD9042187
Probable space group: P -1
;
_chemical_formula_sum "Si O2"
_cell_formula_units_Z 16
_cell_length_a 16.622438
_cell_length_b 13.047219
_cell_length_c 7.551350
_cell_angle_alpha 49.377339
_cell_angle_beta 47.950085
_cell_angle_gamma 31.614904
_cell_volume 623.639662
_symmetry_space_group_name_H-M "P -1"
_symmetry_group_IT_number 2
_symmetry_cell_setting 'triclinic'
loop_
_space_group_symop_operation_xyz
x,y,z
-x,-y,-z
loop_
_atom_site_type_symbol
_atom_site_label
_atom_site_fract_x
_atom_site_fract_y
_atom_site_fract_z
Si Si1 0.854047 0.664136 0.155771
Si Si2 0.553906 0.285641 0.892988
Si Si3 0.219114 0.681508 0.019581
Si Si4 0.625297 0.089224 0.385439
Si Si5 0.513101 0.044380 0.124363
Si Si6 0.283021 0.505507 0.492108
Si Si7 0.842798 0.176368 0.418543
Si Si8 0.034492 0.309832 0.694962
O O1 0.786653 0.573286 0.389744
O O2 0.912834 0.719134 0.148846
O O3 0.701974 0.875405 0.061274
O O4 0.000000 0.500000 0.000000
O O5 0.696826 0.213200 0.649274
O O6 0.406833 0.521726 0.873370
O O7 0.617589 0.170531 0.116516
O O8 0.459691 0.245091 0.995311
O O9 0.237051 0.658022 0.235131
O O10 0.119380 0.636912 0.177065
O O11 0.136463 0.848388 0.797937
O O12 0.473062 0.299919 0.467544
O O13 0.573373 0.978544 0.588328
O O14 0.809531 0.904737 0.384773
O O15 0.500000 0.000000 0.000000
O O16 0.212768 0.626324 0.642972
O O17 0.000000 0.000000 0.500000
O O18 0.000000 0.500000 0.500000
#
# Coordination Sequence:
#
# PCOD9042187 Si02
#       8
#     2   2   2   2   2   2   2   2
#     4  11  24  40  66 103 146 176 225 293 354 422
#     4  11  24  47  71  96 137 189 232 288 354 415
#     4  11  25  45  71 103 140 181 240 286 349 428
#     4  10  23  44  69  99 142 178 229 285 350 420
#     4  11  25  40  68 108 135 176 224 289 358 421
#     4  10  25  47  70 101 137 188 238 289 352 417
#     4  12  28  50  72  99 140 188 238 298 350 412
#     4  12  22  40  71 106 142 185 225 286 362 417
#
# _framework density 25.655840999999999
#
# number of rings (size 3 to 8) (size 9 to 14) (size 15 to 20)
#    0.000    1.000    2.500    3.000   10.500    2.500 
#    2.250    0.000    0.000    0.000    0.000    0.000 
#    0.000    0.000    0.000    0.000    0.000    0.000 
#
# Total GULP energy -89279.815369 kJ/mol
# GULP energy per Si atom -5579.988461 kJ/mol
# Density = 2.559745 g / cm^3
# Si number density = 25.655841 Si / 1000 Ang^3
#
#
#
# Elastic Constant Matrix: (Units=GPa)
#
#
# Indices 1 2 3 4 5 6 
#
# 1 70.7551 22.3693 35.2655 -4.5072 -20.5530 -5.5928
# 2 22.3693 129.8750 17.2730 9.9249 0.1129 -27.5962
# 3 35.2655 17.2730 90.0944 1.5622 -12.3353 -19.1696
# 4 -4.5072 9.9249 1.5622 30.7448 -10.3083 -2.9151
# 5 -20.5530 0.1129 -12.3353 -10.3083 48.8699 -6.7620
# 6 -5.5928 -27.5962 -19.1696 -2.9151 -6.7620 40.2764
#
#
#
# Elastic Compliance Matrix: (Units=1/GPa)
#
#
# Indices 1 2 3 4 5 6 
#
# 1 0.021699 -0.003549 -0.006859 0.007606 0.008919 -0.000635
# 2 -0.003549 0.009782 0.000697 -0.003556 -0.001249 0.006074
# 3 -0.006859 0.000697 0.015432 -0.000721 0.001843 0.007127
# 4 0.007606 -0.003556 -0.000721 0.039033 0.011682 0.003063
# 5 0.008919 -0.001249 0.001843 0.011682 0.028090 0.006821
# 6 -0.000635 0.006074 0.007127 0.003063 0.006821 0.033661
#
#
# Mechanical properties :
#
#
# Convention : Reuss Voigt Hill
#
# Bulk Modulus (GPa) = 36.37654 48.94888 42.66271
# Shear Modulus (GPa) = 28.36363 38.36602 33.36483
#
# Velocity S-wave (km/s) = 3.32858 3.87125 3.61012
# Velocity P-wave (km/s) = 5.38349 6.25320 5.83458
#
# Compressibility (1/GPa) = 0.02749024
#
# Stress axis : x y z
#
# Youngs Moduli (GPa) = 46.08491 102.23090 64.80041
#
# Poissons Ratio (x) = 0.36283 0.44447
# Poissons Ratio (y) = 0.16356 -0.04516
# Poissons Ratio (z) = 0.31610 -0.07124
#
# Static dielectric constant tensor:
#      x y z
#    x 1.890740 0.125480 0.058790 
#    y 0.125480 2.064840 -0.044820 
#    z 0.058790 -0.044820 2.134390 
# 
# From -- ./inp_files/335625.got.cif
#   From: 2010.05.17/outbox.cif.g08.bks.cpg/sg2_168_cif.got.tgz:335625.got - 2010.06.03 11:33:40.
