data_PCOD9042423
_publ_section_title
;
Structure prediction by ZEFSAII (Michael W. Deem and Ramdas Pophale) SiO2 
 PCOD9042423
Probable space group: P -1
;
_chemical_formula_sum "Si O2"
_cell_formula_units_Z 16
_cell_length_a 5.514070
_cell_length_b 10.429170
_cell_length_c 16.243068
_cell_angle_alpha 53.844994
_cell_angle_beta 120.121609
_cell_angle_gamma 99.790203
_cell_volume 641.652461
_symmetry_space_group_name_H-M "P -1"
_symmetry_group_IT_number 2
_symmetry_cell_setting 'triclinic'
loop_
_space_group_symop_operation_xyz
x,y,z
-x,-y,-z
loop_
_atom_site_type_symbol
_atom_site_label
_atom_site_fract_x
_atom_site_fract_y
_atom_site_fract_z
Si Si1 0.667333 0.645033 0.494829
Si Si2 0.727415 0.715762 0.303205
Si Si3 0.236019 0.033720 0.093394
Si Si4 0.203846 0.930824 0.483823
Si Si5 0.135527 0.359246 0.137816
Si Si6 0.561664 0.580474 0.676466
Si Si7 0.850882 0.084758 0.705960
Si Si8 0.451580 0.695419 0.906278
O O1 0.500000 0.500000 0.500000
O O2 0.835563 0.659966 0.434542
O O3 0.745394 0.606744 0.616649
O O4 0.471560 0.822750 0.395910
O O5 0.489811 0.878229 0.196164
O O6 0.592239 0.571979 0.298876
O O7 0.996491 0.771153 0.287892
O O8 0.115018 0.034625 0.165594
O O9 0.376129 0.196220 0.047695
O O10 0.000000 0.000000 0.000000
O O11 0.321454 0.739897 0.587169
O O12 0.500000 0.000000 0.500000
O O13 0.227064 0.438442 0.204964
O O14 0.000000 0.000000 0.500000
O O15 0.425871 0.274558 0.174479
O O16 0.886114 0.263064 0.154577
O O17 0.059808 0.956614 0.358131
O O18 0.000000 0.500000 0.000000
O O19 0.500000 0.500000 0.000000
#
# Coordination Sequence:
#
# PCOD9042423 Si02
#       8
#     2   2   2   2   2   2   2   2
#     4   8  18  40  62  99 141 184 242 308 376 450
#     4  10  23  44  71 105 148 193 253 313 389 450
#     4  11  27  46  75 110 149 200 253 321 382 460
#     4  11  28  48  74 109 152 201 260 314 385 460
#     4  10  24  46  73 105 148 194 252 307 374 447
#     4  10  23  44  72 110 144 202 253 318 381 456
#     4  10  24  44  69 104 147 190 250 314 388 447
#     4  10  25  48  74 102 149 196 249 310 374 445
#
# _framework density 24.935618999999999
#
# number of rings (size 3 to 8) (size 9 to 14) (size 15 to 20)
#    0.000    2.000    0.000    0.000   12.250    8.000 
#   11.250    0.000    0.000    0.000    0.000    0.000 
#    0.000    0.000    0.000    0.000    0.000    0.000 
#
# Total GULP energy -89275.780949 kJ/mol
# GULP energy per Si atom -5579.736309 kJ/mol
# Density = 2.487886 g / cm^3
# Si number density = 24.935619 Si / 1000 Ang^3
#
#
#
# Elastic Constant Matrix: (Units=GPa)
#
#
# Indices 1 2 3 4 5 6 
#
# 1 139.0525 65.8547 24.7208 -2.3338 -9.2805 9.1064
# 2 65.8547 203.2741 78.1254 5.9685 -17.8320 24.3787
# 3 24.7208 78.1254 120.5057 6.9739 -12.6549 -4.1755
# 4 -2.3338 5.9685 6.9739 62.7605 -7.4462 -6.8005
# 5 -9.2805 -17.8320 -12.6549 -7.4462 32.6171 -13.5807
# 6 9.1064 24.3787 -4.1755 -6.8005 -13.5807 51.9291
#
#
#
# Elastic Compliance Matrix: (Units=1/GPa)
#
#
# Indices 1 2 3 4 5 6 
#
# 1 0.008557 -0.002763 0.000131 0.000738 0.001238 0.000227
# 2 -0.002763 0.008140 -0.004794 -0.000751 0.000047 -0.003809
# 3 0.000131 -0.004794 0.011920 0.000039 0.003792 0.004183
# 4 0.000738 -0.000751 0.000039 0.017077 0.005317 0.003853
# 5 0.001238 0.000047 0.003792 0.005317 0.038198 0.010752
# 6 0.000227 -0.003809 0.004183 0.003853 0.010752 0.024658
#
#
# Mechanical properties :
#
#
# Convention : Reuss Voigt Hill
#
# Bulk Modulus (GPa) = 72.64548 88.91490 80.78019
# Shear Modulus (GPa) = 39.06543 49.07011 44.06777
#
# Velocity S-wave (km/s) = 3.96239 4.44088 4.20844
# Velocity P-wave (km/s) = 7.08029 7.87594 7.48869
#
# Compressibility (1/GPa) = 0.01376548
#
# Stress axis : x y z
#
# Youngs Moduli (GPa) = 116.86566 122.85016 83.88980
#
# Poissons Ratio (x) = 0.33942 -0.01099
# Poissons Ratio (y) = 0.32288 0.40217
# Poissons Ratio (z) = -0.01531 0.58895
#
# Static dielectric constant tensor:
#      x y z
#    x 2.074580 0.001880 0.033640 
#    y 0.001880 1.984830 -0.017020 
#    z 0.033640 -0.017020 1.949680 
# 
# From -- ./inp_files/604314.got.cif
#   From: 2010.05.17/outbox.cif.g08.bks.cpg/sg2_303_cif.got.tgz:604314.got - 2010.06.03 11:33:40.
