data_PCOD9042522
_publ_section_title
;
Structure prediction by ZEFSAII (Michael W. Deem and Ramdas Pophale) SiO2 
 PCOD9042522
Probable space group: P -1
;
_chemical_formula_sum "Si O2"
_cell_formula_units_Z 16
_cell_length_a 8.999459
_cell_length_b 10.702120
_cell_length_c 11.672926
_cell_angle_alpha 125.734888
_cell_angle_beta 64.741283
_cell_angle_gamma 130.041827
_cell_volume 696.303503
_symmetry_space_group_name_H-M "P -1"
_symmetry_group_IT_number 2
_symmetry_cell_setting 'triclinic'
loop_
_space_group_symop_operation_xyz
x,y,z
-x,-y,-z
loop_
_atom_site_type_symbol
_atom_site_label
_atom_site_fract_x
_atom_site_fract_y
_atom_site_fract_z
Si Si1 0.832883 0.497399 0.927327
Si Si2 0.781674 0.491490 0.191747
Si Si3 0.070249 0.927151 0.099912
Si Si4 0.249336 0.478119 0.278330
Si Si5 0.439574 0.855064 0.541931
Si Si6 0.209058 0.184505 0.531271
Si Si7 0.151788 0.896819 0.800792
Si Si8 0.379427 0.271883 0.287990
O O1 0.702680 0.464568 0.840824
O O2 0.002886 0.460665 0.823251
O O3 0.734970 0.410633 0.034619
O O4 0.954824 0.712225 0.033524
O O5 0.785477 0.677071 0.304239
O O6 0.607283 0.348176 0.254745
O O7 0.247866 0.055972 0.192686
O O8 0.160246 0.965890 0.963206
O O9 0.920145 0.994344 0.192654
O O10 0.296137 0.652094 0.429638
O O11 0.351743 0.382840 0.254033
O O12 0.024114 0.314573 0.260681
O O13 0.629741 0.861737 0.522955
O O14 0.340532 0.908476 0.699695
O O15 0.500000 0.000000 0.500000
O O16 0.282189 0.293670 0.445181
O O17 0.000000 0.000000 0.500000
#
# Coordination Sequence:
#
# PCOD9042522 Si02
#       8
#     2   2   2   2   2   2   2   2
#     4  10  24  43  71 100 142 181 223 287 347 417
#     4  11  25  45  68 103 138 184 233 278 356 413
#     4   9  20  41  68  98 135 178 215 283 340 399
#     4  10  23  44  72 104 135 183 226 286 340 410
#     4  12  28  43  68 107 132 187 234 286 343 415
#     4  12  29  49  69  97 147 185 230 295 349 408
#     4   9  21  41  69 101 135 171 228 279 339 404
#     4  11  24  44  74 101 134 186 230 286 349 411
#
# _framework density 22.978484999999999
#
# number of rings (size 3 to 8) (size 9 to 14) (size 15 to 20)
#    0.000    1.500    1.250    2.250   10.500    2.000 
#    2.250    0.000    0.000    0.000    0.000    0.000 
#    0.000    0.000    0.000    0.000    0.000    0.000 
#
# Total GULP energy -89463.616320 kJ/mol
# GULP energy per Si atom -5591.476020 kJ/mol
# Density = 2.292618 g / cm^3
# Si number density = 22.978485 Si / 1000 Ang^3
#
#
#
# Elastic Constant Matrix: (Units=GPa)
#
#
# Indices 1 2 3 4 5 6 
#
# 1 89.0860 20.2082 52.0057 -10.3616 -13.5231 0.3140
# 2 20.2082 40.2910 19.2762 -4.2651 -15.3890 0.9238
# 3 52.0057 19.2762 104.1653 -10.6365 -19.7044 15.4698
# 4 -10.3616 -4.2651 -10.6365 34.2967 -5.3958 -0.8616
# 5 -13.5231 -15.3890 -19.7044 -5.3958 37.3158 -6.5216
# 6 0.3140 0.9238 15.4698 -0.8616 -6.5216 23.8728
#
#
#
# Elastic Compliance Matrix: (Units=1/GPa)
#
#
# Indices 1 2 3 4 5 6 
#
# 1 0.017516 -0.004022 -0.008274 0.002644 0.001725 0.005854
# 2 -0.004022 0.032794 -0.001798 0.004336 0.012352 0.003480
# 3 -0.008274 -0.001798 0.016430 0.002718 0.003693 -0.009362
# 4 0.002644 0.004336 0.002718 0.032835 0.009234 0.001744
# 5 0.001725 0.012352 0.003693 0.009234 0.037128 0.007582
# 6 0.005854 0.003480 -0.009362 0.001744 0.007582 0.049878
#
#
# Mechanical properties :
#
#
# Convention : Reuss Voigt Hill
#
# Bulk Modulus (GPa) = 25.93857 46.28027 36.10942
# Shear Modulus (GPa) = 21.96639 28.56721 25.26680
#
# Velocity S-wave (km/s) = 3.09521 3.52975 3.31960
# Velocity P-wave (km/s) = 4.90779 6.06602 5.51738
#
# Compressibility (1/GPa) = 0.03855262
#
# Stress axis : x y z
#
# Youngs Moduli (GPa) = 57.08933 30.49321 60.86407
#
# Poissons Ratio (x) = 0.12265 0.50358
# Poissons Ratio (y) = 0.22963 0.10943
# Poissons Ratio (z) = 0.47235 0.05482
#
# Static dielectric constant tensor:
#      x y z
#    x 1.902050 -0.094200 0.086400 
#    y -0.094200 2.011880 -0.143640 
#    z 0.086400 -0.143640 1.920180 
# 
# From -- ./inp_files/393027.got.cif
#   From: 2010.05.17/outbox.cif.g08.bks.cpg/sg2_197_cif.got.tgz:393027.got - 2010.06.03 11:33:40.
