data_PCOD9042440
_publ_section_title
;
Structure prediction by ZEFSAII (Michael W. Deem and Ramdas Pophale) SiO2 
 PCOD9042440
Probable space group: P -1
;
_chemical_formula_sum "Si O2"
_cell_formula_units_Z 16
_cell_length_a 8.482434
_cell_length_b 11.715129
_cell_length_c 9.006584
_cell_angle_alpha 81.430503
_cell_angle_beta 130.153436
_cell_angle_gamma 89.605759
_cell_volume 670.129861
_symmetry_space_group_name_H-M "P -1"
_symmetry_group_IT_number 2
_symmetry_cell_setting 'triclinic'
loop_
_space_group_symop_operation_xyz
x,y,z
-x,-y,-z
loop_
_atom_site_type_symbol
_atom_site_label
_atom_site_fract_x
_atom_site_fract_y
_atom_site_fract_z
Si Si1 0.891131 0.654036 0.979447
Si Si2 0.847534 0.851073 0.378235
Si Si3 0.262885 0.894400 0.795848
Si Si4 0.458828 0.856530 0.365227
Si Si5 0.697064 0.308773 0.901521
Si Si6 0.493561 0.541836 0.659088
Si Si7 0.366125 0.111586 0.208878
Si Si8 0.028049 0.610227 0.394613
O O1 0.080651 0.645911 0.981201
O O2 0.965056 0.592132 0.189718
O O3 0.688565 0.607925 0.800279
O O4 0.828491 0.791010 0.947914
O O5 0.665688 0.848005 0.389874
O O6 0.058761 0.869524 0.587744
O O7 0.894939 0.729013 0.347402
O O8 0.781266 0.967778 0.217182
O O9 0.461867 0.880110 0.813081
O O10 0.303124 0.797595 0.965672
O O11 0.344996 0.748667 0.271532
O O12 0.527670 0.862530 0.574720
O O13 0.321983 0.979201 0.219952
O O14 0.527525 0.421418 0.798333
O O15 0.500000 0.500000 0.500000
O O16 0.274915 0.616229 0.549601
O O17 0.000000 0.500000 0.500000
#
# Coordination Sequence:
#
# PCOD9042440 Si02
#       8
#     2   2   2   2   2   2   2   2
#     4  12  28  46  72 109 147 194 245 303 362 442
#     4  10  23  47  69 105 150 184 245 300 369 429
#     4  10  24  42  76 104 143 193 239 307 361 435
#     4  10  23  44  73 104 148 194 234 302 370 433
#     4  12  26  44  73 107 143 194 242 299 369 437
#     4  12  27  52  75 103 149 194 247 306 360 430
#     4  10  23  44  71 108 146 187 244 300 366 436
#     4  12  29  47  76 110 146 194 244 304 364 436
#
# _framework density 23.875969000000001
#
# number of rings (size 3 to 8) (size 9 to 14) (size 15 to 20)
#    0.000    1.000    1.250    3.375    8.750    3.000 
#    0.000    0.000    0.000    0.000    0.000    0.000 
#    0.000    0.000    0.000    0.000    0.000    0.000 
#
# Total GULP energy -89667.910051 kJ/mol
# GULP energy per Si atom -5604.244378 kJ/mol
# Density = 2.382163 g / cm^3
# Si number density = 23.875969 Si / 1000 Ang^3
#
#
#
# Elastic Constant Matrix: (Units=GPa)
#
#
# Indices 1 2 3 4 5 6 
#
# 1 74.5298 30.4206 31.3980 -12.9907 -3.7486 0.4661
# 2 30.4206 124.7003 25.5428 -22.9268 -16.1573 -7.5593
# 3 31.3980 25.5428 85.1529 -17.0562 -8.4639 8.6905
# 4 -12.9907 -22.9268 -17.0562 56.1762 13.4939 8.5272
# 5 -3.7486 -16.1573 -8.4639 13.4939 37.6109 -7.7412
# 6 0.4661 -7.5593 8.6905 8.5272 -7.7412 38.9237
#
#
#
# Elastic Compliance Matrix: (Units=1/GPa)
#
#
# Indices 1 2 3 4 5 6 
#
# 1 0.017023 -0.003003 -0.005188 0.001492 -0.001342 -0.000223
# 2 -0.003003 0.009987 -0.001467 0.001666 0.003610 0.002656
# 3 -0.005188 -0.001467 0.015248 0.003457 0.000147 -0.004355
# 4 0.001492 0.001666 0.003457 0.022876 -0.008021 -0.007073
# 5 -0.001342 0.003610 0.000147 -0.008021 0.032759 0.008957
# 6 -0.000223 0.002656 -0.004355 -0.007073 0.008957 0.030513
#
#
# Mechanical properties :
#
#
# Convention : Reuss Voigt Hill
#
# Bulk Modulus (GPa) = 43.58785 51.01177 47.29981
# Shear Modulus (GPa) = 32.18131 39.67694 35.92912
#
# Velocity S-wave (km/s) = 3.67530 4.08093 3.88341
# Velocity P-wave (km/s) = 6.02544 6.60432 6.32151
#
# Compressibility (1/GPa) = 0.02294217
#
# Stress axis : x y z
#
# Youngs Moduli (GPa) = 58.74527 100.12626 65.58219
#
# Poissons Ratio (x) = 0.30069 0.34022
# Poissons Ratio (y) = 0.17642 0.09622
# Poissons Ratio (z) = 0.30475 0.14690
#
# Static dielectric constant tensor:
#      x y z
#    x 1.865960 -0.003000 -0.015430 
#    y -0.003000 1.928040 -0.009970 
#    z -0.015430 -0.009970 1.921220 
# 
# From -- ./inp_files/187044.got.cif
#   From: 2010.05.17/outbox.cif.g08.bks.cpg/sg2_94_cif.got.tgz:187044.got - 2010.06.03 11:33:40.
