data_PCOD9042305
_publ_section_title
;
Structure prediction by ZEFSAII (Michael W. Deem and Ramdas Pophale) SiO2 
 PCOD9042305
Probable space group: P -1
;
_chemical_formula_sum "Si O2"
_cell_formula_units_Z 14
_cell_length_a 13.386328
_cell_length_b 9.333590
_cell_length_c 23.266405
_cell_angle_alpha 147.066284
_cell_angle_beta 152.833987
_cell_angle_gamma 50.212370
_cell_volume 651.409811
_symmetry_space_group_name_H-M "P -1"
_symmetry_group_IT_number 2
_symmetry_cell_setting 'triclinic'
loop_
_space_group_symop_operation_xyz
x,y,z
-x,-y,-z
loop_
_atom_site_type_symbol
_atom_site_label
_atom_site_fract_x
_atom_site_fract_y
_atom_site_fract_z
Si Si1 0.975786 0.305148 0.589471
Si Si2 0.181252 0.099194 0.214296
Si Si3 0.511561 0.562375 0.959214
Si Si4 0.610988 0.941621 0.364107
Si Si5 0.769745 0.550762 0.759132
Si Si6 0.954632 0.047071 0.670368
Si Si7 0.227613 0.343332 0.444442
O O1 0.248478 0.556427 0.811385
O O2 0.810530 0.241379 0.539980
O O3 0.822142 0.368619 0.483047
O O4 0.000000 0.000000 0.500000
O O5 0.396840 0.000604 0.301015
O O6 0.256216 0.322972 0.274110
O O7 0.132617 0.207750 0.287075
O O8 0.949126 0.823031 0.979692
O O9 0.500811 0.295120 0.823525
O O10 0.500000 0.500000 0.000000
O O11 0.766806 0.828851 0.165053
O O12 0.763284 0.853817 0.458691
O O13 0.882240 0.317833 0.732770
O O14 0.509906 0.418242 0.612217
O O15 0.905993 0.870814 0.644847
#
# Coordination Sequence:
#
# PCOD9042305 Si02
#       7
#     2   2   2   2   2   2   2
#     4  10  23  44  70  90 126 176 225 274 314 385
#     4  11  23  38  71  98 131 173 226 266 324 398
#     4  11  24  42  70  93 127 174 231 270 317 391
#     4  11  21  42  67  98 125 173 224 272 324 389
#     4  11  23  40  65 101 133 172 219 271 327 395
#     4  12  25  40  65 100 139 174 209 276 343 386
#     4  12  25  42  64 101 139 171 214 273 340 393
#
# _framework density 21.491845999999999
#
# number of rings (size 3 to 8) (size 9 to 14) (size 15 to 20)
#    0.000    0.857    5.714    1.714    0.000    2.286 
#    0.000    2.857    0.000    0.000    0.000    0.000 
#    0.000    0.000    0.000    0.000    0.000    0.000 
#
# Total GULP energy -78168.951514 kJ/mol
# GULP energy per Si atom -5583.496537 kJ/mol
# Density = 2.144293 g / cm^3
# Si number density = 21.491846 Si / 1000 Ang^3
#
#
#
# Elastic Constant Matrix: (Units=GPa)
#
#
# Indices 1 2 3 4 5 6 
#
# 1 119.4134 44.8357 61.0775 3.3510 14.0333 23.1298
# 2 44.8357 62.9669 14.7949 -5.5868 7.7753 12.6246
# 3 61.0775 14.7949 101.7842 -13.5349 16.4584 2.4049
# 4 3.3510 -5.5868 -13.5349 24.0548 -7.4449 5.4821
# 5 14.0333 7.7753 16.4584 -7.4449 43.6047 2.5517
# 6 23.1298 12.6246 2.4049 5.4821 2.5517 39.8485
#
#
#
# Elastic Compliance Matrix: (Units=1/GPa)
#
#
# Indices 1 2 3 4 5 6 
#
# 1 0.020094 -0.011224 -0.011490 -0.011073 -0.001681 -0.005783
# 2 -0.011224 0.024324 0.004737 0.010352 -0.000578 -0.002865
# 3 -0.011490 0.004737 0.017831 0.011491 -0.002070 0.002644
# 4 -0.011073 0.010352 0.011491 0.055494 0.007185 -0.005640
# 5 -0.001681 -0.000578 -0.002070 0.007185 0.025664 -0.001348
# 6 -0.005783 -0.002865 0.002644 -0.005640 -0.001348 0.030062
#
#
# Mechanical properties :
#
#
# Convention : Reuss Voigt Hill
#
# Bulk Modulus (GPa) = 38.02888 58.39784 48.21336
# Shear Modulus (GPa) = 22.91594 32.39869 27.65732
#
# Velocity S-wave (km/s) = 3.26891 3.88685 3.59120
# Velocity P-wave (km/s) = 5.65515 6.88292 6.29902
#
# Compressibility (1/GPa) = 0.02629581
#
# Stress axis : x y z
#
# Youngs Moduli (GPa) = 49.76651 41.11102 56.08071
#
# Poissons Ratio (x) = 0.46141 0.64439
# Poissons Ratio (y) = 0.55856 -0.26565
# Poissons Ratio (z) = 0.57184 -0.19474
#
# Static dielectric constant tensor:
#      x y z
#    x 1.810510 -0.047160 -0.040650 
#    y -0.047160 1.808830 0.004480 
#    z -0.040650 0.004480 1.816700 
# 
# From -- ./inp_files/342494.got.cif
#   From: 2010.05.17/outbox.cif.g08.bks.cpg/sg2_172_cif.got.tgz:342494.got - 2010.06.03 11:33:40.
