data_PCOD9042555
_publ_section_title
;
Structure prediction by ZEFSAII (Michael W. Deem and Ramdas Pophale) SiO2 
 PCOD9042555
Probable space group: P -1
;
_chemical_formula_sum "Si O2"
_cell_formula_units_Z 14
_cell_length_a 14.326374
_cell_length_b 24.679095
_cell_length_c 13.709698
_cell_angle_alpha 22.092754
_cell_angle_beta 149.727706
_cell_angle_gamma 159.699631
_cell_volume 631.962635
_symmetry_space_group_name_H-M "P -1"
_symmetry_group_IT_number 2
_symmetry_cell_setting 'triclinic'
loop_
_space_group_symop_operation_xyz
x,y,z
-x,-y,-z
loop_
_atom_site_type_symbol
_atom_site_label
_atom_site_fract_x
_atom_site_fract_y
_atom_site_fract_z
Si Si1 0.544839 0.153228 0.406443
Si Si2 0.209933 0.431818 0.956195
Si Si3 0.707406 0.511266 0.294230
Si Si4 0.250160 0.973140 0.062507
Si Si5 0.693104 0.243071 0.873990
Si Si6 0.048980 0.119013 0.746897
Si Si7 0.028593 0.429440 0.243477
O O1 0.677869 0.356710 0.249674
O O2 0.580967 0.028271 0.708075
O O3 0.727526 0.242235 0.327099
O O4 0.240392 0.020939 0.330814
O O5 0.220740 0.456392 0.808826
O O6 0.909515 0.243008 0.042319
O O7 0.419907 0.427170 0.183049
O O8 0.695756 0.353618 0.601663
O O9 0.947060 0.740116 0.176600
O O10 0.394624 0.034703 0.986187
O O11 0.230936 0.125006 0.830307
O O12 0.809137 0.391785 0.825942
O O13 0.148397 0.336907 0.493749
O O14 0.000000 0.000000 0.000000
O O15 0.000000 0.500000 0.000000
#
# Coordination Sequence:
#
# PCOD9042555 Si02
#       7
#     2   2   2   2   2   2   2
#     4  11  23  43  65  97 137 173 227 284 336 397
#     4  10  23  44  72  92 141 173 217 287 340 397
#     4  11  22  47  68 101 130 179 223 275 346 403
#     4  12  25  42  70 101 134 177 229 278 338 406
#     4  11  25  43  66 101 132 175 225 278 333 410
#     4  12  24  42  67  96 134 185 225 278 335 404
#     4  11  24  42  65  96 138 178 223 281 340 395
#
# _framework density 22.153210000000001
#
# number of rings (size 3 to 8) (size 9 to 14) (size 15 to 20)
#    0.000    0.857    5.714    1.714    2.000    4.571 
#    0.000    1.429    0.000    0.000    0.000    0.000 
#    0.000    0.000    0.000    0.000    0.000    0.000 
#
# Total GULP energy -78364.020757 kJ/mol
# GULP energy per Si atom -5597.430054 kJ/mol
# Density = 2.210279 g / cm^3
# Si number density = 22.153210 Si / 1000 Ang^3
#
#
#
# Elastic Constant Matrix: (Units=GPa)
#
#
# Indices 1 2 3 4 5 6 
#
# 1 85.3137 39.6678 23.5673 17.1588 15.8987 28.9608
# 2 39.6678 77.8361 27.2693 26.6386 -6.5499 15.8400
# 3 23.5673 27.2693 68.8305 22.1610 -1.1269 6.8832
# 4 17.1588 26.6386 22.1610 34.8085 2.8618 -0.5981
# 5 15.8987 -6.5499 -1.1269 2.8618 27.8118 0.5885
# 6 28.9608 15.8400 6.8832 -0.5981 0.5885 49.1124
#
#
#
# Elastic Compliance Matrix: (Units=1/GPa)
#
#
# Indices 1 2 3 4 5 6 
#
# 1 0.023822 -0.009940 -0.003123 -0.001028 -0.015763 -0.010227
# 2 -0.009940 0.024878 -0.001384 -0.014367 0.013012 -0.002299
# 3 -0.003123 -0.001384 0.019516 -0.010108 0.003303 -0.000610
# 4 -0.001028 -0.014367 -0.010108 0.047469 -0.008245 0.007333
# 5 -0.015763 0.013012 0.003303 -0.008245 0.048930 0.003949
# 6 -0.010227 -0.002299 -0.000610 0.007333 0.003949 0.027261
#
#
# Mechanical properties :
#
#
# Convention : Reuss Voigt Hill
#
# Bulk Modulus (GPa) = 25.43126 45.88767 35.65947
# Shear Modulus (GPa) = 21.37873 31.77827 26.57850
#
# Velocity S-wave (km/s) = 3.10988 3.79156 3.46751
# Velocity P-wave (km/s) = 4.93961 6.31875 5.67126
#
# Compressibility (1/GPa) = 0.03932168
#
# Stress axis : x y z
#
# Youngs Moduli (GPa) = 41.97832 40.19627 51.24103
#
# Poissons Ratio (x) = 0.39954 0.16003
# Poissons Ratio (y) = 0.41725 0.07093
# Poissons Ratio (z) = 0.13110 0.05564
#
# Static dielectric constant tensor:
#      x y z
#    x 1.826710 0.009810 0.027210 
#    y 0.009810 1.855590 -0.050690 
#    z 0.027210 -0.050690 1.792700 
# 
# From -- ./inp_files/535627.got.cif
#   From: 2010.05.17/outbox.cif.g08.bks.cpg/sg2_268_cif.got.tgz:535627.got - 2010.06.03 11:33:40.
