data_PCOD9042116
_publ_section_title
;
Structure prediction by ZEFSAII (Michael W. Deem and Ramdas Pophale) SiO2 
 PCOD9042116
Probable space group: P -1
;
_chemical_formula_sum "Si O2"
_cell_formula_units_Z 12
_cell_length_a 5.898064
_cell_length_b 17.068611
_cell_length_c 5.133943
_cell_angle_alpha 71.552653
_cell_angle_beta 98.194441
_cell_angle_gamma 75.646186
_cell_volume 461.044063
_symmetry_space_group_name_H-M "P -1"
_symmetry_group_IT_number 2
_symmetry_cell_setting 'triclinic'
loop_
_space_group_symop_operation_xyz
x,y,z
-x,-y,-z
loop_
_atom_site_type_symbol
_atom_site_label
_atom_site_fract_x
_atom_site_fract_y
_atom_site_fract_z
Si Si1 0.227483 0.508211 0.842687
Si Si2 0.023403 0.220136 0.096728
Si Si3 0.428869 0.789186 0.184836
Si Si4 0.393270 0.966481 0.767747
Si Si5 0.996690 0.881976 0.301646
Si Si6 0.852382 0.641246 0.337925
O O1 0.099744 0.599268 0.578185
O O2 0.245163 0.434037 0.707366
O O3 0.500000 0.500000 0.000000
O O4 0.000000 0.500000 0.000000
O O5 0.073812 0.175488 0.428596
O O6 0.557671 0.135450 0.090007
O O7 0.119438 0.298596 0.960369
O O8 0.737916 0.256242 0.952270
O O9 0.655759 0.712690 0.396189
O O10 0.281759 0.845602 0.340971
O O11 0.500000 0.000000 0.500000
O O12 0.111838 0.020126 0.723987
O O13 0.910646 0.855121 0.038251
O O14 0.500000 0.000000 0.000000
#
# Coordination Sequence:
#
# PCOD9042116 Si02
#       6
#     2   2   2   2   2   2
#     4  11  30  50  87 117 162 211 263 340 417 504
#     4  10  25  43  75 108 150 201 260 322 396 466
#     4  10  26  42  75 106 151 207 259 335 391 476
#     4  12  25  42  68 104 152 206 267 318 395 462
#     4  10  23  44  69 106 156 202 266 319 395 458
#     4  11  26  51  76 117 158 199 275 326 415 488
#
# _framework density 26.027882000000002
#
# number of rings (size 3 to 8) (size 9 to 14) (size 15 to 20)
#    1.000    0.333    0.000    3.500    9.333    3.333 
#    0.000    0.000    0.000    0.000    0.000    0.000 
#    0.000    0.000    0.000    0.000    0.000    0.000 
#
# Total GULP energy -67011.852901 kJ/mol
# GULP energy per Si atom -5584.321075 kJ/mol
# Density = 2.596864 g / cm^3
# Si number density = 26.027882 Si / 1000 Ang^3
#
#
#
# Elastic Constant Matrix: (Units=GPa)
#
#
# Indices 1 2 3 4 5 6 
#
# 1 143.0270 73.3225 30.8078 -2.7776 19.7808 -24.6903
# 2 73.3225 108.0169 38.9463 -13.7304 22.8515 -29.5634
# 3 30.8078 38.9463 101.8758 17.1401 -14.8175 -20.2143
# 4 -2.7776 -13.7304 17.1401 48.9012 -1.2150 13.2985
# 5 19.7808 22.8515 -14.8175 -1.2150 37.4977 -4.0673
# 6 -24.6903 -29.5634 -20.2143 13.2985 -4.0673 50.6085
#
#
#
# Elastic Compliance Matrix: (Units=1/GPa)
#
#
# Indices 1 2 3 4 5 6 
#
# 1 0.011012 -0.006711 -0.000456 -0.001561 -0.001784 0.001537
# 2 -0.006711 0.021196 -0.008581 0.007535 -0.012228 0.002718
# 3 -0.000456 -0.008581 0.017853 -0.009876 0.012803 0.005520
# 4 -0.001561 0.007535 -0.009876 0.027999 -0.007661 -0.008278
# 5 -0.001784 -0.012228 0.012803 -0.007661 0.040126 0.002339
# 6 0.001537 0.002718 0.005520 -0.008278 0.002339 0.026665
#
#
# Mechanical properties :
#
#
# Convention : Reuss Voigt Hill
#
# Bulk Modulus (GPa) = 53.86476 71.00809 62.43642
# Shear Modulus (GPa) = 27.39213 41.39101 34.39157
#
# Velocity S-wave (km/s) = 3.24761 3.99213 3.63896
# Velocity P-wave (km/s) = 5.89937 6.97067 6.45728
#
# Compressibility (1/GPa) = 0.01856501
#
# Stress axis : x y z
#
# Youngs Moduli (GPa) = 90.81019 47.17974 56.01228
#
# Poissons Ratio (x) = 0.31662 0.02556
# Poissons Ratio (y) = 0.60942 0.48061
# Poissons Ratio (z) = 0.04144 0.40483
#
# Static dielectric constant tensor:
#      x y z
#    x 2.423650 -0.091210 0.004950 
#    y -0.091210 2.055270 0.012070 
#    z 0.004950 0.012070 2.059550 
# 
# From -- ./inp_files/9126.got.cif
#   From: 2010.05.17/outbox.cif.g08.bks.cpg/sg2_5_cif.got.tgz:9126.got - 2010.06.03 11:33:40.
