data_PCOD9042863
_publ_section_title
;
Structure prediction by ZEFSAII (Michael W. Deem and Ramdas Pophale) SiO2 
 PCOD9042863
Probable space group: P -1
;
_chemical_formula_sum "Si O2"
_cell_formula_units_Z 16
_cell_length_a 15.365995
_cell_length_b 11.119284
_cell_length_c 11.991648
_cell_angle_alpha 105.914424
_cell_angle_beta 26.734984
_cell_angle_gamma 89.429698
_cell_volume 716.280571
_symmetry_space_group_name_H-M "P -1"
_symmetry_group_IT_number 2
_symmetry_cell_setting 'triclinic'
loop_
_space_group_symop_operation_xyz
x,y,z
-x,-y,-z
loop_
_atom_site_type_symbol
_atom_site_label
_atom_site_fract_x
_atom_site_fract_y
_atom_site_fract_z
Si Si1 0.252369 0.371561 0.124611
Si Si2 0.468389 0.203115 0.625936
Si Si3 0.819553 0.827082 0.481158
Si Si4 0.165688 0.567198 0.708748
Si Si5 0.764295 0.499440 0.140516
Si Si6 0.557068 0.438406 0.045496
Si Si7 0.430498 0.833791 0.078520
Si Si8 0.234326 0.106883 0.700517
O O1 0.427304 0.250157 0.989427
O O2 0.000000 0.500000 0.500000
O O3 0.269850 0.276856 0.972022
O O4 0.325436 0.480673 0.024665
O O5 0.412318 0.131502 0.570121
O O6 0.698937 0.059421 0.386706
O O7 0.454651 0.346571 0.628290
O O8 0.634617 0.806191 0.752362
O O9 0.750211 0.867667 0.440787
O O10 0.090515 0.669822 0.126027
O O11 0.765631 0.983402 0.634970
O O12 0.326701 0.502044 0.400097
O O13 0.971246 0.529168 0.914878
O O14 0.296846 0.501834 0.660741
O O15 0.021683 0.751036 0.927747
O O16 0.682216 0.255834 0.851942
O O17 0.500000 0.500000 0.000000
#
# Coordination Sequence:
#
# PCOD9042863 Si02
#       8
#     2   2   2   2   2   2   2   2
#     4  11  23  38  59  86 119 160 201 246 305 359
#     4  10  19  34  54  88 121 152 194 235 311 347
#     4  10  17  33  59  92 113 153 205 241 278 356
#     4   9  17  34  57  88 112 151 204 239 289 338
#     4   9  17  30  62  86 115 151 197 237 285 364
#     4  10  22  37  58  88 121 154 201 256 288 344
#     4  10  20  34  60  86 119 155 203 244 291 345
#     4   9  19  32  58  88 118 151 195 249 281 361
#
# _framework density 22.337616000000001
#
# number of rings (size 3 to 8) (size 9 to 14) (size 15 to 20)
#    0.000    2.250    2.500    1.500    5.250    0.000 
#    0.000    1.250    0.000    6.750    6.500    0.000 
#    0.000    0.000    0.000    0.000    0.000    0.000 
#
# Total GULP energy -89238.393415 kJ/mol
# GULP energy per Si atom -5577.399588 kJ/mol
# Density = 2.228677 g / cm^3
# Si number density = 22.337616 Si / 1000 Ang^3
#
#
#
# Elastic Constant Matrix: (Units=GPa)
#
#
# Indices 1 2 3 4 5 6 
#
# 1 50.3681 31.7724 13.7806 -0.3418 17.5030 -19.0994
# 2 31.7724 158.3593 56.1936 25.0331 7.1196 -16.0577
# 3 13.7806 56.1936 87.1339 16.9614 27.4692 -7.4930
# 4 -0.3418 25.0331 16.9614 45.8552 -1.9538 -3.5841
# 5 17.5030 7.1196 27.4692 -1.9538 28.4318 1.2198
# 6 -19.0994 -16.0577 -7.4930 -3.5841 1.2198 39.9913
#
#
#
# Elastic Compliance Matrix: (Units=1/GPa)
#
#
# Indices 1 2 3 4 5 6 
#
# 1 0.042970 -0.009502 0.012587 0.000858 -0.037045 0.020272
# 2 -0.009502 0.011054 -0.009070 -0.002434 0.011779 -0.002377
# 3 0.012587 -0.009070 0.027516 -0.005906 -0.032811 0.007997
# 4 0.000858 -0.002434 -0.005906 0.025680 0.007535 0.000397
# 5 -0.037045 0.011779 -0.032811 0.007535 0.088152 -0.021124
# 6 0.020272 -0.002377 0.007997 0.000397 -0.021124 0.035911
#
#
# Mechanical properties :
#
#
# Convention : Reuss Voigt Hill
#
# Bulk Modulus (GPa) = 14.37403 55.48383 34.92893
# Shear Modulus (GPa) = 18.76570 35.79664 27.28117
#
# Velocity S-wave (km/s) = 2.90158 4.00750 3.49852
# Velocity P-wave (km/s) = 4.20410 6.80486 5.65599
#
# Compressibility (1/GPa) = 0.06956992
#
# Stress axis : x y z
#
# Youngs Moduli (GPa) = 23.27191 90.46519 36.34217
#
# Poissons Ratio (x) = 0.85964 -0.45744
# Poissons Ratio (y) = 0.22114 0.32962
# Poissons Ratio (z) = -0.29293 0.82051
#
# Static dielectric constant tensor:
#      x y z
#    x 1.892160 0.001900 0.019870 
#    y 0.001900 1.854600 0.008780 
#    z 0.019870 0.008780 1.901050 
# 
# From -- ./inp_files/388243.got.cif
#   From: 2010.05.17/outbox.cif.g08.bks.cpg/sg2_195_cif.got.tgz:388243.got - 2010.06.03 11:33:40.
