data_PCOD9042704
_publ_section_title
;
Structure prediction by ZEFSAII (Michael W. Deem and Ramdas Pophale) SiO2 
 PCOD9042704
Probable space group: P -1
;
_chemical_formula_sum "Si O2"
_cell_formula_units_Z 16
_cell_length_a 17.087836
_cell_length_b 11.459902
_cell_length_c 5.770701
_cell_angle_alpha 53.322316
_cell_angle_beta 105.061288
_cell_angle_gamma 130.384414
_cell_volume 675.227810
_symmetry_space_group_name_H-M "P -1"
_symmetry_group_IT_number 2
_symmetry_cell_setting 'triclinic'
loop_
_space_group_symop_operation_xyz
x,y,z
-x,-y,-z
loop_
_atom_site_type_symbol
_atom_site_label
_atom_site_fract_x
_atom_site_fract_y
_atom_site_fract_z
Si Si1 0.040964 0.363598 0.939918
Si Si2 0.581636 0.177761 0.513776
Si Si3 0.931784 0.257022 0.481864
Si Si4 0.708098 0.166950 0.984308
Si Si5 0.413422 0.194643 0.359027
Si Si6 0.382084 0.401229 0.427707
Si Si7 0.748113 0.468769 0.952934
Si Si8 0.738158 0.955298 0.943499
O O1 0.075995 0.574930 0.719617
O O2 0.995459 0.289513 0.731301
O O3 0.138858 0.365517 0.053982
O O4 0.972516 0.267731 0.239532
O O5 0.609868 0.124726 0.826817
O O6 0.530823 0.277071 0.398953
O O7 0.500000 0.000000 0.500000
O O8 0.688211 0.316532 0.291427
O O9 0.821621 0.047896 0.692700
O O10 0.769708 0.374105 0.883143
O O11 0.772585 0.132731 0.912083
O O12 0.657971 0.002927 0.327043
O O13 0.388810 0.325555 0.277194
O O14 0.377151 0.139705 0.134095
O O15 0.500000 0.500000 0.500000
O O16 0.335976 0.509007 0.226616
O O17 0.290172 0.216271 0.723908
#
# Coordination Sequence:
#
# PCOD9042704 Si02
#       8
#     2   2   2   2   2   2   2   2
#     4  10  24  43  72 110 142 181 236 309 369 424
#     4  12  22  36  62 101 129 171 226 287 351 413
#     4  10  23  44  74 107 144 179 240 302 375 427
#     4  11  22  37  66  96 137 166 234 288 351 413
#     4  11  23  41  66  94 135 179 230 282 350 428
#     4  11  27  46  66  98 145 191 235 280 353 429
#     4  12  26  42  66 102 140 181 233 294 355 417
#     4  11  24  43  69  99 131 190 229 286 355 426
#
# _framework density 23.695706999999999
#
# number of rings (size 3 to 8) (size 9 to 14) (size 15 to 20)
#    0.000    1.000    2.500    3.375   12.250    3.000 
#    0.000    1.250    0.000    0.000    0.000    0.000 
#    0.000    0.000    0.000    0.000    0.000    0.000 
#
# Total GULP energy -89321.995587 kJ/mol
# GULP energy per Si atom -5582.624724 kJ/mol
# Density = 2.364177 g / cm^3
# Si number density = 23.695707 Si / 1000 Ang^3
#
#
#
# Elastic Constant Matrix: (Units=GPa)
#
#
# Indices 1 2 3 4 5 6 
#
# 1 78.7122 28.7448 39.3188 4.3340 -2.3329 12.0789
# 2 28.7448 70.7901 29.1977 21.3910 16.6754 8.2810
# 3 39.3188 29.1977 111.8411 6.0051 -7.0494 5.9044
# 4 4.3340 21.3910 6.0051 36.7748 14.1458 5.3027
# 5 -2.3329 16.6754 -7.0494 14.1458 43.0667 0.7748
# 6 12.0789 8.2810 5.9044 5.3027 0.7748 34.2694
#
#
#
# Elastic Compliance Matrix: (Units=1/GPa)
#
#
# Indices 1 2 3 4 5 6 
#
# 1 0.017695 -0.005892 -0.004432 0.001948 0.001954 -0.004395
# 2 -0.005892 0.022462 -0.003662 -0.009059 -0.006620 -0.001169
# 3 -0.004432 -0.003662 0.011669 -0.000575 0.003269 0.000452
# 4 0.001948 -0.009059 -0.000575 0.036047 -0.008253 -0.003790
# 5 0.001954 -0.006620 0.003269 -0.008253 0.029117 0.000966
# 6 -0.004395 -0.001169 0.000452 -0.003790 0.000966 0.031499
#
#
# Mechanical properties :
#
#
# Convention : Reuss Voigt Hill
#
# Bulk Modulus (GPa) = 41.92117 50.65176 46.28647
# Shear Modulus (GPa) = 27.11311 33.76101 30.43706
#
# Velocity S-wave (km/s) = 3.38630 3.77871 3.58788
# Velocity P-wave (km/s) = 5.74624 6.36086 6.06135
#
# Compressibility (1/GPa) = 0.02385429
#
# Stress axis : x y z
#
# Youngs Moduli (GPa) = 56.51237 44.51885 85.70074
#
# Poissons Ratio (x) = 0.26230 0.37984
# Poissons Ratio (y) = 0.33296 0.31383
# Poissons Ratio (z) = 0.25047 0.16303
#
# Static dielectric constant tensor:
#      x y z
#    x 1.943050 -0.024320 -0.044850 
#    y -0.024320 1.966610 0.041070 
#    z -0.044850 0.041070 1.906930 
# 
# From -- ./inp_files/109500.got.cif
#   From: 2010.05.17/outbox.cif.g08.bks.cpg/sg2_55_cif.got.tgz:109500.got - 2010.06.03 11:33:40.
