data_PCOD9042681
_publ_section_title
;
Structure prediction by ZEFSAII (Michael W. Deem and Ramdas Pophale) SiO2 
 PCOD9042681
Probable space group: P -1
;
_chemical_formula_sum "Si O2"
_cell_formula_units_Z 16
_cell_length_a 11.114185
_cell_length_b 11.975064
_cell_length_c 5.998505
_cell_angle_alpha 108.962977
_cell_angle_beta 109.650161
_cell_angle_gamma 70.633171
_cell_volume 688.548549
_symmetry_space_group_name_H-M "P -1"
_symmetry_group_IT_number 2
_symmetry_cell_setting 'triclinic'
loop_
_space_group_symop_operation_xyz
x,y,z
-x,-y,-z
loop_
_atom_site_type_symbol
_atom_site_label
_atom_site_fract_x
_atom_site_fract_y
_atom_site_fract_z
Si Si1 0.625914 0.054824 0.616031
Si Si2 0.208948 0.862398 0.551751
Si Si3 0.406951 0.459225 0.159460
Si Si4 0.165999 0.198325 0.329211
Si Si5 0.289712 0.420160 0.556039
Si Si6 0.357163 0.695902 0.036682
Si Si7 0.880309 0.325432 0.369722
Si Si8 0.047207 0.065820 0.865749
O O1 0.749622 0.936622 0.641322
O O2 0.500000 0.000000 0.500000
O O3 0.656864 0.121517 0.455572
O O4 0.617013 0.170384 0.848262
O O5 0.198158 0.731079 0.532861
O O6 0.081926 0.901145 0.339905
O O7 0.167843 0.963791 0.779532
O O8 0.355726 0.434820 0.359206
O O9 0.400824 0.602555 0.210064
O O10 0.341288 0.429788 0.856651
O O11 0.555404 0.377935 0.158311
O O12 0.258479 0.289341 0.443948
O O13 0.033339 0.255615 0.425018
O O14 0.102772 0.180152 0.039790
O O15 0.156301 0.530031 0.540092
O O16 0.201259 0.705932 0.915445
O O17 0.000000 0.000000 0.000000
#
# Coordination Sequence:
#
# PCOD9042681 Si02
#       8
#     2   2   2   2   2   2   2   2
#     4  12  25  41  65 103 142 181 232 296 360 428
#     4  11  22  39  70  97 133 181 236 288 349 424
#     4  10  24  49  76 102 142 191 238 299 347 431
#     4  12  24  43  67 100 147 179 230 299 359 426
#     4  11  26  46  72 107 145 187 236 292 369 421
#     4  10  23  44  74 101 138 185 245 289 352 424
#     4  11  23  43  71 103 133 185 241 293 350 431
#     4  11  20  41  67  96 132 180 230 281 351 420
#
# _framework density 23.237286999999998
#
# number of rings (size 3 to 8) (size 9 to 14) (size 15 to 20)
#    0.000    1.000    2.500    4.125    0.000   10.500 
#    0.000    5.625    0.000    0.000    0.000    0.000 
#    0.000    0.000    0.000    0.000    0.000    0.000 
#
# Total GULP energy -89112.883924 kJ/mol
# GULP energy per Si atom -5569.555245 kJ/mol
# Density = 2.318440 g / cm^3
# Si number density = 23.237287 Si / 1000 Ang^3
#
#
#
# Elastic Constant Matrix: (Units=GPa)
#
#
# Indices 1 2 3 4 5 6 
#
# 1 101.9491 34.6612 39.8181 -8.0695 -7.9784 -8.7416
# 2 34.6612 142.0306 42.9083 6.8184 6.6291 4.5806
# 3 39.8181 42.9083 102.2191 5.1651 -5.8686 5.8628
# 4 -8.0695 6.8184 5.1651 41.5834 -0.5370 4.7804
# 5 -7.9784 6.6291 -5.8686 -0.5370 32.5098 8.2091
# 6 -8.7416 4.5806 5.8628 4.7804 8.2091 41.1491
#
#
#
# Elastic Compliance Matrix: (Units=1/GPa)
#
#
# Indices 1 2 3 4 5 6 
#
# 1 0.012885 -0.002188 -0.004293 0.003099 0.002178 0.002798
# 2 -0.002188 0.008643 -0.002842 -0.001490 -0.002762 -0.000298
# 3 -0.004293 -0.002842 0.013036 -0.001635 0.002552 -0.002772
# 4 0.003099 -0.001490 -0.001635 0.025377 0.001754 -0.002241
# 5 0.002178 -0.002762 0.002552 0.001754 0.034009 -0.006582
# 6 0.002798 -0.000298 -0.002772 -0.002241 -0.006582 0.026898
#
#
# Mechanical properties :
#
#
# Convention : Reuss Voigt Hill
#
# Bulk Modulus (GPa) = 62.81889 64.55267 63.68578
# Shear Modulus (GPa) = 34.53017 38.30255 36.41636
#
# Velocity S-wave (km/s) = 3.85902 4.06436 3.96302
# Velocity P-wave (km/s) = 6.85189 7.06155 6.95751
#
# Compressibility (1/GPa) = 0.01591878
#
# Stress axis : x y z
#
# Youngs Moduli (GPa) = 77.60956 115.69511 76.70986
#
# Poissons Ratio (x) = 0.25318 0.32929
# Poissons Ratio (y) = 0.16983 0.21801
# Poissons Ratio (z) = 0.33315 0.32880
#
# Static dielectric constant tensor:
#      x y z
#    x 1.892340 -0.041760 -0.005150 
#    y -0.041760 1.869830 -0.027320 
#    z -0.005150 -0.027320 2.060950 
# 
# From -- ./inp_files/71989.got.cif
#   From: 2010.05.17/outbox.cif.g08.bks.cpg/sg2_36_cif.got.tgz:71989.got - 2010.06.03 11:33:40.
