data_PCOD9042243
_publ_section_title
;
Structure prediction by ZEFSAII (Michael W. Deem and Ramdas Pophale) SiO2 
 PCOD9042243
Probable space group: P -1
;
_chemical_formula_sum "Si O2"
_cell_formula_units_Z 14
_cell_length_a 15.671807
_cell_length_b 10.893943
_cell_length_c 13.755211
_cell_angle_alpha 30.634049
_cell_angle_beta 31.458023
_cell_angle_gamma 30.016873
_cell_volume 542.250995
_symmetry_space_group_name_H-M "P -1"
_symmetry_group_IT_number 2
_symmetry_cell_setting 'triclinic'
loop_
_space_group_symop_operation_xyz
x,y,z
-x,-y,-z
loop_
_atom_site_type_symbol
_atom_site_label
_atom_site_fract_x
_atom_site_fract_y
_atom_site_fract_z
Si Si1 0.987830 0.261352 0.037382
Si Si2 0.046704 0.680900 0.406084
Si Si3 0.539056 0.695539 0.758037
Si Si4 0.414301 0.015487 0.968998
Si Si5 0.379472 0.931670 0.428494
Si Si6 0.345021 0.607604 0.849885
Si Si7 0.018103 0.756470 0.722216
O O1 0.853584 0.364933 0.002362
O O2 0.901318 0.295663 0.209386
O O3 0.083517 0.456188 0.813924
O O4 0.079347 0.929361 0.163587
O O5 0.257035 0.468712 0.383898
O O6 0.000000 0.500000 0.500000
O O7 0.837815 0.855928 0.538144
O O8 0.555217 0.910438 0.666687
O O9 0.370457 0.799405 0.773021
O O10 0.500000 0.500000 0.000000
O O11 0.512029 0.702990 0.047432
O O12 0.198073 0.129826 0.115751
O O13 0.483084 0.170635 0.725243
O O14 0.500000 0.000000 0.000000
O O15 0.394096 0.682182 0.647311
O O16 0.000000 0.000000 0.500000
#
# Coordination Sequence:
#
# PCOD9042243 Si02
#       7
#     2   2   2   2   2   2   2
#     4  10  23  44  70 102 145 178 241 283 358 418
#     4   9  21  43  74 103 137 187 227 291 361 416
#     4  11  21  43  75 103 142 181 228 291 357 421
#     4  12  25  44  69 103 139 187 233 292 351 406
#     4  10  24  44  71 100 148 179 236 288 348 431
#     4  11  23  42  71 103 139 181 234 286 358 414
#     4  11  26  46  71  99 142 192 240 290 351 420
#
# _framework density 25.818301999999999
#
# number of rings (size 3 to 8) (size 9 to 14) (size 15 to 20)
#    0.000    1.429    2.857    1.286    4.000    2.857 
#    0.000    4.286    0.000    0.000    0.000    0.000 
#    0.000    0.000    0.000    0.000    0.000    0.000 
#
# Total GULP energy -78049.952917 kJ/mol
# GULP energy per Si atom -5574.996637 kJ/mol
# Density = 2.575954 g / cm^3
# Si number density = 25.818302 Si / 1000 Ang^3
#
#
#
# Elastic Constant Matrix: (Units=GPa)
#
#
# Indices 1 2 3 4 5 6 
#
# 1 167.9585 15.4445 23.8528 6.9908 -17.6459 -0.3589
# 2 15.4445 71.1686 12.1962 -1.8031 -11.1122 -0.6770
# 3 23.8528 12.1962 117.5932 -13.6695 17.2868 5.5030
# 4 6.9908 -1.8031 -13.6695 55.6269 8.1266 -12.2708
# 5 -17.6459 -11.1122 17.2868 8.1266 48.0573 -9.1601
# 6 -0.3589 -0.6770 5.5030 -12.2708 -9.1601 25.2378
#
#
#
# Elastic Compliance Matrix: (Units=1/GPa)
#
#
# Indices 1 2 3 4 5 6 
#
# 1 0.006749 -0.000585 -0.002074 -0.001674 0.003565 0.001012
# 2 -0.000585 0.015317 -0.002285 -0.000112 0.004651 0.002535
# 3 -0.002074 -0.002285 0.010571 0.002986 -0.006207 -0.003197
# 4 -0.001674 -0.000112 0.002986 0.021298 -0.003730 0.008324
# 5 0.003565 0.004651 -0.006207 -0.003730 0.027935 0.009854
# 6 0.001012 0.002535 -0.003197 0.008324 0.009854 0.048026
#
#
# Mechanical properties :
#
#
# Convention : Reuss Voigt Hill
#
# Bulk Modulus (GPa) = 43.96162 51.07858 47.52010
# Shear Modulus (GPa) = 33.92870 46.13286 40.03078
#
# Velocity S-wave (km/s) = 3.62903 4.23167 3.94189
# Velocity P-wave (km/s) = 5.88422 6.61082 6.25807
#
# Compressibility (1/GPa) = 0.02274712
#
# Stress axis : x y z
#
# Youngs Moduli (GPa) = 148.17828 65.28597 94.60061
#
# Poissons Ratio (x) = 0.03821 0.19623
# Poissons Ratio (y) = 0.08672 0.21619
# Poissons Ratio (z) = 0.30736 0.14919
#
# Static dielectric constant tensor:
#      x y z
#    x 2.369640 -0.096940 -0.108650 
#    y -0.096940 2.160440 -0.002550 
#    z -0.108650 -0.002550 2.098080 
# 
# From -- ./inp_files/538142.got.cif
#   From: 2010.05.17/outbox.cif.g08.bks.cpg/sg2_270_cif.got.tgz:538142.got - 2010.06.03 11:33:40.
