data_PCOD9042771
_publ_section_title
;
Structure prediction by ZEFSAII (Michael W. Deem and Ramdas Pophale) SiO2 
 PCOD9042771
Probable space group: P -1
;
_chemical_formula_sum "Si O2"
_cell_formula_units_Z 15
_cell_length_a 8.124334
_cell_length_b 7.758853
_cell_length_c 19.736165
_cell_angle_alpha 118.216706
_cell_angle_beta 51.599062
_cell_angle_gamma 144.299626
_cell_volume 567.574976
_symmetry_space_group_name_H-M "P -1"
_symmetry_group_IT_number 2
_symmetry_cell_setting 'triclinic'
loop_
_space_group_symop_operation_xyz
x,y,z
-x,-y,-z
loop_
_atom_site_type_symbol
_atom_site_label
_atom_site_fract_x
_atom_site_fract_y
_atom_site_fract_z
Si Si1 0.612332 0.504742 0.400065
Si Si2 0.689256 0.852645 0.814454
Si Si3 0.916745 0.869397 0.623887
Si Si4 0.602612 0.294156 0.005786
Si Si5 0.189621 0.004989 0.785651
Si Si6 0.000000 0.500000 0.500000
Si Si7 0.092968 0.531051 0.326229
Si Si8 0.268795 0.925451 0.903231
O O1 0.500000 0.500000 0.500000
O O2 0.334812 0.202930 0.375338
O O3 0.916552 0.582740 0.343782
O O4 0.750437 0.794605 0.382209
O O5 0.731615 0.742098 0.718538
O O6 0.555683 0.964338 0.839227
O O7 0.029509 0.089190 0.811166
O O8 0.464386 0.637229 0.895053
O O9 0.977834 0.719092 0.536370
O O10 0.956547 0.589395 0.945670
O O11 0.372748 0.161279 0.975468
O O12 0.500000 0.000000 0.000000
O O13 0.215297 0.985261 0.855333
O O14 0.960144 0.681804 0.751985
O O15 0.534871 0.194866 0.703535
O O16 0.067498 0.594950 0.582274
#
# Coordination Sequence:
#
# PCOD9042771 Si02
#       8
#     2   2   2   2   2   1   2   2
#     4  12  26  47  73  98 138 192 251 297 364 432
#     4  11  25  46  73 106 144 187 241 291 361 430
#     4  12  28  46  75 107 140 197 241 299 365 434
#     4  10  23  44  76 105 142 188 233 296 357 433
#     4  12  28  45  72 107 145 191 238 302 358 429
#     4  12  28  48  72 104 152 186 246 304 366 426
#     4  12  27  47  69 105 145 188 245 306 352 427
#     4  11  24  47  73 105 145 186 235 295 363 429
#
# _framework density 26.428225000000001
#
# number of rings (size 3 to 8) (size 9 to 14) (size 15 to 20)
#    0.000    0.533    2.667    5.200    3.733    9.600 
#    0.000    0.000    0.000    0.000    0.000    0.000 
#    0.000    0.000    0.000    0.000    0.000    0.000 
#
# Total GULP energy -83629.731850 kJ/mol
# GULP energy per Si atom -5575.315457 kJ/mol
# Density = 2.636807 g / cm^3
# Si number density = 26.428225 Si / 1000 Ang^3
#
#
#
# Elastic Constant Matrix: (Units=GPa)
#
#
# Indices 1 2 3 4 5 6 
#
# 1 40.2088 -8.2568 12.8794 -3.6823 8.7751 0.8756
# 2 -8.2568 73.2357 7.9016 -2.0239 -1.1624 0.7317
# 3 12.8794 7.9016 102.5961 16.1637 19.6634 -9.2681
# 4 -3.6823 -2.0239 16.1637 39.8923 16.4511 3.7007
# 5 8.7751 -1.1624 19.6634 16.4511 59.5146 10.4854
# 6 0.8756 0.7317 -9.2681 3.7007 10.4854 21.0921
#
#
#
# Elastic Compliance Matrix: (Units=1/GPa)
#
#
# Indices 1 2 3 4 5 6 
#
# 1 0.028582 0.003827 -0.004331 0.006491 -0.004093 -0.002327
# 2 0.003827 0.014398 -0.002142 0.002052 0.000222 -0.002070
# 3 -0.004331 -0.002142 0.012725 -0.004909 -0.003762 0.008577
# 4 0.006491 0.002052 -0.004909 0.031104 -0.007114 -0.004418
# 5 -0.004093 0.000222 -0.003762 -0.007114 0.022646 -0.011500
# 6 -0.002327 -0.002070 0.008577 -0.004418 -0.011500 0.057841
#
#
# Mechanical properties :
#
#
# Convention : Reuss Voigt Hill
#
# Bulk Modulus (GPa) = 19.83637 26.78767 23.31202
# Shear Modulus (GPa) = 26.40040 37.66755 32.03398
#
# Velocity S-wave (km/s) = 3.16404 3.77938 3.48532
# Velocity P-wave (km/s) = 4.56840 5.40398 5.00366
#
# Compressibility (1/GPa) = 0.05041246
#
# Stress axis : x y z
#
# Youngs Moduli (GPa) = 34.98731 69.45352 78.58693
#
# Poissons Ratio (x) = -0.26583 0.34038
# Poissons Ratio (y) = -0.13391 0.16836
# Poissons Ratio (z) = 0.15154 0.14879
#
# Static dielectric constant tensor:
#      x y z
#    x 2.223010 -0.044720 -0.082210 
#    y -0.044720 1.974290 -0.049510 
#    z -0.082210 -0.049510 2.102670 
# 
# From -- ./inp_files/586821.got.cif
#   From: 2010.05.17/outbox.cif.g08.bks.cpg/sg2_294_cif.got.tgz:586821.got - 2010.06.03 11:33:40.
