data_PCOD9042684
_publ_section_title
;
Structure prediction by ZEFSAII (Michael W. Deem and Ramdas Pophale) SiO2 
 PCOD9042684
Probable space group: P -1
;
_chemical_formula_sum "Si O2"
_cell_formula_units_Z 14
_cell_length_a 28.489075
_cell_length_b 9.461263
_cell_length_c 5.557715
_cell_angle_alpha 65.220287
_cell_angle_beta 103.260607
_cell_angle_gamma 149.711198
_cell_volume 656.622928
_symmetry_space_group_name_H-M "P -1"
_symmetry_group_IT_number 2
_symmetry_cell_setting 'triclinic'
loop_
_space_group_symop_operation_xyz
x,y,z
-x,-y,-z
loop_
_atom_site_type_symbol
_atom_site_label
_atom_site_fract_x
_atom_site_fract_y
_atom_site_fract_z
Si Si1 0.013893 0.803132 0.833332
Si Si2 0.722028 0.781023 0.601187
Si Si3 0.548260 0.252706 0.066272
Si Si4 0.080869 0.691840 0.259327
Si Si5 0.184737 0.668444 0.873061
Si Si6 0.355866 0.708325 0.463641
Si Si7 0.200018 0.532201 0.486950
O O1 0.949152 0.556059 0.715207
O O2 0.931605 0.628009 0.046847
O O3 0.092954 0.154246 0.622677
O O4 0.071289 0.809466 0.981882
O O5 0.695996 0.543460 0.619619
O O6 0.812697 0.014895 0.717161
O O7 0.758811 0.009308 0.289015
O O8 0.626922 0.571452 0.783806
O O9 0.607710 0.313205 0.280407
O O10 0.455278 0.064795 0.224285
O O11 0.500000 0.000000 0.000000
O O12 0.000000 0.500000 0.500000
O O13 0.208063 0.653007 0.656338
O O14 0.211724 0.651031 0.159100
O O15 0.280577 0.622796 0.529784
#
# Coordination Sequence:
#
# PCOD9042684 Si02
#       7
#     2   2   2   2   2   2   2
#     4  11  25  42  64  99 139 189 231 283 328 409
#     4  11  23  42  71  98 138 177 227 290 338 405
#     4   9  21  42  76 101 127 167 230 292 343 400
#     4  11  22  38  69 103 131 173 243 286 329 381
#     4  12  28  44  65 102 147 187 226 274 352 407
#     4  10  23  44  74 102 127 175 237 281 343 408
#     4  12  28  45  69  99 144 188 227 280 341 411
#
# _framework density 21.32122
#
# number of rings (size 3 to 8) (size 9 to 14) (size 15 to 20)
#    0.000    1.143    1.429    3.429   14.000    0.000 
#    0.000    1.429    0.000    0.000    0.000    0.000 
#    0.000    0.000    0.000    0.000    0.000    0.000 
#
# Total GULP energy -78265.875803 kJ/mol
# GULP energy per Si atom -5590.419700 kJ/mol
# Density = 2.127269 g / cm^3
# Si number density = 21.321220 Si / 1000 Ang^3
#
#
#
# Elastic Constant Matrix: (Units=GPa)
#
#
# Indices 1 2 3 4 5 6 
#
# 1 105.0701 35.3602 15.4173 -4.0289 -21.3478 6.6987
# 2 35.3602 106.6854 29.7443 0.7589 -11.5039 14.0877
# 3 15.4173 29.7443 83.7576 -13.2473 -10.5017 6.1155
# 4 -4.0289 0.7589 -13.2473 43.2317 1.5717 -16.5333
# 5 -21.3478 -11.5039 -10.5017 1.5717 25.8665 -3.1287
# 6 6.6987 14.0877 6.1155 -16.5333 -3.1287 27.2104
#
#
#
# Elastic Compliance Matrix: (Units=1/GPa)
#
#
# Indices 1 2 3 4 5 6 
#
# 1 0.012402 -0.003228 0.000112 0.001011 0.008811 0.000220
# 2 -0.003228 0.012679 -0.004005 -0.004699 0.000710 -0.007643
# 3 0.000112 -0.004005 0.014527 0.005338 0.004188 0.002506
# 4 0.001011 -0.004699 0.005338 0.032999 0.001471 0.021204
# 5 0.008811 0.000710 0.004188 0.001471 0.048216 0.002960
# 6 0.000220 -0.007643 0.002506 0.021204 0.002960 0.053315
#
#
# Mechanical properties :
#
#
# Convention : Reuss Voigt Hill
#
# Bulk Modulus (GPa) = 39.42113 50.72850 45.07482
# Shear Modulus (GPa) = 25.40181 33.59447 29.49814
#
# Velocity S-wave (km/s) = 3.45539 3.97373 3.72359
# Velocity P-wave (km/s) = 5.86932 6.70061 6.29870
#
# Compressibility (1/GPa) = 0.02536710
#
# Stress axis : x y z
#
# Youngs Moduli (GPa) = 80.63059 78.87021 68.83632
#
# Poissons Ratio (x) = 0.25460 -0.00771
# Poissons Ratio (y) = 0.26028 0.27566
# Poissons Ratio (z) = -0.00903 0.31585
#
# Static dielectric constant tensor:
#      x y z
#    x 1.775790 -0.003090 -0.028170 
#    y -0.003090 1.754700 0.019750 
#    z -0.028170 0.019750 1.830500 
# 
# From -- ./inp_files/27843.got.cif
#   From: 2010.05.17/outbox.cif.g08.bks.cpg/sg2_14_cif.got.tgz:27843.got - 2010.06.03 11:33:40.
