data_PCOD9042584
_publ_section_title
;
Structure prediction by ZEFSAII (Michael W. Deem and Ramdas Pophale) SiO2 
 PCOD9042584
Probable space group: P -1
;
_chemical_formula_sum "Si O2"
_cell_formula_units_Z 14
_cell_length_a 5.266114
_cell_length_b 11.781456
_cell_length_c 9.164738
_cell_angle_alpha 72.739384
_cell_angle_beta 94.945415
_cell_angle_gamma 85.344793
_cell_volume 537.559413
_symmetry_space_group_name_H-M "P -1"
_symmetry_group_IT_number 2
_symmetry_cell_setting 'triclinic'
loop_
_space_group_symop_operation_xyz
x,y,z
-x,-y,-z
loop_
_atom_site_type_symbol
_atom_site_label
_atom_site_fract_x
_atom_site_fract_y
_atom_site_fract_z
Si Si1 0.854875 0.623372 0.650998
Si Si2 0.316463 0.560230 0.088103
Si Si3 0.119311 0.197526 0.877893
Si Si4 0.264782 0.430139 0.654325
Si Si5 0.338354 0.809248 0.943014
Si Si6 0.712880 0.894987 0.607115
Si Si7 0.886770 0.985483 0.300245
O O1 0.853378 0.535286 0.822890
O O2 0.697009 0.599057 0.503841
O O3 0.729391 0.751530 0.658590
O O4 0.134613 0.566727 0.622010
O O5 0.481975 0.589501 0.227425
O O6 0.222370 0.684607 0.959716
O O7 0.500000 0.500000 0.000000
O O8 0.089833 0.329362 0.749242
O O9 0.367045 0.202021 0.991112
O O10 0.862293 0.151747 0.951360
O O11 0.195682 0.100216 0.795174
O O12 0.312100 0.894352 0.769158
O O13 0.849882 0.955222 0.724398
O O14 0.500000 0.000000 0.500000
O O15 0.911416 0.904685 0.475129
#
# Coordination Sequence:
#
# PCOD9042584 Si02
#       7
#     2   2   2   2   2   2   2
#     4  11  23  47  70  99 140 190 250 298 362 439
#     4  11  26  41  67 109 143 185 234 306 371 440
#     4  11  23  47  73 110 140 188 246 299 363 438
#     4  10  23  44  73 100 137 189 246 302 363 428
#     4  11  26  44  75 107 144 191 237 300 371 436
#     4  11  28  43  70 100 141 196 239 301 360 438
#     4  11  26  46  66 103 143 188 242 297 363 433
#
# _framework density 26.043631999999999
#
# number of rings (size 3 to 8) (size 9 to 14) (size 15 to 20)
#    0.000    1.143    2.857    1.286    8.000    2.857 
#    0.000    0.000    0.000    0.000    0.000    0.000 
#    0.000    0.000    0.000    0.000    0.000    0.000 
#
# Total GULP energy -77980.373391 kJ/mol
# GULP energy per Si atom -5570.026671 kJ/mol
# Density = 2.598436 g / cm^3
# Si number density = 26.043632 Si / 1000 Ang^3
#
#
#
# Elastic Constant Matrix: (Units=GPa)
#
#
# Indices 1 2 3 4 5 6 
#
# 1 62.9504 4.0132 -8.0608 2.9022 14.0433 1.9034
# 2 4.0132 160.0105 9.6972 -12.9391 16.5429 -9.9044
# 3 -8.0608 9.6972 77.5666 -19.4633 -9.0173 11.8624
# 4 2.9022 -12.9391 -19.4633 33.1117 4.5664 2.3613
# 5 14.0433 16.5429 -9.0173 4.5664 36.8287 -6.5786
# 6 1.9034 -9.9044 11.8624 2.3613 -6.5786 31.2922
#
#
#
# Elastic Compliance Matrix: (Units=1/GPa)
#
#
# Indices 1 2 3 4 5 6 
#
# 1 0.017733 0.000032 0.001678 0.000643 -0.007022 -0.003229
# 2 0.000032 0.006958 -0.000866 0.002557 -0.003376 0.001626
# 3 0.001678 -0.000866 0.016892 0.009768 0.001383 -0.007226
# 4 0.000643 0.002557 0.009768 0.038055 -0.004943 -0.006844
# 5 -0.007022 -0.003376 0.001383 -0.004943 0.033411 0.006231
# 6 -0.003229 0.001626 -0.007226 -0.006844 0.006231 0.037234
#
#
# Mechanical properties :
#
#
# Convention : Reuss Voigt Hill
#
# Bulk Modulus (GPa) = 23.11146 34.64741 28.87944
# Shear Modulus (GPa) = 30.67142 39.90506 35.28824
#
# Velocity S-wave (km/s) = 3.43548 3.91863 3.68498
# Velocity P-wave (km/s) = 4.96287 5.81435 5.40540
#
# Compressibility (1/GPa) = 0.04326858
#
# Stress axis : x y z
#
# Youngs Moduli (GPa) = 56.39276 143.72566 59.20076
#
# Poissons Ratio (x) = -0.00454 -0.09933
# Poissons Ratio (y) = -0.00178 0.05128
# Poissons Ratio (z) = -0.09461 0.12449
#
# Static dielectric constant tensor:
#      x y z
#    x 2.291350 -0.021990 -0.119050 
#    y -0.021990 2.022090 0.052970 
#    z -0.119050 0.052970 2.165660 
# 
# From -- ./inp_files/131478.got.cif
#   From: 2010.05.17/outbox.cif.g08.bks.cpg/sg2_66_cif.got.tgz:131478.got - 2010.06.03 11:33:40.
