data_PCOD9042252
_publ_section_title
;
Structure prediction by ZEFSAII (Michael W. Deem and Ramdas Pophale) SiO2 
 PCOD9042252
Probable space group: P -1
;
_chemical_formula_sum "Si O2"
_cell_formula_units_Z 16
_cell_length_a 19.639800
_cell_length_b 7.610656
_cell_length_c 14.243183
_cell_angle_alpha 54.703012
_cell_angle_beta 158.010816
_cell_angle_gamma 122.897791
_cell_volume 650.417448
_symmetry_space_group_name_H-M "P -1"
_symmetry_group_IT_number 2
_symmetry_cell_setting 'triclinic'
loop_
_space_group_symop_operation_xyz
x,y,z
-x,-y,-z
loop_
_atom_site_type_symbol
_atom_site_label
_atom_site_fract_x
_atom_site_fract_y
_atom_site_fract_z
Si Si1 0.121037 0.796717 0.936176
Si Si2 0.570689 0.514593 0.258225
Si Si3 0.839994 0.779305 0.955417
Si Si4 0.934171 0.594554 0.582052
Si Si5 0.448509 0.636690 0.523425
Si Si6 0.107403 0.172752 0.199676
Si Si7 0.510561 0.841348 0.234212
Si Si8 0.253768 0.191270 0.885026
O O1 0.046704 0.734050 0.758529
O O2 0.961043 0.718145 0.826832
O O3 0.171291 0.050679 0.908361
O O4 0.301102 0.703721 0.240495
O O5 0.734295 0.539959 0.386540
O O6 0.630796 0.373831 0.469129
O O7 0.523211 0.746749 0.173323
O O8 0.394550 0.383968 0.034564
O O9 0.627848 0.783915 0.702407
O O10 0.944420 0.004424 0.025576
O O11 0.861615 0.708006 0.895590
O O12 0.946016 0.615144 0.206270
O O13 0.903449 0.712395 0.409131
O O14 0.513975 0.389433 0.672056
O O15 0.296691 0.071341 0.505353
O O16 0.365589 0.018240 0.018810
#
# Coordination Sequence:
#
# PCOD9042252 Si02
#       8
#     2   2   2   2   2   2   2   2
#     4  12  24  44  69  99 140 174 227 278 344 398
#     4  10  24  46  69 102 130 178 227 279 338 390
#     4  11  24  41  69 103 135 175 226 278 345 400
#     4  12  25  45  66  98 140 181 224 274 332 407
#     4  10  23  44  70 103 133 175 224 292 339 395
#     4  11  23  42  69 104 134 172 224 289 340 398
#     4  10  23  45  68 101 130 177 226 276 340 391
#     4  12  26  45  70  99 138 187 223 272 332 407
#
# _framework density 24.599585999999999
#
# number of rings (size 3 to 8) (size 9 to 14) (size 15 to 20)
#    0.750    0.250    1.250    5.250    0.000    7.500 
#    2.250    1.250    0.000    0.000    0.000    0.000 
#    0.000    0.000    0.000    0.000    0.000    0.000 
#
# Total GULP energy -89493.076378 kJ/mol
# GULP energy per Si atom -5593.317274 kJ/mol
# Density = 2.454360 g / cm^3
# Si number density = 24.599586 Si / 1000 Ang^3
#
#
#
# Elastic Constant Matrix: (Units=GPa)
#
#
# Indices 1 2 3 4 5 6 
#
# 1 41.6297 17.6975 12.0845 -3.7848 -10.3937 -4.7149
# 2 17.6975 75.7400 35.2303 13.0570 -7.7994 3.0675
# 3 12.0845 35.2303 104.4040 -6.8579 -20.6757 3.3985
# 4 -3.7848 13.0570 -6.8579 49.1848 3.0373 2.7507
# 5 -10.3937 -7.7994 -20.6757 3.0373 32.4837 1.8954
# 6 -4.7149 3.0675 3.3985 2.7507 1.8954 36.7399
#
#
#
# Elastic Compliance Matrix: (Units=1/GPa)
#
#
# Indices 1 2 3 4 5 6 
#
# 1 0.029523 -0.007175 0.000619 0.003590 0.007568 0.003671
# 2 -0.007175 0.018720 -0.006044 -0.006225 -0.000984 -0.001408
# 3 0.000619 -0.006044 0.013158 0.003129 0.006901 -0.001223
# 4 0.003590 -0.006225 0.003129 0.022778 -0.000426 -0.000992
# 5 0.007568 -0.000984 0.006901 -0.000426 0.037489 -0.001487
# 6 0.003671 -0.001408 -0.001223 -0.000992 -0.001487 0.028071
#
#
# Mechanical properties :
#
#
# Convention : Reuss Voigt Hill
#
# Bulk Modulus (GPa) = 27.62357 39.08869 33.35613
# Shear Modulus (GPa) = 26.73700 34.13244 30.43472
#
# Velocity S-wave (km/s) = 3.30038 3.72899 3.52121
# Velocity P-wave (km/s) = 5.07710 5.87068 5.48825
#
# Compressibility (1/GPa) = 0.03620097
#
# Stress axis : x y z
#
# Youngs Moduli (GPa) = 33.87146 53.41939 75.99886
#
# Poissons Ratio (x) = 0.38326 -0.04702
# Poissons Ratio (y) = 0.24301 0.45936
# Poissons Ratio (z) = -0.02096 0.32288
#
# Static dielectric constant tensor:
#      x y z
#    x 2.064360 -0.062970 0.001730 
#    y -0.062970 2.000970 0.019270 
#    z 0.001730 0.019270 1.864710 
# 
# From -- ./inp_files/540420.got.cif
#   From: 2010.05.17/outbox.cif.g08.bks.cpg/sg2_271_cif.got.tgz:540420.got - 2010.06.03 11:33:40.
