data_PCOD9042590
_publ_section_title
;
Structure prediction by ZEFSAII (Michael W. Deem and Ramdas Pophale) SiO2 
 PCOD9042590
Probable space group: P -1
;
_chemical_formula_sum "Si O2"
_cell_formula_units_Z 14
_cell_length_a 22.216910
_cell_length_b 5.307289
_cell_length_c 13.690969
_cell_angle_alpha 75.299492
_cell_angle_beta 20.656475
_cell_angle_gamma 76.960279
_cell_volume 550.503016
_symmetry_space_group_name_H-M "P -1"
_symmetry_group_IT_number 2
_symmetry_cell_setting 'triclinic'
loop_
_space_group_symop_operation_xyz
x,y,z
-x,-y,-z
loop_
_atom_site_type_symbol
_atom_site_label
_atom_site_fract_x
_atom_site_fract_y
_atom_site_fract_z
Si Si1 0.373450 0.664377 0.238301
Si Si2 0.240563 0.942595 0.742237
Si Si3 0.517672 0.634127 0.237955
Si Si4 0.007010 0.528973 0.604560
Si Si5 0.215122 0.046159 0.301845
Si Si6 0.095729 0.341766 0.787134
Si Si7 0.641118 0.339999 0.241241
O O1 0.452877 0.648380 0.225786
O O2 0.338463 0.924600 0.207113
O O3 0.187682 0.529851 0.552238
O O4 0.500000 0.500000 0.000000
O O5 0.363857 0.744126 0.522419
O O6 0.311836 0.926486 0.746918
O O7 0.234639 0.188497 0.654916
O O8 0.043881 0.839468 0.039486
O O9 0.574169 0.365327 0.228710
O O10 0.681975 0.832817 0.959363
O O11 0.094326 0.806256 0.472162
O O12 0.000000 0.500000 0.500000
O O13 0.120680 0.278307 0.475860
O O14 0.825812 0.489042 0.937721
O O15 0.000000 0.500000 0.000000
O O16 0.500000 0.500000 0.500000
#
# Coordination Sequence:
#
# PCOD9042590 Si02
#       7
#     2   2   2   2   2   2   2
#     4  12  26  45  75 110 147 195 252 310 377 441
#     4  10  23  44  73 100 143 190 245 300 371 444
#     4  11  23  46  70 108 150 187 244 309 370 446
#     4  12  26  50  78 109 151 196 251 313 371 446
#     4  12  27  46  80 110 150 199 251 311 379 439
#     4  11  23  44  71 101 142 186 244 302 363 433
#     4  10  24  47  73 105 148 194 244 301 380 446
#
# _framework density 25.431284999999999
#
# number of rings (size 3 to 8) (size 9 to 14) (size 15 to 20)
#    0.000    0.857    2.857    3.429    2.000    1.143 
#    0.000    1.429    0.000    0.000    0.000    0.000 
#    0.000    0.000    0.000    0.000    0.000    0.000 
#
# Total GULP energy -78270.668698 kJ/mol
# GULP energy per Si atom -5590.762050 kJ/mol
# Density = 2.537340 g / cm^3
# Si number density = 25.431285 Si / 1000 Ang^3
#
#
#
# Elastic Constant Matrix: (Units=GPa)
#
#
# Indices 1 2 3 4 5 6 
#
# 1 117.8132 42.9277 5.1158 2.2265 -0.6562 -45.1404
# 2 42.9277 118.3550 25.1342 1.2823 -3.6909 -46.2616
# 3 5.1158 25.1342 122.4700 -7.0553 0.7923 -6.0646
# 4 2.2265 1.2823 -7.0553 50.6235 -6.6642 -4.6932
# 5 -0.6562 -3.6909 0.7923 -6.6642 34.1898 -1.8504
# 6 -45.1404 -46.2616 -6.0646 -4.6932 -1.8504 64.1025
#
#
#
# Elastic Compliance Matrix: (Units=1/GPa)
#
#
# Indices 1 2 3 4 5 6 
#
# 1 0.011812 -0.001445 0.000179 0.000290 0.000520 0.007328
# 2 -0.001445 0.012585 -0.002116 0.000437 0.001895 0.007951
# 3 0.000179 -0.002116 0.008636 0.001173 -0.000224 -0.000504
# 4 0.000290 0.000437 0.001173 0.020653 0.004173 0.002263
# 5 0.000520 0.001895 -0.000224 0.004173 0.030439 0.002897
# 6 0.007328 0.007951 -0.000504 0.002263 0.002897 0.026701
#
#
# Mechanical properties :
#
#
# Convention : Reuss Voigt Hill
#
# Bulk Modulus (GPa) = 38.06566 56.11040 47.08803
# Shear Modulus (GPa) = 39.57460 48.81387 44.19424
#
# Velocity S-wave (km/s) = 3.94907 4.38590 4.17320
# Velocity P-wave (km/s) = 5.98282 6.91083 6.46350
#
# Compressibility (1/GPa) = 0.02627040
#
# Stress axis : x y z
#
# Youngs Moduli (GPa) = 84.65982 79.46080 115.79367
#
# Poissons Ratio (x) = 0.11480 -0.02077
# Poissons Ratio (y) = 0.12232 0.24499
# Poissons Ratio (z) = -0.01518 0.16812
#
# Static dielectric constant tensor:
#      x y z
#    x 2.083750 -0.046480 -0.069950 
#    y -0.046480 2.022260 -0.077580 
#    z -0.069950 -0.077580 1.975120 
# 
# From -- ./inp_files/542092.got.cif
#   From: 2010.05.17/outbox.cif.g08.bks.cpg/sg2_272_cif.got.tgz:542092.got - 2010.06.03 11:33:40.
