data_PCOD9042879
_publ_section_title
;
Structure prediction by ZEFSAII (Michael W. Deem and Ramdas Pophale) SiO2 
 PCOD9042879
Probable space group: P -1
;
_chemical_formula_sum "Si O2"
_cell_formula_units_Z 16
_cell_length_a 12.182235
_cell_length_b 9.264707
_cell_length_c 9.437685
_cell_angle_alpha 73.062900
_cell_angle_beta 47.924866
_cell_angle_gamma 85.581747
_cell_volume 745.806352
_symmetry_space_group_name_H-M "P -1"
_symmetry_group_IT_number 2
_symmetry_cell_setting 'triclinic'
loop_
_space_group_symop_operation_xyz
x,y,z
-x,-y,-z
loop_
_atom_site_type_symbol
_atom_site_label
_atom_site_fract_x
_atom_site_fract_y
_atom_site_fract_z
Si Si1 0.149557 0.665431 0.696404
Si Si2 0.572405 0.933411 0.698126
Si Si3 0.158157 0.945619 0.392065
Si Si4 0.509879 0.275656 0.653392
Si Si5 0.989324 0.322264 0.883965
Si Si6 0.702348 0.759704 0.413853
Si Si7 0.739681 0.244173 0.885625
Si Si8 0.409014 0.528867 0.209820
O O1 0.140791 0.799625 0.553927
O O2 0.324609 0.652758 0.567367
O O3 0.064079 0.501134 0.767463
O O4 0.080306 0.708094 0.891722
O O5 0.641216 0.904504 0.493504
O O6 0.708743 0.931726 0.690606
O O7 0.522487 0.097955 0.712182
O O8 0.424784 0.812337 0.891539
O O9 0.212851 0.890221 0.211135
O O10 0.000000 0.000000 0.500000
O O11 0.383176 0.286698 0.645295
O O12 0.494213 0.359543 0.791500
O O13 0.120880 0.224852 0.766953
O O14 0.859913 0.291264 0.889121
O O15 0.654571 0.625679 0.608385
O O16 0.722478 0.383056 0.755393
O O17 0.500000 0.500000 0.000000
#
# Coordination Sequence:
#
# PCOD9042879 Si02
#       8
#     2   2   2   2   2   2   2   2
#     4  10  23  45  65  97 133 184 222 279 346 392
#     4  11  24  44  71  99 137 181 229 274 348 398
#     4  11  24  44  69  96 138 181 223 280 339 408
#     4  11  24  47  70  96 139 177 230 282 336 405
#     4  11  25  41  69  98 138 176 227 283 338 398
#     4  12  24  43  70 106 131 178 233 280 338 407
#     4  12  24  45  66 100 139 178 225 282 335 408
#     4  12  25  42  71 104 132 176 231 285 334 404
#
# _framework density 21.453288000000001
#
# number of rings (size 3 to 8) (size 9 to 14) (size 15 to 20)
#    0.000    0.750    5.000    2.625    0.000    6.000 
#    0.000    3.750    0.000    0.000    0.000    0.000 
#    0.000    0.000    0.000    0.000    0.000    0.000 
#
# Total GULP energy -89546.103798 kJ/mol
# GULP energy per Si atom -5596.631487 kJ/mol
# Density = 2.140446 g / cm^3
# Si number density = 21.453288 Si / 1000 Ang^3
#
#
#
# Elastic Constant Matrix: (Units=GPa)
#
#
# Indices 1 2 3 4 5 6 
#
# 1 145.6148 21.7448 44.4681 4.4148 -21.2729 16.0798
# 2 21.7448 58.1613 15.2494 17.8797 1.2169 9.0943
# 3 44.4681 15.2494 70.8037 17.3784 4.5456 7.5744
# 4 4.4148 17.8797 17.3784 40.4356 6.9838 -0.5298
# 5 -21.2729 1.2169 4.5456 6.9838 25.1139 8.4084
# 6 16.0798 9.0943 7.5744 -0.5298 8.4084 35.9128
#
#
#
# Elastic Compliance Matrix: (Units=1/GPa)
#
#
# Indices 1 2 3 4 5 6 
#
# 1 0.012212 -0.001924 -0.007498 0.000242 0.013959 -0.006664
# 2 -0.001924 0.021770 -0.000728 -0.009476 0.001774 -0.005053
# 3 -0.007498 -0.000728 0.020998 -0.006368 -0.008699 0.001056
# 4 0.000242 -0.009476 -0.006368 0.033372 -0.009598 0.006374
# 5 0.013959 0.001774 -0.008699 -0.009598 0.062365 -0.019608
# 6 -0.006664 -0.005053 0.001056 0.006374 -0.019608 0.036571
#
#
# Mechanical properties :
#
#
# Convention : Reuss Voigt Hill
#
# Bulk Modulus (GPa) = 28.83520 48.61162 38.72341
# Shear Modulus (GPa) = 22.81559 33.16696 27.99128
#
# Velocity S-wave (km/s) = 3.26467 3.93620 3.61606
# Velocity P-wave (km/s) = 5.26126 6.58534 5.96018
#
# Compressibility (1/GPa) = 0.03467984
#
# Stress axis : x y z
#
# Youngs Moduli (GPa) = 81.88394 45.93529 47.62366
#
# Poissons Ratio (x) = 0.08839 0.35709
# Poissons Ratio (y) = 0.15757 0.03465
# Poissons Ratio (z) = 0.61398 0.03343
#
# Static dielectric constant tensor:
#      x y z
#    x 1.737370 -0.003190 0.003750 
#    y -0.003190 1.826060 0.008330 
#    z 0.003750 0.008330 1.779060 
# 
# From -- ./inp_files/243355.got.cif
#   From: 2010.05.17/outbox.cif.g08.bks.cpg/sg2_122_cif.got.tgz:243355.got - 2010.06.03 11:33:40.
