data_PCOD9042912
_publ_section_title
;
Structure prediction by ZEFSAII (Michael W. Deem and Ramdas Pophale) SiO2 
 PCOD9042912
Probable space group: P -1
;
_chemical_formula_sum "Si O2"
_cell_formula_units_Z 16
_cell_length_a 9.477132
_cell_length_b 17.656903
_cell_length_c 13.236506
_cell_angle_alpha 132.776829
_cell_angle_beta 29.046677
_cell_angle_gamma 132.830118
_cell_volume 765.970281
_symmetry_space_group_name_H-M "P -1"
_symmetry_group_IT_number 2
_symmetry_cell_setting 'triclinic'
loop_
_space_group_symop_operation_xyz
x,y,z
-x,-y,-z
loop_
_atom_site_type_symbol
_atom_site_label
_atom_site_fract_x
_atom_site_fract_y
_atom_site_fract_z
Si Si1 0.800675 0.465929 0.755381
Si Si2 0.665849 0.062257 0.048171
Si Si3 0.172803 0.956897 0.622309
Si Si4 0.267563 0.390543 0.515700
Si Si5 0.163888 0.660569 0.579023
Si Si6 0.641771 0.778889 0.534915
Si Si7 0.272545 0.890317 0.273978
Si Si8 0.720326 0.752657 0.817400
O O1 0.741516 0.383856 0.625210
O O2 0.952815 0.417628 0.708438
O O3 0.047122 0.566141 0.646677
O O4 0.500000 0.500000 0.000000
O O5 0.579341 0.173238 0.211953
O O6 0.505255 0.994610 0.182425
O O7 0.500000 0.000000 0.000000
O O8 0.002247 0.051809 0.821128
O O9 0.196304 0.912158 0.455600
O O10 0.966102 0.857156 0.720432
O O11 0.500000 0.000000 0.500000
O O12 0.500000 0.500000 0.500000
O O13 0.262888 0.311737 0.540914
O O14 0.344737 0.331766 0.311439
O O15 0.445975 0.739645 0.524029
O O16 0.881051 0.706797 0.767025
O O17 0.953278 0.863077 0.392620
O O18 0.435292 0.794811 0.068050
#
# Coordination Sequence:
#
# PCOD9042912 Si02
#       8
#     2   2   2   2   2   2   2   2
#     4  10  23  45  66  89 129 171 215 271 327 382
#     4  11  24  44  64  97 136 167 218 277 324 388
#     4  11  25  42  66  97 133 176 221 269 329 393
#     4  11  22  45  67  94 134 170 216 273 324 389
#     4  10  24  41  63  97 129 164 218 273 321 386
#     4  12  23  42  67  97 130 175 217 269 330 388
#     4  11  24  43  69  95 132 176 220 269 332 391
#     4  10  24  43  66  97 136 170 219 274 323 395
#
# _framework density 20.888539000000002
#
# number of rings (size 3 to 8) (size 9 to 14) (size 15 to 20)
#    0.000    1.250    3.750    1.125    5.250    2.000 
#    2.250    1.250    0.000    0.000    0.000    0.000 
#    0.000    0.000    0.000    0.000    0.000    0.000 
#
# Total GULP energy -89422.608552 kJ/mol
# GULP energy per Si atom -5588.913035 kJ/mol
# Density = 2.084100 g / cm^3
# Si number density = 20.888539 Si / 1000 Ang^3
#
#
#
# Elastic Constant Matrix: (Units=GPa)
#
#
# Indices 1 2 3 4 5 6 
#
# 1 95.2964 27.2813 47.2541 2.8084 -27.7957 17.4478
# 2 27.2813 55.3755 27.2684 9.2962 -4.6511 13.9606
# 3 47.2541 27.2684 134.7261 18.1207 -39.1088 13.8290
# 4 2.8084 9.2962 18.1207 24.0751 -9.3000 -7.8082
# 5 -27.7957 -4.6511 -39.1088 -9.3000 31.4412 -3.4041
# 6 17.4478 13.9606 13.8290 -7.8082 -3.4041 47.1270
#
#
#
# Elastic Compliance Matrix: (Units=1/GPa)
#
#
# Indices 1 2 3 4 5 6 
#
# 1 0.017729 -0.007686 -0.001029 0.006952 0.015125 -0.001741
# 2 -0.007686 0.026738 -0.003702 -0.013699 -0.012269 -0.007145
# 3 -0.001029 -0.003702 0.013208 -0.003789 0.013631 -0.002042
# 4 0.006952 -0.013699 -0.003789 0.060707 0.018881 0.014018
# 5 0.015125 -0.012269 0.013631 0.018881 0.066111 0.001939
# 6 -0.001741 -0.007145 -0.002042 0.014018 0.001939 0.027042
#
#
# Mechanical properties :
#
#
# Convention : Reuss Voigt Hill
#
# Bulk Modulus (GPa) = 30.44716 54.33397 42.39056
# Shear Modulus (GPa) = 20.21695 32.76826 26.49261
#
# Velocity S-wave (km/s) = 3.11440 3.96500 3.56516
# Velocity P-wave (km/s) = 5.24789 6.85781 6.10614
#
# Compressibility (1/GPa) = 0.03284379
#
# Stress axis : x y z
#
# Youngs Moduli (GPa) = 56.40335 37.39947 75.70888
#
# Poissons Ratio (x) = 0.28745 0.07788
# Poissons Ratio (y) = 0.43351 0.28026
# Poissons Ratio (z) = 0.05802 0.13844
#
# Static dielectric constant tensor:
#      x y z
#    x 1.743500 0.017160 0.026600 
#    y 0.017160 1.674100 -0.019360 
#    z 0.026600 -0.019360 1.749210 
# 
# From -- ./inp_files/110804.got.cif
#   From: 2010.05.17/outbox.cif.g08.bks.cpg/sg2_56_cif.got.tgz:110804.got - 2010.06.03 11:33:40.
