data_PCOD9042406
_publ_section_title
;
Structure prediction by ZEFSAII (Michael W. Deem and Ramdas Pophale) SiO2 
 PCOD9042406
Probable space group: P -1
;
_chemical_formula_sum "Si O2"
_cell_formula_units_Z 16
_cell_length_a 5.928336
_cell_length_b 10.763200
_cell_length_c 17.306130
_cell_angle_alpha 129.086581
_cell_angle_beta 88.360175
_cell_angle_gamma 117.013669
_cell_volume 708.581586
_symmetry_space_group_name_H-M "P -1"
_symmetry_group_IT_number 2
_symmetry_cell_setting 'triclinic'
loop_
_space_group_symop_operation_xyz
x,y,z
-x,-y,-z
loop_
_atom_site_type_symbol
_atom_site_label
_atom_site_fract_x
_atom_site_fract_y
_atom_site_fract_z
Si Si1 0.206910 0.932750 0.554124
Si Si2 0.590247 0.335561 0.239090
Si Si3 0.218805 0.465453 0.524594
Si Si4 0.918074 0.756553 0.341047
Si Si5 0.113514 0.647368 0.898284
Si Si6 0.470578 0.673583 0.041607
Si Si7 0.711277 0.230495 0.764793
Si Si8 0.973969 0.035924 0.924969
O O1 0.163139 0.826087 0.429411
O O2 0.954113 0.758335 0.534800
O O3 0.458401 0.039646 0.652717
O O4 0.187723 0.108487 0.598127
O O5 0.699568 0.397977 0.347969
O O6 0.734383 0.269488 0.152366
O O7 0.679955 0.537379 0.276556
O O8 0.275747 0.167757 0.182118
O O9 0.500000 0.500000 0.500000
O O10 0.000000 0.500000 0.500000
O O11 0.039258 0.786684 0.265985
O O12 0.827878 0.441199 0.806383
O O13 0.289361 0.610658 0.941509
O O14 0.085125 0.799469 0.003860
O O15 0.345220 0.732096 0.134080
O O16 0.756381 0.866712 0.090130
O O17 0.500000 0.500000 0.000000
O O18 0.000000 0.000000 0.000000
#
# Coordination Sequence:
#
# PCOD9042406 Si02
#       8
#     2   2   2   2   2   2   2   2
#     4  10  23  44  71 104 135 186 241 304 367 455
#     4  10  24  47  74 101 141 197 244 306 381 446
#     4  11  28  52  73 112 155 193 250 317 383 463
#     4   9  22  45  70 103 135 176 251 299 371 446
#     4  11  25  47  66 104 141 185 249 303 363 455
#     4  12  27  45  66 105 144 189 244 311 375 438
#     4  11  24  38  73  99 140 182 233 305 376 429
#     4  12  26  44  73 100 146 194 251 302 366 462
#
# _framework density 22.58032
#
# number of rings (size 3 to 8) (size 9 to 14) (size 15 to 20)
#    0.000    1.250    2.500    1.125    8.750    2.000 
#    9.000    0.000    0.000    0.000    0.000    0.000 
#    0.000    0.000    0.000    0.000    0.000    0.000 
#
# Total GULP energy -89194.811496 kJ/mol
# GULP energy per Si atom -5574.675719 kJ/mol
# Density = 2.252893 g / cm^3
# Si number density = 22.580320 Si / 1000 Ang^3
#
#
#
# Elastic Constant Matrix: (Units=GPa)
#
#
# Indices 1 2 3 4 5 6 
#
# 1 49.9366 28.1244 28.9194 -8.8033 -1.0836 15.9720
# 2 28.1244 91.8152 42.5103 2.0959 8.8487 39.9636
# 3 28.9194 42.5103 116.9216 14.2244 12.1112 29.2056
# 4 -8.8033 2.0959 14.2244 49.4451 12.0409 -2.7885
# 5 -1.0836 8.8487 12.1112 12.0409 33.4465 0.2739
# 6 15.9720 39.9636 29.2056 -2.7885 0.2739 43.3754
#
#
#
# Elastic Compliance Matrix: (Units=1/GPa)
#
#
# Indices 1 2 3 4 5 6 
#
# 1 0.028033 -0.006146 -0.005569 0.006264 0.002300 -0.000522
# 2 -0.006146 0.020919 -0.001419 -0.001362 -0.004597 -0.016113
# 3 -0.005569 -0.001419 0.012585 -0.004168 -0.002818 -0.005367
# 4 0.006264 -0.001362 -0.004168 0.024430 -0.006750 0.003368
# 5 0.002300 -0.004597 -0.002818 -0.006750 0.034602 0.004634
# 6 -0.000522 -0.016113 -0.005367 0.003368 0.004634 0.041894
#
#
# Mechanical properties :
#
#
# Convention : Reuss Voigt Hill
#
# Bulk Modulus (GPa) = 28.35263 50.86460 39.60862
# Shear Modulus (GPa) = 24.93930 35.86134 30.40032
#
# Velocity S-wave (km/s) = 3.32696 3.98951 3.67320
# Velocity P-wave (km/s) = 5.22894 6.61789 5.96399
#
# Compressibility (1/GPa) = 0.03527010
#
# Stress axis : x y z
#
# Youngs Moduli (GPa) = 35.67201 47.80440 79.45670
#
# Poissons Ratio (x) = 0.29380 0.44250
# Poissons Ratio (y) = 0.21924 0.11272
# Poissons Ratio (z) = 0.19866 0.06781
#
# Static dielectric constant tensor:
#      x y z
#    x 1.943060 0.002870 0.023730 
#    y 0.002870 1.839860 -0.012710 
#    z 0.023730 -0.012710 1.888260 
# 
# From -- ./inp_files/549556.got.cif
#   From: 2010.05.17/outbox.cif.g08.bks.cpg/sg2_275_cif.got.tgz:549556.got - 2010.06.03 11:33:40.
