data_PCOD9042529
_publ_section_title
;
Structure prediction by ZEFSAII (Michael W. Deem and Ramdas Pophale) SiO2 
 PCOD9042529
Probable space group: P -1
;
_chemical_formula_sum "Si O2"
_cell_formula_units_Z 16
_cell_length_a 9.364142
_cell_length_b 16.434476
_cell_length_c 11.213868
_cell_angle_alpha 146.641102
_cell_angle_beta 125.140999
_cell_angle_gamma 45.685235
_cell_volume 678.856768
_symmetry_space_group_name_H-M "P -1"
_symmetry_group_IT_number 2
_symmetry_cell_setting 'triclinic'
loop_
_space_group_symop_operation_xyz
x,y,z
-x,-y,-z
loop_
_atom_site_type_symbol
_atom_site_label
_atom_site_fract_x
_atom_site_fract_y
_atom_site_fract_z
Si Si1 0.188023 0.576951 0.945177
Si Si2 0.553894 0.944173 0.161503
Si Si3 0.462785 0.670165 0.034911
Si Si4 0.413002 0.403285 0.260094
Si Si5 0.090839 0.057016 0.775135
Si Si6 0.082651 0.116292 0.124396
Si Si7 0.768172 0.949618 0.510647
Si Si8 0.993126 0.648420 0.429691
O O1 0.317264 0.458652 0.970157
O O2 0.025445 0.765088 0.132260
O O3 0.329994 0.598704 0.945609
O O4 0.086311 0.475992 0.719515
O O5 0.677743 0.019671 0.242180
O O6 0.653122 0.916645 0.307083
O O7 0.315658 0.057949 0.189448
O O8 0.586494 0.767543 0.903430
O O9 0.469138 0.658850 0.882926
O O10 0.373954 0.861352 0.274750
O O11 0.500000 0.500000 0.500000
O O12 0.182468 0.542537 0.307320
O O13 0.064809 0.106474 0.962705
O O14 0.968701 0.956269 0.574102
O O15 0.957440 0.287837 0.346626
O O16 0.000000 0.000000 0.000000
O O17 0.838354 0.809384 0.475528
#
# Coordination Sequence:
#
# PCOD9042529 Si02
#       8
#     2   2   2   2   2   2   2   2
#     4  10  23  44  72 105 143 185 239 301 360 430
#     4  12  26  48  75 111 143 194 250 298 368 437
#     4  10  24  48  72 105 146 191 239 296 365 431
#     4  12  28  44  72 106 155 191 243 297 372 432
#     4  11  25  48  74 108 149 189 245 304 365 437
#     4  12  26  48  74 103 148 194 244 302 368 441
#     4  11  25  47  81 105 147 194 247 303 362 436
#     4  12  25  45  72 107 143 193 242 299 366 426
#
# _framework density 23.569036000000001
#
# number of rings (size 3 to 8) (size 9 to 14) (size 15 to 20)
#    0.000    0.750    2.500    3.750    7.000    4.000 
#    4.500    0.000    0.000    0.000    0.000    0.000 
#    0.000    0.000    0.000    0.000    0.000    0.000 
#
# Total GULP energy -89516.241139 kJ/mol
# GULP energy per Si atom -5594.765071 kJ/mol
# Density = 2.351539 g / cm^3
# Si number density = 23.569036 Si / 1000 Ang^3
#
#
#
# Elastic Constant Matrix: (Units=GPa)
#
#
# Indices 1 2 3 4 5 6 
#
# 1 97.1539 20.0925 39.7452 -1.0765 4.0206 -8.8857
# 2 20.0925 73.7284 8.4376 0.5221 -4.6623 -12.3245
# 3 39.7452 8.4376 136.8927 -4.7015 8.2245 0.5211
# 4 -1.0765 0.5221 -4.7015 34.3562 1.9601 3.0028
# 5 4.0206 -4.6623 8.2245 1.9601 45.0237 -5.2179
# 6 -8.8857 -12.3245 0.5211 3.0028 -5.2179 29.5440
#
#
#
# Elastic Compliance Matrix: (Units=1/GPa)
#
#
# Indices 1 2 3 4 5 6 
#
# 1 0.012507 -0.002587 -0.003465 -0.000254 -0.000429 0.002694
# 2 -0.002587 0.015549 -0.000431 -0.001081 0.002697 0.006302
# 3 -0.003465 -0.000431 0.008482 0.001302 -0.001547 -0.001777
# 4 -0.000254 -0.001081 0.001302 0.029757 -0.002079 -0.003942
# 5 -0.000429 0.002697 -0.001547 -0.002079 0.023526 0.005390
# 6 0.002694 0.006302 -0.001777 -0.003942 0.005390 0.038671
#
#
# Mechanical properties :
#
#
# Convention : Reuss Voigt Hill
#
# Bulk Modulus (GPa) = 42.42081 49.36950 45.89516
# Shear Modulus (GPa) = 33.48650 37.75143 35.61897
#
# Velocity S-wave (km/s) = 3.77342 4.00651 3.89171
# Velocity P-wave (km/s) = 6.08461 6.51115 6.30149
#
# Compressibility (1/GPa) = 0.02357333
#
# Stress axis : x y z
#
# Youngs Moduli (GPa) = 79.95709 64.31183 117.89699
#
# Poissons Ratio (x) = 0.16636 0.40851
# Poissons Ratio (y) = 0.20683 0.05076
# Poissons Ratio (z) = 0.27705 0.02769
#
# Static dielectric constant tensor:
#      x y z
#    x 1.941500 -0.036840 0.010260 
#    y -0.036840 1.928730 -0.042600 
#    z 0.010260 -0.042600 1.865670 
# 
# From -- ./inp_files/403627.got.cif
#   From: 2010.05.17/outbox.cif.g08.bks.cpg/sg2_202_cif.got.tgz:403627.got - 2010.06.03 11:33:40.
