data_PCOD9042010
_publ_section_title
;
Structure prediction by ZEFSAII (Michael W. Deem and Ramdas Pophale) SiO2 
 PCOD9042010
Probable space group: P -1
;
_chemical_formula_sum "Si O2"
_cell_formula_units_Z 14
_cell_length_a 19.758688
_cell_length_b 6.688420
_cell_length_c 13.772498
_cell_angle_alpha 70.753157
_cell_angle_beta 159.021763
_cell_angle_gamma 109.444205
_cell_volume 613.499332
_symmetry_space_group_name_H-M "P -1"
_symmetry_group_IT_number 2
_symmetry_cell_setting 'triclinic'
loop_
_space_group_symop_operation_xyz
x,y,z
-x,-y,-z
loop_
_atom_site_type_symbol
_atom_site_label
_atom_site_fract_x
_atom_site_fract_y
_atom_site_fract_z
Si Si1 0.384243 0.164498 0.423914
Si Si2 0.913632 0.488049 0.618473
Si Si3 0.762271 0.400726 0.816244
Si Si4 0.996009 0.261164 0.572689
Si Si5 0.029300 0.931644 0.939631
Si Si6 0.261391 0.125369 0.791583
Si Si7 0.664659 0.113740 0.412161
O O1 0.576049 0.247763 0.615194
O O2 0.309851 0.372831 0.342572
O O3 0.404276 0.984681 0.560826
O O4 0.214779 0.085495 0.136704
O O5 0.811789 0.681490 0.401465
O O6 0.773381 0.347616 0.524466
O O7 0.969088 0.316593 0.639695
O O8 0.103573 0.575648 0.913079
O O9 0.894919 0.296138 0.934026
O O10 0.176553 0.161196 0.780913
O O11 0.000000 0.500000 0.500000
O O12 0.826956 0.098159 0.333183
O O13 0.826584 0.962235 0.616717
O O14 0.000000 0.000000 0.000000
O O15 0.486038 0.125705 0.101392
#
# Coordination Sequence:
#
# PCOD9042010 Si02
#       7
#     2   2   2   2   2   2   2
#     4  10  24  46  68 100 132 177 238 278 340 405
#     4  11  24  43  68 103 137 176 228 281 343 401
#     4  11  24  45  73  98 133 183 226 288 340 398
#     4   9  22  44  68  96 134 178 232 278 330 408
#     4  10  23  46  65  98 136 174 225 279 339 405
#     4  10  23  44  68  98 139 181 223 280 338 402
#     4  11  24  43  66 101 140 179 222 279 343 408
#
# _framework density 22.819908999999999
#
# number of rings (size 3 to 8) (size 9 to 14) (size 15 to 20)
#    0.000    1.714    1.429    0.857    8.000    2.857 
#   15.429    0.000    0.000    0.000    0.000    0.000 
#    0.000    0.000    0.000    0.000    0.000    0.000 
#
# Total GULP energy -78125.632631 kJ/mol
# GULP energy per Si atom -5580.402331 kJ/mol
# Density = 2.276797 g / cm^3
# Si number density = 22.819909 Si / 1000 Ang^3
#
#
#
# Elastic Constant Matrix: (Units=GPa)
#
#
# Indices 1 2 3 4 5 6 
#
# 1 67.4923 43.6048 30.2926 -7.9412 -1.5575 -1.0190
# 2 43.6048 107.2866 53.1489 -3.8137 11.8849 -5.7040
# 3 30.2926 53.1489 172.7871 1.9362 12.4496 3.9397
# 4 -7.9412 -3.8137 1.9362 33.8830 7.8306 5.0408
# 5 -1.5575 11.8849 12.4496 7.8306 27.7019 -3.2130
# 6 -1.0190 -5.7040 3.9397 5.0408 -3.2130 57.3205
#
#
#
# Elastic Compliance Matrix: (Units=1/GPa)
#
#
# Indices 1 2 3 4 5 6 
#
# 1 0.021358 -0.008328 -0.001536 0.003165 0.004527 -0.000368
# 2 -0.008328 0.014780 -0.002708 0.001034 -0.005758 0.001095
# 3 -0.001536 -0.002708 0.007063 -0.000463 -0.002068 -0.000857
# 4 0.003165 0.001034 -0.000463 0.033152 -0.009809 -0.003274
# 5 0.004527 -0.005758 -0.002068 -0.009809 0.042863 0.002915
# 6 -0.000368 0.001095 -0.000857 -0.003274 0.002915 0.018058
#
#
# Mechanical properties :
#
#
# Convention : Reuss Voigt Hill
#
# Bulk Modulus (GPa) = 55.37991 66.85096 61.11544
# Shear Modulus (GPa) = 29.68461 38.48239 34.08350
#
# Velocity S-wave (km/s) = 3.61060 4.11098 3.86889
# Velocity P-wave (km/s) = 6.45777 7.20362 6.84087
#
# Compressibility (1/GPa) = 0.01805709
#
# Stress axis : x y z
#
# Youngs Moduli (GPa) = 46.82157 67.65936 141.57496
#
# Poissons Ratio (x) = 0.56348 0.21745
# Poissons Ratio (y) = 0.38994 0.38337
# Poissons Ratio (z) = 0.07191 0.18322
#
# Static dielectric constant tensor:
#      x y z
#    x 1.936460 0.017200 0.007590 
#    y 0.017200 1.863880 -0.004730 
#    z 0.007590 -0.004730 1.865160 
# 
# From -- ./inp_files/360637.got.cif
#   From: 2010.05.17/outbox.cif.g08.bks.cpg/sg2_181_cif.got.tgz:360637.got - 2010.06.03 11:33:40.
