data_PCOD9042582
_publ_section_title
;
Structure prediction by ZEFSAII (Michael W. Deem and Ramdas Pophale) SiO2 
 PCOD9042582
Probable space group: P -1
;
_chemical_formula_sum "Si O2"
_cell_formula_units_Z 16
_cell_length_a 14.345928
_cell_length_b 8.178436
_cell_length_c 9.159660
_cell_angle_alpha 76.468336
_cell_angle_beta 119.169864
_cell_angle_gamma 65.971609
_cell_volume 720.126634
_symmetry_space_group_name_H-M "P -1"
_symmetry_group_IT_number 2
_symmetry_cell_setting 'triclinic'
loop_
_space_group_symop_operation_xyz
x,y,z
-x,-y,-z
loop_
_atom_site_type_symbol
_atom_site_label
_atom_site_fract_x
_atom_site_fract_y
_atom_site_fract_z
Si Si1 0.761204 0.456696 0.404121
Si Si2 0.260419 0.926303 0.027513
Si Si3 0.742649 0.392735 0.061193
Si Si4 0.503057 0.833805 0.643330
Si Si5 0.987087 0.383084 0.773127
Si Si6 0.017138 0.701281 0.888385
Si Si7 0.488012 0.090191 0.815037
Si Si8 0.743751 0.143493 0.637576
O O1 0.749862 0.441168 0.225109
O O2 0.873961 0.478672 0.542336
O O3 0.619800 0.658611 0.316088
O O4 0.786253 0.257867 0.547072
O O5 0.370752 0.967458 0.116881
O O6 0.256227 0.825260 0.196077
O O7 0.301602 0.757859 0.966065
O O8 0.115198 0.155444 0.859582
O O9 0.892136 0.251625 0.134753
O O10 0.645125 0.613608 0.848804
O O11 0.404233 0.784039 0.524860
O O12 0.500000 0.000000 0.500000
O O13 0.439892 0.980872 0.705918
O O14 0.032402 0.521781 0.836555
O O15 0.933721 0.361207 0.892895
O O16 0.858773 0.893360 0.745263
O O17 0.500000 0.000000 0.000000
#
# Coordination Sequence:
#
# PCOD9042582 Si02
#       8
#     2   2   2   2   2   2   2   2
#     4  12  27  44  66 101 141 180 218 271 343 400
#     4  11  25  45  70  99 135 176 227 279 330 398
#     4  12  27  44  66 101 141 177 219 277 336 403
#     4  12  26  45  73  99 130 177 232 279 331 395
#     4  10  23  44  73 100 131 174 226 279 333 394
#     4  10  23  44  73 101 131 171 229 280 328 395
#     4  12  26  46  68  98 137 176 222 280 337 396
#     4  11  25  44  70 102 132 176 226 278 335 397
#
# _framework density 22.218316000000002
#
# number of rings (size 3 to 8) (size 9 to 14) (size 15 to 20)
#    0.000    0.750    2.500    3.750    8.750    6.500 
#    0.000    0.000    0.000    0.000    0.000    0.000 
#    0.000    0.000    0.000    0.000    0.000    0.000 
#
# Total GULP energy -89393.194345 kJ/mol
# GULP energy per Si atom -5587.074647 kJ/mol
# Density = 2.216775 g / cm^3
# Si number density = 22.218316 Si / 1000 Ang^3
#
#
#
# Elastic Constant Matrix: (Units=GPa)
#
#
# Indices 1 2 3 4 5 6 
#
# 1 44.3993 -9.2090 10.6256 -3.5242 10.6706 -0.6524
# 2 -9.2090 103.7503 32.6715 9.5682 3.8872 -1.4744
# 3 10.6256 32.6715 95.0729 12.3890 4.6465 -5.9052
# 4 -3.5242 9.5682 12.3890 26.5143 7.8159 2.4255
# 5 10.6706 3.8872 4.6465 7.8159 26.2168 -2.0671
# 6 -0.6524 -1.4744 -5.9052 2.4255 -2.0671 28.5177
#
#
#
# Elastic Compliance Matrix: (Units=1/GPa)
#
#
# Indices 1 2 3 4 5 6 
#
# 1 0.028670 0.003820 -0.005149 0.009218 -0.014231 -0.002028
# 2 0.003820 0.011454 -0.004138 -0.001009 -0.002239 -0.000254
# 3 -0.005149 -0.004138 0.013438 -0.006504 0.002518 0.003187
# 4 0.009218 -0.001009 -0.006504 0.048036 -0.017285 -0.006526
# 5 -0.014231 -0.002239 0.002518 -0.017285 0.049379 0.005129
# 6 -0.002028 -0.000254 0.003187 -0.006526 0.005129 0.036593
#
#
# Mechanical properties :
#
#
# Convention : Reuss Voigt Hill
#
# Bulk Modulus (GPa) = 23.45829 34.59986 29.02907
# Shear Modulus (GPa) = 23.50588 30.19203 26.84895
#
# Velocity S-wave (km/s) = 3.25614 3.69030 3.48000
# Velocity P-wave (km/s) = 4.97168 5.81070 5.40749
#
# Compressibility (1/GPa) = 0.04262886
#
# Stress axis : x y z
#
# Youngs Moduli (GPa) = 34.88019 87.30550 74.41528
#
# Poissons Ratio (x) = -0.33354 0.38315
# Poissons Ratio (y) = -0.13325 0.30793
# Poissons Ratio (z) = 0.17959 0.36127
#
# Static dielectric constant tensor:
#      x y z
#    x 1.773180 0.027170 -0.009190 
#    y 0.027170 1.722410 0.069900 
#    z -0.009190 0.069900 1.629590 
# 
# From -- ./inp_files/298349.got.cif
#   From: 2010.05.17/outbox.cif.g08.bks.cpg/sg2_150_cif.got.tgz:298349.got - 2010.06.03 11:33:40.
