data_PCOD9042955
_publ_section_title
;
Structure prediction by ZEFSAII (Michael W. Deem and Ramdas Pophale) SiO2 
 PCOD9042955
Probable space group: P -1
;
_chemical_formula_sum "Si O2"
_cell_formula_units_Z 16
_cell_length_a 13.887515
_cell_length_b 9.268142
_cell_length_c 13.710117
_cell_angle_alpha 146.461461
_cell_angle_beta 50.192329
_cell_angle_gamma 131.453895
_cell_volume 713.875453
_symmetry_space_group_name_H-M "P -1"
_symmetry_group_IT_number 2
_symmetry_cell_setting 'triclinic'
loop_
_space_group_symop_operation_xyz
x,y,z
-x,-y,-z
loop_
_atom_site_type_symbol
_atom_site_label
_atom_site_fract_x
_atom_site_fract_y
_atom_site_fract_z
Si Si1 0.323016 0.521587 0.620674
Si Si2 0.997973 0.887538 0.778890
Si Si3 0.456919 0.078615 0.968827
Si Si4 0.285794 0.031039 0.688362
Si Si5 0.404247 0.685296 0.164069
Si Si6 0.127037 0.773459 0.812828
Si Si7 0.551358 0.738315 0.457110
Si Si8 0.736976 0.552237 0.701769
O O1 0.186386 0.537562 0.675485
O O2 0.422202 0.526441 0.468731
O O3 0.334615 0.295297 0.562689
O O4 0.379993 0.806800 0.804722
O O5 0.889284 0.713101 0.677897
O O6 0.146729 0.019846 0.720737
O O7 0.024428 0.712613 0.755985
O O8 0.936273 0.108198 0.991094
O O9 0.587078 0.224419 0.902451
O O10 0.358602 0.262576 0.146723
O O11 0.500000 0.000000 0.000000
O O12 0.246546 0.017003 0.820151
O O13 0.303608 0.732275 0.490216
O O14 0.399356 0.253053 0.681285
O O15 0.277039 0.532149 0.221954
O O16 0.463269 0.963847 0.344509
O O17 0.500000 0.500000 0.000000
#
# Coordination Sequence:
#
# PCOD9042955 Si02
#       8
#     2   2   2   2   2   2   2   2
#     4  10  19  36  54  75 110 151 163 216 282 317
#     4   9  18  35  55  78 104 143 181 218 263 305
#     4  10  20  34  51  79 109 138 178 213 268 329
#     4   9  19  33  54  86 101 133 186 227 246 314
#     4   8  17  33  53  77 103 139 172 216 262 311
#     4   9  19  34  56  76 107 140 182 218 258 314
#     4   9  19  33  54  79 110 137 172 217 271 317
#     4  10  17  33  60  74 107 140 175 220 267 305
#
# _framework density 22.412873000000001
#
# number of rings (size 3 to 8) (size 9 to 14) (size 15 to 20)
#    0.750    2.000    1.250    0.375    0.000    3.500 
#    2.250    0.625    2.750    1.500    0.000    0.000 
#    0.000    0.000    0.000    0.000    0.000    0.000 
#
# Total GULP energy -89177.695138 kJ/mol
# GULP energy per Si atom -5573.605946 kJ/mol
# Density = 2.236186 g / cm^3
# Si number density = 22.412873 Si / 1000 Ang^3
#
#
#
# Elastic Constant Matrix: (Units=GPa)
#
#
# Indices 1 2 3 4 5 6 
#
# 1 81.9953 16.2754 7.4561 -0.4532 -16.6738 -1.2240
# 2 16.2754 66.4980 17.0651 -17.9458 -1.1737 -11.1201
# 3 7.4561 17.0651 94.6915 -4.7431 -3.2841 5.5126
# 4 -0.4532 -17.9458 -4.7431 23.2092 -2.6619 1.1229
# 5 -16.6738 -1.1737 -3.2841 -2.6619 37.7434 -2.9004
# 6 -1.2240 -11.1201 5.5126 1.1229 -2.9004 33.0350
#
#
#
# Elastic Compliance Matrix: (Units=1/GPa)
#
#
# Indices 1 2 3 4 5 6 
#
# 1 0.014193 -0.003876 -0.000309 -0.002092 0.005965 -0.000132
# 2 -0.003876 0.022513 -0.003355 0.016333 0.000422 0.007476
# 3 -0.000309 -0.003355 0.011378 -0.000071 0.000514 -0.002992
# 4 -0.002092 0.016333 -0.000071 0.055911 0.003818 0.003867
# 5 0.005965 0.000422 0.000514 0.003818 0.029668 0.002752
# 6 -0.000132 0.007476 -0.002992 0.003867 0.002752 0.033392
#
#
# Mechanical properties :
#
#
# Convention : Reuss Voigt Hill
#
# Bulk Modulus (GPa) = 30.29913 36.08645 33.19279
# Shear Modulus (GPa) = 25.88858 32.29008 29.08933
#
# Velocity S-wave (km/s) = 3.40233 3.79976 3.60653
# Velocity P-wave (km/s) = 5.38353 5.94867 5.67314
#
# Compressibility (1/GPa) = 0.03300425
#
# Stress axis : x y z
#
# Youngs Moduli (GPa) = 70.45902 44.41887 87.88926
#
# Poissons Ratio (x) = 0.17216 0.02718
# Poissons Ratio (y) = 0.27309 0.29483
# Poissons Ratio (z) = 0.02179 0.14900
#
# Static dielectric constant tensor:
#      x y z
#    x 1.895290 0.008050 0.028240 
#    y 0.008050 1.846060 0.007410 
#    z 0.028240 0.007410 1.875320 
# 
# From -- ./inp_files/527914.got.cif
#   From: 2010.05.17/outbox.cif.g08.bks.cpg/sg2_264_cif.got.tgz:527914.got - 2010.06.03 11:33:40.
