data_PCOD9042316
_publ_section_title
;
Structure prediction by ZEFSAII (Michael W. Deem and Ramdas Pophale) SiO2 
 PCOD9042316
Probable space group: P -1
;
_chemical_formula_sum "Si O2"
_cell_formula_units_Z 15
_cell_length_a 8.620489
_cell_length_b 11.485661
_cell_length_c 11.719320
_cell_angle_alpha 64.548755
_cell_angle_beta 40.583315
_cell_angle_gamma 72.394729
_cell_volume 681.047103
_symmetry_space_group_name_H-M "P -1"
_symmetry_group_IT_number 2
_symmetry_cell_setting 'triclinic'
loop_
_space_group_symop_operation_xyz
x,y,z
-x,-y,-z
loop_
_atom_site_type_symbol
_atom_site_label
_atom_site_fract_x
_atom_site_fract_y
_atom_site_fract_z
Si Si1 0.000000 0.000000 0.500000
Si Si2 0.322607 0.419071 0.870203
Si Si3 0.857984 0.651358 0.242521
Si Si4 0.337284 0.126885 0.403808
Si Si5 0.979978 0.269638 0.300949
Si Si6 0.467542 0.146933 0.588030
Si Si7 0.830938 0.442762 0.518891
Si Si8 0.600599 0.383235 0.069303
O O1 0.927866 0.871756 0.667598
O O2 0.934476 0.913154 0.456281
O O3 0.207678 0.417080 0.810892
O O4 0.592221 0.370291 0.729585
O O5 0.358363 0.556142 0.854031
O O6 0.147181 0.337933 0.085416
O O7 0.741201 0.789043 0.252291
O O8 0.745340 0.565189 0.443169
O O9 0.140394 0.654529 0.103013
O O10 0.390275 0.138648 0.503050
O O11 0.437176 0.254723 0.230897
O O12 0.462962 0.995077 0.347711
O O13 0.706352 0.237535 0.429666
O O14 0.961362 0.358344 0.386991
O O15 0.000000 0.500000 0.500000
O O16 0.500000 0.500000 0.000000
#
# Coordination Sequence:
#
# PCOD9042316 Si02
#       8
#     1   2   2   2   2   2   2   2
#     4  10  24  44  72  94 134 196 228 292 364 428
#     4  12  25  43  73 104 144 188 237 294 363 424
#     4  12  25  43  71 107 144 187 238 297 358 431
#     4  10  23  44  70  95 138 183 237 290 358 423
#     4  11  24  47  71 103 143 186 244 291 362 424
#     4  10  23  45  70 100 133 189 237 295 350 420
#     4  12  27  42  68 106 150 187 236 299 358 432
#     4  12  25  42  68 105 142 184 232 294 362 426
#
# _framework density 22.024906999999999
#
# number of rings (size 3 to 8) (size 9 to 14) (size 15 to 20)
#    0.000    0.800    2.667    4.000    5.600    0.533 
#    0.000    0.667    0.000    0.000    0.000    0.000 
#    0.000    0.000    0.000    0.000    0.000    0.000 
#
# Total GULP energy -83598.090592 kJ/mol
# GULP energy per Si atom -5573.206039 kJ/mol
# Density = 2.197478 g / cm^3
# Si number density = 22.024907 Si / 1000 Ang^3
#
#
#
# Elastic Constant Matrix: (Units=GPa)
#
#
# Indices 1 2 3 4 5 6 
#
# 1 110.4289 15.3780 47.6905 -9.2940 -1.9783 31.1268
# 2 15.3780 88.3889 46.4561 -17.7611 4.1371 4.8857
# 3 47.6905 46.4561 112.7938 -2.9038 -7.0300 4.8531
# 4 -9.2940 -17.7611 -2.9038 37.5236 1.2601 -7.0757
# 5 -1.9783 4.1371 -7.0300 1.2601 31.1096 -0.2449
# 6 31.1268 4.8857 4.8531 -7.0757 -0.2449 40.2240
#
#
#
# Elastic Compliance Matrix: (Units=1/GPa)
#
#
# Indices 1 2 3 4 5 6 
#
# 1 0.014749 0.001953 -0.006596 0.002122 -0.000981 -0.010488
# 2 0.001953 0.016901 -0.007794 0.007780 -0.004210 -0.001281
# 3 -0.006596 -0.007794 0.014873 -0.003624 0.004153 0.003644
# 4 0.002122 0.007780 -0.003624 0.031307 -0.002960 0.003339
# 5 -0.000981 -0.004210 0.004153 -0.002960 0.033704 0.000454
# 6 -0.010488 -0.001281 0.003644 0.003339 0.000454 0.033282
#
#
# Mechanical properties :
#
#
# Convention : Reuss Voigt Hill
#
# Bulk Modulus (GPa) = 46.18851 58.96232 52.57542
# Shear Modulus (GPa) = 28.26334 35.24392 31.75363
#
# Velocity S-wave (km/s) = 3.58613 4.00457 3.80111
# Velocity P-wave (km/s) = 6.17767 6.94341 6.57170
#
# Compressibility (1/GPa) = 0.02165041
#
# Stress axis : x y z
#
# Youngs Moduli (GPa) = 67.79973 59.16653 67.23505
#
# Poissons Ratio (x) = -0.11552 0.44346
# Poissons Ratio (y) = -0.13238 0.52401
# Poissons Ratio (z) = 0.44718 0.46113
#
# Static dielectric constant tensor:
#      x y z
#    x 1.939970 -0.067520 -0.034150 
#    y -0.067520 1.820640 0.022030 
#    z -0.034150 0.022030 1.803650 
# 
# From -- ./inp_files/389258.got.cif
#   From: 2010.05.17/outbox.cif.g08.bks.cpg/sg2_195_cif.got.tgz:389258.got - 2010.06.03 11:33:40.
