data_PCOD9042638
_publ_section_title
;
Structure prediction by ZEFSAII (Michael W. Deem and Ramdas Pophale) SiO2 
 PCOD9042638
Probable space group: P -1
;
_chemical_formula_sum "Si O2"
_cell_formula_units_Z 10
_cell_length_a 5.094686
_cell_length_b 10.334885
_cell_length_c 10.401722
_cell_angle_alpha 57.018721
_cell_angle_beta 108.134947
_cell_angle_gamma 121.430782
_cell_volume 391.724338
_symmetry_space_group_name_H-M "P -1"
_symmetry_group_IT_number 2
_symmetry_cell_setting 'triclinic'
loop_
_space_group_symop_operation_xyz
x,y,z
-x,-y,-z
loop_
_atom_site_type_symbol
_atom_site_label
_atom_site_fract_x
_atom_site_fract_y
_atom_site_fract_z
Si Si1 0.344419 0.901279 0.832570
Si Si2 0.594844 0.631710 0.562212
Si Si3 0.238242 0.425349 0.107966
Si Si4 0.262653 0.152070 0.879591
Si Si5 0.166993 0.820148 0.393421
O O1 0.987254 0.780002 0.820245
O O2 0.370944 0.067557 0.826122
O O3 0.573241 0.986169 0.701706
O O4 0.470233 0.795754 0.001965
O O5 0.500000 0.500000 0.500000
O O6 0.624278 0.543240 0.745359
O O7 0.346423 0.704999 0.499759
O O8 0.931874 0.783183 0.495205
O O9 0.500000 0.500000 0.000000
O O10 0.000000 0.500000 0.000000
O O11 0.064649 0.236825 0.735118
O O12 0.000000 0.000000 0.000000
#
# Coordination Sequence:
#
# PCOD9042638 Si02
#       5
#     2   2   2   2   2
#     4  10  23  44  73 107 145 188 249 293 364 427
#     4  12  28  48  75 108 149 196 239 301 370 430
#     4  12  31  50  72 106 150 198 239 302 368 435
#     4   9  20  38  73 107 140 188 234 298 355 429
#     4  11  23  46  75 107 140 189 246 302 355 429
#
# _framework density 25.528155000000002
#
# number of rings (size 3 to 8) (size 9 to 14) (size 15 to 20)
#    0.000    1.200    2.000    1.800    8.400    4.800 
#    0.000    0.000    0.000    0.000    0.000    0.000 
#    0.000    0.000    0.000    0.000    0.000    0.000 
#
# Total GULP energy -55921.017682 kJ/mol
# GULP energy per Si atom -5592.101768 kJ/mol
# Density = 2.547005 g / cm^3
# Si number density = 25.528155 Si / 1000 Ang^3
#
#
#
# Elastic Constant Matrix: (Units=GPa)
#
#
# Indices 1 2 3 4 5 6 
#
# 1 193.4976 27.9494 84.3363 5.4226 11.0835 21.1335
# 2 27.9494 95.2322 27.7878 12.2141 -7.7995 35.8637
# 3 84.3363 27.7878 208.8944 18.5680 6.2116 10.1768
# 4 5.4226 12.2141 18.5680 37.1015 9.7533 -3.2992
# 5 11.0835 -7.7995 6.2116 9.7533 74.4637 -13.4020
# 6 21.1335 35.8637 10.1768 -3.2992 -13.4020 35.1474
#
#
#
# Elastic Compliance Matrix: (Units=1/GPa)
#
#
# Indices 1 2 3 4 5 6 
#
# 1 0.006776 0.000089 -0.002534 0.000299 -0.001546 -0.003993
# 2 0.000089 0.019399 -0.000923 -0.007604 -0.000602 -0.020524
# 3 -0.002534 -0.000923 0.006113 -0.002385 0.000180 0.000540
# 4 0.000299 -0.007604 -0.002385 0.032309 -0.003049 0.010140
# 5 -0.001546 -0.000602 0.000180 -0.003049 0.015244 0.007018
# 6 -0.003993 -0.020524 0.000540 0.010140 0.007018 0.055267
#
#
# Mechanical properties :
#
#
# Convention : Reuss Voigt Hill
#
# Bulk Modulus (GPa) = 39.13338 86.41901 62.77619
# Shear Modulus (GPa) = 33.25367 53.17925 43.21646
#
# Velocity S-wave (km/s) = 3.61311 4.56912 4.11894
# Velocity P-wave (km/s) = 5.72441 7.85886 6.87497
#
# Compressibility (1/GPa) = 0.02555363
#
# Stress axis : x y z
#
# Youngs Moduli (GPa) = 147.58848 51.54918 163.58514
#
# Poissons Ratio (x) = -0.00461 0.41445
# Poissons Ratio (y) = -0.01320 0.15097
# Poissons Ratio (z) = 0.37392 0.04757
#
# Static dielectric constant tensor:
#      x y z
#    x 2.071140 -0.045670 -0.041540 
#    y -0.045670 2.161240 -0.008570 
#    z -0.041540 -0.008570 2.061680 
# 
# From -- ./inp_files/361765.got.cif
#   From: 2010.05.17/outbox.cif.g08.bks.cpg/sg2_181_cif.got.tgz:361765.got - 2010.06.03 11:33:40.
