data_PCOD9042859
_publ_section_title
;
Structure prediction by ZEFSAII (Michael W. Deem and Ramdas Pophale) SiO2 
 PCOD9042859
Probable space group: P -1
;
_chemical_formula_sum "Si O2"
_cell_formula_units_Z 14
_cell_length_a 15.113427
_cell_length_b 12.646017
_cell_length_c 12.556706
_cell_angle_alpha 46.269073
_cell_angle_beta 142.911252
_cell_angle_gamma 151.317407
_cell_volume 694.320020
_symmetry_space_group_name_H-M "P -1"
_symmetry_group_IT_number 2
_symmetry_cell_setting 'triclinic'
loop_
_space_group_symop_operation_xyz
x,y,z
-x,-y,-z
loop_
_atom_site_type_symbol
_atom_site_label
_atom_site_fract_x
_atom_site_fract_y
_atom_site_fract_z
Si Si1 0.138285 0.832178 0.529543
Si Si2 0.105762 0.291479 0.820122
Si Si3 0.453871 0.865737 0.446404
Si Si4 0.051826 0.488246 0.815308
Si Si5 0.693074 0.532324 0.783878
Si Si6 0.316863 0.237153 0.198395
Si Si7 0.805933 0.839821 0.509530
O O1 0.111650 0.695407 0.692279
O O2 0.932914 0.679716 0.355824
O O3 0.358091 0.964376 0.579208
O O4 0.160798 0.009262 0.476544
O O5 0.105251 0.426096 0.807053
O O6 0.300764 0.324746 0.016308
O O7 0.885256 0.029626 0.812873
O O8 0.478681 0.714910 0.612145
O O9 0.209895 0.715067 0.275178
O O10 0.500000 0.000000 0.500000
O O11 0.187113 0.521674 0.019510
O O12 0.716146 0.673043 0.799950
O O13 0.796967 0.678433 0.675052
O O14 0.433993 0.317028 0.664204
O O15 0.000000 0.000000 0.500000
#
# Coordination Sequence:
#
# PCOD9042859 Si02
#       7
#     2   2   2   2   2   2   2
#     4  11  23  40  63  94 131 160 209 264 306 369
#     4   9  17  35  60  91 127 161 196 253 307 370
#     4  11  21  36  62  94 131 167 198 246 323 376
#     4  11  23  38  66  96 131 163 200 257 324 376
#     4  10  23  45  65  91 124 166 215 262 304 368
#     4   9  17  35  62  89 124 163 203 248 306 370
#     4  11  25  44  69  88 120 169 221 260 304 365
#
# _framework density 20.163612000000001
#
# number of rings (size 3 to 8) (size 9 to 14) (size 15 to 20)
#    0.000    1.714    5.714    0.429    2.000    1.714 
#    0.000    2.143    0.000    0.000    0.000    0.000 
#    0.000    0.000    0.000    0.000    0.000    0.000 
#
# Total GULP energy -78147.645923 kJ/mol
# GULP energy per Si atom -5581.974709 kJ/mol
# Density = 2.011772 g / cm^3
# Si number density = 20.163612 Si / 1000 Ang^3
#
#
#
# Elastic Constant Matrix: (Units=GPa)
#
#
# Indices 1 2 3 4 5 6 
#
# 1 54.0726 34.6446 10.8445 -14.8035 -2.4130 28.7203
# 2 34.6446 150.9107 46.9790 -54.2684 21.5081 38.4441
# 3 10.8445 46.9790 188.4456 -21.0657 4.5606 29.3698
# 4 -14.8035 -54.2684 -21.0657 46.1580 -22.1151 -6.8592
# 5 -2.4130 21.5081 4.5606 -22.1151 24.9788 -3.8892
# 6 28.7203 38.4441 29.3698 -6.8592 -3.8892 31.6841
#
#
#
# Elastic Compliance Matrix: (Units=1/GPa)
#
#
# Indices 1 2 3 4 5 6 
#
# 1 0.045503 0.007116 0.005547 0.023074 0.010089 -0.048788
# 2 0.007116 0.018852 0.001311 0.020111 -0.002096 -0.026443
# 3 0.005547 0.001311 0.007083 0.005174 0.000832 -0.011962
# 4 0.023074 0.020111 0.005174 0.070819 0.042056 -0.029619
# 5 0.010089 -0.002096 0.000832 0.042056 0.081728 0.011764
# 6 -0.048788 -0.026443 -0.011962 -0.029619 0.011764 0.113990
#
#
# Mechanical properties :
#
#
# Convention : Reuss Voigt Hill
#
# Bulk Modulus (GPa) = 10.06199 64.26279 37.16239
# Shear Modulus (GPa) = 14.57061 40.62822 27.59941
#
# Velocity S-wave (km/s) = 2.69107 4.49366 3.70371
# Velocity P-wave (km/s) = 3.82843 7.67228 6.06303
#
# Compressibility (1/GPa) = 0.09938390
#
# Stress axis : x y z
#
# Youngs Moduli (GPa) = 21.97661 53.04561 141.18137
#
# Poissons Ratio (x) = -0.37746 -0.78307
# Poissons Ratio (y) = -0.15638 -0.18507
# Poissons Ratio (z) = -0.12189 -0.06953
#
# Static dielectric constant tensor:
#      x y z
#    x 1.726920 0.039160 -0.017570 
#    y 0.039160 1.725260 -0.013150 
#    z -0.017570 -0.013150 1.769190 
# 
# From -- ./inp_files/203531.got.cif
#   From: 2010.05.17/outbox.cif.g08.bks.cpg/sg2_102_cif.got.tgz:203531.got - 2010.06.03 11:33:40.
