data_PCOD9042641
_publ_section_title
;
Structure prediction by ZEFSAII (Michael W. Deem and Ramdas Pophale) SiO2 
 PCOD9042641
Probable space group: P -1
;
_chemical_formula_sum "Si O2"
_cell_formula_units_Z 13
_cell_length_a 8.591919
_cell_length_b 13.510528
_cell_length_c 6.420352
_cell_angle_alpha 76.737217
_cell_angle_beta 78.276833
_cell_angle_gamma 40.067796
_cell_volume 466.484856
_symmetry_space_group_name_H-M "P -1"
_symmetry_group_IT_number 2
_symmetry_cell_setting 'triclinic'
loop_
_space_group_symop_operation_xyz
x,y,z
-x,-y,-z
loop_
_atom_site_type_symbol
_atom_site_label
_atom_site_fract_x
_atom_site_fract_y
_atom_site_fract_z
Si Si1 0.652894 0.690023 0.132398
Si Si2 0.451452 0.883428 0.462727
Si Si3 0.263230 0.675045 0.541518
Si Si4 0.617543 0.625723 0.739481
Si Si5 0.189736 0.166753 0.143918
Si Si6 0.936095 0.923365 0.158329
Si Si7 0.000000 0.500000 0.500000
O O1 0.435779 0.823400 0.285364
O O2 0.863916 0.543672 0.285540
O O3 0.593782 0.646349 0.978611
O O4 0.732850 0.760000 0.984953
O O5 0.688950 0.706830 0.576664
O O6 0.398805 0.018447 0.312394
O O7 0.273234 0.957753 0.668285
O O8 0.500000 0.500000 0.500000
O O9 0.379257 0.699826 0.662220
O O10 0.147466 0.776828 0.315887
O O11 0.050886 0.724341 0.705233
O O12 0.861919 0.461225 0.666407
O O13 0.145377 0.116109 0.979659
O O14 0.000000 0.000000 0.000000
#
# Coordination Sequence:
#
# PCOD9042641 Si02
#       7
#     2   2   2   2   2   2   1
#     4  11  25  46  72 110 144 197 242 304 367 432
#     4  10  23  44  73 108 143 188 242 301 359 441
#     4  11  28  48  72 109 148 192 247 305 366 442
#     4  11  24  45  74 100 146 194 243 299 369 432
#     4  11  25  44  76 109 145 191 244 306 363 436
#     4  11  24  47  74 108 150 194 244 302 371 436
#     4  10  26  44  70  98 148 194 246 288 358 442
#
# _framework density 27.867998
#
# number of rings (size 3 to 8) (size 9 to 14) (size 15 to 20)
#    0.000    1.231    0.000    3.692    4.308   11.692 
#    5.538    2.308    0.000    0.000    0.000    0.000 
#    0.000    0.000    0.000    0.000    0.000    0.000 
#
# Total GULP energy -72623.951919 kJ/mol
# GULP energy per Si atom -5586.457840 kJ/mol
# Density = 2.780457 g / cm^3
# Si number density = 27.867998 Si / 1000 Ang^3
#
#
#
# Elastic Constant Matrix: (Units=GPa)
#
#
# Indices 1 2 3 4 5 6 
#
# 1 123.0888 47.1011 87.4755 5.7948 0.3796 1.8494
# 2 47.1011 168.0532 91.9080 -10.4040 5.2463 -9.5742
# 3 87.4755 91.9080 265.7594 -1.2302 13.0130 2.1486
# 4 5.7948 -10.4040 -1.2302 61.5516 -26.3085 -0.4710
# 5 0.3796 5.2463 13.0130 -26.3085 61.5226 0.5856
# 6 1.8494 -9.5742 2.1486 -0.4710 0.5856 36.3424
#
#
#
# Elastic Compliance Matrix: (Units=1/GPa)
#
#
# Indices 1 2 3 4 5 6 
#
# 1 0.010976 -0.001512 -0.003098 -0.001282 0.000176 -0.000793
# 2 -0.001512 0.007816 -0.002241 0.001650 0.000501 0.002282
# 3 -0.003098 -0.002241 0.005619 -0.000484 -0.001178 -0.000752
# 4 -0.001282 0.001650 -0.000484 0.020344 0.008663 0.000653
# 5 0.000176 0.000501 -0.001178 0.008663 0.020164 -0.000020
# 6 -0.000793 0.002282 -0.000752 0.000653 -0.000020 0.028211
#
#
# Mechanical properties :
#
#
# Convention : Reuss Voigt Hill
#
# Bulk Modulus (GPa) = 93.37289 112.20785 102.79037
# Shear Modulus (GPa) = 45.28877 53.91110 49.59993
#
# Velocity S-wave (km/s) = 4.03565 4.40309 4.22336
# Velocity P-wave (km/s) = 7.43595 8.13640 7.79405
#
# Compressibility (1/GPa) = 0.01070975
#
# Stress axis : x y z
#
# Youngs Moduli (GPa) = 91.10576 127.93798 177.96774
#
# Poissons Ratio (x) = 0.19345 0.55136
# Poissons Ratio (y) = 0.13776 0.39878
# Poissons Ratio (z) = 0.28225 0.28668
#
# Static dielectric constant tensor:
#      x y z
#    x 2.326310 -0.060600 -0.037050 
#    y -0.060600 2.834960 0.112330 
#    z -0.037050 0.112330 2.131410 
# 
# From -- ./inp_files/38684.got.cif
#   From: 2010.05.17/outbox.cif.g08.bks.cpg/sg2_20_cif.got.tgz:38684.got - 2010.06.03 11:33:40.
