data_PCOD9042456
_publ_section_title
;
Structure prediction by ZEFSAII (Michael W. Deem and Ramdas Pophale) SiO2 
 PCOD9042456
Probable space group: P -1
;
_chemical_formula_sum "Si O2"
_cell_formula_units_Z 16
_cell_length_a 11.626651
_cell_length_b 18.627597
_cell_length_c 7.833115
_cell_angle_alpha 102.717468
_cell_angle_beta 69.155064
_cell_angle_gamma 42.977486
_cell_volume 709.724468
_symmetry_space_group_name_H-M "P -1"
_symmetry_group_IT_number 2
_symmetry_cell_setting 'triclinic'
loop_
_space_group_symop_operation_xyz
x,y,z
-x,-y,-z
loop_
_atom_site_type_symbol
_atom_site_label
_atom_site_fract_x
_atom_site_fract_y
_atom_site_fract_z
Si Si1 0.789079 0.738407 0.565995
Si Si2 0.959408 0.891271 0.103157
Si Si3 0.818496 0.584381 0.967919
Si Si4 0.881982 0.712145 0.874869
Si Si5 0.738021 0.166091 0.458698
Si Si6 0.322281 0.054675 0.430845
Si Si7 0.502562 0.587125 0.546720
Si Si8 0.785631 0.983454 0.872334
O O1 0.856595 0.744522 0.707255
O O2 0.749179 0.822079 0.489184
O O3 0.026086 0.559691 0.294368
O O4 0.514679 0.840453 0.807551
O O5 0.823434 0.912884 0.327267
O O6 0.831025 0.041104 0.252262
O O7 0.917455 0.883025 0.927405
O O8 0.279011 0.725631 0.880177
O O9 0.821250 0.658579 0.903852
O O10 0.509503 0.727123 0.237061
O O11 0.000000 0.500000 0.000000
O O12 0.185779 0.561573 0.684972
O O13 0.642905 0.878823 0.187167
O O14 0.601701 0.303169 0.490245
O O15 0.016816 0.055934 0.313260
O O16 0.251443 0.050744 0.286765
O O17 0.500000 0.500000 0.500000
#
# Coordination Sequence:
#
# PCOD9042456 Si02
#       8
#     2   2   2   2   2   2   2   2
#     4  11  27  44  70  99 140 185 227 290 348 405
#     4  11  25  46  72 101 138 188 228 282 352 411
#     4  12  24  45  69 105 134 179 235 287 339 417
#     4  11  24  47  69  98 146 175 232 285 348 409
#     4  11  24  45  69 102 141 181 234 285 342 422
#     4  11  26  47  70 105 136 187 235 281 347 420
#     4  11  26  41  72 106 138 181 225 287 352 402
#     4  10  23  44  71  96 141 178 233 281 345 408
#
# _framework density 22.543959000000001
#
# number of rings (size 3 to 8) (size 9 to 14) (size 15 to 20)
#    0.000    1.000    2.500    4.125   10.500    2.000 
#    0.000    1.250    0.000    0.000    0.000    0.000 
#    0.000    0.000    0.000    0.000    0.000    0.000 
#
# Total GULP energy -89354.932376 kJ/mol
# GULP energy per Si atom -5584.683273 kJ/mol
# Density = 2.249265 g / cm^3
# Si number density = 22.543959 Si / 1000 Ang^3
#
#
#
# Elastic Constant Matrix: (Units=GPa)
#
#
# Indices 1 2 3 4 5 6 
#
# 1 66.9791 27.0726 2.2406 -22.4758 -49.8738 48.3148
# 2 27.0726 109.8026 20.9505 -4.1226 -14.2324 37.7102
# 3 2.2406 20.9505 59.1976 -30.6686 -75.5365 73.4724
# 4 -22.4758 -4.1226 -30.6686 29.8877 -18.2784 22.7231
# 5 -49.8738 -14.2324 -75.5365 -18.2784 26.8177 15.5764
# 6 48.3148 37.7102 73.4724 22.7231 15.5764 9.1846
#
#
#
# Elastic Compliance Matrix: (Units=1/GPa)
#
#
# Indices 1 2 3 4 5 6 
#
# 1 0.012383 -0.003558 -0.006340 -0.001501 -0.000447 0.004659
# 2 -0.003558 0.011795 -0.001998 -0.000963 -0.003414 -0.005557
# 3 -0.006340 -0.001998 0.006156 -0.004237 -0.001779 0.005816
# 4 -0.001501 -0.000963 -0.004237 0.019693 -0.005483 0.006317
# 5 -0.000447 -0.003414 -0.001779 -0.005483 0.016166 0.016752
# 6 0.004659 -0.005557 0.005816 0.006317 0.016752 0.016616
#
#
# Mechanical properties :
#
#
# Convention : Reuss Voigt Hill
#
# Bulk Modulus (GPa) = 152.88610 37.38965 95.13787
# Shear Modulus (GPa) = 45.96307 25.55904 35.76105
#
# Velocity S-wave (km/s) = 4.52023 3.37076 3.98714
# Velocity P-wave (km/s) = 9.75743 5.63654 7.96800
#
# Compressibility (1/GPa) = 0.00654082
#
# Stress axis : x y z
#
# Youngs Moduli (GPa) = 80.75738 84.77870 162.45184
#
# Poissons Ratio (x) = 0.30163 1.03000
# Poissons Ratio (y) = 0.28732 0.32465
# Poissons Ratio (z) = 0.51203 0.16942
#
# Static dielectric constant tensor:
#      x y z
#    x 1.900730 -0.045210 -0.015510 
#    y -0.045210 1.878250 -0.004150 
#    z -0.015510 -0.004150 1.853270 
# 
# From -- ./inp_files/279507.got.cif
#   From: 2010.05.17/outbox.cif.g08.bks.cpg/sg2_140_cif.got.tgz:279507.got - 2010.06.03 11:33:40.
