data_PCOD9042321
_publ_section_title
;
Structure prediction by ZEFSAII (Michael W. Deem and Ramdas Pophale) SiO2 
 PCOD9042321
Probable space group: P -1
;
_chemical_formula_sum "Si O2"
_cell_formula_units_Z 14
_cell_length_a 26.325623
_cell_length_b 7.954264
_cell_length_c 12.247867
_cell_angle_alpha 39.429249
_cell_angle_beta 159.082628
_cell_angle_gamma 145.676559
_cell_volume 516.300420
_symmetry_space_group_name_H-M "P -1"
_symmetry_group_IT_number 2
_symmetry_cell_setting 'triclinic'
loop_
_space_group_symop_operation_xyz
x,y,z
-x,-y,-z
loop_
_atom_site_type_symbol
_atom_site_label
_atom_site_fract_x
_atom_site_fract_y
_atom_site_fract_z
Si Si1 0.253908 0.088444 0.646542
Si Si2 0.970230 0.486042 0.816305
Si Si3 0.719499 0.955990 0.850013
Si Si4 0.267038 0.208409 0.371335
Si Si5 0.504880 0.933343 0.229096
Si Si6 0.325231 0.405116 0.850643
Si Si7 0.091631 0.300852 0.796652
O O1 0.341561 0.263240 0.841908
O O2 0.291149 0.258543 0.521944
O O3 0.316001 0.835046 0.893235
O O4 0.070259 0.993934 0.346466
O O5 0.866668 0.145088 0.735760
O O6 0.854821 0.633263 0.480718
O O7 0.000000 0.500000 0.000000
O O8 0.146110 0.712601 0.013781
O O9 0.591064 0.971428 0.499754
O O10 0.647179 0.766110 0.908195
O O11 0.815385 0.804359 0.051483
O O12 0.427825 0.252686 0.610955
O O13 0.201703 0.395645 0.077378
O O14 0.575134 0.243615 0.147947
O O15 0.000000 0.500000 0.500000
#
# Coordination Sequence:
#
# PCOD9042321 Si02
#       7
#     2   2   2   2   2   2   2
#     4  12  24  43  65 104 139 172 225 278 345 398
#     4  11  18  41  74  94 125 180 227 275 324 399
#     4  11  23  45  72  99 134 179 234 271 338 401
#     4  10  23  44  70  96 134 182 222 274 348 395
#     4  10  24  46  71  93 138 185 226 271 333 417
#     4  11  23  41  70 100 134 181 228 275 333 402
#     4  11  25  42  65 106 136 170 229 288 334 394
#
# _framework density 27.115994000000001
#
# number of rings (size 3 to 8) (size 9 to 14) (size 15 to 20)
#    0.000    1.143    5.714    1.714    4.000    0.571 
#    5.143    1.429    0.000    0.000    0.000    0.000 
#    0.000    0.000    0.000    0.000    0.000    0.000 
#
# Total GULP energy -78350.702486 kJ/mol
# GULP energy per Si atom -5596.478749 kJ/mol
# Density = 2.705428 g / cm^3
# Si number density = 27.115994 Si / 1000 Ang^3
#
#
#
# Elastic Constant Matrix: (Units=GPa)
#
#
# Indices 1 2 3 4 5 6 
#
# 1 134.2884 14.7563 62.1016 -3.3408 -24.2235 0.5038
# 2 14.7563 52.7546 27.2696 0.0482 -1.6058 3.2777
# 3 62.1016 27.2696 162.3466 -27.6809 -3.8891 -2.8332
# 4 -3.3408 0.0482 -27.6809 39.1107 1.7860 -2.1378
# 5 -24.2235 -1.6058 -3.8891 1.7860 51.8074 -16.2034
# 6 0.5038 3.2777 -2.8332 -2.1378 -16.2034 20.8175
#
#
#
# Elastic Compliance Matrix: (Units=1/GPa)
#
#
# Indices 1 2 3 4 5 6 
#
# 1 0.010332 -0.000903 -0.003937 -0.001967 0.005698 0.003589
# 2 -0.000903 0.021541 -0.003941 -0.003119 -0.001672 -0.005528
# 3 -0.003937 -0.003941 0.009452 0.006507 -0.000849 0.002009
# 4 -0.001967 -0.003119 0.006507 0.030258 -0.000203 0.004373
# 5 0.005698 -0.001672 -0.000849 -0.000203 0.028886 0.022473
# 6 0.003589 -0.005528 0.002009 0.004373 0.022473 0.067034
#
#
# Mechanical properties :
#
#
# Convention : Reuss Voigt Hill
#
# Bulk Modulus (GPa) = 42.08227 61.96051 52.02139
# Shear Modulus (GPa) = 25.90870 38.69791 32.30330
#
# Velocity S-wave (km/s) = 3.09443 3.78183 3.45527
# Velocity P-wave (km/s) = 5.32169 6.47838 5.92831
#
# Compressibility (1/GPa) = 0.02376298
#
# Stress axis : x y z
#
# Youngs Moduli (GPa) = 96.78880 46.42335 105.80097
#
# Poissons Ratio (x) = 0.04191 0.41651
# Poissons Ratio (y) = 0.08738 0.41698
# Poissons Ratio (z) = 0.38103 0.18296
#
# Static dielectric constant tensor:
#      x y z
#    x 2.147270 0.064780 0.072270 
#    y 0.064780 2.289080 0.038570 
#    z 0.072270 0.038570 2.093130 
# 
# From -- ./inp_files/476382.got.cif
#   From: 2010.05.17/outbox.cif.g08.bks.cpg/sg2_239_cif.got.tgz:476382.got - 2010.06.03 11:33:40.
