data_PCOD9042819
_publ_section_title
;
Structure prediction by ZEFSAII (Michael W. Deem and Ramdas Pophale) SiO2 
 PCOD9042819
Probable space group: P -1
;
_chemical_formula_sum "Si O2"
_cell_formula_units_Z 14
_cell_length_a 20.649169
_cell_length_b 11.187570
_cell_length_c 9.560472
_cell_angle_alpha 138.990688
_cell_angle_beta 151.496931
_cell_angle_gamma 40.728783
_cell_volume 659.225321
_symmetry_space_group_name_H-M "P -1"
_symmetry_group_IT_number 2
_symmetry_cell_setting 'triclinic'
loop_
_space_group_symop_operation_xyz
x,y,z
-x,-y,-z
loop_
_atom_site_type_symbol
_atom_site_label
_atom_site_fract_x
_atom_site_fract_y
_atom_site_fract_z
Si Si1 0.356261 0.078743 0.381026
Si Si2 0.121140 0.892663 0.285429
Si Si3 0.069136 0.285037 0.383215
Si Si4 0.161045 0.891809 0.677797
Si Si5 0.399885 0.139547 0.820840
Si Si6 0.647968 0.516035 0.360079
Si Si7 0.411528 0.604101 0.558726
O O1 0.383756 0.032667 0.554637
O O2 0.314580 0.302501 0.468169
O O3 0.500000 0.000000 0.500000
O O4 0.248328 0.983242 0.026091
O O5 0.178184 0.919727 0.570433
O O6 0.264840 0.760119 0.366339
O O7 0.054868 0.109065 0.296818
O O8 0.009812 0.768512 0.951693
O O9 0.238674 0.244237 0.655364
O O10 0.000000 0.500000 0.500000
O O11 0.224816 0.665213 0.609597
O O12 0.000000 0.000000 0.500000
O O13 0.484857 0.289094 0.080470
O O14 0.500000 0.000000 0.000000
O O15 0.630951 0.512550 0.495454
O O16 0.500000 0.500000 0.000000
O O17 0.500000 0.500000 0.500000
#
# Coordination Sequence:
#
# PCOD9042819 Si02
#       7
#     2   2   2   2   2   2   2
#     4  12  25  43  73  98 135 183 219 278 346 389
#     4  10  23  45  62  96 137 171 223 275 323 408
#     4  11  24  42  67  94 136 178 215 272 342 391
#     4  11  25  44  69  97 134 180 222 278 338 392
#     4  12  25  42  67 102 131 167 231 275 325 409
#     4  11  23  45  66  99 136 169 232 275 323 414
#     4  11  23  41  69  97 132 175 219 280 335 385
#
# _framework density 21.237048000000001
#
# number of rings (size 3 to 8) (size 9 to 14) (size 15 to 20)
#    0.000    0.857    4.286    2.571    2.000    4.000 
#    5.143    0.000    0.000    0.000    0.000    0.000 
#    0.000    0.000    0.000    0.000    0.000    0.000 
#
# Total GULP energy -78130.946986 kJ/mol
# GULP energy per Si atom -5580.781928 kJ/mol
# Density = 2.118871 g / cm^3
# Si number density = 21.237048 Si / 1000 Ang^3
#
#
#
# Elastic Constant Matrix: (Units=GPa)
#
#
# Indices 1 2 3 4 5 6 
#
# 1 75.8095 56.2740 35.2733 -7.5984 -14.0455 -18.3442
# 2 56.2740 154.1492 43.2381 -6.2901 -9.6631 -23.2954
# 3 35.2733 43.2381 126.2816 -8.8856 -14.9318 -8.4623
# 4 -7.5984 -6.2901 -8.8856 29.6733 -6.1746 11.0368
# 5 -14.0455 -9.6631 -14.9318 -6.1746 41.9872 -8.7898
# 6 -18.3442 -23.2954 -8.4623 11.0368 -8.7898 43.5315
#
#
#
# Elastic Compliance Matrix: (Units=1/GPa)
#
#
# Indices 1 2 3 4 5 6 
#
# 1 0.021686 -0.005684 -0.002721 0.002594 0.006670 0.006257
# 2 -0.005684 0.009338 -0.001482 -0.000842 0.000131 0.002554
# 3 -0.002721 -0.001482 0.009643 0.002466 0.002502 -0.000185
# 4 0.002594 -0.000842 0.002466 0.038935 0.005685 -0.007602
# 5 0.006670 0.000131 0.002502 0.005685 0.029452 0.007873
# 6 0.006257 0.002554 -0.000185 -0.007602 0.007873 0.030456
#
#
# Mechanical properties :
#
#
# Convention : Reuss Voigt Hill
#
# Bulk Modulus (GPa) = 47.86240 69.53456 58.69848
# Shear Modulus (GPa) = 30.07543 37.80207 33.93875
#
# Velocity S-wave (km/s) = 3.76730 4.22359 4.00195
# Velocity P-wave (km/s) = 6.44279 7.52317 7.00384
#
# Compressibility (1/GPa) = 0.02089323
#
# Stress axis : x y z
#
# Youngs Moduli (GPa) = 46.11260 107.09209 103.69980
#
# Poissons Ratio (x) = 0.60872 0.28214
# Poissons Ratio (y) = 0.26211 0.15370
# Poissons Ratio (z) = 0.12546 0.15873
#
# Static dielectric constant tensor:
#      x y z
#    x 1.745230 0.028630 -0.013890 
#    y 0.028630 1.825460 -0.021660 
#    z -0.013890 -0.021660 1.798220 
# 
# From -- ./inp_files/345774.got.cif
#   From: 2010.05.17/outbox.cif.g08.bks.cpg/sg2_173_cif.got.tgz:345774.got - 2010.06.03 11:33:40.
