data_PCOD9042577
_publ_section_title
;
Structure prediction by ZEFSAII (Michael W. Deem and Ramdas Pophale) SiO2 
 PCOD9042577
Probable space group: P -1
;
_chemical_formula_sum "Si O2"
_cell_formula_units_Z 16
_cell_length_a 15.017970
_cell_length_b 8.182562
_cell_length_c 11.204064
_cell_angle_alpha 101.124725
_cell_angle_beta 119.776341
_cell_angle_gamma 38.512545
_cell_volume 693.668712
_symmetry_space_group_name_H-M "P -1"
_symmetry_group_IT_number 2
_symmetry_cell_setting 'triclinic'
loop_
_space_group_symop_operation_xyz
x,y,z
-x,-y,-z
loop_
_atom_site_type_symbol
_atom_site_label
_atom_site_fract_x
_atom_site_fract_y
_atom_site_fract_z
Si Si1 0.685301 0.361590 0.755122
Si Si2 0.568590 0.576512 0.329818
Si Si3 0.332055 0.425535 0.990540
Si Si4 0.889611 0.975323 0.417290
Si Si5 0.347426 0.314969 0.393094
Si Si6 0.366565 0.005314 0.047675
Si Si7 0.000103 0.593993 0.222105
Si Si8 0.969627 0.815048 0.715659
O O1 0.563934 0.359767 0.673019
O O2 0.710735 0.380937 0.911723
O O3 0.599549 0.631197 0.669814
O O4 0.857497 0.089545 0.758689
O O5 0.693456 0.287313 0.302581
O O6 0.687100 0.522741 0.492752
O O7 0.463716 0.834107 0.209662
O O8 0.351491 0.221771 0.041586
O O9 0.507859 0.226272 0.006694
O O10 0.168771 0.616056 0.820532
O O11 0.101765 0.107363 0.454456
O O12 0.956572 0.757461 0.334438
O O13 0.000000 0.000000 0.500000
O O14 0.173566 0.444527 0.260845
O O15 0.500000 0.000000 0.500000
O O16 0.174568 0.179117 0.940526
O O17 0.035696 0.357526 0.249716
#
# Coordination Sequence:
#
# PCOD9042577 Si02
#       8
#     2   2   2   2   2   2   2   2
#     4  12  25  44  67 102 138 183 229 279 349 411
#     4  12  25  43  71 100 140 178 229 287 337 410
#     4  10  23  44  72  99 141 184 228 280 343 407
#     4  12  23  42  67 102 136 177 230 287 340 399
#     4  12  26  45  70  99 140 183 227 280 347 414
#     4  10  24  47  69 105 137 180 234 283 338 407
#     4  11  25  45  70 100 136 185 227 286 343 403
#     4  11  24  43  68 102 142 175 233 283 341 413
#
# _framework density 23.065767000000001
#
# number of rings (size 3 to 8) (size 9 to 14) (size 15 to 20)
#    0.000    0.750    2.500    4.125    1.750    5.000 
#    4.500    3.125    0.000    0.000    0.000    0.000 
#    0.000    0.000    0.000    0.000    0.000    0.000 
#
# Total GULP energy -89591.770056 kJ/mol
# GULP energy per Si atom -5599.485628 kJ/mol
# Density = 2.301327 g / cm^3
# Si number density = 23.065767 Si / 1000 Ang^3
#
#
#
# Elastic Constant Matrix: (Units=GPa)
#
#
# Indices 1 2 3 4 5 6 
#
# 1 67.8269 -11.3616 18.9002 -22.8305 8.6208 -7.3553
# 2 -11.3616 81.1824 2.4147 -4.3844 3.3421 -2.5637
# 3 18.9002 2.4147 82.4478 -10.0917 9.4741 2.3345
# 4 -22.8305 -4.3844 -10.0917 42.2241 -0.0656 5.3236
# 5 8.6208 3.3421 9.4741 -0.0656 33.0536 -4.4871
# 6 -7.3553 -2.5637 2.3345 5.3236 -4.4871 24.7417
#
#
#
# Elastic Compliance Matrix: (Units=1/GPa)
#
#
# Indices 1 2 3 4 5 6 
#
# 1 0.020738 0.003857 -0.003211 0.010354 -0.004335 0.003854
# 2 0.003857 0.013174 -0.000717 0.003081 -0.001913 0.001569
# 3 -0.003211 -0.000717 0.013603 0.001856 -0.003438 -0.003335
# 4 0.010354 0.003081 0.001856 0.030553 -0.004038 -0.004084
# 5 -0.004335 -0.001913 -0.003438 -0.004038 0.033336 0.005752
# 6 0.003854 0.001569 -0.003335 -0.004084 0.005752 0.043962
#
#
# Mechanical properties :
#
#
# Convention : Reuss Voigt Hill
#
# Bulk Modulus (GPa) = 21.10936 27.92931 24.51934
# Shear Modulus (GPa) = 29.18867 34.77079 31.97973
#
# Velocity S-wave (km/s) = 3.56118 3.88682 3.72756
# Velocity P-wave (km/s) = 5.10696 5.68137 5.40181
#
# Compressibility (1/GPa) = 0.04737236
#
# Stress axis : x y z
#
# Youngs Moduli (GPa) = 48.22057 75.90814 73.51564
#
# Poissons Ratio (x) = -0.29279 0.23603
# Poissons Ratio (y) = -0.18599 0.05275
# Poissons Ratio (z) = 0.15482 0.05446
#
# Static dielectric constant tensor:
#      x y z
#    x 1.863180 -0.012440 0.012370 
#    y -0.012440 1.881070 0.011740 
#    z 0.012370 0.011740 1.836460 
# 
# From -- ./inp_files/447531.got.cif
#   From: 2010.05.17/outbox.cif.g08.bks.cpg/sg2_224_cif.got.tgz:447531.got - 2010.06.03 11:33:40.
