data_PCOD9042528
_publ_section_title
;
Structure prediction by ZEFSAII (Michael W. Deem and Ramdas Pophale) SiO2 
 PCOD9042528
Probable space group: P -1
;
_chemical_formula_sum "Si O2"
_cell_formula_units_Z 16
_cell_length_a 11.504168
_cell_length_b 7.880484
_cell_length_c 14.658453
_cell_angle_alpha 74.877486
_cell_angle_beta 30.520897
_cell_angle_gamma 85.371066
_cell_volume 622.768732
_symmetry_space_group_name_H-M "P -1"
_symmetry_group_IT_number 2
_symmetry_cell_setting 'triclinic'
loop_
_space_group_symop_operation_xyz
x,y,z
-x,-y,-z
loop_
_atom_site_type_symbol
_atom_site_label
_atom_site_fract_x
_atom_site_fract_y
_atom_site_fract_z
Si Si1 0.158962 0.410726 0.694421
Si Si2 0.235599 0.169318 0.838563
Si Si3 0.365984 0.262427 0.306834
Si Si4 0.283208 0.738715 0.434945
Si Si5 0.767212 0.806854 0.790811
Si Si6 0.148804 0.454382 0.989454
Si Si7 0.662576 0.374234 0.785237
Si Si8 0.940530 0.158427 0.734356
O O1 0.280323 0.325509 0.705621
O O2 0.278323 0.537437 0.509694
O O3 0.984981 0.219486 0.799357
O O4 0.030351 0.550147 0.806292
O O5 0.485906 0.122787 0.690271
O O6 0.198825 0.271207 0.943598
O O7 0.000000 0.000000 0.000000
O O8 0.341387 0.160399 0.239480
O O9 0.618647 0.379402 0.162155
O O10 0.241722 0.415926 0.336482
O O11 0.194435 0.162051 0.517392
O O12 0.343357 0.734492 0.288544
O O13 0.030282 0.781342 0.607873
O O14 0.773661 0.971492 0.832988
O O15 0.585618 0.643007 0.992337
O O16 0.000000 0.500000 0.000000
O O17 0.827970 0.311982 0.751820
#
# Coordination Sequence:
#
# PCOD9042528 Si02
#       8
#     2   2   2   2   2   2   2   2
#     4  11  24  45  75 102 146 194 246 292 361 434
#     4  11  26  48  75 108 146 188 242 312 365 421
#     4  12  22  44  70 102 145 196 240 291 360 439
#     4  12  25  47  74 104 147 195 242 297 355 448
#     4  12  28  43  72 112 151 188 240 303 372 420
#     4  10  23  44  72 105 140 190 249 292 353 437
#     4  12  24  45  71  99 152 191 244 287 365 433
#     4  12  25  45  69 113 147 188 241 307 362 430
#
# _framework density 25.69172
#
# number of rings (size 3 to 8) (size 9 to 14) (size 15 to 20)
#    0.000    0.500    3.750    4.125    1.750    3.000 
#    0.000    1.250    0.000    0.000    0.000    0.000 
#    0.000    0.000    0.000    0.000    0.000    0.000 
#
# Total GULP energy -89361.515411 kJ/mol
# GULP energy per Si atom -5585.094713 kJ/mol
# Density = 2.563324 g / cm^3
# Si number density = 25.691720 Si / 1000 Ang^3
#
#
#
# Elastic Constant Matrix: (Units=GPa)
#
#
# Indices 1 2 3 4 5 6 
#
# 1 152.1300 26.7444 43.7426 6.7096 -22.3657 34.6880
# 2 26.7444 99.1227 14.9512 4.4970 -6.1204 40.1993
# 3 43.7426 14.9512 119.0039 10.6184 -13.3525 12.7693
# 4 6.7096 4.4970 10.6184 37.3722 6.3376 0.0597
# 5 -22.3657 -6.1204 -13.3525 6.3376 47.2775 1.6764
# 6 34.6880 40.1993 12.7693 0.0597 1.6764 34.8888
#
#
#
# Elastic Compliance Matrix: (Units=1/GPa)
#
#
# Indices 1 2 3 4 5 6 
#
# 1 0.010835 0.003873 -0.001956 -0.002846 0.005981 -0.014801
# 2 0.003873 0.021207 0.000054 -0.004265 0.006178 -0.028595
# 3 -0.001956 0.000054 0.009821 -0.002833 0.002300 -0.001818
# 4 -0.002846 -0.004265 -0.002833 0.029761 -0.007009 0.009066
# 5 0.005981 0.006178 0.002300 -0.007009 0.026909 -0.015188
# 6 -0.014801 -0.028595 -0.001818 0.009066 -0.015188 0.077705
#
#
# Mechanical properties :
#
#
# Convention : Reuss Voigt Hill
#
# Bulk Modulus (GPa) = 21.83182 60.12590 40.97886
# Shear Modulus (GPa) = 26.65756 42.89558 34.77657
#
# Velocity S-wave (km/s) = 3.22466 4.09054 3.68314
# Velocity P-wave (km/s) = 4.73082 6.76488 5.83714
#
# Compressibility (1/GPa) = 0.04580470
#
# Stress axis : x y z
#
# Youngs Moduli (GPa) = 92.29718 47.15406 101.82188
#
# Poissons Ratio (x) = -0.18261 0.19915
# Poissons Ratio (y) = -0.35744 -0.00551
# Poissons Ratio (z) = 0.18052 -0.00255
#
# Static dielectric constant tensor:
#      x y z
#    x 2.018990 0.017980 -0.024210 
#    y 0.017980 2.138900 -0.025020 
#    z -0.024210 -0.025020 2.138860 
# 
# From -- ./inp_files/515623.got.cif
#   From: 2010.05.17/outbox.cif.g08.bks.cpg/sg2_258_cif.got.tgz:515623.got - 2010.06.03 11:33:40.
