data_PCOD9042629
_publ_section_title
;
Structure prediction by ZEFSAII (Michael W. Deem and Ramdas Pophale) SiO2 
 PCOD9042629
Probable space group: P -1
;
_chemical_formula_sum "Si O2"
_cell_formula_units_Z 16
_cell_length_a 11.599506
_cell_length_b 15.724632
_cell_length_c 7.025525
_cell_angle_alpha 64.468233
_cell_angle_beta 90.965511
_cell_angle_gamma 140.930541
_cell_volume 604.390643
_symmetry_space_group_name_H-M "P -1"
_symmetry_group_IT_number 2
_symmetry_cell_setting 'triclinic'
loop_
_space_group_symop_operation_xyz
x,y,z
-x,-y,-z
loop_
_atom_site_type_symbol
_atom_site_label
_atom_site_fract_x
_atom_site_fract_y
_atom_site_fract_z
Si Si1 0.350992 0.505876 0.691510
Si Si2 0.059245 0.616335 0.678753
Si Si3 0.201202 0.904310 0.574248
Si Si4 0.048058 0.917121 0.259489
Si Si5 0.343593 0.296068 0.820746
Si Si6 0.883237 0.221468 0.852851
Si Si7 0.515285 0.203953 0.578251
Si Si8 0.613690 0.201788 0.006133
O O1 0.366191 0.406515 0.839480
O O2 0.423646 0.556680 0.419862
O O3 0.492414 0.692494 0.587193
O O4 0.100726 0.363039 0.849593
O O5 0.048024 0.658784 0.431896
O O6 0.269157 0.694724 0.599505
O O7 0.830879 0.403087 0.900925
O O8 0.112305 0.737575 0.707274
O O9 0.027885 0.856173 0.524264
O O10 0.293186 0.002366 0.683984
O O11 0.417165 0.060982 0.289285
O O12 0.120452 0.881172 0.159085
O O13 0.231177 0.127172 0.073904
O O14 0.828313 0.802635 0.263448
O O15 0.681739 0.142644 0.007507
O O16 0.551453 0.211642 0.797363
#
# Coordination Sequence:
#
# PCOD9042629 Si02
#       8
#     2   2   2   2   2   2   2   2
#     4  10  17  33  59  85 112 155 203 250 305 356
#     4  10  20  39  59  91 131 163 201 249 291 375
#     4  11  25  38  62  94 129 164 203 251 310 365
#     4   9  19  36  53  85 122 147 205 260 296 367
#     4   9  19  33  60  86 108 158 206 254 313 354
#     4   9  17  33  57  85 118 156 202 241 291 375
#     4  11  21  39  61  92 130 159 205 257 293 376
#     4  11  21  40  65  90 128 173 198 243 309 365
#
# _framework density 26.472944999999999
#
# number of rings (size 3 to 8) (size 9 to 14) (size 15 to 20)
#    0.000    2.000    2.500    1.875    0.000    6.000 
#    0.000    2.500    5.500    0.000    0.000    0.000 
#    0.000    0.000    0.000    0.000    0.000    0.000 
#
# Total GULP energy -89531.684288 kJ/mol
# GULP energy per Si atom -5595.730268 kJ/mol
# Density = 2.641269 g / cm^3
# Si number density = 26.472945 Si / 1000 Ang^3
#
#
#
# Elastic Constant Matrix: (Units=GPa)
#
#
# Indices 1 2 3 4 5 6 
#
# 1 107.6036 16.1848 17.6681 -7.3862 19.8410 -19.6998
# 2 16.1848 128.1873 19.0065 -25.5895 19.7982 -7.3748
# 3 17.6681 19.0065 54.2936 -3.0221 8.5921 -4.9059
# 4 -7.3862 -25.5895 -3.0221 48.4806 -7.3411 12.4199
# 5 19.8410 19.7982 8.5921 -7.3411 44.9346 -25.5774
# 6 -19.6998 -7.3748 -4.9059 12.4199 -25.5774 38.6306
#
#
#
# Elastic Compliance Matrix: (Units=1/GPa)
#
#
# Indices 1 2 3 4 5 6 
#
# 1 0.010863 -0.000462 -0.002729 -0.000036 -0.001869 0.003879
# 2 -0.000462 0.009796 -0.002554 0.005113 -0.004780 -0.003499
# 3 -0.002729 -0.002554 0.020429 -0.000697 -0.001854 -0.000288
# 4 -0.000036 0.005113 -0.000697 0.025190 -0.003376 -0.009465
# 5 -0.001869 -0.004780 -0.001854 -0.003376 0.039175 0.024922
# 6 0.003879 -0.003499 -0.000288 -0.009465 0.024922 0.046703
#
#
# Mechanical properties :
#
#
# Convention : Reuss Voigt Hill
#
# Bulk Modulus (GPa) = 33.78620 43.97815 38.88217
# Shear Modulus (GPa) = 28.81630 42.22416 35.52023
#
# Velocity S-wave (km/s) = 3.30285 3.99807 3.66697
# Velocity P-wave (km/s) = 5.22832 6.16127 5.71387
#
# Compressibility (1/GPa) = 0.02959789
#
# Stress axis : x y z
#
# Youngs Moduli (GPa) = 92.05284 102.08446 48.94992
#
# Poissons Ratio (x) = 0.04719 0.13358
# Poissons Ratio (y) = 0.04255 0.12501
# Poissons Ratio (z) = 0.25121 0.26071
#
# Static dielectric constant tensor:
#      x y z
#    x 2.055950 0.018350 0.043400 
#    y 0.018350 2.118560 0.008970 
#    z 0.043400 0.008970 2.235590 
# 
# From -- ./inp_files/272533.got.cif
#   From: 2010.05.17/outbox.cif.g08.bks.cpg/sg2_137_cif.got.tgz:272533.got - 2010.06.03 11:33:40.
