data_PCOD9042197
_publ_section_title
;
Structure prediction by ZEFSAII (Michael W. Deem and Ramdas Pophale) SiO2 
 PCOD9042197
Probable space group: P -1
;
_chemical_formula_sum "Si O2"
_cell_formula_units_Z 16
_cell_length_a 12.614297
_cell_length_b 15.921621
_cell_length_c 11.885775
_cell_angle_alpha 26.737396
_cell_angle_beta 143.911769
_cell_angle_gamma 135.907867
_cell_volume 632.551527
_symmetry_space_group_name_H-M "P -1"
_symmetry_group_IT_number 2
_symmetry_cell_setting 'triclinic'
loop_
_space_group_symop_operation_xyz
x,y,z
-x,-y,-z
loop_
_atom_site_type_symbol
_atom_site_label
_atom_site_fract_x
_atom_site_fract_y
_atom_site_fract_z
Si Si1 0.669991 0.427613 0.807785
Si Si2 0.298846 0.803104 0.091280
Si Si3 0.263245 0.215230 0.252310
Si Si4 0.115674 0.175789 0.927515
Si Si5 0.650574 0.106138 0.629589
Si Si6 0.407677 0.611641 0.952588
Si Si7 0.203938 0.569757 0.493383
Si Si8 0.737517 0.812185 0.467021
O O1 0.500000 0.500000 0.500000
O O2 0.739553 0.257150 0.997214
O O3 0.791166 0.610729 0.706262
O O4 0.617516 0.368522 0.959169
O O5 0.212609 0.650146 0.279578
O O6 0.516046 0.803124 0.300351
O O7 0.230701 0.014311 0.794167
O O8 0.155771 0.170864 0.100753
O O9 0.461896 0.127010 0.507205
O O10 0.192380 0.157987 0.382331
O O11 0.284441 0.438928 0.013901
O O12 0.291898 0.106304 0.088691
O O13 0.075801 0.391693 0.604414
O O14 0.000000 0.000000 0.000000
O O15 0.633486 0.207923 0.372546
O O16 0.788901 0.239584 0.655880
O O17 0.605365 0.528897 0.194405
#
# Coordination Sequence:
#
# PCOD9042197 Si02
#       8
#     2   2   2   2   2   2   2   2
#     4   9  16  28  45  84 125 145 166 225 289 332
#     4  10  18  30  51  83 123 147 172 230 286 338
#     4  10  18  38  58  87 120 142 187 242 279 342
#     4  12  27  39  55  84 115 154 197 236 282 342
#     4  11  21  37  62  86 107 153 186 239 298 334
#     4  10  17  33  58  88 116 147 181 236 289 335
#     4  11  20  38  56  82 124 144 187 237 285 337
#     4   9  18  29  50  85 119 146 179 220 291 337
#
# _framework density 25.294383
#
# number of rings (size 3 to 8) (size 9 to 14) (size 15 to 20)
#    0.000    1.750    7.500    1.125    1.750    1.500 
#    0.000    0.000    0.000    0.750    0.000    2.625 
#    0.000    0.000    0.000    0.000    0.000    0.000 
#
# Total GULP energy -89457.358746 kJ/mol
# GULP energy per Si atom -5591.084922 kJ/mol
# Density = 2.523681 g / cm^3
# Si number density = 25.294383 Si / 1000 Ang^3
#
#
#
# Elastic Constant Matrix: (Units=GPa)
#
#
# Indices 1 2 3 4 5 6 
#
# 1 34.1703 46.9105 21.7878 4.6796 -7.3990 -22.6828
# 2 46.9105 146.6592 23.8477 -2.3176 -3.9910 -21.0644
# 3 21.7878 23.8477 75.7448 -25.8995 -1.3538 -5.7348
# 4 4.6796 -2.3176 -25.8995 40.5255 -4.2533 0.1688
# 5 -7.3990 -3.9910 -1.3538 -4.2533 24.1245 2.2543
# 6 -22.6828 -21.0644 -5.7348 0.1688 2.2543 48.4819
#
#
#
# Elastic Compliance Matrix: (Units=1/GPa)
#
#
# Indices 1 2 3 4 5 6 
#
# 1 0.139690 -0.031500 -0.040575 -0.041563 0.023737 0.045911
# 2 -0.031500 0.014770 0.006582 0.008225 -0.004711 -0.007352
# 3 -0.040575 0.006582 0.029909 0.023775 -0.004320 -0.012468
# 4 -0.041563 0.008225 0.023775 0.045104 -0.000869 -0.013177
# 5 0.023737 -0.004711 -0.004320 -0.000869 0.046961 0.006367
# 6 0.045911 -0.007352 -0.012468 -0.013177 0.006367 0.037187
#
#
# Mechanical properties :
#
#
# Convention : Reuss Voigt Hill
#
# Bulk Modulus (GPa) = 18.73263 49.07405 33.90334
# Shear Modulus (GPa) = 10.81310 33.56160 22.18735
#
# Velocity S-wave (km/s) = 2.06983 3.64653 2.96491
# Velocity P-wave (km/s) = 3.62411 6.09696 5.01533
#
# Compressibility (1/GPa) = 0.05338278
#
# Stress axis : x y z
#
# Youngs Moduli (GPa) = 7.15872 67.70591 33.43420
#
# Poissons Ratio (x) = 2.13275 1.35660
# Poissons Ratio (y) = 0.22550 -0.22008
# Poissons Ratio (z) = 0.29047 -0.44567
#
# Static dielectric constant tensor:
#      x y z
#    x 2.163490 0.131390 0.129450 
#    y 0.131390 2.054700 0.059150 
#    z 0.129450 0.059150 1.978050 
# 
# From -- ./inp_files/454418.got.cif
#   From: 2010.05.17/outbox.cif.g08.bks.cpg/sg2_228_cif.got.tgz:454418.got - 2010.06.03 11:33:40.
