data_PCOD9042045
_publ_section_title
;
Structure prediction by ZEFSAII (Michael W. Deem and Ramdas Pophale) SiO2 
 PCOD9042045
Probable space group: P -1
;
_chemical_formula_sum "Si O2"
_cell_formula_units_Z 16
_cell_length_a 6.164189
_cell_length_b 17.379390
_cell_length_c 25.552359
_cell_angle_alpha 18.960469
_cell_angle_beta 129.329016
_cell_angle_gamma 130.933950
_cell_volume 670.819584
_symmetry_space_group_name_H-M "P -1"
_symmetry_group_IT_number 2
_symmetry_cell_setting 'triclinic'
loop_
_space_group_symop_operation_xyz
x,y,z
-x,-y,-z
loop_
_atom_site_type_symbol
_atom_site_label
_atom_site_fract_x
_atom_site_fract_y
_atom_site_fract_z
Si Si1 0.268808 0.000062 0.394678
Si Si2 0.294964 0.693668 0.433311
Si Si3 0.238268 0.497645 0.663055
Si Si4 0.619716 0.323522 0.698922
Si Si5 0.820094 0.612189 0.948308
Si Si6 0.748003 0.307738 0.850898
Si Si7 0.901525 0.148753 0.434708
Si Si8 0.055153 0.925038 0.873761
O O1 0.212731 0.140854 0.244596
O O2 0.570217 0.135817 0.378284
O O3 0.257411 0.714823 0.567250
O O4 0.047785 0.987491 0.416395
O O5 0.353910 0.644257 0.534349
O O6 0.542252 0.589002 0.510243
O O7 0.000000 0.500000 0.500000
O O8 0.222079 0.953360 0.247827
O O9 0.439678 0.316113 0.823417
O O10 0.917861 0.347881 0.699606
O O11 0.697903 0.271133 0.804967
O O12 0.338015 0.122323 0.771565
O O13 0.013779 0.696951 0.974886
O O14 0.500000 0.500000 0.000000
O O15 0.000000 0.500000 0.000000
O O16 0.934834 0.576630 0.714376
O O17 0.889898 0.136111 0.018548
O O18 0.000000 0.000000 0.500000
#
# Coordination Sequence:
#
# PCOD9042045 Si02
#       8
#     2   2   2   2   2   2   2   2
#     4  11  24  42  71 100 134 191 247 301 369 437
#     4   9  21  42  65  96 132 180 236 286 355 438
#     4  11  21  41  66  98 134 178 240 291 357 436
#     4  10  23  44  69 100 141 187 244 301 359 450
#     4  12  30  52  74 110 155 196 248 312 380 451
#     4  11  23  41  68 101 143 182 240 309 366 439
#     4  11  23  40  70  98 133 186 247 305 358 436
#     4  11  24  46  69 105 144 193 238 304 384 436
#
# _framework density 23.851420999999998
#
# number of rings (size 3 to 8) (size 9 to 14) (size 15 to 20)
#    0.000    1.250    3.750    1.125    3.500    3.500 
#    9.000    0.000    0.000    0.000    0.000    0.000 
#    0.000    0.000    0.000    0.000    0.000    0.000 
#
# Total GULP energy -89271.190701 kJ/mol
# GULP energy per Si atom -5579.449419 kJ/mol
# Density = 2.379713 g / cm^3
# Si number density = 23.851421 Si / 1000 Ang^3
#
#
#
# Elastic Constant Matrix: (Units=GPa)
#
#
# Indices 1 2 3 4 5 6 
#
# 1 100.7371 20.3032 32.3433 -2.7731 -3.4026 -2.3210
# 2 20.3032 84.3511 9.9227 -10.1521 1.8847 -0.8446
# 3 32.3433 9.9227 91.0309 15.2246 -0.2001 -2.5846
# 4 -2.7731 -10.1521 15.2246 43.9567 1.8798 -4.2598
# 5 -3.4026 1.8847 -0.2001 1.8798 29.1434 -0.1102
# 6 -2.3210 -0.8446 -2.5846 -4.2598 -0.1102 45.8343
#
#
#
# Elastic Compliance Matrix: (Units=1/GPa)
#
#
# Indices 1 2 3 4 5 6 
#
# 1 0.011828 -0.002171 -0.004233 0.001699 0.001385 0.000481
# 2 -0.002171 0.012956 -0.001196 0.003362 -0.001315 0.000371
# 3 -0.004233 -0.001196 0.013493 -0.005213 0.000012 0.000040
# 4 0.001699 0.003362 -0.005213 0.025729 -0.001706 0.002241
# 5 0.001385 -0.001315 0.000012 -0.001706 0.034670 -0.000029
# 6 0.000481 0.000371 0.000040 0.002241 -0.000029 0.022059
#
#
# Mechanical properties :
#
#
# Convention : Reuss Voigt Hill
#
# Bulk Modulus (GPa) = 43.33186 44.58418 43.95802
# Shear Modulus (GPa) = 34.81247 38.02354 36.41800
#
# Velocity S-wave (km/s) = 3.82456 3.99705 3.91176
# Velocity P-wave (km/s) = 6.14083 6.32732 6.23477
#
# Compressibility (1/GPa) = 0.02307771
#
# Stress axis : x y z
#
# Youngs Moduli (GPa) = 84.54433 77.18419 74.11400
#
# Poissons Ratio (x) = 0.16755 0.31375
# Poissons Ratio (y) = 0.18352 0.08861
# Poissons Ratio (z) = 0.35790 0.09228
#
# Static dielectric constant tensor:
#      x y z
#    x 2.016680 -0.035860 0.011810 
#    y -0.035860 2.126670 0.048900 
#    z 0.011810 0.048900 1.915750 
# 
# From -- ./inp_files/615835.got.cif
#   From: 2010.05.17/outbox.cif.g08.bks.cpg/sg2_308_cif.got.tgz:615835.got - 2010.06.03 11:33:40.
