data_PCOD9042412
_publ_section_title
;
Structure prediction by ZEFSAII (Michael W. Deem and Ramdas Pophale) SiO2 
 PCOD9042412
Probable space group: P -1
;
_chemical_formula_sum "Si O2"
_cell_formula_units_Z 16
_cell_length_a 8.964077
_cell_length_b 9.138651
_cell_length_c 17.621328
_cell_angle_alpha 60.569481
_cell_angle_beta 37.922203
_cell_angle_gamma 80.212179
_cell_volume 705.956862
_symmetry_space_group_name_H-M "P -1"
_symmetry_group_IT_number 2
_symmetry_cell_setting 'triclinic'
loop_
_space_group_symop_operation_xyz
x,y,z
-x,-y,-z
loop_
_atom_site_type_symbol
_atom_site_label
_atom_site_fract_x
_atom_site_fract_y
_atom_site_fract_z
Si Si1 0.573524 0.533084 0.048889
Si Si2 0.048956 0.828610 0.373175
Si Si3 0.778035 0.545540 0.419867
Si Si4 0.444345 0.838421 0.325547
Si Si5 0.967032 0.761224 0.141493
Si Si6 0.881039 0.437237 0.146751
Si Si7 0.493456 0.124415 0.039547
Si Si8 0.617537 0.807903 0.670280
O O1 0.449249 0.354645 0.198280
O O2 0.500000 0.500000 0.000000
O O3 0.481505 0.693073 0.061827
O O4 0.891555 0.612810 0.897745
O O5 0.294535 0.787021 0.317629
O O6 0.862511 0.672493 0.429166
O O7 0.889068 0.848801 0.505936
O O8 0.202769 0.023604 0.220258
O O9 0.500000 0.500000 0.500000
O O10 0.743752 0.340733 0.504704
O O11 0.961098 0.665310 0.249255
O O12 0.749834 0.851404 0.203109
O O13 0.425266 0.020853 0.320016
O O14 0.873605 0.607065 0.153301
O O15 0.287888 0.866223 0.985648
O O16 0.599744 0.276008 0.287910
O O17 0.000000 0.500000 0.000000
O O18 0.500000 0.000000 0.000000
#
# Coordination Sequence:
#
# PCOD9042412 Si02
#       8
#     2   2   2   2   2   2   2   2
#     4  11  24  47  74 103 150 194 245 298 372 440
#     4  12  26  46  71 111 149 197 248 300 382 433
#     4  10  23  44  71 104 145 189 239 305 371 431
#     4  11  26  44  76 108 150 190 250 309 365 442
#     4  11  24  49  71 108 149 194 248 306 371 435
#     4  10  24  45  72 104 146 193 239 299 374 438
#     4  12  27  45  77 112 145 193 252 307 365 447
#     4  11  26  48  73 111 149 197 247 306 372 439
#
# _framework density 22.664275
#
# number of rings (size 3 to 8) (size 9 to 14) (size 15 to 20)
#    0.000    1.000    2.500    3.000    5.250    4.500 
#    0.000    3.750    0.000    0.000    0.000    0.000 
#    0.000    0.000    0.000    0.000    0.000    0.000 
#
# Total GULP energy -89194.048513 kJ/mol
# GULP energy per Si atom -5574.628032 kJ/mol
# Density = 2.261269 g / cm^3
# Si number density = 22.664275 Si / 1000 Ang^3
#
#
#
# Elastic Constant Matrix: (Units=GPa)
#
#
# Indices 1 2 3 4 5 6 
#
# 1 137.5307 71.9526 46.9953 -16.3347 -14.9870 -0.0724
# 2 71.9526 185.7909 52.5691 -7.6895 1.0541 1.6021
# 3 46.9953 52.5691 96.0900 8.0477 -9.2882 -11.4644
# 4 -16.3347 -7.6895 8.0477 27.8452 0.3060 2.1128
# 5 -14.9870 1.0541 -9.2882 0.3060 50.8646 -1.3629
# 6 -0.0724 1.6021 -11.4644 2.1128 -1.3629 45.4538
#
#
#
# Elastic Compliance Matrix: (Units=1/GPa)
#
#
# Indices 1 2 3 4 5 6 
#
# 1 0.011471 -0.002846 -0.004579 0.007337 0.002524 -0.001302
# 2 -0.002846 0.007433 -0.003082 0.001379 -0.001595 -0.001156
# 3 -0.004579 -0.003082 0.015750 -0.008451 0.001763 0.004519
# 4 0.007337 0.001379 -0.008451 0.043355 0.000217 -0.004177
# 5 0.002524 -0.001595 0.001763 0.000217 0.020787 0.001118
# 6 -0.001302 -0.001156 0.004519 -0.004177 0.001118 0.023407
#
#
# Mechanical properties :
#
#
# Convention : Reuss Voigt Hill
#
# Bulk Modulus (GPa) = 73.31676 84.71619 79.01647
# Shear Modulus (GPa) = 33.83829 41.35903 37.59866
#
# Velocity S-wave (km/s) = 3.86816 4.27647 4.07743
# Velocity P-wave (km/s) = 7.23667 7.86410 7.55690
#
# Compressibility (1/GPa) = 0.01363945
#
# Stress axis : x y z
#
# Youngs Moduli (GPa) = 87.18010 134.54027 63.49324
#
# Poissons Ratio (x) = 0.38292 0.29072
# Poissons Ratio (y) = 0.24813 0.19568
# Poissons Ratio (z) = 0.39918 0.41463
#
# Static dielectric constant tensor:
#      x y z
#    x 1.467290 -0.388400 1.048290 
#    y -0.388400 1.482860 0.905660 
#    z 1.048290 0.905660 -0.665770 
# 
# From -- ./inp_files/556954.got.cif
#   From: 2010.05.17/outbox.cif.g08.bks.cpg/sg2_279_cif.got.tgz:556954.got - 2010.06.03 11:33:40.
