data_PCOD9042870
_publ_section_title
;
Structure prediction by ZEFSAII (Michael W. Deem and Ramdas Pophale) SiO2 
 PCOD9042870
Probable space group: P -1
;
_chemical_formula_sum "Si O2"
_cell_formula_units_Z 16
_cell_length_a 12.445911
_cell_length_b 7.011661
_cell_length_c 10.065975
_cell_angle_alpha 88.472780
_cell_angle_beta 105.737553
_cell_angle_gamma 53.715817
_cell_volume 661.418384
_symmetry_space_group_name_H-M "P -1"
_symmetry_group_IT_number 2
_symmetry_cell_setting 'triclinic'
loop_
_space_group_symop_operation_xyz
x,y,z
-x,-y,-z
loop_
_atom_site_type_symbol
_atom_site_label
_atom_site_fract_x
_atom_site_fract_y
_atom_site_fract_z
Si Si1 0.392097 0.507762 0.096980
Si Si2 0.488074 0.366377 0.624128
Si Si3 0.867794 0.877601 0.420075
Si Si4 0.331989 0.928787 0.896701
Si Si5 0.890254 0.788739 0.978818
Si Si6 0.855135 0.341105 0.792173
Si Si7 0.830170 0.328069 0.494278
Si Si8 0.767121 0.863481 0.674168
O O1 0.475062 0.551058 0.233200
O O2 0.503007 0.227514 0.089959
O O3 0.253880 0.587153 0.128522
O O4 0.340930 0.698664 0.956375
O O5 0.500000 0.500000 0.500000
O O6 0.332440 0.439724 0.583496
O O7 0.602804 0.081587 0.641503
O O8 0.805425 0.874323 0.537703
O O9 0.038516 0.667266 0.478100
O O10 0.773135 0.913848 0.263610
O O11 0.852947 0.123906 0.410348
O O12 0.253839 0.111077 0.992289
O O13 0.847729 0.897818 0.816075
O O14 0.000000 0.500000 0.000000
O O15 0.983244 0.833052 0.097961
O O16 0.838768 0.247124 0.650870
O O17 0.811447 0.600527 0.724191
#
# Coordination Sequence:
#
# PCOD9042870 Si02
#       8
#     2   2   2   2   2   2   2   2
#     4  11  23  40  69 100 131 172 224 275 329 389
#     4  12  20  41  65  94 132 172 218 270 324 389
#     4  11  23  42  66  99 130 168 221 275 328 380
#     4  11  22  43  70  94 132 174 220 279 329 382
#     4  10  23  45  65  95 133 176 220 265 334 396
#     4  11  24  43  66 101 131 176 225 262 333 403
#     4  11  23  38  64  97 133 165 220 268 320 391
#     4  11  24  44  68  93 136 178 212 274 332 392
#
# _framework density 24.190436999999999
#
# number of rings (size 3 to 8) (size 9 to 14) (size 15 to 20)
#    0.000    1.000    6.250    0.000    0.000    3.500 
#    0.000    2.500    0.000    0.000    0.000    0.000 
#    0.000    0.000    0.000    0.000    0.000    0.000 
#
# Total GULP energy -89440.129626 kJ/mol
# GULP energy per Si atom -5590.008102 kJ/mol
# Density = 2.413538 g / cm^3
# Si number density = 24.190437 Si / 1000 Ang^3
#
#
#
# Elastic Constant Matrix: (Units=GPa)
#
#
# Indices 1 2 3 4 5 6 
#
# 1 70.9231 28.6725 24.3749 -12.6346 -7.8561 -37.0653
# 2 28.6725 119.7510 17.0141 6.5427 2.4370 -39.5414
# 3 24.3749 17.0141 131.9260 -4.9247 -9.0248 -11.2749
# 4 -12.6346 6.5427 -4.9247 35.1252 -11.6711 -0.0636
# 5 -7.8561 2.4370 -9.0248 -11.6711 31.5963 1.0022
# 6 -37.0653 -39.5414 -11.2749 -0.0636 1.0022 47.1315
#
#
#
# Elastic Compliance Matrix: (Units=1/GPa)
#
#
# Indices 1 2 3 4 5 6 
#
# 1 0.031392 -0.000502 -0.002345 0.015087 0.012002 0.023470
# 2 -0.000502 0.011995 -0.000974 -0.003506 -0.002924 0.009493
# 3 -0.002345 -0.000974 0.008286 0.001281 0.002355 -0.000728
# 4 0.015087 -0.003506 0.001281 0.041161 0.019310 0.008875
# 5 0.012002 -0.002924 0.002355 0.019310 0.042453 0.006672
# 6 0.023470 0.009493 -0.000728 0.008875 0.006672 0.047335
#
#
# Mechanical properties :
#
#
# Convention : Reuss Voigt Hill
#
# Bulk Modulus (GPa) = 22.71151 51.41365 37.06258
# Shear Modulus (GPa) = 24.39748 39.60649 32.00199
#
# Velocity S-wave (km/s) = 3.17923 4.05072 3.64114
# Velocity P-wave (km/s) = 4.78390 6.57097 5.74732
#
# Compressibility (1/GPa) = 0.04403054
#
# Stress axis : x y z
#
# Youngs Moduli (GPa) = 31.85567 83.36970 120.69124
#
# Poissons Ratio (x) = 0.04183 0.28304
# Poissons Ratio (y) = 0.01598 0.11753
# Poissons Ratio (z) = 0.07471 0.08119
#
# Static dielectric constant tensor:
#      x y z
#    x 1.979050 0.046040 0.052150 
#    y 0.046040 1.991790 0.049880 
#    z 0.052150 0.049880 1.926800 
# 
# From -- ./inp_files/298563.got.cif
#   From: 2010.05.17/outbox.cif.g08.bks.cpg/sg2_150_cif.got.tgz:298563.got - 2010.06.03 11:33:40.
