data_PCOD9042944
_publ_section_title
;
Structure prediction by ZEFSAII (Michael W. Deem and Ramdas Pophale) SiO2 
 PCOD9042944
Probable space group: P -1
;
_chemical_formula_sum "Si O2"
_cell_formula_units_Z 16
_cell_length_a 9.079206
_cell_length_b 8.318771
_cell_length_c 12.772103
_cell_angle_alpha 97.049356
_cell_angle_beta 55.040581
_cell_angle_gamma 116.624685
_cell_volume 694.821032
_symmetry_space_group_name_H-M "P -1"
_symmetry_group_IT_number 2
_symmetry_cell_setting 'triclinic'
loop_
_space_group_symop_operation_xyz
x,y,z
-x,-y,-z
loop_
_atom_site_type_symbol
_atom_site_label
_atom_site_fract_x
_atom_site_fract_y
_atom_site_fract_z
Si Si1 0.368485 0.597816 0.111033
Si Si2 0.111448 0.385136 0.402421
Si Si3 0.241859 0.221174 0.758670
Si Si4 0.200842 0.000048 0.583993
Si Si5 0.624942 0.178972 0.337069
Si Si6 0.048969 0.638875 0.087033
Si Si7 0.303622 0.010612 0.901880
Si Si8 0.358897 0.550213 0.494160
O O1 0.254730 0.486229 0.253439
O O2 0.192121 0.597504 0.106055
O O3 0.518747 0.809581 0.100286
O O4 0.500000 0.500000 0.000000
O O5 0.223018 0.384794 0.463233
O O6 0.000000 0.500000 0.500000
O O7 0.962309 0.180270 0.416415
O O8 0.205905 0.103077 0.869370
O O9 0.482611 0.301268 0.640267
O O10 0.176589 0.379849 0.805090
O O11 0.123006 0.115205 0.693685
O O12 0.302485 0.939966 0.631802
O O13 0.388041 0.115772 0.442553
O O14 0.735561 0.364418 0.377344
O O15 0.648112 0.121752 0.206258
O O16 0.000000 0.500000 0.000000
O O17 0.167080 0.856217 0.028029
O O18 0.500000 0.500000 0.500000
#
# Coordination Sequence:
#
# PCOD9042944 Si02
#       8
#     2   2   2   2   2   2   2   2
#     4  12  29  49  72 105 150 190 242 301 371 431
#     4  12  24  42  75 105 140 187 249 288 363 426
#     4  10  23  45  67 101 141 187 235 290 369 426
#     4   9  19  37  68  98 133 181 227 288 345 432
#     4   9  19  40  66  99 138 181 231 284 369 410
#     4  12  29  44  73 104 139 189 253 296 357 442
#     4  11  23  47  73  98 146 193 237 300 363 431
#     4  11  24  41  68 105 148 181 233 308 366 427
#
# _framework density 23.027515000000001
#
# number of rings (size 3 to 8) (size 9 to 14) (size 15 to 20)
#    0.000    1.250    2.500    3.000    8.750    0.000 
#    2.250    1.250    0.000    0.000    0.000    0.000 
#    0.000    0.000    0.000    0.000    0.000    0.000 
#
# Total GULP energy -89086.762337 kJ/mol
# GULP energy per Si atom -5567.922646 kJ/mol
# Density = 2.297510 g / cm^3
# Si number density = 23.027515 Si / 1000 Ang^3
#
#
#
# Elastic Constant Matrix: (Units=GPa)
#
#
# Indices 1 2 3 4 5 6 
#
# 1 107.9794 22.8113 30.3426 16.5425 22.0075 7.2903
# 2 22.8113 97.3232 27.7521 23.8064 10.9338 33.8723
# 3 30.3426 27.7521 116.7986 26.4913 -5.9118 2.0554
# 4 16.5425 23.8064 26.4913 53.0528 -2.5391 10.0780
# 5 22.0075 10.9338 -5.9118 -2.5391 30.9278 11.6617
# 6 7.2903 33.8723 2.0554 10.0780 11.6617 50.3181
#
#
#
# Elastic Compliance Matrix: (Units=1/GPa)
#
#
# Indices 1 2 3 4 5 6 
#
# 1 0.012689 -0.000912 -0.002971 -0.002903 -0.010208 0.001844
# 2 -0.000912 0.015503 -0.002538 -0.003821 -0.002272 -0.008908
# 3 -0.002971 -0.002538 0.010910 -0.003441 0.004291 0.001388
# 4 -0.002903 -0.003821 -0.003441 0.024047 0.005882 -0.003046
# 5 -0.010208 -0.002272 0.004291 0.005882 0.045013 -0.008777
# 6 0.001844 -0.008908 0.001388 -0.003046 -0.008777 0.028191
#
#
# Mechanical properties :
#
#
# Convention : Reuss Voigt Hill
#
# Bulk Modulus (GPa) = 38.07986 53.76812 45.92399
# Shear Modulus (GPa) = 31.65597 42.93942 37.29770
#
# Velocity S-wave (km/s) = 3.71172 4.32290 4.02892
# Velocity P-wave (km/s) = 5.91115 6.95103 6.45208
#
# Compressibility (1/GPa) = 0.02626060
#
# Stress axis : x y z
#
# Youngs Moduli (GPa) = 78.80677 64.50363 91.66167
#
# Poissons Ratio (x) = 0.05883 0.27228
# Poissons Ratio (y) = 0.07187 0.23265
# Poissons Ratio (z) = 0.23410 0.16372
#
# Static dielectric constant tensor:
#      x y z
#    x 1.847270 0.058860 -0.138020 
#    y 0.058860 1.990550 -0.025640 
#    z -0.138020 -0.025640 1.960150 
# 
# From -- ./inp_files/382861.got.cif
#   From: 2010.05.17/outbox.cif.g08.bks.cpg/sg2_192_cif.got.tgz:382861.got - 2010.06.03 11:33:40.
