data_PCOD9042958
_publ_section_title
;
Structure prediction by ZEFSAII (Michael W. Deem and Ramdas Pophale) SiO2 
 PCOD9042958
Probable space group: P -1
;
_chemical_formula_sum "Si O2"
_cell_formula_units_Z 16
_cell_length_a 7.225938
_cell_length_b 18.006320
_cell_length_c 5.329548
_cell_angle_alpha 84.480617
_cell_angle_beta 88.025872
_cell_angle_gamma 111.110525
_cell_volume 642.118373
_symmetry_space_group_name_H-M "P -1"
_symmetry_group_IT_number 2
_symmetry_cell_setting 'triclinic'
loop_
_space_group_symop_operation_xyz
x,y,z
-x,-y,-z
loop_
_atom_site_type_symbol
_atom_site_label
_atom_site_fract_x
_atom_site_fract_y
_atom_site_fract_z
Si Si1 0.675575 0.528750 0.783413
Si Si2 0.546070 0.381069 0.454245
Si Si3 0.894635 0.082865 0.468786
Si Si4 0.287270 0.010739 0.991684
Si Si5 0.101270 0.617171 0.902484
Si Si6 0.248945 0.171965 0.129297
Si Si7 0.621852 0.270240 0.832195
Si Si8 0.122720 0.788190 0.884691
O O1 0.627019 0.456765 0.614330
O O2 0.651648 0.608080 0.641949
O O3 0.500000 0.500000 0.000000
O O4 0.889424 0.551237 0.889800
O O5 0.722311 0.397110 0.243383
O O6 0.511889 0.294622 0.604452
O O7 0.795276 0.145752 0.357114
O O8 0.833423 0.043614 0.752085
O O9 0.131486 0.131991 0.402487
O O10 0.818597 0.019974 0.260762
O O11 0.289208 0.099549 0.012166
O O12 0.500000 0.000000 0.000000
O O13 0.188863 0.646091 0.165017
O O14 0.088166 0.702365 0.792361
O O15 0.457709 0.245136 0.071321
O O16 0.078367 0.201617 0.016671
O O17 0.729155 0.206987 0.892563
#
# Coordination Sequence:
#
# PCOD9042958 Si02
#       8
#     2   2   2   2   2   2   2   2
#     4  11  26  45  71 103 139 188 231 301 360 437
#     4  11  25  42  71 103 139 180 244 284 376 423
#     4  10  24  46  69 108 145 199 245 317 369 444
#     4  12  24  44  75 107 149 196 258 313 376 443
#     4  10  24  44  68  97 143 178 238 292 358 434
#     4  10  23  45  69 102 146 189 244 304 370 447
#     4  10  23  45  67 103 137 188 235 294 363 436
#     4   8  23  41  69  95 142 180 243 291 372 426
#
# _framework density 24.917525999999999
#
# number of rings (size 3 to 8) (size 9 to 14) (size 15 to 20)
#    1.500    0.250    0.000    3.000    3.500    7.000 
#    6.750    0.000    0.000    0.000    0.000    0.000 
#    0.000    0.000    0.000    0.000    0.000    0.000 
#
# Total GULP energy -89194.815207 kJ/mol
# GULP energy per Si atom -5574.675950 kJ/mol
# Density = 2.486081 g / cm^3
# Si number density = 24.917526 Si / 1000 Ang^3
#
#
#
# Elastic Constant Matrix: (Units=GPa)
#
#
# Indices 1 2 3 4 5 6 
#
# 1 162.5868 41.1312 24.9737 -16.4003 -3.1447 -22.7652
# 2 41.1312 74.9790 25.2763 0.1388 5.7595 -21.8623
# 3 24.9737 25.2763 63.9301 -5.3384 3.4536 -0.5791
# 4 -16.4003 0.1388 -5.3384 29.6375 -9.4222 3.9838
# 5 -3.1447 5.7595 3.4536 -9.4222 29.2939 -10.9919
# 6 -22.7652 -21.8623 -0.5791 3.9838 -10.9919 58.3856
#
#
#
# Elastic Compliance Matrix: (Units=1/GPa)
#
#
# Indices 1 2 3 4 5 6 
#
# 1 0.008273 -0.003704 -0.001532 0.005409 0.004393 0.002282
# 2 -0.003704 0.019385 -0.006423 -0.004988 -0.002981 0.005530
# 3 -0.001532 -0.006423 0.019048 0.002560 -0.001555 -0.003281
# 4 0.005409 -0.004988 0.002560 0.041901 0.014810 0.000196
# 5 0.004393 -0.002981 -0.001555 0.014810 0.043019 0.007670
# 6 0.002282 0.005530 -0.003281 0.000196 0.007670 0.021486
#
#
# Mechanical properties :
#
#
# Convention : Reuss Voigt Hill
#
# Bulk Modulus (GPa) = 42.75712 53.80646 48.28179
# Shear Modulus (GPa) = 27.14064 37.47105 32.30584
#
# Velocity S-wave (km/s) = 3.30391 3.88210 3.60462
# Velocity P-wave (km/s) = 5.63482 6.46026 6.06160
#
# Compressibility (1/GPa) = 0.02338792
#
# Stress axis : x y z
#
# Youngs Moduli (GPa) = 120.87494 51.58708 52.49878
#
# Poissons Ratio (x) = 0.19108 0.08044
# Poissons Ratio (y) = 0.44772 0.33718
# Poissons Ratio (z) = 0.18521 0.33133
#
# Static dielectric constant tensor:
#      x y z
#    x 1.983090 -0.003380 0.056350 
#    y -0.003380 2.163510 0.056780 
#    z 0.056350 0.056780 2.060490 
# 
# From -- ./inp_files/50175.got.cif
#   From: 2010.05.17/outbox.cif.g08.bks.cpg/sg2_26_cif.got.tgz:50175.got - 2010.06.03 11:33:40.
