data_PCOD9042511
_publ_section_title
;
Structure prediction by ZEFSAII (Michael W. Deem and Ramdas Pophale) SiO2 
 PCOD9042511
Probable space group: P -1
;
_chemical_formula_sum "Si O2"
_cell_formula_units_Z 16
_cell_length_a 11.824470
_cell_length_b 14.871276
_cell_length_c 8.607666
_cell_angle_alpha 66.712800
_cell_angle_beta 41.580270
_cell_angle_gamma 45.723824
_cell_volume 693.122669
_symmetry_space_group_name_H-M "P -1"
_symmetry_group_IT_number 2
_symmetry_cell_setting 'triclinic'
loop_
_space_group_symop_operation_xyz
x,y,z
-x,-y,-z
loop_
_atom_site_type_symbol
_atom_site_label
_atom_site_fract_x
_atom_site_fract_y
_atom_site_fract_z
Si Si1 0.844945 0.530158 0.280376
Si Si2 0.901599 0.082622 0.386292
Si Si3 0.456222 0.626213 0.407315
Si Si4 0.981004 0.719161 0.539962
Si Si5 0.652937 0.991057 0.591819
Si Si6 0.545652 0.382559 0.940793
Si Si7 0.711865 0.992521 0.185568
Si Si8 0.709135 0.700558 0.584052
O O1 0.596694 0.627454 0.394920
O O2 0.846017 0.610323 0.357942
O O3 0.916365 0.395094 0.361250
O O4 0.000000 0.500000 0.000000
O O5 0.788710 0.230677 0.434065
O O6 0.711677 0.076842 0.529793
O O7 0.000000 0.000000 0.500000
O O8 0.093042 0.026875 0.096860
O O9 0.500000 0.500000 0.500000
O O10 0.537350 0.598177 0.164702
O O11 0.764581 0.872064 0.680108
O O12 0.888295 0.680451 0.530481
O O13 0.181737 0.716377 0.284978
O O14 0.396806 0.053785 0.774892
O O15 0.775434 0.934596 0.333721
O O16 0.500000 0.500000 0.000000
O O17 0.422279 0.343890 0.185000
O O18 0.496745 0.145395 0.331761
#
# Coordination Sequence:
#
# PCOD9042511 Si02
#       8
#     2   2   2   2   2   2   2   2
#     4  12  26  44  69 103 150 189 233 307 368 419
#     4  12  26  46  74 104 149 189 230 299 365 425
#     4  12  26  47  67 110 147 180 241 296 362 425
#     4  11  23  43  71 104 139 189 241 292 354 434
#     4  10  23  44  72 103 136 187 248 286 349 426
#     4  12  24  43  72  96 140 189 235 288 356 435
#     4  10  23  46  73 103 139 187 243 296 346 431
#     4  11  23  45  71 104 141 188 250 287 356 433
#
# _framework density 23.083938
#
# number of rings (size 3 to 8) (size 9 to 14) (size 15 to 20)
#    0.000    0.750    2.500    4.500    1.750    3.500 
#    6.750    0.000    0.000    0.000    0.000    0.000 
#    0.000    0.000    0.000    0.000    0.000    0.000 
#
# Total GULP energy -89393.381145 kJ/mol
# GULP energy per Si atom -5587.086322 kJ/mol
# Density = 2.303140 g / cm^3
# Si number density = 23.083938 Si / 1000 Ang^3
#
#
#
# Elastic Constant Matrix: (Units=GPa)
#
#
# Indices 1 2 3 4 5 6 
#
# 1 99.2583 44.1157 8.5053 -13.4671 -8.8546 5.2760
# 2 44.1157 127.8888 41.5266 -0.6680 8.3898 -8.3005
# 3 8.5053 41.5266 69.0408 -16.9457 10.6447 1.4191
# 4 -13.4671 -0.6680 -16.9457 23.5322 5.8493 -4.8417
# 5 -8.8546 8.3898 10.6447 5.8493 32.0137 -6.1642
# 6 5.2760 -8.3005 1.4191 -4.8417 -6.1642 45.5982
#
#
#
# Elastic Compliance Matrix: (Units=1/GPa)
#
#
# Indices 1 2 3 4 5 6 
#
# 1 0.014273 -0.006550 0.004454 0.010365 0.001979 -0.001614
# 2 -0.006550 0.013333 -0.009733 -0.009927 0.000219 0.002463
# 3 0.004454 -0.009733 0.027271 0.024008 -0.010046 -0.001945
# 4 0.010365 -0.009927 0.024008 0.069467 -0.014897 0.001609
# 5 0.001979 0.000219 -0.010046 -0.014897 0.038511 0.003748
# 6 -0.001614 0.002463 -0.001945 0.001609 0.003748 0.023304
#
#
# Mechanical properties :
#
#
# Convention : Reuss Voigt Hill
#
# Bulk Modulus (GPa) = 32.03299 53.83146 42.93222
# Shear Modulus (GPa) = 22.70407 33.69817 28.20112
#
# Velocity S-wave (km/s) = 3.13955 3.82489 3.49904
# Velocity P-wave (km/s) = 5.20089 6.54805 5.91296
#
# Compressibility (1/GPa) = 0.03121782
#
# Stress axis : x y z
#
# Youngs Moduli (GPa) = 70.06253 75.00209 36.66835
#
# Poissons Ratio (x) = 0.49127 -0.16331
# Poissons Ratio (y) = 0.45892 0.35691
# Poissons Ratio (z) = -0.31203 0.73002
#
# Static dielectric constant tensor:
#      x y z
#    x 1.899360 -0.004510 0.009760 
#    y -0.004510 1.935220 0.001230 
#    z 0.009760 0.001230 1.784590 
# 
# From -- ./inp_files/272337.got.cif
#   From: 2010.05.17/outbox.cif.g08.bks.cpg/sg2_137_cif.got.tgz:272337.got - 2010.06.03 11:33:40.
