data_PCOD9042925
_publ_section_title
;
Structure prediction by ZEFSAII (Michael W. Deem and Ramdas Pophale) SiO2 
 PCOD9042925
Probable space group: P -1
;
_chemical_formula_sum "Si O2"
_cell_formula_units_Z 16
_cell_length_a 5.122102
_cell_length_b 17.209659
_cell_length_c 22.715092
_cell_angle_alpha 22.287306
_cell_angle_beta 67.280115
_cell_angle_gamma 66.943173
_cell_volume 697.090207
_symmetry_space_group_name_H-M "P -1"
_symmetry_group_IT_number 2
_symmetry_cell_setting 'triclinic'
loop_
_space_group_symop_operation_xyz
x,y,z
-x,-y,-z
loop_
_atom_site_type_symbol
_atom_site_label
_atom_site_fract_x
_atom_site_fract_y
_atom_site_fract_z
Si Si1 0.685526 0.839570 0.502820
Si Si2 0.280381 0.356870 0.592924
Si Si3 0.895180 0.893271 0.660546
Si Si4 0.850725 0.838484 0.973960
Si Si5 0.781914 0.023110 0.055437
Si Si6 0.194007 0.073804 0.697034
Si Si7 0.297382 0.561395 0.797155
Si Si8 0.579891 0.648365 0.941659
O O1 0.820097 0.817096 0.441518
O O2 0.550325 0.646518 0.678109
O O3 0.416187 0.013989 0.397765
O O4 0.919186 0.926887 0.462292
O O5 0.500000 0.500000 0.500000
O O6 0.216474 0.198532 0.759825
O O7 0.356486 0.215413 0.627956
O O8 0.000000 0.500000 0.500000
O O9 0.855362 0.751298 0.821316
O O10 0.061929 0.750583 0.698195
O O11 0.540770 0.897960 0.987035
O O12 0.837001 0.621461 0.096156
O O13 0.096201 0.837583 0.001709
O O14 0.912590 0.015431 0.796791
O O15 0.000000 0.000000 0.000000
O O16 0.357383 0.847535 0.832244
O O17 0.390304 0.473934 0.914505
O O18 0.500000 0.500000 0.000000
#
# Coordination Sequence:
#
# PCOD9042925 Si02
#       8
#     2   2   2   2   2   2   2   2
#     4  11  26  41  65  94 133 178 218 278 335 380
#     4  11  24  42  68  96 128 175 219 266 331 402
#     4  11  24  43  61  92 136 181 219 267 334 396
#     4  11  24  42  70 100 131 175 215 273 337 396
#     4  11  25  46  70  99 134 168 215 277 338 396
#     4  10  23  45  66  97 137 174 222 275 331 400
#     4  12  23  40  66 100 132 171 230 279 323 397
#     4  11  23  43  72 100 133 184 230 273 331 403
#
# _framework density 22.952555
#
# number of rings (size 3 to 8) (size 9 to 14) (size 15 to 20)
#    0.000    1.000    0.000    7.500    0.000   10.000 
#    0.000    0.000    0.000    1.500    0.000    0.000 
#    0.000    0.000    0.000    0.000    0.000    0.000 
#
# Total GULP energy -89620.447553 kJ/mol
# GULP energy per Si atom -5601.277972 kJ/mol
# Density = 2.290031 g / cm^3
# Si number density = 22.952555 Si / 1000 Ang^3
#
#
#
# Elastic Constant Matrix: (Units=GPa)
#
#
# Indices 1 2 3 4 5 6 
#
# 1 84.9622 23.9674 23.5072 -7.0355 -22.7537 7.1003
# 2 23.9674 117.3212 50.5521 9.8594 -23.5427 13.3034
# 3 23.5072 50.5521 102.9951 13.9028 -28.2615 29.2231
# 4 -7.0355 9.8594 13.9028 49.6873 1.4179 -7.6616
# 5 -22.7537 -23.5427 -28.2615 1.4179 46.0187 -5.2146
# 6 7.1003 13.3034 29.2231 -7.6616 -5.2146 36.8395
#
#
#
# Elastic Compliance Matrix: (Units=1/GPa)
#
#
# Indices 1 2 3 4 5 6 
#
# 1 0.014209 -0.001436 -0.001509 0.002610 0.005314 0.000272
# 2 -0.001436 0.011301 -0.004252 -0.001384 0.002461 -0.000371
# 3 -0.001509 -0.004252 0.018990 -0.006999 0.007410 -0.013644
# 4 0.002610 -0.001384 -0.006999 0.024388 -0.003317 0.010151
# 5 0.005314 0.002461 0.007410 -0.003317 0.029787 -0.004265
# 6 0.000272 -0.000371 -0.013644 0.010151 -0.004265 0.039557
#
#
# Mechanical properties :
#
#
# Convention : Reuss Voigt Hill
#
# Bulk Modulus (GPa) = 33.21631 55.70358 44.45994
# Shear Modulus (GPa) = 30.73844 40.32589 35.53217
#
# Velocity S-wave (km/s) = 3.66350 4.19611 3.93882
# Velocity P-wave (km/s) = 5.69194 6.91362 6.33231
#
# Compressibility (1/GPa) = 0.03010569
#
# Stress axis : x y z
#
# Youngs Moduli (GPa) = 70.37650 88.48612 52.65913
#
# Poissons Ratio (x) = 0.12708 0.07949
# Poissons Ratio (y) = 0.10107 0.22390
# Poissons Ratio (z) = 0.10623 0.37623
#
# Static dielectric constant tensor:
#      x y z
#    x 1.853340 -0.028100 0.019820 
#    y -0.028100 1.886240 0.015770 
#    z 0.019820 0.015770 1.840090 
# 
# From -- ./inp_files/604931.got.cif
#   From: 2010.05.17/outbox.cif.g08.bks.cpg/sg2_303_cif.got.tgz:604931.got - 2010.06.03 11:33:40.
