data_PCOD9042282
_publ_section_title
;
Structure prediction by ZEFSAII (Michael W. Deem and Ramdas Pophale) SiO2 
 PCOD9042282
Probable space group: P -1
;
_chemical_formula_sum "Si O2"
_cell_formula_units_Z 16
_cell_length_a 11.897067
_cell_length_b 9.601899
_cell_length_c 13.916368
_cell_angle_alpha 68.248244
_cell_angle_beta 47.925978
_cell_angle_gamma 38.670195
_cell_volume 696.275305
_symmetry_space_group_name_H-M "P -1"
_symmetry_group_IT_number 2
_symmetry_cell_setting 'triclinic'
loop_
_space_group_symop_operation_xyz
x,y,z
-x,-y,-z
loop_
_atom_site_type_symbol
_atom_site_label
_atom_site_fract_x
_atom_site_fract_y
_atom_site_fract_z
Si Si1 0.922550 0.579318 0.146978
Si Si2 0.845349 0.542665 0.777841
Si Si3 0.999003 0.236272 0.073875
Si Si4 0.706505 0.959982 0.426007
Si Si5 0.136015 0.958735 0.336539
Si Si6 0.690743 0.308671 0.361321
Si Si7 0.404558 0.714958 0.058719
Si Si8 0.363061 0.032209 0.316897
O O1 0.975139 0.500827 0.246736
O O2 0.053821 0.346964 0.073792
O O3 0.644580 0.795999 0.227069
O O4 0.002100 0.689698 0.049458
O O5 0.727134 0.731919 0.714413
O O6 0.028465 0.277574 0.703653
O O7 0.625764 0.660188 0.939669
O O8 0.745458 0.373501 0.223486
O O9 0.192366 0.961024 0.057083
O O10 0.732626 0.938103 0.531589
O O11 0.500000 0.000000 0.500000
O O12 0.641341 0.180593 0.383149
O O13 0.322059 0.741439 0.208537
O O14 0.269231 0.000204 0.293285
O O15 0.000000 0.000000 0.500000
O O16 0.926442 0.143959 0.333169
O O17 0.500000 0.500000 0.500000
O O18 0.500000 0.500000 0.000000
#
# Coordination Sequence:
#
# PCOD9042282 Si02
#       8
#     2   2   2   2   2   2   2   2
#     4  11  24  44  74 109 147 189 259 312 383 458
#     4  12  25  44  73 106 147 203 245 318 384 449
#     4  10  23  44  70 105 147 195 244 322 375 454
#     4  12  26  47  73 108 156 199 252 322 387 460
#     4  11  25  44  73 106 143 201 250 312 373 451
#     4  11  24  46  73 103 144 195 260 312 381 460
#     4  11  25  46  72 107 157 199 254 319 387 454
#     4  12  25  47  74 109 148 196 262 311 382 457
#
# _framework density 22.979416000000001
#
# number of rings (size 3 to 8) (size 9 to 14) (size 15 to 20)
#    0.000    0.750    3.750    4.125    5.250    1.000 
#    0.000    5.000    0.000    0.000    0.000    0.000 
#    0.000    0.000    0.000    0.000    0.000    0.000 
#
# Total GULP energy -89230.418713 kJ/mol
# GULP energy per Si atom -5576.901170 kJ/mol
# Density = 2.292711 g / cm^3
# Si number density = 22.979416 Si / 1000 Ang^3
#
#
#
# Elastic Constant Matrix: (Units=GPa)
#
#
# Indices 1 2 3 4 5 6 
#
# 1 67.6824 9.5054 4.1829 -0.4050 -0.2438 -0.9397
# 2 9.5054 105.4164 27.7746 7.2126 5.7453 5.7378
# 3 4.1829 27.7746 134.1682 14.2725 4.1703 5.3300
# 4 -0.4050 7.2126 14.2725 41.7741 4.6681 2.0676
# 5 -0.2438 5.7453 4.1703 4.6681 34.6023 5.9144
# 6 -0.9397 5.7378 5.3300 2.0676 5.9144 35.2917
#
#
#
# Elastic Compliance Matrix: (Units=1/GPa)
#
#
# Indices 1 2 3 4 5 6 
#
# 1 0.014993 -0.001355 -0.000261 0.000416 0.000203 0.000601
# 2 -0.001355 0.010303 -0.001907 -0.000953 -0.001161 -0.001173
# 3 -0.000261 -0.001907 0.008148 -0.002396 -0.000216 -0.000751
# 4 0.000416 -0.000953 -0.002396 0.025270 -0.002879 -0.000470
# 5 0.000203 -0.001161 -0.000216 -0.002879 0.030309 -0.004684
# 6 0.000601 -0.001173 -0.000751 -0.000470 -0.004684 0.029468
#
#
# Mechanical properties :
#
#
# Convention : Reuss Voigt Hill
#
# Bulk Modulus (GPa) = 37.88282 43.35473 40.61877
# Shear Modulus (GPa) = 37.22005 40.05391 38.63698
#
# Velocity S-wave (km/s) = 4.02893 4.17950 4.10490
# Velocity P-wave (km/s) = 6.17773 6.49605 6.33889
#
# Compressibility (1/GPa) = 0.02639719
#
# Stress axis : x y z
#
# Youngs Moduli (GPa) = 66.69801 97.05855 122.73624
#
# Poissons Ratio (x) = 0.13154 0.03207
# Poissons Ratio (y) = 0.09040 0.23400
# Poissons Ratio (z) = 0.01743 0.18505
#
# Static dielectric constant tensor:
#      x y z
#    x 1.932080 0.011550 0.009490 
#    y 0.011550 1.883590 -0.005220 
#    z 0.009490 -0.005220 2.025010 
# 
# From -- ./inp_files/515327.got.cif
#   From: 2010.05.17/outbox.cif.g08.bks.cpg/sg2_258_cif.got.tgz:515327.got - 2010.06.03 11:33:40.
