data_PCOD9042487
_publ_section_title
;
Structure prediction by ZEFSAII (Michael W. Deem and Ramdas Pophale) SiO2 
 PCOD9042487
Probable space group: P -1
;
_chemical_formula_sum "Si O2"
_cell_formula_units_Z 16
_cell_length_a 11.896044
_cell_length_b 24.059688
_cell_length_c 5.097508
_cell_angle_alpha 88.954492
_cell_angle_beta 92.447393
_cell_angle_gamma 151.532573
_cell_volume 694.233146
_symmetry_space_group_name_H-M "P -1"
_symmetry_group_IT_number 2
_symmetry_cell_setting 'triclinic'
loop_
_space_group_symop_operation_xyz
x,y,z
-x,-y,-z
loop_
_atom_site_type_symbol
_atom_site_label
_atom_site_fract_x
_atom_site_fract_y
_atom_site_fract_z
Si Si1 0.542801 0.442513 0.758303
Si Si2 0.164661 0.017752 0.171928
Si Si3 0.049195 0.463094 0.162298
Si Si4 0.253243 0.348444 0.245117
Si Si5 0.499696 0.090626 0.476147
Si Si6 0.226215 0.682911 0.324268
Si Si7 0.718533 0.859598 0.321609
Si Si8 0.725122 0.092167 0.205158
O O1 0.341226 0.358192 0.522528
O O2 0.712987 0.570367 0.715880
O O3 0.693978 0.451702 0.772928
O O4 0.430150 0.404776 0.032768
O O5 0.347686 0.048023 0.224604
O O6 0.240250 0.098453 0.386094
O O7 0.197272 0.056924 0.885461
O O8 0.897112 0.888587 0.249267
O O9 0.916575 0.402173 0.433179
O O10 0.926091 0.370062 0.941803
O O11 0.000000 0.500000 0.000000
O O12 0.990950 0.218728 0.135345
O O13 0.645065 0.204709 0.592328
O O14 0.675651 0.118223 0.414708
O O15 0.306236 0.980963 0.658876
O O16 0.439298 0.732874 0.272794
O O17 0.500000 0.000000 0.000000
#
# Coordination Sequence:
#
# PCOD9042487 Si02
#       8
#     2   2   2   2   2   2   2   2
#     4  10  23  45  73  98 131 184 234 289 347 413
#     4   9  18  35  57  85 127 167 215 257 304 397
#     4  12  26  46  69 105 136 175 234 306 355 406
#     4  10  23  44  72 101 134 178 237 284 346 414
#     4  10  24  40  63  98 137 183 221 269 352 415
#     4  11  23  41  72  96 134 183 229 277 352 427
#     4   9  18  34  59  90 120 163 220 262 308 387
#     4  11  26  41  65 104 145 175 224 292 347 415
#
# _framework density 23.047011000000001
#
# number of rings (size 3 to 8) (size 9 to 14) (size 15 to 20)
#    0.000    1.750    0.000    3.375   10.500    1.000 
#    4.500    0.000    0.000    0.000    0.000    0.000 
#    0.000    0.000    0.000    0.000    0.000    0.000 
#
# Total GULP energy -89344.722128 kJ/mol
# GULP energy per Si atom -5584.045133 kJ/mol
# Density = 2.299456 g / cm^3
# Si number density = 23.047011 Si / 1000 Ang^3
#
#
#
# Elastic Constant Matrix: (Units=GPa)
#
#
# Indices 1 2 3 4 5 6 
#
# 1 98.8195 31.1396 9.6148 -4.2181 6.2567 0.7504
# 2 31.1396 79.1331 2.4532 6.8940 0.6259 6.1328
# 3 9.6148 2.4532 91.1630 13.2074 4.7456 3.1223
# 4 -4.2181 6.8940 13.2074 28.9430 13.0309 0.7548
# 5 6.2567 0.6259 4.7456 13.0309 30.9845 0.1702
# 6 0.7504 6.1328 3.1223 0.7548 0.1702 27.6337
#
#
#
# Elastic Compliance Matrix: (Units=1/GPa)
#
#
# Indices 1 2 3 4 5 6 
#
# 1 0.012566 -0.005452 -0.001845 0.006063 -0.004700 0.000940
# 2 -0.005452 0.015532 0.001019 -0.006373 0.003329 -0.003261
# 3 -0.001845 0.001019 0.012067 -0.006553 0.001267 -0.001368
# 4 0.006063 -0.006373 -0.006553 0.049301 -0.020830 0.000772
# 5 -0.004700 0.003329 0.001267 -0.020830 0.041725 -0.000442
# 6 0.000940 -0.003261 -0.001368 0.000772 -0.000442 0.037022
#
#
# Mechanical properties :
#
#
# Convention : Reuss Voigt Hill
#
# Bulk Modulus (GPa) = 36.21888 39.50341 37.86115
# Shear Modulus (GPa) = 26.31984 32.57277 29.44630
#
# Velocity S-wave (km/s) = 3.38303 3.76349 3.57832
# Velocity P-wave (km/s) = 5.56859 6.00523 5.79102
#
# Compressibility (1/GPa) = 0.02760991
#
# Stress axis : x y z
#
# Youngs Moduli (GPa) = 79.57945 64.38252 82.87253
#
# Poissons Ratio (x) = 0.35099 0.15286
# Poissons Ratio (y) = 0.43384 -0.08442
# Poissons Ratio (z) = 0.14679 -0.06558
#
# Static dielectric constant tensor:
#      x y z
#    x 1.924290 0.010760 0.007870 
#    y 0.010760 1.953610 0.046240 
#    z 0.007870 0.046240 1.858550 
# 
# From -- ./inp_files/84344.got.cif
#   From: 2010.05.17/outbox.cif.g08.bks.cpg/sg2_43_cif.got.tgz:84344.got - 2010.06.03 11:33:40.
