data_PCOD9042605
_publ_section_title
;
Structure prediction by ZEFSAII (Michael W. Deem and Ramdas Pophale) SiO2 
 PCOD9042605
Probable space group: P -1
;
_chemical_formula_sum "Si O2"
_cell_formula_units_Z 14
_cell_length_a 12.029066
_cell_length_b 9.654314
_cell_length_c 9.204151
_cell_angle_alpha 49.379384
_cell_angle_beta 100.614550
_cell_angle_gamma 126.005320
_cell_volume 621.088935
_symmetry_space_group_name_H-M "P -1"
_symmetry_group_IT_number 2
_symmetry_cell_setting 'triclinic'
loop_
_space_group_symop_operation_xyz
x,y,z
-x,-y,-z
loop_
_atom_site_type_symbol
_atom_site_label
_atom_site_fract_x
_atom_site_fract_y
_atom_site_fract_z
Si Si1 0.356309 0.409178 0.621486
Si Si2 0.883960 0.351475 0.884024
Si Si3 0.792350 0.285210 0.209899
Si Si4 0.856061 0.750284 0.577620
Si Si5 0.856389 0.979088 0.943347
Si Si6 0.430626 0.730870 0.668577
Si Si7 0.721523 0.857328 0.683950
O O1 0.500000 0.500000 0.500000
O O2 0.217408 0.265629 0.579591
O O3 0.290458 0.232918 0.863438
O O4 0.391903 0.633657 0.561143
O O5 0.877011 0.556730 0.704304
O O6 0.044219 0.480500 0.895269
O O7 0.772410 0.209926 0.087974
O O8 0.872397 0.201960 0.850974
O O9 0.702913 0.366512 0.192229
O O10 0.768114 0.079226 0.442618
O O11 0.738850 0.692736 0.707559
O O12 0.000000 0.000000 0.500000
O O13 0.822478 0.946782 0.787066
O O14 0.000000 0.000000 0.000000
O O15 0.553273 0.723064 0.765291
O O16 0.500000 0.000000 0.500000
#
# Coordination Sequence:
#
# PCOD9042605 Si02
#       7
#     2   2   2   2   2   2   2
#     4  12  27  49  74 109 155 195 249 316 372 443
#     4  11  26  43  75 107 145 196 250 305 370 447
#     4  10  23  44  73 102 145 191 251 301 369 434
#     4  12  25  46  76 109 152 198 250 307 377 445
#     4  12  29  47  73 112 152 193 258 309 373 449
#     4  10  24  45  75 101 145 193 249 298 376 440
#     4  11  24  46  72 103 147 196 242 310 375 438
#
# _framework density 22.541056000000001
#
# number of rings (size 3 to 8) (size 9 to 14) (size 15 to 20)
#    0.000    0.857    2.857    2.571   14.000    2.286 
#    0.000    1.429    0.000    0.000    0.000    0.000 
#    0.000    0.000    0.000    0.000    0.000    0.000 
#
# Total GULP energy -78152.139361 kJ/mol
# GULP energy per Si atom -5582.295669 kJ/mol
# Density = 2.248975 g / cm^3
# Si number density = 22.541056 Si / 1000 Ang^3
#
#
#
# Elastic Constant Matrix: (Units=GPa)
#
#
# Indices 1 2 3 4 5 6 
#
# 1 152.5283 23.1394 6.2353 -2.1115 -5.3000 -18.1533
# 2 23.1394 135.7648 16.4737 8.1950 14.8049 -24.8408
# 3 6.2353 16.4737 71.2803 1.7587 -4.0948 -1.1117
# 4 -2.1115 8.1950 1.7587 36.5256 2.8834 3.9536
# 5 -5.3000 14.8049 -4.0948 2.8834 26.0773 0.0537
# 6 -18.1533 -24.8408 -1.1117 3.9536 0.0537 47.9771
#
#
#
# Elastic Compliance Matrix: (Units=1/GPa)
#
#
# Indices 1 2 3 4 5 6 
#
# 1 0.007042 -0.001011 -0.000245 0.000265 0.001933 0.002111
# 2 -0.001011 0.009407 -0.002288 -0.002110 -0.005682 0.004615
# 3 -0.000245 -0.002288 0.014783 -0.000400 0.003617 -0.000906
# 4 0.000265 -0.002110 -0.000400 0.028401 -0.001945 -0.003340
# 5 0.001933 -0.005682 0.003617 -0.001945 0.042753 -0.002014
# 6 0.002111 0.004615 -0.000906 -0.003340 -0.002014 0.024288
#
#
# Mechanical properties :
#
#
# Convention : Reuss Voigt Hill
#
# Bulk Modulus (GPa) = 41.41833 50.14115 45.77974
# Shear Modulus (GPa) = 35.25861 43.03101 39.14481
#
# Velocity S-wave (km/s) = 3.95928 4.37396 4.17177
# Velocity P-wave (km/s) = 6.27022 6.91385 6.59989
#
# Compressibility (1/GPa) = 0.02414390
#
# Stress axis : x y z
#
# Youngs Moduli (GPa) = 142.01236 106.30402 67.64610
#
# Poissons Ratio (x) = 0.10746 0.01657
# Poissons Ratio (y) = 0.14356 0.15477
# Poissons Ratio (z) = 0.03478 0.24322
#
# Static dielectric constant tensor:
#      x y z
#    x 1.867870 0.024820 0.082500 
#    y 0.024820 1.889700 -0.035180 
#    z 0.082500 -0.035180 1.687590 
# 
# From -- ./inp_files/242189.got.cif
#   From: 2010.05.17/outbox.cif.g08.bks.cpg/sg2_122_cif.got.tgz:242189.got - 2010.06.03 11:33:40.
