data_PCOD9042960
_publ_section_title
;
Structure prediction by ZEFSAII (Michael W. Deem and Ramdas Pophale) SiO2 
 PCOD9042960
Probable space group: P -1
;
_chemical_formula_sum "Si O2"
_cell_formula_units_Z 16
_cell_length_a 12.595116
_cell_length_b 11.938904
_cell_length_c 11.266532
_cell_angle_alpha 70.927952
_cell_angle_beta 84.765508
_cell_angle_gamma 143.820552
_cell_volume 729.192122
_symmetry_space_group_name_H-M "P -1"
_symmetry_group_IT_number 2
_symmetry_cell_setting 'triclinic'
loop_
_space_group_symop_operation_xyz
x,y,z
-x,-y,-z
loop_
_atom_site_type_symbol
_atom_site_label
_atom_site_fract_x
_atom_site_fract_y
_atom_site_fract_z
Si Si1 0.654553 0.426159 0.283548
Si Si2 0.023388 0.271133 0.213448
Si Si3 0.044299 0.325834 0.464538
Si Si4 0.126035 0.915188 0.172877
Si Si5 0.269576 0.315303 0.019507
Si Si6 0.641113 0.085184 0.608409
Si Si7 0.496485 0.199534 0.609454
Si Si8 0.524085 0.130375 0.042516
O O1 0.657975 0.536907 0.153280
O O2 0.549638 0.349543 0.450561
O O3 0.918920 0.652075 0.209786
O O4 0.506784 0.173202 0.331879
O O5 0.002615 0.228587 0.372910
O O6 0.122231 0.255555 0.140236
O O7 0.212990 0.563239 0.079251
O O8 0.777805 0.065921 0.251656
O O9 0.318458 0.602764 0.371855
O O10 0.927994 0.154770 0.655627
O O11 0.909010 0.318303 0.472433
O O12 0.365335 0.089335 0.051091
O O13 0.131731 0.059341 0.093499
O O14 0.500000 0.500000 0.000000
O O15 0.561467 0.137257 0.563707
O O16 0.584962 0.028209 0.772012
O O17 0.500000 0.000000 0.000000
#
# Coordination Sequence:
#
# PCOD9042960 Si02
#       8
#     2   2   2   2   2   2   2   2
#     4  11  23  43  69  99 130 178 237 272 338 414
#     4  12  25  42  69 103 139 175 233 283 337 405
#     4  10  23  45  67 103 139 178 231 272 346 404
#     4  10  24  46  71  95 135 187 226 283 336 403
#     4  12  24  48  68  93 134 187 234 276 343 402
#     4  11  21  44  69  95 145 184 221 272 347 413
#     4  11  25  41  69 105 141 179 222 284 342 407
#     4  11  24  42  67 103 137 179 227 278 343 405
#
# _framework density 21.942093
#
# number of rings (size 3 to 8) (size 9 to 14) (size 15 to 20)
#    0.000    1.000    3.750    2.625    1.750    4.000 
#    2.250    1.250    0.000    0.000    0.000    0.000 
#    0.000    0.000    0.000    0.000    0.000    0.000 
#
# Total GULP energy -89389.744102 kJ/mol
# GULP energy per Si atom -5586.859006 kJ/mol
# Density = 2.189215 g / cm^3
# Si number density = 21.942093 Si / 1000 Ang^3
#
#
#
# Elastic Constant Matrix: (Units=GPa)
#
#
# Indices 1 2 3 4 5 6 
#
# 1 118.8427 46.4948 51.3575 -2.4038 -7.0312 5.7143
# 2 46.4948 111.3699 35.6929 -20.8092 -20.9785 5.9727
# 3 51.3575 35.6929 73.3301 -5.4078 -12.8550 14.4500
# 4 -2.4038 -20.8092 -5.4078 30.9798 10.4575 -13.4577
# 5 -7.0312 -20.9785 -12.8550 10.4575 36.7290 -8.2093
# 6 5.7143 5.9727 14.4500 -13.4577 -8.2093 31.4776
#
#
#
# Elastic Compliance Matrix: (Units=1/GPa)
#
#
# Indices 1 2 3 4 5 6 
#
# 1 0.013117 -0.003626 -0.007994 -0.001948 -0.001643 0.000715
# 2 -0.003626 0.013960 -0.003743 0.008992 0.004468 0.004737
# 3 -0.007994 -0.003743 0.023225 -0.004397 0.003603 -0.009441
# 4 -0.001948 0.008992 -0.004397 0.047952 -0.006051 0.019589
# 5 -0.001643 0.004468 0.003603 -0.006051 0.033319 0.003900
# 6 0.000715 0.004737 -0.009441 0.019589 0.003900 0.044466
#
#
# Mechanical properties :
#
#
# Convention : Reuss Voigt Hill
#
# Bulk Modulus (GPa) = 51.08193 63.40369 57.24281
# Shear Modulus (GPa) = 23.44230 31.17045 27.30637
#
# Velocity S-wave (km/s) = 3.27214 3.77314 3.53154
# Velocity P-wave (km/s) = 6.13243 6.92393 6.54017
#
# Compressibility (1/GPa) = 0.01957640
#
# Stress axis : x y z
#
# Youngs Moduli (GPa) = 76.23903 71.63346 43.05678
#
# Poissons Ratio (x) = 0.25972 0.34421
# Poissons Ratio (y) = 0.27642 0.16115
# Poissons Ratio (z) = 0.60948 0.26810
#
# Static dielectric constant tensor:
#      x y z
#    x 1.821140 0.043390 0.032400 
#    y 0.043390 1.861590 -0.010090 
#    z 0.032400 -0.010090 1.848140 
# 
# From -- ./inp_files/427990.got.cif
#   From: 2010.05.17/outbox.cif.g08.bks.cpg/sg2_214_cif.got.tgz:427990.got - 2010.06.03 11:33:40.
