data_PCOD9042702
_publ_section_title
;
Structure prediction by ZEFSAII (Michael W. Deem and Ramdas Pophale) SiO2 
 PCOD9042702
Probable space group: P -1
;
_chemical_formula_sum "Si O2"
_cell_formula_units_Z 16
_cell_length_a 9.157421
_cell_length_b 5.638480
_cell_length_c 17.582064
_cell_angle_alpha 105.689141
_cell_angle_beta 136.124988
_cell_angle_gamma 81.470763
_cell_volume 604.283941
_symmetry_space_group_name_H-M "P -1"
_symmetry_group_IT_number 2
_symmetry_cell_setting 'triclinic'
loop_
_space_group_symop_operation_xyz
x,y,z
-x,-y,-z
loop_
_atom_site_type_symbol
_atom_site_label
_atom_site_fract_x
_atom_site_fract_y
_atom_site_fract_z
Si Si1 0.379307 0.462448 0.327339
Si Si2 0.830745 0.307388 0.959616
Si Si3 0.006233 0.815279 0.255345
Si Si4 0.061793 0.073174 0.156548
Si Si5 0.411198 0.490740 0.880854
Si Si6 0.772477 0.883154 0.381832
Si Si7 0.376703 0.676571 0.736634
Si Si8 0.327571 0.144996 0.490176
O O1 0.249698 0.217523 0.285913
O O2 0.432177 0.403316 0.253835
O O3 0.404359 0.436977 0.541599
O O4 0.204447 0.659758 0.291546
O O5 0.591615 0.365867 0.888593
O O6 0.836503 0.081526 0.884542
O O7 0.000000 0.500000 0.000000
O O8 0.920214 0.249974 0.071437
O O9 0.819385 0.649322 0.209682
O O10 0.927860 0.915935 0.154176
O O11 0.102514 0.034782 0.365416
O O12 0.400673 0.725824 0.840525
O O13 0.500000 0.500000 0.000000
O O14 0.769895 0.584800 0.342976
O O15 0.646007 0.905621 0.414876
O O16 0.692259 0.075907 0.307382
O O17 0.000000 0.000000 0.500000
O O18 0.500000 0.000000 0.500000
#
# Coordination Sequence:
#
# PCOD9042702 Si02
#       8
#     2   2   2   2   2   2   2   2
#     4  10  23  44  74 106 145 198 262 311 383 470
#     4  11  25  48  72 106 142 199 263 317 382 478
#     4  11  24  46  68 110 153 194 252 324 403 452
#     4  11  23  42  76 101 143 201 255 316 384 473
#     4  12  26  48  73 110 155 195 260 331 403 461
#     4  11  24  49  73 110 150 204 260 322 392 474
#     4  11  26  46  78 106 149 207 263 317 391 476
#     4   9  22  45  71 109 150 192 255 318 385 460
#
# _framework density 26.477619000000001
#
# number of rings (size 3 to 8) (size 9 to 14) (size 15 to 20)
#    0.000    1.250    0.000    4.875    7.000    2.000 
#   15.750    0.000    0.000    0.000    0.000    0.000 
#    0.000    0.000    0.000    0.000    0.000    0.000 
#
# Total GULP energy -89459.664016 kJ/mol
# GULP energy per Si atom -5591.229001 kJ/mol
# Density = 2.641735 g / cm^3
# Si number density = 26.477619 Si / 1000 Ang^3
#
#
#
# Elastic Constant Matrix: (Units=GPa)
#
#
# Indices 1 2 3 4 5 6 
#
# 1 140.5223 24.9555 23.9462 -9.8291 -7.1507 23.4218
# 2 24.9555 101.9643 37.7988 3.9634 -1.6358 19.6401
# 3 23.9462 37.7988 97.7086 1.2512 -7.0707 15.8460
# 4 -9.8291 3.9634 1.2512 51.4373 14.6354 -11.3226
# 5 -7.1507 -1.6358 -7.0707 14.6354 56.5210 -4.4073
# 6 23.4218 19.6401 15.8460 -11.3226 -4.4073 40.8809
#
#
#
# Elastic Compliance Matrix: (Units=1/GPa)
#
#
# Indices 1 2 3 4 5 6 
#
# 1 0.008125 -0.000946 -0.001031 0.000756 0.000399 -0.003549
# 2 -0.000946 0.012397 -0.003813 -0.002015 -0.000067 -0.004501
# 3 -0.001031 -0.003813 0.012502 -0.001185 0.001428 -0.002598
# 4 0.000756 -0.002015 -0.001185 0.022812 -0.005494 0.006720
# 5 0.000399 -0.000067 0.001428 -0.005494 0.019328 -0.000188
# 6 -0.003549 -0.004501 -0.002598 0.006720 -0.000188 0.031505
#
#
# Mechanical properties :
#
#
# Convention : Reuss Voigt Hill
#
# Bulk Modulus (GPa) = 46.63234 57.06625 51.84929
# Shear Modulus (GPa) = 39.87418 46.66749 43.27084
#
# Velocity S-wave (km/s) = 3.88488 4.20280 4.04696
# Velocity P-wave (km/s) = 6.14599 6.71943 6.43910
#
# Compressibility (1/GPa) = 0.02144435
#
# Stress axis : x y z
#
# Youngs Moduli (GPa) = 123.08387 80.66763 79.98764
#
# Poissons Ratio (x) = 0.07630 0.08243
# Poissons Ratio (y) = 0.11642 0.30499
# Poissons Ratio (z) = 0.12684 0.30758
#
# Static dielectric constant tensor:
#      x y z
#    x 2.045760 -0.004620 -0.010590 
#    y -0.004620 2.168300 0.006030 
#    z -0.010590 0.006030 2.203140 
# 
# From -- ./inp_files/553562.got.cif
#   From: 2010.05.17/outbox.cif.g08.bks.cpg/sg2_277_cif.got.tgz:553562.got - 2010.06.03 11:33:40.
