data_PCOD9042968
_publ_section_title
;
Structure prediction by ZEFSAII (Michael W. Deem and Ramdas Pophale) SiO2 
 PCOD9042968
Probable space group: P -1
;
_chemical_formula_sum "Si O2"
_cell_formula_units_Z 16
_cell_length_a 22.929044
_cell_length_b 12.508317
_cell_length_c 5.429010
_cell_angle_alpha 80.698344
_cell_angle_beta 69.088208
_cell_angle_gamma 28.283271
_cell_volume 646.882695
_symmetry_space_group_name_H-M "P -1"
_symmetry_group_IT_number 2
_symmetry_cell_setting 'triclinic'
loop_
_space_group_symop_operation_xyz
x,y,z
-x,-y,-z
loop_
_atom_site_type_symbol
_atom_site_label
_atom_site_fract_x
_atom_site_fract_y
_atom_site_fract_z
Si Si1 0.695441 0.265973 0.580906
Si Si2 0.088878 0.150649 0.206964
Si Si3 0.626807 0.992998 0.187249
Si Si4 0.118906 0.882248 0.013757
Si Si5 0.830864 0.658882 0.635256
Si Si6 0.637195 0.565461 0.832281
Si Si7 0.703390 0.054938 0.395192
Si Si8 0.383356 0.172104 0.331360
O O1 0.631437 0.452168 0.788629
O O2 0.619769 0.282718 0.561298
O O3 0.806006 0.032927 0.664410
O O4 0.778809 0.213747 0.289095
O O5 0.978054 0.402218 0.399917
O O6 0.049365 0.089255 0.198106
O O7 0.173974 0.076775 0.890893
O O8 0.531539 0.154626 0.026403
O O9 0.611939 0.122655 0.326765
O O10 0.586392 0.952652 0.432840
O O11 0.786808 0.732102 0.961135
O O12 0.233571 0.637225 0.094205
O O13 0.000000 0.000000 0.000000
O O14 0.742798 0.693667 0.656744
O O15 0.776271 0.855403 0.534891
O O16 0.667112 0.627567 0.603754
O O17 0.500000 0.000000 0.000000
#
# Coordination Sequence:
#
# PCOD9042968 Si02
#       8
#     2   2   2   2   2   2   2   2
#     4  10  24  43  68  96 141 189 236 296 348 427
#     4  10  23  45  70 106 141 189 239 298 357 417
#     4  11  25  44  73 107 142 189 239 292 360 426
#     4  10  25  44  70 102 142 188 241 292 355 428
#     4  11  24  41  73 105 141 188 235 298 360 419
#     4  11  25  44  71 102 142 187 231 292 359 423
#     4  10  23  45  67 105 143 184 245 292 357 418
#     4  11  25  44  70 107 146 184 240 293 357 429
#
# _framework density 24.734006000000001
#
# number of rings (size 3 to 8) (size 9 to 14) (size 15 to 20)
#    0.000    1.500    1.250    1.500    5.250    7.500 
#    0.000    8.750    0.000    0.000    0.000    0.000 
#    0.000    0.000    0.000    0.000    0.000    0.000 
#
# Total GULP energy -89123.530458 kJ/mol
# GULP energy per Si atom -5570.220654 kJ/mol
# Density = 2.467771 g / cm^3
# Si number density = 24.734006 Si / 1000 Ang^3
#
#
#
# Elastic Constant Matrix: (Units=GPa)
#
#
# Indices 1 2 3 4 5 6 
#
# 1 156.1520 57.9434 20.4108 -3.0310 -2.6509 32.3404
# 2 57.9434 104.7331 44.4215 -27.3332 -5.7727 4.8891
# 3 20.4108 44.4215 119.3665 -2.2849 -11.9923 14.8680
# 4 -3.0310 -27.3332 -2.2849 45.7765 4.8483 15.1989
# 5 -2.6509 -5.7727 -11.9923 4.8483 29.6051 -5.1221
# 6 32.3404 4.8891 14.8680 15.1989 -5.1221 44.9955
#
#
#
# Elastic Compliance Matrix: (Units=1/GPa)
#
#
# Indices 1 2 3 4 5 6 
#
# 1 0.009754 -0.005748 0.001219 -0.000392 -0.000858 -0.006754
# 2 -0.005748 0.017509 -0.005516 0.009650 -0.000794 0.000701
# 3 0.001219 -0.005516 0.010859 -0.002096 0.003294 -0.002782
# 4 -0.000392 0.009650 -0.002096 0.031987 -0.006246 -0.011590
# 5 -0.000858 -0.000794 0.003294 -0.006246 0.036929 0.005928
# 6 -0.006754 0.000701 -0.002782 -0.011590 0.005928 0.032512
#
#
# Mechanical properties :
#
#
# Convention : Reuss Voigt Hill
#
# Bulk Modulus (GPa) = 55.45193 69.53368 62.49280
# Shear Modulus (GPa) = 30.18400 41.24050 35.71225
#
# Velocity S-wave (km/s) = 3.49713 4.08776 3.80393
# Velocity P-wave (km/s) = 6.22692 7.10305 6.67937
#
# Compressibility (1/GPa) = 0.01803364
#
# Stress axis : x y z
#
# Youngs Moduli (GPa) = 102.51996 57.11238 92.08869
#
# Poissons Ratio (x) = 0.32826 -0.11222
# Poissons Ratio (y) = 0.58924 0.50792
# Poissons Ratio (z) = -0.12493 0.31501
#
# Static dielectric constant tensor:
#      x y z
#    x 2.072190 0.009880 0.151620 
#    y 0.009880 2.020550 0.049410 
#    z 0.151620 0.049410 1.962020 
# 
# From -- ./inp_files/123618.got.cif
#   From: 2010.05.17/outbox.cif.g08.bks.cpg/sg2_62_cif.got.tgz:123618.got - 2010.06.03 11:33:40.
