data_PCOD9042230
_publ_section_title
;
Structure prediction by ZEFSAII (Michael W. Deem and Ramdas Pophale) SiO2 
 PCOD9042230
Probable space group: P -1
;
_chemical_formula_sum "Si O2"
_cell_formula_units_Z 16
_cell_length_a 9.755671
_cell_length_b 13.893979
_cell_length_c 9.419004
_cell_angle_alpha 104.108173
_cell_angle_beta 107.723387
_cell_angle_gamma 132.801147
_cell_volume 682.066781
_symmetry_space_group_name_H-M "P -1"
_symmetry_group_IT_number 2
_symmetry_cell_setting 'triclinic'
loop_
_space_group_symop_operation_xyz
x,y,z
-x,-y,-z
loop_
_atom_site_type_symbol
_atom_site_label
_atom_site_fract_x
_atom_site_fract_y
_atom_site_fract_z
Si Si1 0.926010 0.845201 0.761717
Si Si2 0.798667 0.312259 0.430885
Si Si3 0.073917 0.157659 0.574129
Si Si4 0.208228 0.816400 0.861999
Si Si5 0.436805 0.613776 0.033439
Si Si6 0.607039 0.773572 0.847739
Si Si7 0.885762 0.237936 0.701541
Si Si8 0.770548 0.306786 0.919210
O O1 0.043171 0.813992 0.859556
O O2 0.891875 0.806722 0.570793
O O3 0.685146 0.746120 0.734234
O O4 0.141917 0.048501 0.929705
O O5 0.864553 0.250772 0.343766
O O6 0.540875 0.217424 0.265248
O O7 0.000000 0.500000 0.500000
O O8 0.817640 0.288205 0.588545
O O9 0.336512 0.314078 0.795706
O O10 0.891211 0.133544 0.589192
O O11 0.000000 0.000000 0.500000
O O12 0.170660 0.702017 0.910247
O O13 0.500000 0.000000 0.000000
O O14 0.439338 0.728258 0.137794
O O15 0.456927 0.636723 0.877593
O O16 0.169752 0.415027 0.906379
O O17 0.721773 0.179973 0.764898
O O18 0.000000 0.500000 0.000000
#
# Coordination Sequence:
#
# PCOD9042230 Si02
#       8
#     2   2   2   2   2   2   2   2
#     4  11  25  43  67 104 137 183 233 289 349 420
#     4  12  22  43  71 100 136 179 233 295 352 417
#     4  12  26  44  66  94 141 181 231 288 350 415
#     4  12  23  45  74  98 137 186 239 291 344 420
#     4  11  22  46  66  95 140 185 224 288 356 416
#     4  11  23  43  70  99 141 180 228 288 362 414
#     4  11  25  43  68 101 136 184 235 284 355 420
#     4  10  23  44  70 102 137 182 231 293 357 417
#
# _framework density 23.458113999999998
#
# number of rings (size 3 to 8) (size 9 to 14) (size 15 to 20)
#    0.000    0.750    6.250    1.125    3.500    0.000 
#    0.000    2.500    0.000    0.000    0.000    0.000 
#    0.000    0.000    0.000    0.000    0.000    0.000 
#
# Total GULP energy -89349.314235 kJ/mol
# GULP energy per Si atom -5584.332140 kJ/mol
# Density = 2.340472 g / cm^3
# Si number density = 23.458114 Si / 1000 Ang^3
#
#
#
# Elastic Constant Matrix: (Units=GPa)
#
#
# Indices 1 2 3 4 5 6 
#
# 1 182.0664 22.2372 34.5462 -15.3488 -21.3445 4.4305
# 2 22.2372 41.3963 6.0262 -6.3009 8.8516 -1.2678
# 3 34.5462 6.0262 89.1442 -18.2886 -2.0131 0.8697
# 4 -15.3488 -6.3009 -18.2886 27.3145 -5.1499 -3.2054
# 5 -21.3445 8.8516 -2.0131 -5.1499 45.9548 -4.8397
# 6 4.4305 -1.2678 0.8697 -3.2054 -4.8397 28.4841
#
#
#
# Elastic Compliance Matrix: (Units=1/GPa)
#
#
# Indices 1 2 3 4 5 6 
#
# 1 0.007054 -0.004043 -0.001833 0.002579 0.004242 -0.000210
# 2 -0.004043 0.028290 0.000143 0.003184 -0.006851 0.001078
# 3 -0.001833 0.000143 0.013649 0.008396 0.000760 0.000949
# 4 0.002579 0.003184 0.008396 0.046378 0.006766 0.005853
# 5 0.004242 -0.006851 0.000760 0.006766 0.026288 0.004240
# 6 -0.000210 0.001078 0.000949 0.005853 0.004240 0.036538
#
#
# Mechanical properties :
#
#
# Convention : Reuss Voigt Hill
#
# Bulk Modulus (GPa) = 26.64884 48.69179 37.67031
# Shear Modulus (GPa) = 27.44616 37.00384 32.22500
#
# Velocity S-wave (km/s) = 3.42425 3.97601 3.71040
# Velocity P-wave (km/s) = 5.19796 6.47149 5.86937
#
# Compressibility (1/GPa) = 0.03752509
#
# Stress axis : x y z
#
# Youngs Moduli (GPa) = 141.76357 35.34761 73.26506
#
# Poissons Ratio (x) = 0.14292 0.13433
# Poissons Ratio (y) = 0.57319 -0.01044
# Poissons Ratio (z) = 0.25992 -0.00504
#
# Static dielectric constant tensor:
#      x y z
#    x 1.911260 -0.015580 -0.042490 
#    y -0.015580 1.867310 0.063880 
#    z -0.042490 0.063880 1.896470 
# 
# From -- ./inp_files/208408.got.cif
#   From: 2010.05.17/outbox.cif.g08.bks.cpg/sg2_105_cif.got.tgz:208408.got - 2010.06.03 11:33:40.
