data_PCOD9042665
_publ_section_title
;
Structure prediction by ZEFSAII (Michael W. Deem and Ramdas Pophale) SiO2 
 PCOD9042665
Probable space group: P -1
;
_chemical_formula_sum "Si O2"
_cell_formula_units_Z 16
_cell_length_a 20.944740
_cell_length_b 9.587993
_cell_length_c 18.159350
_cell_angle_alpha 41.731062
_cell_angle_beta 16.604933
_cell_angle_gamma 40.634948
_cell_volume 675.107526
_symmetry_space_group_name_H-M "P -1"
_symmetry_group_IT_number 2
_symmetry_cell_setting 'triclinic'
loop_
_space_group_symop_operation_xyz
x,y,z
-x,-y,-z
loop_
_atom_site_type_symbol
_atom_site_label
_atom_site_fract_x
_atom_site_fract_y
_atom_site_fract_z
Si Si1 0.214307 0.344703 0.923593
Si Si2 0.260597 0.445854 0.552497
Si Si3 0.338627 0.890480 0.269878
Si Si4 0.979293 0.698311 0.351169
Si Si5 0.115219 0.082018 0.769207
Si Si6 0.086194 0.752666 0.382190
Si Si7 0.489272 0.321109 0.493295
Si Si8 0.513313 0.077909 0.144005
O O1 0.259074 0.360691 0.780922
O O2 0.387199 0.481787 0.711833
O O3 0.304988 0.096015 0.942433
O O4 0.966667 0.439254 0.194901
O O5 0.359641 0.639474 0.334635
O O6 0.195027 0.292868 0.624297
O O7 0.430182 0.305001 0.479867
O O8 0.408888 0.938536 0.255921
O O9 0.079808 0.027898 0.493224
O O10 0.500000 0.000000 0.000000
O O11 0.042401 0.840846 0.158639
O O12 0.012491 0.444611 0.400316
O O13 0.703644 0.785435 0.627660
O O14 0.076454 0.728415 0.313070
O O15 0.330963 0.885730 0.592241
O O16 0.000000 0.000000 0.000000
O O17 0.343663 0.763872 0.112910
#
# Coordination Sequence:
#
# PCOD9042665 Si02
#       8
#     2   2   2   2   2   2   2   2
#     4  11  22  41  73  97 128 178 227 281 327 399
#     4  12  25  44  67 100 138 180 223 276 343 400
#     4  11  26  42  66 102 135 175 227 278 340 404
#     4  10  24  45  65 102 134 171 229 276 339 408
#     4  12  26  45  67 100 142 183 222 276 341 409
#     4  10  23  44  73  97 130 179 223 288 337 396
#     4  11  24  45  66 100 136 178 226 276 334 403
#     4  11  21  43  71  96 129 173 231 277 335 403
#
# _framework density 23.699929999999998
#
# number of rings (size 3 to 8) (size 9 to 14) (size 15 to 20)
#    0.000    1.000    5.000    1.125    1.750    3.500 
#    2.250    0.000    0.000    0.000    0.000    0.000 
#    0.000    0.000    0.000    0.000    0.000    0.000 
#
# Total GULP energy -89497.450152 kJ/mol
# GULP energy per Si atom -5593.590635 kJ/mol
# Density = 2.364599 g / cm^3
# Si number density = 23.699930 Si / 1000 Ang^3
#
#
#
# Elastic Constant Matrix: (Units=GPa)
#
#
# Indices 1 2 3 4 5 6 
#
# 1 60.6938 11.7259 -4.7646 -9.3375 12.4396 -11.9881
# 2 11.7259 82.8358 3.8626 -21.4651 -1.9940 -2.5252
# 3 -4.7646 3.8626 81.4440 -13.9150 12.7620 -0.3767
# 4 -9.3375 -21.4651 -13.9150 31.0236 -1.6466 -2.6121
# 5 12.4396 -1.9940 12.7620 -1.6466 24.8617 -6.3665
# 6 -11.9881 -2.5252 -0.3767 -2.6121 -6.3665 27.8824
#
#
#
# Elastic Compliance Matrix: (Units=1/GPa)
#
#
# Indices 1 2 3 4 5 6 
#
# 1 0.022023 -0.001348 0.004423 0.007743 -0.010930 0.007636
# 2 -0.001348 0.015156 0.000583 0.010706 0.002933 0.002474
# 3 0.004423 0.000583 0.015373 0.008204 -0.009308 0.000806
# 4 0.007743 0.010706 0.008204 0.046240 -0.002045 0.008274
# 5 -0.010930 0.002933 -0.009308 -0.002045 0.052417 0.007218
# 6 0.007636 0.002474 0.000806 0.008274 0.007218 0.041806
#
#
# Mechanical properties :
#
#
# Convention : Reuss Voigt Hill
#
# Bulk Modulus (GPa) = 16.70261 27.40237 22.05249
# Shear Modulus (GPa) = 24.31252 31.03019 27.67136
#
# Velocity S-wave (km/s) = 3.20636 3.62234 3.42068
# Velocity P-wave (km/s) = 4.55747 5.39282 4.99264
#
# Compressibility (1/GPa) = 0.05987087
#
# Stress axis : x y z
#
# Youngs Moduli (GPa) = 45.40615 65.98056 65.04708
#
# Poissons Ratio (x) = 0.08892 -0.28772
# Poissons Ratio (y) = 0.06119 -0.03795
# Poissons Ratio (z) = -0.20084 -0.03850
#
# Static dielectric constant tensor:
#      x y z
#    x 1.940140 -0.032250 0.029720 
#    y -0.032250 1.870110 -0.004730 
#    z 0.029720 -0.004730 1.925140 
# 
# From -- ./inp_files/288989.got.cif
#   From: 2010.05.17/outbox.cif.g08.bks.cpg/sg2_145_cif.got.tgz:288989.got - 2010.06.03 11:33:40.
