data_PCOD9042901
_publ_section_title
;
Structure prediction by ZEFSAII (Michael W. Deem and Ramdas Pophale) SiO2 
 PCOD9042901
Probable space group: P -1
;
_chemical_formula_sum "Si O2"
_cell_formula_units_Z 12
_cell_length_a 5.201793
_cell_length_b 8.497979
_cell_length_c 11.716963
_cell_angle_alpha 82.443721
_cell_angle_beta 72.864173
_cell_angle_gamma 79.137492
_cell_volume 484.489162
_symmetry_space_group_name_H-M "P -1"
_symmetry_group_IT_number 2
_symmetry_cell_setting 'triclinic'
loop_
_space_group_symop_operation_xyz
x,y,z
-x,-y,-z
loop_
_atom_site_type_symbol
_atom_site_label
_atom_site_fract_x
_atom_site_fract_y
_atom_site_fract_z
Si Si1 0.609347 0.993919 0.344536
Si Si2 0.248460 0.630219 0.990770
Si Si3 0.101046 0.493239 0.789866
Si Si4 0.311293 0.967866 0.925103
Si Si5 0.017337 0.210214 0.391559
Si Si6 0.546856 0.340646 0.587454
O O1 0.653877 0.959215 0.208201
O O2 0.312984 0.106278 0.378220
O O3 0.168492 0.904856 0.640932
O O4 0.594005 0.814901 0.410414
O O5 0.099228 0.590176 0.899003
O O6 0.380990 0.779365 0.919906
O O7 0.500000 0.500000 0.000000
O O8 0.067573 0.643418 0.128806
O O9 0.981844 0.624824 0.697592
O O10 0.401113 0.411166 0.716623
O O11 0.500000 0.000000 0.000000
O O12 0.000000 0.000000 0.000000
O O13 0.860860 0.267637 0.525207
O O14 0.500000 0.500000 0.500000
#
# Coordination Sequence:
#
# PCOD9042901 Si02
#       6
#     2   2   2   2   2   2
#     4  12  24  46  72 100 140 182 232 286 345 408
#     4  11  24  42  70 100 142 186 227 283 354 410
#     4  10  23  45  66 102 142 183 227 287 345 415
#     4  12  27  44  71 105 141 184 233 282 342 415
#     4  11  24  47  71 101 137 186 230 283 345 407
#     4  10  24  46  70 101 136 180 237 286 344 410
#
# _framework density 24.768357000000002
#
# number of rings (size 3 to 8) (size 9 to 14) (size 15 to 20)
#    0.000    1.000    1.667    4.000    7.000    0.000 
#    3.000    5.000    0.000    0.000    0.000    0.000 
#    0.000    0.000    0.000    0.000    0.000    0.000 
#
# Total GULP energy -66990.186477 kJ/mol
# GULP energy per Si atom -5582.515540 kJ/mol
# Density = 2.471198 g / cm^3
# Si number density = 24.768357 Si / 1000 Ang^3
#
#
#
# Elastic Constant Matrix: (Units=GPa)
#
#
# Indices 1 2 3 4 5 6 
#
# 1 128.6052 25.1384 38.3790 9.0621 -5.6651 -11.9060
# 2 25.1384 110.7171 22.0235 -21.4020 -1.3904 -16.3565
# 3 38.3790 22.0235 171.3761 1.5969 -26.0126 -2.6816
# 4 9.0621 -21.4020 1.5969 40.7761 -7.6253 -12.3310
# 5 -5.6651 -1.3904 -26.0126 -7.6253 30.7257 8.5623
# 6 -11.9060 -16.3565 -2.6816 -12.3310 8.5623 27.6627
#
#
#
# Elastic Compliance Matrix: (Units=1/GPa)
#
#
# Indices 1 2 3 4 5 6 
#
# 1 0.009016 -0.001939 -0.001896 -0.002641 -0.001169 0.001735
# 2 -0.001939 0.013814 -0.001516 0.011267 -0.001775 0.012759
# 3 -0.001896 -0.001516 0.007419 -0.000396 0.006666 -0.003233
# 4 -0.002641 0.011267 -0.000396 0.038136 0.003158 0.021509
# 5 -0.001169 -0.001775 0.006666 0.003158 0.042175 -0.012553
# 6 0.001735 0.012759 -0.003233 0.021509 -0.012553 0.057600
#
#
# Mechanical properties :
#
#
# Convention : Reuss Voigt Hill
#
# Bulk Modulus (GPa) = 51.15412 64.64224 57.89818
# Shear Modulus (GPa) = 26.97203 41.51008 34.24105
#
# Velocity S-wave (km/s) = 3.30354 4.09826 3.72217
# Velocity P-wave (km/s) = 5.93709 6.96776 6.47297
#
# Compressibility (1/GPa) = 0.01954877
#
# Stress axis : x y z
#
# Youngs Moduli (GPa) = 110.91881 72.38821 134.78374
#
# Poissons Ratio (x) = 0.14035 0.25549
# Poissons Ratio (y) = 0.21506 0.20431
# Poissons Ratio (z) = 0.21025 0.10973
#
# Static dielectric constant tensor:
#      x y z
#    x 1.797300 -0.049620 -0.075060 
#    y -0.049620 1.977510 -0.066120 
#    z -0.075060 -0.066120 2.027720 
# 
# From -- ./inp_files/360158.got.cif
#   From: 2010.05.17/outbox.cif.g08.bks.cpg/sg2_181_cif.got.tgz:360158.got - 2010.06.03 11:33:40.
