data_PCOD9042089
_publ_section_title
;
Structure prediction by ZEFSAII (Michael W. Deem and Ramdas Pophale) SiO2 
 PCOD9042089
Probable space group: P -1
;
_chemical_formula_sum "Si O2"
_cell_formula_units_Z 12
_cell_length_a 9.330358
_cell_length_b 5.083460
_cell_length_c 22.296325
_cell_angle_alpha 109.930234
_cell_angle_beta 151.326473
_cell_angle_gamma 74.518238
_cell_volume 475.817373
_symmetry_space_group_name_H-M "P -1"
_symmetry_group_IT_number 2
_symmetry_cell_setting 'triclinic'
loop_
_space_group_symop_operation_xyz
x,y,z
-x,-y,-z
loop_
_atom_site_type_symbol
_atom_site_label
_atom_site_fract_x
_atom_site_fract_y
_atom_site_fract_z
Si Si1 0.619771 0.030871 0.948121
Si Si2 0.127857 0.704378 0.510950
Si Si3 0.852317 0.580200 0.628500
Si Si4 0.978289 0.795666 0.233181
Si Si5 0.725940 0.042029 0.766238
Si Si6 0.648921 0.418100 0.873467
O O1 0.368403 0.162078 0.906729
O O2 0.610602 0.198670 0.895844
O O3 0.525836 0.708384 0.871722
O O4 0.958370 0.048104 0.098065
O O5 0.048155 0.577605 0.406636
O O6 0.000000 0.500000 0.500000
O O7 0.487025 0.779668 0.649848
O O8 0.000000 0.000000 0.500000
O O9 0.500000 0.500000 0.500000
O O10 0.994947 0.460730 0.732011
O O11 0.910233 0.914402 0.669819
O O12 0.179897 0.801909 0.248640
O O13 0.576809 0.258439 0.772807
O O14 0.000000 0.500000 0.000000
#
# Coordination Sequence:
#
# PCOD9042089 Si02
#       6
#     2   2   2   2   2   2
#     4  11  25  47  73 110 143 191 237 299 364 426
#     4  12  30  48  75 107 142 191 247 300 351 430
#     4  12  27  52  72 103 148 193 242 295 362 417
#     4  12  27  46  78 106 147 190 238 299 358 438
#     4  11  26  48  75 108 149 188 242 299 363 429
#     4  10  23  44  69 103 146 189 234 291 354 423
#
# _framework density 25.219760000000001
#
# number of rings (size 3 to 8) (size 9 to 14) (size 15 to 20)
#    0.000    0.667    1.667    5.000    9.333    6.667 
#    0.000    5.833    0.000    0.000    0.000    0.000 
#    0.000    0.000    0.000    0.000    0.000    0.000 
#
# Total GULP energy -67309.051832 kJ/mol
# GULP energy per Si atom -5609.087653 kJ/mol
# Density = 2.516236 g / cm^3
# Si number density = 25.219760 Si / 1000 Ang^3
#
#
#
# Elastic Constant Matrix: (Units=GPa)
#
#
# Indices 1 2 3 4 5 6 
#
# 1 172.0684 51.1391 34.9719 -7.8597 -12.0321 23.9610
# 2 51.1391 128.1684 24.1128 0.0775 -11.1132 23.9545
# 3 34.9719 24.1128 111.1606 6.3867 8.6262 -0.6587
# 4 -7.8597 0.0775 6.3867 35.1446 -6.9777 6.7688
# 5 -12.0321 -11.1132 8.6262 -6.9777 49.5013 -4.4901
# 6 23.9610 23.9545 -0.6587 6.7688 -4.4901 45.2369
#
#
#
# Elastic Compliance Matrix: (Units=1/GPa)
#
#
# Indices 1 2 3 4 5 6 
#
# 1 0.007573 -0.001776 -0.002354 0.003172 0.001993 -0.003382
# 2 -0.001776 0.009805 -0.001800 0.001096 0.001852 -0.004258
# 3 -0.002354 -0.001800 0.010586 -0.003557 -0.003089 0.002580
# 4 0.003172 0.001096 -0.003557 0.032181 0.005577 -0.006574
# 5 0.001993 0.001852 -0.003089 0.005577 0.022363 -0.000696
# 6 -0.003382 -0.004258 0.002580 -0.006574 -0.000696 0.027104
#
#
# Mechanical properties :
#
#
# Convention : Reuss Voigt Hill
#
# Bulk Modulus (GPa) = 62.09526 70.20499 66.15012
# Shear Modulus (GPa) = 39.41940 46.05480 42.73710
#
# Velocity S-wave (km/s) = 3.95781 4.27797 4.12100
# Velocity P-wave (km/s) = 6.74988 7.23181 6.99500
#
# Compressibility (1/GPa) = 0.01610429
#
# Stress axis : x y z
#
# Youngs Moduli (GPa) = 132.04559 101.98739 94.46017
#
# Poissons Ratio (x) = 0.18110 0.22239
# Poissons Ratio (y) = 0.23448 0.17004
# Poissons Ratio (z) = 0.31088 0.18359
#
# Static dielectric constant tensor:
#      x y z
#    x 1.957400 -0.076240 0.030520 
#    y -0.076240 1.932180 -0.020090 
#    z 0.030520 -0.020090 2.033470 
# 
# From -- ./inp_files/585901.got.cif
#   From: 2010.05.17/outbox.cif.g08.bks.cpg/sg2_293_cif.got.tgz:585901.got - 2010.06.03 11:33:40.
