data_PCOD9042491
_publ_section_title
;
Structure prediction by ZEFSAII (Michael W. Deem and Ramdas Pophale) SiO2 
 PCOD9042491
Probable space group: P -1
;
_chemical_formula_sum "Si O2"
_cell_formula_units_Z 16
_cell_length_a 14.614710
_cell_length_b 8.320245
_cell_length_c 17.339841
_cell_angle_alpha 139.722449
_cell_angle_beta 30.033453
_cell_angle_gamma 135.891427
_cell_volume 671.376616
_symmetry_space_group_name_H-M "P -1"
_symmetry_group_IT_number 2
_symmetry_cell_setting 'triclinic'
loop_
_space_group_symop_operation_xyz
x,y,z
-x,-y,-z
loop_
_atom_site_type_symbol
_atom_site_label
_atom_site_fract_x
_atom_site_fract_y
_atom_site_fract_z
Si Si1 0.409555 0.616359 0.967233
Si Si2 0.106636 0.311196 0.766991
Si Si3 0.213560 0.816214 0.934323
Si Si4 0.701752 0.078007 0.419709
Si Si5 0.042967 0.203130 0.112073
Si Si6 0.860470 0.936915 0.508604
Si Si7 0.449266 0.162287 0.208549
Si Si8 0.224373 0.614063 0.364129
O O1 0.456716 0.645668 0.853131
O O2 0.604898 0.543456 0.832707
O O3 0.209747 0.433573 0.055370
O O4 0.383880 0.894037 0.116199
O O5 0.196877 0.604125 0.803315
O O6 0.225049 0.169568 0.688358
O O7 0.079249 0.177748 0.656088
O O8 0.908285 0.301977 0.947749
O O9 0.416499 0.892906 0.843221
O O10 0.138078 0.059987 0.055498
O O11 0.709849 0.245980 0.552431
O O12 0.847941 0.218240 0.301033
O O13 0.500000 0.000000 0.500000
O O14 0.000000 0.000000 0.000000
O O15 0.786338 0.187157 0.624243
O O16 0.705877 0.739946 0.593189
O O17 0.000000 0.000000 0.500000
O O18 0.000000 0.500000 0.500000
#
# Coordination Sequence:
#
# PCOD9042491 Si02
#       8
#     2   2   2   2   2   2   2   2
#     4  11  27  47  70 105 146 188 252 300 364 445
#     4   9  23  44  73 100 146 181 243 297 361 442
#     4  10  23  44  72 101 137 191 233 300 365 431
#     4  10  23  44  73 109 144 188 234 299 376 438
#     4  11  25  44  73 106 141 189 242 299 364 441
#     4  11  25  45  69 105 144 188 243 296 366 433
#     4  11  27  44  72 100 142 195 240 302 364 431
#     4  11  25  44  73 106 146 191 238 307 368 440
#
# _framework density 23.831631000000002
#
# number of rings (size 3 to 8) (size 9 to 14) (size 15 to 20)
#    0.000    1.500    0.000    2.250   17.500    2.500 
#    2.250    0.000    0.000    0.000    0.000    0.000 
#    0.000    0.000    0.000    0.000    0.000    0.000 
#
# Total GULP energy -89282.933325 kJ/mol
# GULP energy per Si atom -5580.183333 kJ/mol
# Density = 2.377739 g / cm^3
# Si number density = 23.831631 Si / 1000 Ang^3
#
#
#
# Elastic Constant Matrix: (Units=GPa)
#
#
# Indices 1 2 3 4 5 6 
#
# 1 137.7480 38.9382 50.2999 -20.1545 -8.8191 13.0110
# 2 38.9382 123.0956 40.2089 -28.8992 -7.9710 0.0481
# 3 50.2999 40.2089 95.1367 -12.1314 -9.8546 -4.7674
# 4 -20.1545 -28.8992 -12.1314 36.9091 -1.3602 -5.9477
# 5 -8.8191 -7.9710 -9.8546 -1.3602 39.7191 -7.8587
# 6 13.0110 0.0481 -4.7674 -5.9477 -7.8587 35.1300
#
#
#
# Elastic Compliance Matrix: (Units=1/GPa)
#
#
# Indices 1 2 3 4 5 6 
#
# 1 0.010017 -0.001030 -0.004722 0.002491 0.000161 -0.003892
# 2 -0.001030 0.011354 -0.002992 0.007686 0.001905 0.001687
# 3 -0.004722 -0.002992 0.014918 0.000831 0.002988 0.004587
# 4 0.002491 0.007686 0.000831 0.035942 0.004786 0.006336
# 5 0.000161 0.001905 0.002988 0.004786 0.027966 0.007410
# 6 -0.003892 0.001687 0.004587 0.006336 0.007410 0.033257
#
#
# Mechanical properties :
#
#
# Convention : Reuss Voigt Hill
#
# Bulk Modulus (GPa) = 53.18745 68.31938 60.75341
# Shear Modulus (GPa) = 31.80463 37.45386 34.62924
#
# Velocity S-wave (km/s) = 3.65712 3.96865 3.81606
# Velocity P-wave (km/s) = 6.34028 7.05195 6.70556
#
# Compressibility (1/GPa) = 0.01880143
#
# Stress axis : x y z
#
# Youngs Moduli (GPa) = 99.82816 88.07363 67.03445
#
# Poissons Ratio (x) = 0.09068 0.31652
# Poissons Ratio (y) = 0.10279 0.20059
# Poissons Ratio (z) = 0.47136 0.26355
#
# Static dielectric constant tensor:
#      x y z
#    x 1.938370 0.066830 -0.125050 
#    y 0.066830 2.136430 -0.224610 
#    z -0.125050 -0.224610 2.320870 
# 
# From -- ./inp_files/572929.got.cif
#   From: 2010.05.17/outbox.cif.g08.bks.cpg/sg2_287_cif.got.tgz:572929.got - 2010.06.03 11:33:40.
