data_PCOD9042067
_publ_section_title
;
Structure prediction by ZEFSAII (Michael W. Deem and Ramdas Pophale) SiO2 
 PCOD9042067
Probable space group: P -1
;
_chemical_formula_sum "Si O2"
_cell_formula_units_Z 16
_cell_length_a 11.201322
_cell_length_b 9.376471
_cell_length_c 8.267232
_cell_angle_alpha 90.575013
_cell_angle_beta 82.881146
_cell_angle_gamma 129.035822
_cell_volume 666.642535
_symmetry_space_group_name_H-M "P -1"
_symmetry_group_IT_number 2
_symmetry_cell_setting 'triclinic'
loop_
_space_group_symop_operation_xyz
x,y,z
-x,-y,-z
loop_
_atom_site_type_symbol
_atom_site_label
_atom_site_fract_x
_atom_site_fract_y
_atom_site_fract_z
Si Si1 0.155599 0.690315 0.048922
Si Si2 0.479100 0.229038 0.550194
Si Si3 0.893037 0.215042 0.419329
Si Si4 0.228868 0.513851 0.283549
Si Si5 0.640725 0.162653 0.292174
Si Si6 0.182472 0.123251 0.725162
Si Si7 0.137252 0.954528 0.248493
Si Si8 0.682808 0.671661 0.953455
O O1 0.211852 0.652038 0.200029
O O2 0.122219 0.826147 0.109194
O O3 0.295420 0.785921 0.897920
O O4 0.000000 0.500000 0.000000
O O5 0.622369 0.396423 0.629614
O O6 0.536474 0.216072 0.366980
O O7 0.335555 0.229947 0.587149
O O8 0.436572 0.047364 0.649395
O O9 0.794794 0.276675 0.381211
O O10 0.826020 0.096337 0.590882
O O11 0.073053 0.376119 0.409070
O O12 0.873275 0.083384 0.277781
O O13 0.238368 0.409671 0.133333
O O14 0.030431 0.096143 0.699999
O O15 0.243015 0.223999 0.887717
O O16 0.266784 0.165055 0.175858
O O17 0.500000 0.500000 0.000000
#
# Coordination Sequence:
#
# PCOD9042067 Si02
#       8
#     2   2   2   2   2   2   2   2
#     4  12  26  44  75 112 139 192 245 303 366 431
#     4  10  23  44  69 101 146 194 233 303 362 425
#     4  11  24  45  75 106 142 193 246 301 361 429
#     4  12  25  45  72 108 148 185 249 302 359 440
#     4  10  23  47  69 101 150 192 241 298 369 430
#     4  11  23  46  72 101 145 193 236 296 359 438
#     4  12  26  46  78 109 145 195 246 295 369 439
#     4  12  26  49  73 110 149 190 241 303 371 435
#
# _framework density 24.000868000000001
#
# number of rings (size 3 to 8) (size 9 to 14) (size 15 to 20)
#    0.000    0.750    3.750    3.750    1.750    1.500 
#    6.750    1.250    0.000    0.000    0.000    0.000 
#    0.000    0.000    0.000    0.000    0.000    0.000 
#
# Total GULP energy -89561.891668 kJ/mol
# GULP energy per Si atom -5597.618229 kJ/mol
# Density = 2.394624 g / cm^3
# Si number density = 24.000868 Si / 1000 Ang^3
#
#
#
# Elastic Constant Matrix: (Units=GPa)
#
#
# Indices 1 2 3 4 5 6 
#
# 1 114.2615 38.1742 36.1803 -4.2216 -31.3022 4.0038
# 2 38.1742 97.8974 30.7273 9.3572 -15.5711 12.9539
# 3 36.1803 30.7273 91.5301 -1.5234 -19.8027 -1.5068
# 4 -4.2216 9.3572 -1.5234 39.1163 -0.3759 -6.9115
# 5 -31.3022 -15.5711 -19.8027 -0.3759 39.3206 2.4830
# 6 4.0038 12.9539 -1.5068 -6.9115 2.4830 42.2783
#
#
#
# Elastic Compliance Matrix: (Units=1/GPa)
#
#
# Indices 1 2 3 4 5 6 
#
# 1 0.012754 -0.003156 -0.002266 0.002039 0.007810 -0.000447
# 2 -0.003156 0.013790 -0.003192 -0.004612 0.001606 -0.004888
# 3 -0.002266 -0.003192 0.013759 0.001389 0.003768 0.001689
# 4 0.002039 -0.004612 0.001389 0.027974 0.000397 0.005819
# 5 0.007810 0.001606 0.003768 0.000397 0.034380 -0.003052
# 6 -0.000447 -0.004888 0.001689 0.005819 -0.003052 0.026384
#
#
# Mechanical properties :
#
#
# Convention : Reuss Voigt Hill
#
# Bulk Modulus (GPa) = 43.33426 57.09473 50.21449
# Shear Modulus (GPa) = 32.47602 37.38352 34.92977
#
# Velocity S-wave (km/s) = 3.68247 3.95091 3.81905
# Velocity P-wave (km/s) = 6.01458 6.68231 6.35722
#
# Compressibility (1/GPa) = 0.02307643
#
# Stress axis : x y z
#
# Youngs Moduli (GPa) = 78.40514 72.51492 72.68131
#
# Poissons Ratio (x) = 0.22884 0.16468
# Poissons Ratio (y) = 0.24743 0.23199
# Poissons Ratio (z) = 0.17765 0.23146
#
# Static dielectric constant tensor:
#      x y z
#    x 1.929760 0.015780 -0.020130 
#    y 0.015780 1.951460 0.005100 
#    z -0.020130 0.005100 1.891810 
# 
# From -- ./inp_files/243977.got.cif
#   From: 2010.05.17/outbox.cif.g08.bks.cpg/sg2_122_cif.got.tgz:243977.got - 2010.06.03 11:33:40.
