data_PCOD9042219
_publ_section_title
;
Structure prediction by ZEFSAII (Michael W. Deem and Ramdas Pophale) SiO2 
 PCOD9042219
Probable space group: P -1
;
_chemical_formula_sum "Si O2"
_cell_formula_units_Z 12
_cell_length_a 7.232728
_cell_length_b 16.486782
_cell_length_c 17.837835
_cell_angle_alpha 17.242311
_cell_angle_beta 46.261782
_cell_angle_gamma 51.328880
_cell_volume 449.250234
_symmetry_space_group_name_H-M "P -1"
_symmetry_group_IT_number 2
_symmetry_cell_setting 'triclinic'
loop_
_space_group_symop_operation_xyz
x,y,z
-x,-y,-z
loop_
_atom_site_type_symbol
_atom_site_label
_atom_site_fract_x
_atom_site_fract_y
_atom_site_fract_z
Si Si1 0.755388 0.098190 0.791450
Si Si2 0.413849 0.069743 0.347099
Si Si3 0.172911 0.611137 0.939161
Si Si4 0.617088 0.676336 0.087059
Si Si5 0.751384 0.581621 0.455421
Si Si6 0.744097 0.064347 0.124805
O O1 0.773220 0.431688 0.502516
O O2 0.994123 0.975684 0.870505
O O3 0.500000 0.000000 0.000000
O O4 0.726877 0.988917 0.811639
O O5 0.668298 0.252613 0.153034
O O6 0.718048 0.168468 0.350089
O O7 0.517059 0.946936 0.351088
O O8 0.236149 0.304642 0.177243
O O9 0.869924 0.588633 0.059004
O O10 0.498766 0.537710 0.319173
O O11 0.373943 0.667368 0.106351
O O12 0.761157 0.903965 0.183014
O O13 0.000000 0.500000 0.500000
#
# Coordination Sequence:
#
# PCOD9042219 Si02
#       6
#     2   2   2   2   2   2
#     4   9  20  43  64  92 134 173 227 286 341 413
#     4  10  23  44  70 101 141 180 230 290 343 417
#     4  10  23  44  70 102 138 183 232 282 350 417
#     4  11  23  40  69  96 131 181 228 278 351 415
#     4   9  22  41  62  96 134 167 228 286 337 408
#     4  11  23  40  67  98 131 177 226 285 347 408
#
# _framework density 26.711172000000001
#
# number of rings (size 3 to 8) (size 9 to 14) (size 15 to 20)
#    0.000    2.000    1.667    0.000    4.667    8.000 
#    0.000    5.000    0.000    0.000    0.000    0.000 
#    0.000    0.000    0.000    0.000    0.000    0.000 
#
# Total GULP energy -67070.648596 kJ/mol
# GULP energy per Si atom -5589.220716 kJ/mol
# Density = 2.665038 g / cm^3
# Si number density = 26.711172 Si / 1000 Ang^3
#
#
#
# Elastic Constant Matrix: (Units=GPa)
#
#
# Indices 1 2 3 4 5 6 
#
# 1 122.7201 55.2844 19.3825 -14.7427 5.6298 -37.8547
# 2 55.2844 216.7596 66.9719 -7.6728 8.1969 -35.1202
# 3 19.3825 66.9719 67.6568 -7.1088 23.3903 -12.9817
# 4 -14.7427 -7.6728 -7.1088 45.9917 4.3722 -0.0131
# 5 5.6298 8.1969 23.3903 4.3722 36.4924 -12.4877
# 6 -37.8547 -35.1202 -12.9817 -0.0131 -12.4877 60.7502
#
#
#
# Elastic Compliance Matrix: (Units=1/GPa)
#
#
# Indices 1 2 3 4 5 6 
#
# 1 0.011178 -0.001734 -0.000138 0.003234 0.000427 0.006022
# 2 -0.001734 0.007971 -0.008767 -0.001070 0.005153 0.002713
# 3 -0.000138 -0.008767 0.029982 0.004904 -0.018701 -0.002591
# 4 0.003234 -0.001070 0.004904 0.023915 -0.005840 0.001249
# 5 0.000427 0.005153 -0.018701 -0.005840 0.041530 0.007784
# 6 0.006022 0.002713 -0.002591 0.001249 0.007784 0.022828
#
#
# Mechanical properties :
#
#
# Convention : Reuss Voigt Hill
#
# Bulk Modulus (GPa) = 35.90341 76.71270 56.30805
# Shear Modulus (GPa) = 29.76770 46.34671 38.05721
#
# Velocity S-wave (km/s) = 3.34193 4.16998 3.77870
# Velocity P-wave (km/s) = 5.32558 7.20879 6.33753
#
# Compressibility (1/GPa) = 0.02785251
#
# Stress axis : x y z
#
# Youngs Moduli (GPa) = 89.46105 125.44802 33.35331
#
# Poissons Ratio (x) = 0.21758 0.00460
# Poissons Ratio (y) = 0.15516 0.29242
# Poissons Ratio (z) = 0.01233 1.09984
#
# Static dielectric constant tensor:
#      x y z
#    x 2.158760 -0.002390 -0.148440 
#    y -0.002390 2.002200 -0.072410 
#    z -0.148440 -0.072410 2.305000 
# 
# From -- ./inp_files/8249.got.cif
#   From: 2010.05.17/outbox.cif.g08.bks.cpg/sg2_5_cif.got.tgz:8249.got - 2010.06.03 11:33:40.
