data_PCOD9042998
_publ_section_title
;
Structure prediction by ZEFSAII (Michael W. Deem and Ramdas Pophale) SiO2 
 PCOD9042998
Probable space group: P -1
;
_chemical_formula_sum "Si O2"
_cell_formula_units_Z 14
_cell_length_a 8.650484
_cell_length_b 8.734204
_cell_length_c 13.831151
_cell_angle_alpha 67.753505
_cell_angle_beta 45.280384
_cell_angle_gamma 94.840767
_cell_volume 581.351464
_symmetry_space_group_name_H-M "P -1"
_symmetry_group_IT_number 2
_symmetry_cell_setting 'triclinic'
loop_
_space_group_symop_operation_xyz
x,y,z
-x,-y,-z
loop_
_atom_site_type_symbol
_atom_site_label
_atom_site_fract_x
_atom_site_fract_y
_atom_site_fract_z
Si Si1 0.655146 0.683222 0.992140
Si Si2 0.260377 0.809688 0.554106
Si Si3 0.344418 0.282119 0.655505
Si Si4 0.126550 0.411164 0.397796
Si Si5 0.920233 0.478129 0.927019
Si Si6 0.937355 0.927254 0.353836
Si Si7 0.946964 0.800081 0.029303
O O1 0.387336 0.585547 0.189691
O O2 0.884103 0.772045 0.952071
O O3 0.690255 0.504797 0.987536
O O4 0.775505 0.871799 0.823853
O O5 0.518714 0.839736 0.387852
O O6 0.056127 0.708765 0.582607
O O7 0.161459 0.644486 0.720601
O O8 0.246614 0.989736 0.558503
O O9 0.500000 0.500000 0.500000
O O10 0.113268 0.171998 0.706181
O O11 0.318897 0.328781 0.766350
O O12 0.130812 0.244321 0.499195
O O13 0.000000 0.500000 0.500000
O O14 0.870083 0.262856 0.988413
O O15 0.000000 0.500000 0.000000
O O16 0.000000 0.000000 0.000000
#
# Coordination Sequence:
#
# PCOD9042998 Si02
#       7
#     2   2   2   2   2   2   2
#     4  10  23  45  67  96 139 177 225 283 338 409
#     4  11  24  44  68  99 138 183 230 276 342 413
#     4  12  22  40  70  99 136 175 224 292 339 393
#     4  12  27  46  70  99 140 184 225 281 348 411
#     4   9  21  38  64  95 132 172 219 276 339 395
#     4  11  25  44  70  99 136 180 236 278 341 410
#     4  11  20  36  63 100 134 166 225 280 342 392
#
# _framework density 24.081817000000001
#
# number of rings (size 3 to 8) (size 9 to 14) (size 15 to 20)
#    0.000    1.143    2.857    3.429    2.000    4.000 
#    0.000    2.857    0.000    0.000    0.000    0.000 
#    0.000    0.000    0.000    0.000    0.000    0.000 
#
# Total GULP energy -77976.128215 kJ/mol
# GULP energy per Si atom -5569.723444 kJ/mol
# Density = 2.402701 g / cm^3
# Si number density = 24.081817 Si / 1000 Ang^3
#
#
#
# Elastic Constant Matrix: (Units=GPa)
#
#
# Indices 1 2 3 4 5 6 
#
# 1 54.1083 3.6665 -0.8074 -7.2022 11.8505 3.5563
# 2 3.6665 118.5930 2.2161 -12.3099 2.7796 -24.1188
# 3 -0.8074 2.2161 76.9222 -8.5166 4.9185 -18.5668
# 4 -7.2022 -12.3099 -8.5166 49.5234 -0.9762 5.2452
# 5 11.8505 2.7796 4.9185 -0.9762 41.1612 -0.5950
# 6 3.5563 -24.1188 -18.5668 5.2452 -0.5950 38.9029
#
#
#
# Elastic Compliance Matrix: (Units=1/GPa)
#
#
# Indices 1 2 3 4 5 6 
#
# 1 0.020386 -0.000731 0.000295 0.003002 -0.005822 -0.002669
# 2 -0.000731 0.010012 0.001582 0.001928 -0.000511 0.006762
# 3 0.000295 0.001582 0.015223 0.002181 -0.001845 0.007897
# 4 0.003002 0.001928 0.002181 0.021570 -0.000757 -0.000958
# 5 -0.005822 -0.000511 -0.001845 -0.000757 0.026206 -0.000162
# 6 -0.002669 0.006762 0.007897 -0.000958 -0.000162 0.034037
#
#
# Mechanical properties :
#
#
# Convention : Reuss Voigt Hill
#
# Bulk Modulus (GPa) = 20.87023 28.86377 24.86700
# Shear Modulus (GPa) = 35.43295 42.22072 38.82684
#
# Velocity S-wave (km/s) = 3.83999 4.19169 4.01969
# Velocity P-wave (km/s) = 5.32408 5.95304 5.64733
#
# Compressibility (1/GPa) = 0.04791514
#
# Stress axis : x y z
#
# Youngs Moduli (GPa) = 49.05430 99.87517 65.68888
#
# Poissons Ratio (x) = 0.07297 -0.01940
# Poissons Ratio (y) = 0.03584 -0.10393
# Poissons Ratio (z) = -0.01449 -0.15802
#
# Static dielectric constant tensor:
#      x y z
#    x 1.919260 -0.046950 -0.124150 
#    y -0.046950 2.070920 -0.027860 
#    z -0.124150 -0.027860 1.680820 
# 
# From -- ./inp_files/154850.got.cif
#   From: 2010.05.17/outbox.cif.g08.bks.cpg/sg2_78_cif.got.tgz:154850.got - 2010.06.03 11:33:40.
