data_PCOD9042193
_publ_section_title
;
Structure prediction by ZEFSAII (Michael W. Deem and Ramdas Pophale) SiO2 
 PCOD9042193
Probable space group: P -1
;
_chemical_formula_sum "Si O2"
_cell_formula_units_Z 15
_cell_length_a 10.966370
_cell_length_b 12.940959
_cell_length_c 8.927386
_cell_angle_alpha 58.560409
_cell_angle_beta 73.256882
_cell_angle_gamma 120.553631
_cell_volume 612.543860
_symmetry_space_group_name_H-M "P -1"
_symmetry_group_IT_number 2
_symmetry_cell_setting 'triclinic'
loop_
_space_group_symop_operation_xyz
x,y,z
-x,-y,-z
loop_
_atom_site_type_symbol
_atom_site_label
_atom_site_fract_x
_atom_site_fract_y
_atom_site_fract_z
Si Si1 0.573237 0.298594 0.581099
Si Si2 0.853431 0.806229 0.807371
Si Si3 0.088741 0.361117 0.296527
Si Si4 0.702637 0.314082 0.217193
Si Si5 0.625402 0.006296 0.639681
Si Si6 0.160158 0.068121 0.769800
Si Si7 0.500000 0.000000 0.000000
Si Si8 0.388732 0.495436 0.330299
O O1 0.704728 0.390003 0.312467
O O2 0.323744 0.102352 0.764936
O O3 0.607355 0.448744 0.545636
O O4 0.607379 0.209911 0.742135
O O5 0.799772 0.646524 0.851653
O O6 0.629797 0.691157 0.031385
O O7 0.000000 0.000000 0.500000
O O8 0.012302 0.902028 0.817209
O O9 0.213107 0.440483 0.345595
O O10 0.839414 0.132919 0.558563
O O11 0.112810 0.509306 0.097781
O O12 0.690477 0.166869 0.386492
O O13 0.489989 0.174729 0.294614
O O14 0.473729 0.935403 0.880350
O O15 0.305626 0.294242 0.496126
O O16 0.000000 0.000000 0.000000
#
# Coordination Sequence:
#
# PCOD9042193 Si02
#       8
#     2   2   2   2   2   2   1   2
#     4  11  24  45  70  98 143 181 234 285 350 406
#     4  12  27  45  68 104 138 188 233 283 356 413
#     4  12  25  40  73  96 142 177 232 286 349 424
#     4  10  23  44  70 100 133 183 230 292 338 414
#     4  10  23  46  69 102 134 180 233 283 354 406
#     4  12  26  44  71 102 141 187 231 290 349 419
#     4  10  24  44  74  98 138 182 224 290 344 416
#     4  12  27  45  66 106 146 184 233 290 349 425
#
# _framework density 24.488040999999999
#
# number of rings (size 3 to 8) (size 9 to 14) (size 15 to 20)
#    0.000    0.800    2.667    3.600    9.333    0.000 
#    0.000    8.667    0.000    0.000    0.000    0.000 
#    0.000    0.000    0.000    0.000    0.000    0.000 
#
# Total GULP energy -83654.261812 kJ/mol
# GULP energy per Si atom -5576.950787 kJ/mol
# Density = 2.443231 g / cm^3
# Si number density = 24.488041 Si / 1000 Ang^3
#
#
#
# Elastic Constant Matrix: (Units=GPa)
#
#
# Indices 1 2 3 4 5 6 
#
# 1 40.6123 19.0823 18.8691 -2.5888 0.5073 14.1784
# 2 19.0823 145.2324 7.4787 -7.0351 -9.7849 16.9576
# 3 18.8691 7.4787 85.8798 -19.0663 12.1347 10.6182
# 4 -2.5888 -7.0351 -19.0663 19.2714 5.9609 -6.6988
# 5 0.5073 -9.7849 12.1347 5.9609 38.3850 -9.4208
# 6 14.1784 16.9576 10.6182 -6.6988 -9.4208 42.6044
#
#
#
# Elastic Compliance Matrix: (Units=1/GPa)
#
#
# Indices 1 2 3 4 5 6 
#
# 1 0.032077 -0.003164 -0.007270 -0.007075 0.000029 -0.008710
# 2 -0.003164 0.007628 0.000494 0.001957 0.001147 -0.001545
# 3 -0.007270 0.000494 0.019315 0.020744 -0.009454 -0.001420
# 4 -0.007075 0.001957 0.020744 0.079213 -0.017015 0.005098
# 5 0.000029 0.001147 -0.009454 -0.017015 0.033606 0.006646
# 6 -0.008710 -0.001545 -0.001420 0.005098 0.006646 0.029610
#
#
# Mechanical properties :
#
#
# Convention : Reuss Voigt Hill
#
# Bulk Modulus (GPa) = 25.54903 40.28720 32.91812
# Shear Modulus (GPa) = 21.33317 35.13847 28.23582
#
# Velocity S-wave (km/s) = 2.95476 3.79215 3.39934
# Velocity P-wave (km/s) = 4.70071 5.97171 5.37392
#
# Compressibility (1/GPa) = 0.03914043
#
# Stress axis : x y z
#
# Youngs Moduli (GPa) = 31.17503 131.09126 51.77205
#
# Poissons Ratio (x) = 0.41478 0.37640
# Poissons Ratio (y) = 0.09864 -0.02559
# Poissons Ratio (z) = 0.22665 -0.06480
#
# Static dielectric constant tensor:
#      x y z
#    x 2.053340 -0.037000 -0.020610 
#    y -0.037000 1.918280 -0.048950 
#    z -0.020610 -0.048950 1.937390 
# 
# From -- ./inp_files/27122.got.cif
#   From: 2010.05.17/outbox.cif.g08.bks.cpg/sg2_14_cif.got.tgz:27122.got - 2010.06.03 11:33:40.
