data_PCOD9042276
_publ_section_title
;
Structure prediction by ZEFSAII (Michael W. Deem and Ramdas Pophale) SiO2 
 PCOD9042276
Probable space group: P -1
;
_chemical_formula_sum "Si O2"
_cell_formula_units_Z 14
_cell_length_a 8.415704
_cell_length_b 12.572717
_cell_length_c 9.062463
_cell_angle_alpha 130.355667
_cell_angle_beta 102.912747
_cell_angle_gamma 63.244495
_cell_volume 649.204335
_symmetry_space_group_name_H-M "P -1"
_symmetry_group_IT_number 2
_symmetry_cell_setting 'triclinic'
loop_
_space_group_symop_operation_xyz
x,y,z
-x,-y,-z
loop_
_atom_site_type_symbol
_atom_site_label
_atom_site_fract_x
_atom_site_fract_y
_atom_site_fract_z
Si Si1 0.212491 0.507689 0.187876
Si Si2 0.098685 0.021900 0.777627
Si Si3 0.369451 0.940760 0.004169
Si Si4 0.703568 0.035103 0.656861
Si Si5 0.582705 0.623590 0.625818
Si Si6 0.397217 0.734128 0.408582
Si Si7 0.833908 0.750286 0.221707
O O1 0.235891 0.452052 0.312955
O O2 0.342386 0.591762 0.253452
O O3 0.014575 0.633976 0.232212
O O4 0.250101 0.359617 0.962322
O O5 0.112714 0.163816 0.823070
O O6 0.236288 0.867902 0.585606
O O7 0.901660 0.029317 0.723957
O O8 0.175898 0.014601 0.951782
O O9 0.374666 0.967437 0.201642
O O10 0.452724 0.761956 0.824322
O O11 0.500000 0.000000 0.000000
O O12 0.724991 0.887408 0.432949
O O13 0.600379 0.185551 0.672109
O O14 0.500000 0.500000 0.500000
O O15 0.566984 0.683326 0.508625
#
# Coordination Sequence:
#
# PCOD9042276 Si02
#       7
#     2   2   2   2   2   2   2
#     4  10  17  33  58  92 124 155 186 232 308 348
#     4  10  18  37  61  87 116 155 196 246 292 346
#     4  11  24  40  60  84 120 158 198 251 299 342
#     4  11  20  38  61  91 114 152 209 244 286 350
#     4   9  20  38  60  80 117 164 188 230 299 357
#     4   9  17  35  62  86 115 155 197 239 288 351
#     4  10  19  32  64  90 119 151 191 249 291 344
#
# _framework density 21.564858999999998
#
# number of rings (size 3 to 8) (size 9 to 14) (size 15 to 20)
#    0.000    2.000    2.857    2.143    0.000    0.000 
#    0.000   15.714    0.000    4.286    0.000    0.000 
#    0.000    0.000    0.000    0.000    0.000    0.000 
#
# Total GULP energy -78225.853063 kJ/mol
# GULP energy per Si atom -5587.560933 kJ/mol
# Density = 2.151578 g / cm^3
# Si number density = 21.564859 Si / 1000 Ang^3
#
#
#
# Elastic Constant Matrix: (Units=GPa)
#
#
# Indices 1 2 3 4 5 6 
#
# 1 51.5184 46.4264 40.0976 -5.5662 7.5158 13.1773
# 2 46.4264 177.3828 81.1162 -24.1475 13.9340 3.6907
# 3 40.0976 81.1162 140.0074 -4.1960 20.8176 23.8411
# 4 -5.5662 -24.1475 -4.1960 50.6846 2.4281 4.0828
# 5 7.5158 13.9340 20.8176 2.4281 25.6731 -12.2884
# 6 13.1773 3.6907 23.8411 4.0828 -12.2884 26.3717
#
#
#
# Elastic Compliance Matrix: (Units=1/GPa)
#
#
# Indices 1 2 3 4 5 6 
#
# 1 0.036276 -0.007915 0.003759 0.004411 -0.025598 -0.033028
# 2 -0.007915 0.010248 -0.006815 0.002107 0.007827 0.012003
# 3 0.003759 -0.006815 0.020510 0.003096 -0.030726 -0.034263
# 4 0.004411 0.002107 0.003096 0.023451 -0.014720 -0.015787
# 5 -0.025598 0.007827 -0.030726 -0.014720 0.113890 0.094821
# 6 -0.033028 0.012003 -0.034263 -0.015787 0.094821 0.130346
#
#
# Mechanical properties :
#
#
# Convention : Reuss Voigt Hill
#
# Bulk Modulus (GPa) = 22.17696 78.24322 50.21009
# Shear Modulus (GPa) = 13.45188 33.96377 23.70782
#
# Velocity S-wave (km/s) = 2.50028 3.97288 3.31928
# Velocity P-wave (km/s) = 4.31757 7.57671 6.16636
#
# Compressibility (1/GPa) = 0.04509184
#
# Stress axis : x y z
#
# Youngs Moduli (GPa) = 27.56606 97.58111 48.75589
#
# Poissons Ratio (x) = 0.77236 -0.18326
# Poissons Ratio (y) = 0.21819 0.33228
# Poissons Ratio (z) = -0.10361 0.66502
#
# Static dielectric constant tensor:
#      x y z
#    x 1.790700 -0.022580 0.015610 
#    y -0.022580 1.806640 -0.042030 
#    z 0.015610 -0.042030 1.776930 
# 
# From -- ./inp_files/159515.got.cif
#   From: 2010.05.17/outbox.cif.g08.bks.cpg/sg2_80_cif.got.tgz:159515.got - 2010.06.03 11:33:40.
