data_PCOD9042667
_publ_section_title
;
Structure prediction by ZEFSAII (Michael W. Deem and Ramdas Pophale) SiO2 
 PCOD9042667
Probable space group: P -1
;
_chemical_formula_sum "Si O2"
_cell_formula_units_Z 14
_cell_length_a 11.043981
_cell_length_b 15.487764
_cell_length_c 5.269117
_cell_angle_alpha 87.563632
_cell_angle_beta 87.548557
_cell_angle_gamma 36.245117
_cell_volume 532.327731
_symmetry_space_group_name_H-M "P -1"
_symmetry_group_IT_number 2
_symmetry_cell_setting 'triclinic'
loop_
_space_group_symop_operation_xyz
x,y,z
-x,-y,-z
loop_
_atom_site_type_symbol
_atom_site_label
_atom_site_fract_x
_atom_site_fract_y
_atom_site_fract_z
Si Si1 0.225170 0.233715 0.122197
Si Si2 0.527949 0.687532 0.533123
Si Si3 0.315780 0.993470 0.944715
Si Si4 0.130067 0.999169 0.351851
Si Si5 0.957840 0.409026 0.624915
Si Si6 0.067056 0.766803 0.358096
Si Si7 0.422887 0.641107 0.049581
O O1 0.100525 0.320937 0.377939
O O2 0.282644 0.097967 0.112275
O O3 0.444879 0.153379 0.099893
O O4 0.086128 0.342869 0.880651
O O5 0.355910 0.859280 0.478408
O O6 0.530242 0.628095 0.281002
O O7 0.761659 0.582308 0.577105
O O8 0.450314 0.680041 0.787764
O O9 0.211217 0.966961 0.066128
O O10 0.169975 0.103388 0.715248
O O11 0.964751 0.172447 0.375178
O O12 0.000000 0.000000 0.500000
O O13 0.850027 0.376254 0.649607
O O14 0.197093 0.754909 0.171339
O O15 0.500000 0.500000 0.000000
#
# Coordination Sequence:
#
# PCOD9042667 Si02
#       7
#     2   2   2   2   2   2   2
#     4  10  23  44  73  98 131 170 244 283 334 385
#     4  12  27  42  67 100 142 180 223 283 341 407
#     4  10  24  41  69 101 131 181 224 292 332 399
#     4  12  25  44  65 101 147 181 223 270 353 415
#     4  11  23  43  69 102 126 178 229 291 332 393
#     4  11  24  40  71  96 140 179 231 275 341 407
#     4  12  25  42  68  99 138 183 230 277 332 407
#
# _framework density 26.299589999999998
#
# number of rings (size 3 to 8) (size 9 to 14) (size 15 to 20)
#    0.000    0.857    4.286    2.143    6.000    2.857 
#    0.000    1.429    0.000    0.000    0.000    0.000 
#    0.000    0.000    0.000    0.000    0.000    0.000 
#
# Total GULP energy -78240.183680 kJ/mol
# GULP energy per Si atom -5588.584549 kJ/mol
# Density = 2.623973 g / cm^3
# Si number density = 26.299590 Si / 1000 Ang^3
#
#
#
# Elastic Constant Matrix: (Units=GPa)
#
#
# Indices 1 2 3 4 5 6 
#
# 1 58.2038 22.7291 17.5825 10.6802 -1.1833 -16.7921
# 2 22.7291 155.6022 36.1827 9.2452 5.7497 -26.5282
# 3 17.5825 36.1827 156.0404 6.3026 -3.7211 -16.7601
# 4 10.6802 9.2452 6.3026 47.5260 -12.5961 1.8265
# 5 -1.1833 5.7497 -3.7211 -12.5961 22.8664 5.4453
# 6 -16.7921 -26.5282 -16.7601 1.8265 5.4453 55.5650
#
#
#
# Elastic Compliance Matrix: (Units=1/GPa)
#
#
# Indices 1 2 3 4 5 6 
#
# 1 0.020620 -0.001324 -0.001267 -0.005233 -0.003043 0.005687
# 2 -0.001324 0.007808 -0.001302 -0.002333 -0.004347 0.003438
# 3 -0.001267 -0.001302 0.006992 -0.000141 0.001083 0.001003
# 4 -0.005233 -0.002333 -0.000141 0.027285 0.016575 -0.005259
# 5 -0.003043 -0.004347 0.001083 0.016575 0.056048 -0.008706
# 6 0.005687 0.003438 0.001003 -0.005259 -0.008706 0.022686
#
#
# Mechanical properties :
#
#
# Convention : Reuss Voigt Hill
#
# Bulk Modulus (GPa) = 36.18547 58.09279 47.13913
# Shear Modulus (GPa) = 31.55841 44.74828 38.15335
#
# Velocity S-wave (km/s) = 3.46780 4.12938 3.81296
# Velocity P-wave (km/s) = 5.46104 6.69869 6.11128
#
# Compressibility (1/GPa) = 0.02763540
#
# Stress axis : x y z
#
# Youngs Moduli (GPa) = 48.49630 128.07219 143.01199
#
# Poissons Ratio (x) = 0.16962 0.18115
# Poissons Ratio (y) = 0.06423 0.18613
# Poissons Ratio (z) = 0.06143 0.16669
#
# Static dielectric constant tensor:
#      x y z
#    x 2.358390 0.141210 0.154870 
#    y 0.141210 2.059340 0.054390 
#    z 0.154870 0.054390 2.060020 
# 
# From -- ./inp_files/65452.got.cif
#   From: 2010.05.17/outbox.cif.g08.bks.cpg/sg2_33_cif.got.tgz:65452.got - 2010.06.03 11:33:40.
