data_PCOD9042805
_publ_section_title
;
Structure prediction by ZEFSAII (Michael W. Deem and Ramdas Pophale) SiO2 
 PCOD9042805
Probable space group: P -1
;
_chemical_formula_sum "Si O2"
_cell_formula_units_Z 16
_cell_length_a 10.341413
_cell_length_b 5.279546
_cell_length_c 17.703898
_cell_angle_alpha 90.090032
_cell_angle_beta 130.012521
_cell_angle_gamma 61.000740
_cell_volume 573.931115
_symmetry_space_group_name_H-M "P -1"
_symmetry_group_IT_number 2
_symmetry_cell_setting 'triclinic'
loop_
_space_group_symop_operation_xyz
x,y,z
-x,-y,-z
loop_
_atom_site_type_symbol
_atom_site_label
_atom_site_fract_x
_atom_site_fract_y
_atom_site_fract_z
Si Si1 0.995146 0.367230 0.199930
Si Si2 0.756685 0.957048 0.009510
Si Si3 0.207566 0.813845 0.182114
Si Si4 0.780757 0.770402 0.560183
Si Si5 0.467616 0.191264 0.184601
Si Si6 0.598255 0.451462 0.431099
Si Si7 0.314632 0.660837 0.830870
Si Si8 0.198720 0.481910 0.631574
O O1 0.809847 0.723097 0.098699
O O2 0.877401 0.220502 0.183672
O O3 0.118002 0.356401 0.318877
O O4 0.147979 0.156194 0.185501
O O5 0.975954 0.906542 0.080107
O O6 0.704529 0.833821 0.917160
O O7 0.542084 0.325224 0.942927
O O8 0.355187 0.555471 0.171220
O O9 0.360011 0.602551 0.311555
O O10 0.612643 0.705502 0.479678
O O11 0.966640 0.576588 0.563833
O O12 0.694098 0.135262 0.515791
O O13 0.632317 0.110924 0.178876
O O14 0.612002 0.911264 0.300946
O O15 0.750359 0.363990 0.414582
O O16 0.241899 0.585416 0.727151
#
# Coordination Sequence:
#
# PCOD9042805 Si02
#       8
#     2   2   2   2   2   2   2   2
#     4  11  28  47  74 108 156 198 255 310 387 455
#     4  11  26  45  74 108 150 201 254 310 385 451
#     4  12  28  45  75 107 157 198 249 315 384 464
#     4  11  28  47  80 111 151 204 262 315 375 446
#     4  11  24  47  78 113 149 192 254 316 387 454
#     4  12  26  48  76 113 154 203 256 316 382 444
#     4  10  23  47  76 110 144 195 252 320 373 466
#     4  10  23  44  78 112 150 188 255 321 380 447
#
# _framework density 27.877911999999998
#
# number of rings (size 3 to 8) (size 9 to 14) (size 15 to 20)
#    0.000    1.000    1.250    3.000    8.750    7.000 
#    0.000    0.000    0.000    0.000    0.000    0.000 
#    0.000    0.000    0.000    0.000    0.000    0.000 
#
# Total GULP energy -89727.027078 kJ/mol
# GULP energy per Si atom -5607.939192 kJ/mol
# Density = 2.781446 g / cm^3
# Si number density = 27.877912 Si / 1000 Ang^3
#
#
#
# Elastic Constant Matrix: (Units=GPa)
#
#
# Indices 1 2 3 4 5 6 
#
# 1 137.5487 36.1748 46.9738 -0.5759 -4.9331 -13.6217
# 2 36.1748 81.2559 17.9567 14.1138 -18.3852 1.9513
# 3 46.9738 17.9567 131.5651 -2.4723 3.4738 20.2051
# 4 -0.5759 14.1138 -2.4723 37.6295 4.3757 -3.4336
# 5 -4.9331 -18.3852 3.4738 4.3757 51.7403 1.3571
# 6 -13.6217 1.9513 20.2051 -3.4336 1.3571 39.2548
#
#
#
# Elastic Compliance Matrix: (Units=1/GPa)
#
#
# Indices 1 2 3 4 5 6 
#
# 1 0.010378 -0.004415 -0.003978 0.002185 -0.000657 0.006082
# 2 -0.004415 0.017274 -0.000642 -0.007612 0.006481 -0.002950
# 3 -0.003978 -0.000642 0.010144 0.000388 -0.001151 -0.006496
# 4 0.002185 -0.007612 0.000388 0.030438 -0.005196 0.003779
# 5 -0.000657 0.006481 -0.001151 -0.005196 0.022115 -0.001177
# 6 0.006082 -0.002950 -0.006496 0.003779 -0.001177 0.031447
#
#
# Mechanical properties :
#
#
# Convention : Reuss Voigt Hill
#
# Bulk Modulus (GPa) = 50.69932 61.39784 56.04858
# Shear Modulus (GPa) = 34.14317 42.34254 38.24286
#
# Velocity S-wave (km/s) = 3.50342 3.90148 3.70780
# Velocity P-wave (km/s) = 5.88141 6.50900 6.20314
#
# Compressibility (1/GPa) = 0.01972413
#
# Stress axis : x y z
#
# Youngs Moduli (GPa) = 96.35864 57.89134 98.57791
#
# Poissons Ratio (x) = 0.25560 0.39218
# Poissons Ratio (y) = 0.42544 0.06332
# Poissons Ratio (z) = 0.38335 0.03719
#
# Static dielectric constant tensor:
#      x y z
#    x 2.173120 -0.050840 -0.010100 
#    y -0.050840 2.166970 0.028550 
#    z -0.010100 0.028550 2.129000 
# 
# From -- ./inp_files/564473.got.cif
#   From: 2010.05.17/outbox.cif.g08.bks.cpg/sg2_283_cif.got.tgz:564473.got - 2010.06.03 11:33:40.
