data_PCOD9042686
_publ_section_title
;
Structure prediction by ZEFSAII (Michael W. Deem and Ramdas Pophale) SiO2 
 PCOD9042686
Probable space group: P -1
;
_chemical_formula_sum "Si O2"
_cell_formula_units_Z 14
_cell_length_a 14.945162
_cell_length_b 9.142873
_cell_length_c 8.470959
_cell_angle_alpha 65.395743
_cell_angle_beta 80.267616
_cell_angle_gamma 38.071726
_cell_volume 622.407848
_symmetry_space_group_name_H-M "P -1"
_symmetry_group_IT_number 2
_symmetry_cell_setting 'triclinic'
loop_
_space_group_symop_operation_xyz
x,y,z
-x,-y,-z
loop_
_atom_site_type_symbol
_atom_site_label
_atom_site_fract_x
_atom_site_fract_y
_atom_site_fract_z
Si Si1 0.679010 0.730077 0.546162
Si Si2 0.134187 0.958301 0.637064
Si Si3 0.332400 0.386114 0.740559
Si Si4 0.322258 0.094732 0.062338
Si Si5 0.882442 0.159342 0.819772
Si Si6 0.806516 0.957187 0.092680
Si Si7 0.884774 0.682991 0.685845
O O1 0.707315 0.646193 0.394477
O O2 0.750758 0.477668 0.732823
O O3 0.771917 0.752906 0.565987
O O4 0.500000 0.000000 0.500000
O O5 0.250767 0.671258 0.652570
O O6 0.208312 0.927758 0.789290
O O7 0.091665 0.169407 0.446009
O O8 0.986496 0.065500 0.684372
O O9 0.513132 0.149773 0.800514
O O10 0.290253 0.324518 0.922115
O O11 0.196600 0.213586 0.168034
O O12 0.317501 0.993661 0.951009
O O13 0.818157 0.072598 0.897187
O O14 0.000000 0.000000 0.000000
O O15 0.961337 0.636587 0.208968
#
# Coordination Sequence:
#
# PCOD9042686 Si02
#       7
#     2   2   2   2   2   2   2
#     4  12  25  46  75 101 140 183 229 289 348 409
#     4  11  25  42  71 103 140 174 235 290 342 408
#     4  11  27  45  69 103 140 184 230 283 350 415
#     4  11  26  46  69  99 143 184 233 280 350 415
#     4  10  23  44  74 102 138 181 237 277 347 409
#     4  11  24  46  71  99 139 186 230 284 345 414
#     4  12  24  45  70 103 137 183 235 287 342 412
#
# _framework density 22.493289000000001
#
# number of rings (size 3 to 8) (size 9 to 14) (size 15 to 20)
#    0.000    0.857    4.286    2.571    6.000    2.857 
#    0.000    0.000    0.000    0.000    0.000    0.000 
#    0.000    0.000    0.000    0.000    0.000    0.000 
#
# Total GULP energy -78369.767173 kJ/mol
# GULP energy per Si atom -5597.840512 kJ/mol
# Density = 2.244209 g / cm^3
# Si number density = 22.493289 Si / 1000 Ang^3
#
#
#
# Elastic Constant Matrix: (Units=GPa)
#
#
# Indices 1 2 3 4 5 6 
#
# 1 57.9007 11.3007 22.4769 -14.5552 -5.2797 14.2019
# 2 11.3007 89.6295 55.1548 -10.2981 -11.7302 18.4761
# 3 22.4769 55.1548 95.6469 -25.0123 -18.9574 -3.0899
# 4 -14.5552 -10.2981 -25.0123 43.9127 9.2650 2.2356
# 5 -5.2797 -11.7302 -18.9574 9.2650 55.4808 -0.8405
# 6 14.2019 18.4761 -3.0899 2.2356 -0.8405 31.3803
#
#
#
# Elastic Compliance Matrix: (Units=1/GPa)
#
#
# Indices 1 2 3 4 5 6 
#
# 1 0.024608 0.005827 -0.008243 0.005725 -0.000438 -0.015799
# 2 0.005827 0.023887 -0.015887 -0.000587 -0.000001 -0.018224
# 3 -0.008243 -0.015887 0.024249 0.005868 0.003392 0.015145
# 4 0.005725 -0.000587 0.005868 0.028573 -0.002403 -0.003767
# 5 -0.000438 -0.000001 0.003392 -0.002403 0.019561 0.001228
# 6 -0.015799 -0.018224 0.015145 -0.003767 0.001228 0.051540
#
#
# Mechanical properties :
#
#
# Convention : Reuss Voigt Hill
#
# Bulk Modulus (GPa) = 27.67085 46.78241 37.22663
# Shear Modulus (GPa) = 22.61716 36.43776 29.52746
#
# Velocity S-wave (km/s) = 3.17441 4.02921 3.62708
# Velocity P-wave (km/s) = 5.07586 6.51841 5.84183
#
# Compressibility (1/GPa) = 0.03613911
#
# Stress axis : x y z
#
# Youngs Moduli (GPa) = 40.63722 41.86292 41.23823
#
# Poissons Ratio (x) = -0.24394 0.33994
# Poissons Ratio (y) = -0.23680 0.65514
# Poissons Ratio (z) = 0.33499 0.66506
#
# Static dielectric constant tensor:
#      x y z
#    x 1.880990 -0.000980 -0.017770 
#    y -0.000980 1.794750 0.045920 
#    z -0.017770 0.045920 1.873910 
# 
# From -- ./inp_files/297620.got.cif
#   From: 2010.05.17/outbox.cif.g08.bks.cpg/sg2_149_cif.got.tgz:297620.got - 2010.06.03 11:33:40.
