data_PCOD9042803
_publ_section_title
;
Structure prediction by ZEFSAII (Michael W. Deem and Ramdas Pophale) SiO2 
 PCOD9042803
Probable space group: P -1
;
_chemical_formula_sum "Si O2"
_cell_formula_units_Z 13
_cell_length_a 9.084934
_cell_length_b 16.435002
_cell_length_c 13.517398
_cell_angle_alpha 25.644713
_cell_angle_beta 41.274149
_cell_angle_gamma 50.151985
_cell_volume 571.412498
_symmetry_space_group_name_H-M "P -1"
_symmetry_group_IT_number 2
_symmetry_cell_setting 'triclinic'
loop_
_space_group_symop_operation_xyz
x,y,z
-x,-y,-z
loop_
_atom_site_type_symbol
_atom_site_label
_atom_site_fract_x
_atom_site_fract_y
_atom_site_fract_z
Si Si1 0.105675 0.993862 0.843411
Si Si2 0.355777 0.288944 0.925090
Si Si3 0.250530 0.612637 0.245321
Si Si4 0.538418 0.644344 0.732469
Si Si5 0.000000 0.500000 0.000000
Si Si6 0.309408 0.842097 0.474604
Si Si7 0.343989 0.148811 0.875435
O O1 0.264852 0.186091 0.531217
O O2 0.241157 0.814602 0.977205
O O3 0.903294 0.948109 0.919805
O O4 0.000000 0.000000 0.000000
O O5 0.614131 0.349966 0.761992
O O6 0.333186 0.293017 0.813137
O O7 0.191360 0.412794 0.928700
O O8 0.302355 0.065934 0.229230
O O9 0.390118 0.490033 0.241468
O O10 0.000000 0.500000 0.500000
O O11 0.335516 0.745096 0.676089
O O12 0.500000 0.500000 0.000000
O O13 0.906697 0.283334 0.322726
O O14 0.529527 0.798622 0.349225
O O15 0.500000 0.000000 0.000000
#
# Coordination Sequence:
#
# PCOD9042803 Si02
#       7
#     2   2   2   2   1   2   2
#     4  12  22  47  78 105 151 194 250 322 379 443
#     4  11  25  48  75 110 154 196 251 310 390 453
#     4  12  24  46  79 109 142 200 255 316 373 451
#     4  12  27  45  73 111 150 195 257 314 384 456
#     4  12  26  44  72 104 160 204 238 300 390 472
#     4  11  23  49  69 107 150 198 248 318 379 444
#     4  10  23  44  78 110 140 195 253 312 379 449
#
# _framework density 22.750640000000001
#
# number of rings (size 3 to 8) (size 9 to 14) (size 15 to 20)
#    0.000    0.615    6.154    1.385    0.000    4.923 
#    2.769    0.000    0.000    0.000    0.000    0.000 
#    0.000    0.000    0.000    0.000    0.000    0.000 
#
# Total GULP energy -72396.446080 kJ/mol
# GULP energy per Si atom -5568.957391 kJ/mol
# Density = 2.269886 g / cm^3
# Si number density = 22.750640 Si / 1000 Ang^3
#
#
#
# Elastic Constant Matrix: (Units=GPa)
#
#
# Indices 1 2 3 4 5 6 
#
# 1 105.8471 39.6182 33.5492 -14.2028 10.6820 11.6387
# 2 39.6182 99.7847 28.8498 -23.5068 -3.1886 3.2622
# 3 33.5492 28.8498 154.1359 -29.3961 9.9739 9.4712
# 4 -14.2028 -23.5068 -29.3961 32.6076 3.8207 -0.1212
# 5 10.6820 -3.1886 9.9739 3.8207 37.2692 -2.5537
# 6 11.6387 3.2622 9.4712 -0.1212 -2.5537 19.7935
#
#
#
# Elastic Compliance Matrix: (Units=1/GPa)
#
#
# Indices 1 2 3 4 5 6 
#
# 1 0.012832 -0.004228 -0.000841 0.002288 -0.004530 -0.007017
# 2 -0.004228 0.013587 -0.000364 0.007422 0.001758 0.000693
# 3 -0.000841 -0.000364 0.008610 0.007486 -0.003131 -0.003924
# 4 0.002288 0.007422 0.007486 0.044565 -0.007058 -0.006788
# 5 -0.004530 0.001758 -0.003131 -0.007058 0.030373 0.007747
# 6 -0.007017 0.000693 -0.003924 -0.006788 0.007747 0.057369
#
#
# Mechanical properties :
#
#
# Convention : Reuss Voigt Hill
#
# Bulk Modulus (GPa) = 41.38367 62.64470 52.01418
# Shear Modulus (GPa) = 26.84452 35.11742 30.98097
#
# Velocity S-wave (km/s) = 3.43876 3.93310 3.69421
# Velocity P-wave (km/s) = 5.83064 6.94412 6.41160
#
# Compressibility (1/GPa) = 0.02416412
#
# Stress axis : x y z
#
# Youngs Moduli (GPa) = 77.92728 73.59708 116.14006
#
# Poissons Ratio (x) = 0.31118 0.09769
# Poissons Ratio (y) = 0.32949 0.04224
# Poissons Ratio (z) = 0.06555 0.02677
#
# Static dielectric constant tensor:
#      x y z
#    x 1.978540 0.070970 -0.084120 
#    y 0.070970 1.907500 -0.088150 
#    z -0.084120 -0.088150 2.089020 
# 
# From -- ./inp_files/398040.got.cif
#   From: 2010.05.17/outbox.cif.g08.bks.cpg/sg2_200_cif.got.tgz:398040.got - 2010.06.03 11:33:40.
