data_PCOD9042708
_publ_section_title
;
Structure prediction by ZEFSAII (Michael W. Deem and Ramdas Pophale) SiO2 
 PCOD9042708
Probable space group: P -1
;
_chemical_formula_sum "Si O2"
_cell_formula_units_Z 12
_cell_length_a 5.214952
_cell_length_b 15.378951
_cell_length_c 9.452922
_cell_angle_alpha 52.856316
_cell_angle_beta 128.598548
_cell_angle_gamma 117.729269
_cell_volume 467.499466
_symmetry_space_group_name_H-M "P -1"
_symmetry_group_IT_number 2
_symmetry_cell_setting 'triclinic'
loop_
_space_group_symop_operation_xyz
x,y,z
-x,-y,-z
loop_
_atom_site_type_symbol
_atom_site_label
_atom_site_fract_x
_atom_site_fract_y
_atom_site_fract_z
Si Si1 0.519667 0.565138 0.757208
Si Si2 0.767519 0.928770 0.601846
Si Si3 0.827326 0.072076 0.981333
Si Si4 0.762273 0.255706 0.378647
Si Si5 0.497372 0.725774 0.335769
Si Si6 0.269255 0.657953 0.008666
O O1 0.251474 0.617501 0.706690
O O2 0.483762 0.620528 0.537075
O O3 0.503838 0.435296 0.863058
O O4 0.881665 0.605892 0.911133
O O5 0.550132 0.816946 0.585058
O O6 0.500000 0.000000 0.500000
O O7 0.000000 0.000000 0.500000
O O8 0.964444 0.899736 0.834015
O O9 0.732872 0.186119 0.778950
O O10 0.500000 0.000000 0.000000
O O11 0.000000 0.000000 0.000000
O O12 0.114243 0.222684 0.573649
O O13 0.702935 0.249853 0.195033
O O14 0.381857 0.696858 0.164697
#
# Coordination Sequence:
#
# PCOD9042708 Si02
#       6
#     2   2   2   2   2   2
#     4  10  23  44  74 108 155 196 253 313 376 459
#     4  12  29  49  76 107 149 197 255 316 380 450
#     4  12  29  49  75 109 148 196 257 314 380 453
#     4  11  26  44  74 108 153 198 254 313 382 453
#     4  11  26  44  74 109 154 197 255 312 383 453
#     4  10  23  46  73 111 149 203 250 312 381 454
#
# _framework density 25.668481
#
# number of rings (size 3 to 8) (size 9 to 14) (size 15 to 20)
#    0.000    1.000    0.000    4.000   16.333    2.000 
#    0.000    0.000    0.000    0.000    0.000    0.000 
#    0.000    0.000    0.000    0.000    0.000    0.000 
#
# Total GULP energy -67301.524576 kJ/mol
# GULP energy per Si atom -5608.460381 kJ/mol
# Density = 2.561006 g / cm^3
# Si number density = 25.668481 Si / 1000 Ang^3
#
#
#
# Elastic Constant Matrix: (Units=GPa)
#
#
# Indices 1 2 3 4 5 6 
#
# 1 127.8997 31.4495 58.4416 -1.9279 -5.0567 -20.1534
# 2 31.4495 92.5064 72.8352 1.2547 0.0792 -22.2899
# 3 58.4416 72.8352 229.8722 31.8230 -3.9302 -13.4726
# 4 -1.9279 1.2547 31.8230 55.0629 -17.3889 4.5731
# 5 -5.0567 0.0792 -3.9302 -17.3889 48.2228 -8.9216
# 6 -20.1534 -22.2899 -13.4726 4.5731 -8.9216 42.0041
#
#
#
# Elastic Compliance Matrix: (Units=1/GPa)
#
#
# Indices 1 2 3 4 5 6 
#
# 1 0.009758 -0.000585 -0.002319 0.002103 0.002313 0.003890
# 2 -0.000585 0.016613 -0.005014 0.002448 0.001684 0.007018
# 3 -0.002319 -0.005014 0.007031 -0.004390 -0.001496 -0.001358
# 4 0.002103 0.002448 -0.004390 0.023325 0.008292 0.000121
# 5 0.002313 0.001684 -0.001496 0.008292 0.024940 0.005918
# 6 0.003890 0.007018 -0.001358 0.000121 0.005918 0.030206
#
#
# Mechanical properties :
#
#
# Convention : Reuss Voigt Hill
#
# Bulk Modulus (GPa) = 56.92526 86.19234 71.55880
# Shear Modulus (GPa) = 37.43514 48.22807 42.83161
#
# Velocity S-wave (km/s) = 3.82306 4.33931 4.08934
# Velocity P-wave (km/s) = 6.45855 7.66538 7.08770
#
# Compressibility (1/GPa) = 0.01756689
#
# Stress axis : x y z
#
# Youngs Moduli (GPa) = 102.47746 60.19372 142.22451
#
# Poissons Ratio (x) = 0.03519 0.32985
# Poissons Ratio (y) = 0.05991 0.71310
# Poissons Ratio (z) = 0.23767 0.30181
#
# Static dielectric constant tensor:
#      x y z
#    x 2.085670 -0.053730 0.008460 
#    y -0.053730 2.105150 -0.061440 
#    z 0.008460 -0.061440 1.996070 
# 
# From -- ./inp_files/132969.got.cif
#   From: 2010.05.17/outbox.cif.g08.bks.cpg/sg2_67_cif.got.tgz:132969.got - 2010.06.03 11:33:40.
