data_PCOD9042161
_publ_section_title
;
Structure prediction by ZEFSAII (Michael W. Deem and Ramdas Pophale) SiO2 
 PCOD9042161
Probable space group: P -1
;
_chemical_formula_sum "Si O2"
_cell_formula_units_Z 16
_cell_length_a 8.407067
_cell_length_b 20.601802
_cell_length_c 19.016551
_cell_angle_alpha 21.174839
_cell_angle_beta 44.883542
_cell_angle_gamma 59.384717
_cell_volume 675.334268
_symmetry_space_group_name_H-M "P -1"
_symmetry_group_IT_number 2
_symmetry_cell_setting 'triclinic'
loop_
_space_group_symop_operation_xyz
x,y,z
-x,-y,-z
loop_
_atom_site_type_symbol
_atom_site_label
_atom_site_fract_x
_atom_site_fract_y
_atom_site_fract_z
Si Si1 0.660278 0.700546 0.802461
Si Si2 0.051196 0.157841 0.700204
Si Si3 0.672918 0.243930 0.810278
Si Si4 0.644380 0.630221 0.395266
Si Si5 0.504870 0.808726 0.377090
Si Si6 0.870313 0.259225 0.312215
Si Si7 0.987585 0.004153 0.734091
Si Si8 0.602499 0.091205 0.295552
O O1 0.891583 0.903231 0.474087
O O2 0.858111 0.734629 0.769432
O O3 0.417737 0.707426 0.903623
O O4 0.500000 0.500000 0.000000
O O5 0.873823 0.890222 0.040950
O O6 0.314229 0.245720 0.578454
O O7 0.134688 0.192529 0.557769
O O8 0.863023 0.241446 0.693235
O O9 0.670398 0.072704 0.039009
O O10 0.751791 0.495037 0.536546
O O11 0.338124 0.108880 0.041238
O O12 0.500000 0.500000 0.500000
O O13 0.446134 0.659712 0.477539
O O14 0.251203 0.755151 0.558024
O O15 0.623639 0.083616 0.514321
O O16 0.000000 0.500000 0.000000
O O17 0.099837 0.857379 0.862632
O O18 0.500000 0.000000 0.500000
#
# Coordination Sequence:
#
# PCOD9042161 Si02
#       8
#     2   2   2   2   2   2   2   2
#     4  11  25  44  69 104 138 181 234 287 355 426
#     4  11  24  45  67 100 143 179 227 290 348 412
#     4  11  23  43  70  98 140 182 226 285 346 411
#     4  11  24  41  69 102 133 180 235 280 340 424
#     4  11  26  45  69 101 143 183 227 291 353 410
#     4  12  24  46  71 100 142 183 237 292 349 418
#     4  11  21  42  69  98 135 177 228 284 346 409
#     4  10  23  44  69  97 138 182 228 293 346 413
#
# _framework density 23.691970999999999
#
# number of rings (size 3 to 8) (size 9 to 14) (size 15 to 20)
#    0.000    1.000    3.750    3.750    1.750    5.000 
#    4.500    0.000    0.000    0.000    0.000    0.000 
#    0.000    0.000    0.000    0.000    0.000    0.000 
#
# Total GULP energy -89188.253603 kJ/mol
# GULP energy per Si atom -5574.265850 kJ/mol
# Density = 2.363805 g / cm^3
# Si number density = 23.691971 Si / 1000 Ang^3
#
#
#
# Elastic Constant Matrix: (Units=GPa)
#
#
# Indices 1 2 3 4 5 6 
#
# 1 99.4635 35.2978 2.7816 -5.3730 -6.8603 -26.2825
# 2 35.2978 129.7046 1.7517 -12.7242 4.4696 -29.6203
# 3 2.7816 1.7517 49.3064 -25.9332 9.5900 -3.3796
# 4 -5.3730 -12.7242 -25.9332 30.9158 0.6761 2.4644
# 5 -6.8603 4.4696 9.5900 0.6761 40.1096 1.4114
# 6 -26.2825 -29.6203 -3.3796 2.4644 1.4114 48.8252
#
#
#
# Elastic Compliance Matrix: (Units=1/GPa)
#
#
# Indices 1 2 3 4 5 6 
#
# 1 0.012414 -0.002231 -0.000550 0.000312 0.002315 0.005208
# 2 -0.002231 0.010212 0.004471 0.007228 -0.002887 0.005023
# 3 -0.000550 0.004471 0.042096 0.037003 -0.011414 0.003792
# 4 0.000312 0.007228 0.037003 0.066327 -0.010861 0.004081
# 5 0.002315 -0.002887 -0.011414 -0.010861 0.028617 -0.001574
# 6 0.005208 0.005023 0.003792 0.004081 -0.001574 0.026434
#
#
# Mechanical properties :
#
#
# Convention : Reuss Voigt Hill
#
# Bulk Modulus (GPa) = 14.68404 39.79297 27.23850
# Shear Modulus (GPa) = 24.34040 39.87967 32.11003
#
# Velocity S-wave (km/s) = 3.20874 4.10720 3.68545
# Velocity P-wave (km/s) = 4.46535 6.27093 5.44352
#
# Compressibility (1/GPa) = 0.06810115
#
# Stress axis : x y z
#
# Youngs Moduli (GPa) = 80.55620 97.92340 23.75538
#
# Poissons Ratio (x) = 0.21842 0.01307
# Poissons Ratio (y) = 0.17969 -0.10620
# Poissons Ratio (z) = 0.04432 -0.43777
#
# Static dielectric constant tensor:
#      x y z
#    x 1.907340 0.003470 0.068890 
#    y 0.003470 1.822190 -0.077240 
#    z 0.068890 -0.077240 1.886070 
# 
# From -- ./inp_files/534592.got.cif
#   From: 2010.05.17/outbox.cif.g08.bks.cpg/sg2_268_cif.got.tgz:534592.got - 2010.06.03 11:33:40.
