data_PCOD9042722
_publ_section_title
;
Structure prediction by ZEFSAII (Michael W. Deem and Ramdas Pophale) SiO2 
 PCOD9042722
Probable space group: P -1
;
_chemical_formula_sum "Si O2"
_cell_formula_units_Z 16
_cell_length_a 20.985394
_cell_length_b 15.805522
_cell_length_c 5.056188
_cell_angle_alpha 91.405882
_cell_angle_beta 78.787689
_cell_angle_gamma 22.806071
_cell_volume 538.328508
_symmetry_space_group_name_H-M "P -1"
_symmetry_group_IT_number 2
_symmetry_cell_setting 'triclinic'
loop_
_space_group_symop_operation_xyz
x,y,z
-x,-y,-z
loop_
_atom_site_type_symbol
_atom_site_label
_atom_site_fract_x
_atom_site_fract_y
_atom_site_fract_z
Si Si1 0.878184 0.316820 0.870711
Si Si2 0.346060 0.933887 0.806078
Si Si3 0.707167 0.755913 0.449740
Si Si4 0.456740 0.157110 0.049350
Si Si5 0.355921 0.624329 0.809084
Si Si6 0.785402 0.331420 0.434343
Si Si7 0.738628 0.100897 0.740639
Si Si8 0.898602 0.658371 0.316683
O O1 0.687317 0.612416 0.010640
O O2 0.843922 0.281131 0.683333
O O3 0.878549 0.286032 0.166025
O O4 0.084466 0.107167 0.623484
O O5 0.419812 0.933251 0.859682
O O6 0.549881 0.633752 0.601539
O O7 0.211714 0.122138 0.677934
O O8 0.225271 0.024843 0.113678
O O9 0.747119 0.622827 0.561952
O O10 0.890120 0.578927 0.109838
O O11 0.500000 0.000000 0.500000
O O12 0.500000 0.000000 0.000000
O O13 0.677468 0.884737 0.622279
O O14 0.500000 0.500000 0.500000
O O15 0.199862 0.774777 0.743741
O O16 0.514578 0.371247 0.823796
O O17 0.265634 0.803634 0.096140
O O18 0.000000 0.500000 0.500000
#
# Coordination Sequence:
#
# PCOD9042722 Si02
#       8
#     2   2   2   2   2   2   2   2
#     4  11  27  46  72 116 144 194 250 319 365 429
#     4  11  23  51  76 105 147 208 248 303 382 460
#     4  11  23  46  70 101 134 201 241 306 367 447
#     4  10  23  44  74  97 146 187 256 297 372 443
#     4  11  24  48  76 111 152 204 247 297 386 460
#     4  11  25  48  77 104 152 198 249 304 375 451
#     4  11  27  47  77 113 154 195 253 313 372 452
#     4  12  28  46  70 108 148 188 245 312 370 431
#
# _framework density 29.721626000000001
#
# number of rings (size 3 to 8) (size 9 to 14) (size 15 to 20)
#    0.000    1.000    2.500    3.000    8.750    3.000 
#    2.250    0.000    0.000    0.000    0.000    0.000 
#    0.000    0.000    0.000    0.000    0.000    0.000 
#
# Total GULP energy -89279.482219 kJ/mol
# GULP energy per Si atom -5579.967639 kJ/mol
# Density = 2.965398 g / cm^3
# Si number density = 29.721626 Si / 1000 Ang^3
#
#
#
# Elastic Constant Matrix: (Units=GPa)
#
#
# Indices 1 2 3 4 5 6 
#
# 1 141.4012 16.5210 24.4419 2.6694 -4.7069 -14.8604
# 2 16.5210 156.6002 43.3247 -6.0305 -2.9614 -10.2121
# 3 24.4419 43.3247 144.5057 4.5905 -25.0141 -4.0385
# 4 2.6694 -6.0305 4.5905 69.8102 -9.0722 -7.9446
# 5 -4.7069 -2.9614 -25.0141 -9.0722 67.0372 -12.0931
# 6 -14.8604 -10.2121 -4.0385 -7.9446 -12.0931 37.6062
#
#
#
# Elastic Compliance Matrix: (Units=1/GPa)
#
#
# Indices 1 2 3 4 5 6 
#
# 1 0.007626 -0.000307 -0.000989 0.000196 0.000739 0.003103
# 2 -0.000307 0.007146 -0.002076 0.000966 -0.000026 0.001792
# 3 -0.000989 -0.002076 0.008270 -0.000188 0.003057 0.000877
# 4 0.000196 0.000966 -0.000188 0.015294 0.002862 0.004471
# 5 0.000739 -0.000026 0.003057 0.002862 0.017745 0.006924
# 6 0.003103 0.001792 0.000877 0.004471 0.006924 0.031569
#
#
# Mechanical properties :
#
#
# Convention : Reuss Voigt Hill
#
# Bulk Modulus (GPa) = 61.36012 67.89803 64.62908
# Shear Modulus (GPa) = 50.08714 58.77202 54.42958
#
# Velocity S-wave (km/s) = 4.10958 4.45164 4.28403
# Velocity P-wave (km/s) = 6.57328 7.02261 6.80166
#
# Compressibility (1/GPa) = 0.01629723
#
# Stress axis : x y z
#
# Youngs Moduli (GPa) = 131.13103 139.94079 120.92624
#
# Poissons Ratio (x) = 0.04295 0.11965
# Poissons Ratio (y) = 0.04025 0.25101
# Poissons Ratio (z) = 0.12975 0.29048
#
# Static dielectric constant tensor:
#      x y z
#    x 2.349480 0.013730 0.061760 
#    y 0.013730 2.111790 0.411560 
#    z 0.061760 0.411560 3.673720 
# 
# From -- ./inp_files/124699.got.cif
#   From: 2010.05.17/outbox.cif.g08.bks.cpg/sg2_63_cif.got.tgz:124699.got - 2010.06.03 11:33:40.
