data_PCOD9042213
_publ_section_title
;
Structure prediction by ZEFSAII (Michael W. Deem and Ramdas Pophale) SiO2 
 PCOD9042213
Probable space group: P -1
;
_chemical_formula_sum "Si O2"
_cell_formula_units_Z 16
_cell_length_a 24.430514
_cell_length_b 7.586285
_cell_length_c 9.585176
_cell_angle_alpha 50.825138
_cell_angle_beta 26.277591
_cell_angle_gamma 49.438148
_cell_volume 591.221819
_symmetry_space_group_name_H-M "P -1"
_symmetry_group_IT_number 2
_symmetry_cell_setting 'triclinic'
loop_
_space_group_symop_operation_xyz
x,y,z
-x,-y,-z
loop_
_atom_site_type_symbol
_atom_site_label
_atom_site_fract_x
_atom_site_fract_y
_atom_site_fract_z
Si Si1 0.118613 0.151209 0.610061
Si Si2 0.887210 0.703057 0.729921
Si Si3 0.789913 0.456316 0.649244
Si Si4 0.347738 0.821260 0.747792
Si Si5 0.108861 0.538947 0.875284
Si Si6 0.420396 0.173856 0.211328
Si Si7 0.384001 0.399608 0.662338
Si Si8 0.342140 0.718351 0.342245
O O1 0.104995 0.100786 0.501851
O O2 0.168396 0.389030 0.402415
O O3 0.236051 0.955512 0.500211
O O4 0.986008 0.229065 0.957330
O O5 0.000000 0.500000 0.500000
O O6 0.904711 0.662165 0.878403
O O7 0.741722 0.684987 0.046649
O O8 0.892634 0.455536 0.292364
O O9 0.660782 0.615093 0.799858
O O10 0.765203 0.206446 0.876491
O O11 0.361519 0.576608 0.755873
O O12 0.484932 0.793048 0.520145
O O13 0.333159 0.036864 0.567367
O O14 0.253835 0.568945 0.548888
O O15 0.529715 0.227456 0.037923
O O16 0.500000 0.000000 0.000000
O O17 0.397569 0.573334 0.422222
#
# Coordination Sequence:
#
# PCOD9042213 Si02
#       8
#     2   2   2   2   2   2   2   2
#     4  11  20  40  70  89 116 171 223 250 301 387
#     4   9  19  36  58  84 116 162 210 247 298 372
#     4  12  23  41  65  95 132 161 205 268 316 371
#     4  11  20  34  61  92 125 158 205 255 310 366
#     4  10  25  41  59  92 132 165 200 267 329 356
#     4  12  21  38  64  98 122 165 216 257 306 378
#     4  10  17  33  58  88 119 154 204 257 298 354
#     4  11  21  38  64  91 124 161 215 261 304 375
#
# _framework density 27.062602999999999
#
# number of rings (size 3 to 8) (size 9 to 14) (size 15 to 20)
#    0.000    1.250    5.000    2.250    0.000    0.500 
#    2.250    0.625    0.000    2.250    0.000    0.000 
#    0.000    0.000    0.000    0.000    0.000    0.000 
#
# Total GULP energy -89272.508346 kJ/mol
# GULP energy per Si atom -5579.531772 kJ/mol
# Density = 2.700101 g / cm^3
# Si number density = 27.062603 Si / 1000 Ang^3
#
#
#
# Elastic Constant Matrix: (Units=GPa)
#
#
# Indices 1 2 3 4 5 6 
#
# 1 55.1872 22.2379 8.9056 -1.7342 38.5511 -14.4862
# 2 22.2379 48.5292 18.5186 -16.5933 21.4273 -11.5079
# 3 8.9056 18.5186 147.3464 -23.4588 23.8415 -8.5295
# 4 -1.7342 -16.5933 -23.4588 48.2026 -5.1491 12.5471
# 5 38.5511 21.4273 23.8415 -5.1491 61.4225 3.4141
# 6 -14.4862 -11.5079 -8.5295 12.5471 3.4141 37.0054
#
#
#
# Elastic Compliance Matrix: (Units=1/GPa)
#
#
# Indices 1 2 3 4 5 6 
#
# 1 0.047397 -0.006866 0.002902 -0.008421 -0.030450 0.022753
# 2 -0.006866 0.030284 -0.000989 0.007998 -0.005440 0.004292
# 3 0.002902 -0.000989 0.008004 0.002606 -0.004487 0.002203
# 4 -0.008421 0.007998 0.002606 0.027516 0.004343 -0.009939
# 5 -0.030450 -0.005440 -0.004487 0.004343 0.040499 -0.019855
# 6 0.022753 0.004292 0.002203 -0.009939 -0.019855 0.042974
#
#
# Mechanical properties :
#
#
# Convention : Reuss Voigt Hill
#
# Bulk Modulus (GPa) = 13.19630 38.93187 26.06408
# Shear Modulus (GPa) = 21.56658 42.75280 32.15969
#
# Velocity S-wave (km/s) = 2.82603 3.97895 3.45098
# Velocity P-wave (km/s) = 3.94150 5.96041 5.05281
#
# Compressibility (1/GPa) = 0.07577884
#
# Stress axis : x y z
#
# Youngs Moduli (GPa) = 21.09836 33.02069 124.93442
#
# Poissons Ratio (x) = 0.22671 -0.36250
# Poissons Ratio (y) = 0.14485 0.12358
# Poissons Ratio (z) = -0.06122 0.03266
#
# Static dielectric constant tensor:
#      x y z
#    x 2.269920 0.093520 -0.008030 
#    y 0.093520 2.175830 -0.013950 
#    z -0.008030 -0.013950 2.283250 
# 
# From -- ./inp_files/318996.got.cif
#   From: 2010.05.17/outbox.cif.g08.bks.cpg/sg2_160_cif.got.tgz:318996.got - 2010.06.03 11:33:40.
