data_PCOD9042817
_publ_section_title
;
Structure prediction by ZEFSAII (Michael W. Deem and Ramdas Pophale) SiO2 
 PCOD9042817
Probable space group: P -1
;
_chemical_formula_sum "Si O2"
_cell_formula_units_Z 14
_cell_length_a 9.397546
_cell_length_b 8.855450
_cell_length_c 16.412502
_cell_angle_alpha 55.737689
_cell_angle_beta 36.989261
_cell_angle_gamma 47.800765
_cell_volume 607.711555
_symmetry_space_group_name_H-M "P -1"
_symmetry_group_IT_number 2
_symmetry_cell_setting 'triclinic'
loop_
_space_group_symop_operation_xyz
x,y,z
-x,-y,-z
loop_
_atom_site_type_symbol
_atom_site_label
_atom_site_fract_x
_atom_site_fract_y
_atom_site_fract_z
Si Si1 0.548187 0.547444 0.371384
Si Si2 0.930525 0.223373 0.782258
Si Si3 0.948696 0.842621 0.794333
Si Si4 0.856734 0.816049 0.125910
Si Si5 0.030904 0.558243 0.558973
Si Si6 0.659635 0.811654 0.788826
Si Si7 0.317499 0.425442 0.996547
O O1 0.500000 0.500000 0.500000
O O2 0.765404 0.342925 0.293139
O O3 0.673085 0.703449 0.262103
O O4 0.270321 0.616920 0.434281
O O5 0.088037 0.348992 0.644046
O O6 0.018900 0.160915 0.853333
O O7 0.619386 0.369795 0.861622
O O8 0.972808 0.022732 0.774449
O O9 0.816462 0.902350 0.746456
O O10 0.769172 0.743155 0.948829
O O11 0.100922 0.655070 0.009167
O O12 0.645411 0.031080 0.122855
O O13 0.789435 0.734277 0.665445
O O14 0.000000 0.500000 0.500000
O O15 0.701846 0.616657 0.884792
#
# Coordination Sequence:
#
# PCOD9042817 Si02
#       7
#     2   2   2   2   2   2   2
#     4  11  20  46  62  85 136 175 210 257 321 374
#     4  12  22  42  67  96 127 173 210 264 319 375
#     4   9  22  40  66  95 126 166 212 260 322 374
#     4  11  23  39  72  94 122 175 211 258 329 367
#     4  12  27  41  62  96 134 166 216 270 304 381
#     4  10  23  45  62 100 124 169 211 260 327 373
#     4   9  21  46  67  90 136 162 210 265 324 378
#
# _framework density 23.037244000000001
#
# number of rings (size 3 to 8) (size 9 to 14) (size 15 to 20)
#    0.857    0.571    4.286    0.857    4.000    2.857 
#    0.000    0.714    0.000    0.000    0.000    0.000 
#    0.000    0.000    0.000    0.000    0.000    0.000 
#
# Total GULP energy -78212.777572 kJ/mol
# GULP energy per Si atom -5586.626969 kJ/mol
# Density = 2.298481 g / cm^3
# Si number density = 23.037244 Si / 1000 Ang^3
#
#
#
# Elastic Constant Matrix: (Units=GPa)
#
#
# Indices 1 2 3 4 5 6 
#
# 1 66.9232 52.0429 20.7172 14.5342 -5.2282 20.8661
# 2 52.0429 103.9678 24.3929 13.1434 -25.6431 11.4896
# 3 20.7172 24.3929 77.3407 2.9941 -33.1066 11.6666
# 4 14.5342 13.1434 2.9941 19.0588 -0.5586 -11.7335
# 5 -5.2282 -25.6431 -33.1066 -0.5586 22.7599 -0.6241
# 6 20.8661 11.4896 11.6666 -11.7335 -0.6241 46.4447
#
#
#
# Elastic Compliance Matrix: (Units=1/GPa)
#
#
# Indices 1 2 3 4 5 6 
#
# 1 0.055735 -0.032460 -0.030963 -0.027908 -0.069964 -0.017223
# 2 -0.032460 0.042633 0.036925 -0.012017 0.093801 -0.007014
# 3 -0.030963 0.036925 0.071934 -0.019116 0.138210 -0.016265
# 4 -0.027908 -0.012017 -0.019116 0.113571 -0.043641 0.048418
# 5 -0.069964 0.093801 0.138210 -0.043641 0.332612 -0.033045
# 6 -0.017223 -0.007014 -0.016265 0.048418 -0.033045 0.046878
#
#
# Mechanical properties :
#
#
# Convention : Reuss Voigt Hill
#
# Bulk Modulus (GPa) = 8.52466 49.17085 28.84776
# Shear Modulus (GPa) = 6.61848 27.72461 17.17154
#
# Velocity S-wave (km/s) = 1.69682 3.47287 2.73313
# Velocity P-wave (km/s) = 2.74724 6.12140 4.74441
#
# Compressibility (1/GPa) = 0.11730669
#
# Stress axis : x y z
#
# Youngs Moduli (GPa) = 17.94210 23.45588 13.90163
#
# Poissons Ratio (x) = 0.76137 0.43043
# Poissons Ratio (y) = 0.58239 -0.51331
# Poissons Ratio (z) = 0.55554 -0.86610
#
# Static dielectric constant tensor:
#      x y z
#    x 1.986790 0.013790 -0.000490 
#    y 0.013790 1.885090 -0.041480 
#    z -0.000490 -0.041480 1.873730 
# 
# From -- ./inp_files/556023.got.cif
#   From: 2010.05.17/outbox.cif.g08.bks.cpg/sg2_279_cif.got.tgz:556023.got - 2010.06.03 11:33:40.
