data_PCOD9042909
_publ_section_title
;
Structure prediction by ZEFSAII (Michael W. Deem and Ramdas Pophale) SiO2 
 PCOD9042909
Probable space group: P -1
;
_chemical_formula_sum "Si O2"
_cell_formula_units_Z 10
_cell_length_a 6.634741
_cell_length_b 15.297004
_cell_length_c 12.383684
_cell_angle_alpha 27.284051
_cell_angle_beta 50.885546
_cell_angle_gamma 50.838772
_cell_volume 438.066981
_symmetry_space_group_name_H-M "P -1"
_symmetry_group_IT_number 2
_symmetry_cell_setting 'triclinic'
loop_
_space_group_symop_operation_xyz
x,y,z
-x,-y,-z
loop_
_atom_site_type_symbol
_atom_site_label
_atom_site_fract_x
_atom_site_fract_y
_atom_site_fract_z
Si Si1 0.802613 0.541510 0.358302
Si Si2 0.787051 0.591841 0.061729
Si Si3 0.315886 0.792489 0.516671
Si Si4 0.139808 0.181787 0.769691
Si Si5 0.741552 0.965279 0.534760
O O1 0.500000 0.500000 0.500000
O O2 0.877092 0.583226 0.164227
O O3 0.845100 0.718391 0.227564
O O4 0.988454 0.350332 0.555807
O O5 0.596677 0.435613 0.289205
O O6 0.690892 0.805650 0.814517
O O7 0.000000 0.500000 0.000000
O O8 0.553694 0.883972 0.294460
O O9 0.022918 0.885011 0.469498
O O10 0.262375 0.839970 0.609079
O O11 0.000000 0.000000 0.000000
O O12 0.500000 0.000000 0.500000
#
# Coordination Sequence:
#
# PCOD9042909 Si02
#       5
#     2   2   2   2   2
#     4  11  25  48  71 105 145 187 250 292 352 435
#     4  10  23  46  71 100 142 185 232 304 356 413
#     4  10  23  45  66 107 140 180 243 288 358 425
#     4  11  27  46  74 105 145 199 236 291 361 426
#     4  10  24  44  71 106 139 184 239 298 359 427
#
# _framework density 22.827558
#
# number of rings (size 3 to 8) (size 9 to 14) (size 15 to 20)
#    0.000    1.600    2.000    0.000    8.400    3.200 
#   14.400    0.000    0.000    0.000    0.000    0.000 
#    0.000    0.000    0.000    0.000    0.000    0.000 
#
# Total GULP energy -55833.268659 kJ/mol
# GULP energy per Si atom -5583.326866 kJ/mol
# Density = 2.277560 g / cm^3
# Si number density = 22.827558 Si / 1000 Ang^3
#
#
#
# Elastic Constant Matrix: (Units=GPa)
#
#
# Indices 1 2 3 4 5 6 
#
# 1 184.5737 73.7540 84.9720 -1.3734 2.6368 2.7095
# 2 73.7540 125.5142 68.1883 -2.6082 5.5292 14.6010
# 3 84.9720 68.1883 122.1115 0.9409 -10.8669 18.7176
# 4 -1.3734 -2.6082 0.9409 36.3343 6.3797 -9.5893
# 5 2.6368 5.5292 -10.8669 6.3797 51.7687 8.6456
# 6 2.7095 14.6010 18.7176 -9.5893 8.6456 44.9131
#
#
#
# Elastic Compliance Matrix: (Units=1/GPa)
#
#
# Indices 1 2 3 4 5 6 
#
# 1 0.008969 -0.002522 -0.005540 0.001546 -0.002096 0.003321
# 2 -0.002522 0.012588 -0.005325 0.001071 -0.002290 -0.001052
# 3 -0.005540 -0.005325 0.016626 -0.003873 0.005960 -0.006838
# 4 0.001546 0.001071 -0.003873 0.031273 -0.006376 0.009077
# 5 -0.002096 -0.002290 0.005960 -0.006376 0.022939 -0.007390
# 6 0.003321 -0.001052 -0.006838 0.009077 -0.007390 0.028617
#
#
# Mechanical properties :
#
#
# Convention : Reuss Voigt Hill
#
# Bulk Modulus (GPa) = 87.65494 98.44757 93.05125
# Shear Modulus (GPa) = 32.98390 40.28888 36.63639
#
# Velocity S-wave (km/s) = 3.80533 4.20566 4.01049
# Velocity P-wave (km/s) = 7.60194 8.17335 7.89282
#
# Compressibility (1/GPa) = 0.01140837
#
# Stress axis : x y z
#
# Youngs Moduli (GPa) = 111.49517 79.44285 60.14658
#
# Poissons Ratio (x) = 0.20039 0.33321
# Poissons Ratio (y) = 0.28125 0.32026
# Poissons Ratio (z) = 0.61769 0.42301
#
# Static dielectric constant tensor:
#      x y z
#    x 1.871880 0.013050 -0.085750 
#    y 0.013050 1.892160 -0.026210 
#    z -0.085750 -0.026210 1.990020 
# 
# From -- ./inp_files/24890.got.cif
#   From: 2010.05.17/outbox.cif.g08.bks.cpg/sg2_13_cif.got.tgz:24890.got - 2010.06.03 11:33:40.
