data_PCOD9042952
_publ_section_title
;
Structure prediction by ZEFSAII (Michael W. Deem and Ramdas Pophale) SiO2 
 PCOD9042952
Probable space group: P -1
;
_chemical_formula_sum "Si O2"
_cell_formula_units_Z 12
_cell_length_a 14.669834
_cell_length_b 17.446514
_cell_length_c 6.601499
_cell_angle_alpha 64.016834
_cell_angle_beta 65.624484
_cell_angle_gamma 18.769150
_cell_volume 488.668123
_symmetry_space_group_name_H-M "P -1"
_symmetry_group_IT_number 2
_symmetry_cell_setting 'triclinic'
loop_
_space_group_symop_operation_xyz
x,y,z
-x,-y,-z
loop_
_atom_site_type_symbol
_atom_site_label
_atom_site_fract_x
_atom_site_fract_y
_atom_site_fract_z
Si Si1 0.312338 0.524537 0.223331
Si Si2 0.465594 0.707908 0.327962
Si Si3 0.926889 0.702443 0.847281
Si Si4 0.270416 0.036086 0.933850
Si Si5 0.253583 0.752052 0.173141
Si Si6 0.168881 0.360003 0.300461
O O1 0.518352 0.303625 0.429609
O O2 0.221663 0.676443 0.272671
O O3 0.035179 0.702059 0.183101
O O4 0.473573 0.436745 0.988289
O O5 0.314641 0.742436 0.348122
O O6 0.795903 0.459446 0.252246
O O7 0.302098 0.914014 0.123999
O O8 0.841949 0.725139 0.690492
O O9 0.696881 0.935580 0.921983
O O10 0.020609 0.547862 0.075940
O O11 0.506365 0.869257 0.745355
O O12 0.000000 0.000000 0.000000
O O13 0.000000 0.500000 0.500000
#
# Coordination Sequence:
#
# PCOD9042952 Si02
#       6
#     2   2   2   2   2   2
#     4  11  25  43  69 100 138 186 229 280 347 406
#     4  11  24  43  69 102 138 181 232 283 342 407
#     4  10  23  45  67 102 140 177 233 287 336 419
#     4  11  23  46  72 102 142 181 231 288 339 414
#     4  11  23  45  67  99 142 178 234 287 333 413
#     4  10  24  45  71 101 138 182 230 282 348 414
#
# _framework density 24.556543000000001
#
# number of rings (size 3 to 8) (size 9 to 14) (size 15 to 20)
#    0.000    1.333    3.333    1.000    2.333    2.667 
#    9.000    0.000    0.000    0.000    0.000    0.000 
#    0.000    0.000    0.000    0.000    0.000    0.000 
#
# Total GULP energy -67152.274881 kJ/mol
# GULP energy per Si atom -5596.022907 kJ/mol
# Density = 2.450065 g / cm^3
# Si number density = 24.556543 Si / 1000 Ang^3
#
#
#
# Elastic Constant Matrix: (Units=GPa)
#
#
# Indices 1 2 3 4 5 6 
#
# 1 101.3177 9.4405 19.2699 7.4108 17.1084 3.3161
# 2 9.4405 39.0221 4.4671 4.5979 8.5385 2.0589
# 3 19.2699 4.4671 99.7440 2.1970 9.0229 -3.8329
# 4 7.4108 4.5979 2.1970 43.3681 2.8061 5.2716
# 5 17.1084 8.5385 9.0229 2.8061 30.4181 -6.3466
# 6 3.3161 2.0589 -3.8329 5.2716 -6.3466 20.6662
#
#
#
# Elastic Compliance Matrix: (Units=1/GPa)
#
#
# Indices 1 2 3 4 5 6 
#
# 1 0.011566 -0.000875 -0.001738 -0.000910 -0.006462 -0.003843
# 2 -0.000875 0.028122 -0.000505 -0.001698 -0.008099 -0.004809
# 3 -0.001738 -0.000505 0.010609 -0.000312 -0.001606 0.001883
# 4 -0.000910 -0.001698 -0.000312 0.024398 -0.002580 -0.006758
# 5 -0.006462 -0.008099 -0.001606 -0.002580 0.042692 0.015315
# 6 -0.003843 -0.004809 0.001883 -0.006758 0.015315 0.056260
#
#
# Mechanical properties :
#
#
# Convention : Reuss Voigt Hill
#
# Bulk Modulus (GPa) = 22.69695 34.04876 28.37286
# Shear Modulus (GPa) = 25.69764 32.68425 29.19095
#
# Velocity S-wave (km/s) = 3.23843 3.65222 3.45153
# Velocity P-wave (km/s) = 4.82141 5.62854 5.24054
#
# Compressibility (1/GPa) = 0.04405877
#
# Stress axis : x y z
#
# Youngs Moduli (GPa) = 86.46357 35.55949 94.26315
#
# Poissons Ratio (x) = 0.03112 0.16386
# Poissons Ratio (y) = 0.07567 0.04762
# Poissons Ratio (z) = 0.15030 0.01796
#
# Static dielectric constant tensor:
#      x y z
#    x 1.980870 0.023910 0.036260 
#    y 0.023910 1.942550 0.014250 
#    z 0.036260 0.014250 1.970390 
# 
# From -- ./inp_files/3215.got.cif
#   From: 2010.05.17/outbox.cif.g08.bks.cpg/sg2_2_cif.got.tgz:3215.got - 2010.06.03 11:33:40.
