data_PCOD9042635
_publ_section_title
;
Structure prediction by ZEFSAII (Michael W. Deem and Ramdas Pophale) SiO2 
 PCOD9042635
Probable space group: P -1
;
_chemical_formula_sum "Si O2"
_cell_formula_units_Z 14
_cell_length_a 7.782269
_cell_length_b 7.867937
_cell_length_c 10.293716
_cell_angle_alpha 96.071872
_cell_angle_beta 115.117372
_cell_angle_gamma 76.181167
_cell_volume 554.163380
_symmetry_space_group_name_H-M "P -1"
_symmetry_group_IT_number 2
_symmetry_cell_setting 'triclinic'
loop_
_space_group_symop_operation_xyz
x,y,z
-x,-y,-z
loop_
_atom_site_type_symbol
_atom_site_label
_atom_site_fract_x
_atom_site_fract_y
_atom_site_fract_z
Si Si1 0.975672 0.627403 0.179253
Si Si2 0.188855 0.880487 0.157668
Si Si3 0.122279 0.104469 0.631898
Si Si4 0.419750 0.272000 0.590965
Si Si5 0.740061 0.440902 0.236613
Si Si6 0.656572 0.115606 0.081592
Si Si7 0.840466 0.727179 0.724198
O O1 0.018467 0.772968 0.107843
O O2 0.121081 0.442357 0.183782
O O3 0.003059 0.713658 0.336459
O O4 0.768923 0.576109 0.140207
O O5 0.356981 0.786992 0.303311
O O6 0.258408 0.861159 0.030784
O O7 0.156284 0.084590 0.201330
O O8 0.304723 0.139636 0.613740
O O9 0.202027 0.993642 0.774905
O O10 0.000000 0.000000 0.500000
O O11 0.335121 0.454990 0.650416
O O12 0.352084 0.270238 0.421094
O O13 0.608083 0.308722 0.142644
O O14 0.964659 0.330702 0.308328
O O15 0.500000 0.000000 0.000000
#
# Coordination Sequence:
#
# PCOD9042635 Si02
#       7
#     2   2   2   2   2   2   2
#     4   9  24  44  69 107 136 185 237 294 347 418
#     4  12  25  45  67 105 152 185 229 296 370 418
#     4  11  23  44  76 103 136 191 245 289 345 425
#     4  11  22  43  71 103 144 186 241 293 352 420
#     4   9  23  44  69 101 137 189 241 289 341 424
#     4  12  26  45  70 108 146 186 236 297 363 424
#     4  10  23  44  73 107 140 188 241 292 350 419
#
# _framework density 25.263307000000001
#
# number of rings (size 3 to 8) (size 9 to 14) (size 15 to 20)
#    0.857    0.571    1.429    3.429    2.000    5.143 
#    5.143    0.000    0.000    0.000    0.000    0.000 
#    0.000    0.000    0.000    0.000    0.000    0.000 
#
# Total GULP energy -78261.567764 kJ/mol
# GULP energy per Si atom -5590.111983 kJ/mol
# Density = 2.520581 g / cm^3
# Si number density = 25.263307 Si / 1000 Ang^3
#
#
#
# Elastic Constant Matrix: (Units=GPa)
#
#
# Indices 1 2 3 4 5 6 
#
# 1 33.3816 11.1358 5.0787 5.7462 5.8871 23.4117
# 2 11.1358 150.0482 47.8410 40.9498 4.1468 18.1678
# 3 5.0787 47.8410 119.5465 12.3570 27.8095 6.7360
# 4 5.7462 40.9498 12.3570 45.2810 0.9629 5.2042
# 5 5.8871 4.1468 27.8095 0.9629 34.1187 -3.4950
# 6 23.4117 18.1678 6.7360 5.2042 -3.4950 47.7884
#
#
#
# Elastic Compliance Matrix: (Units=1/GPa)
#
#
# Indices 1 2 3 4 5 6 
#
# 1 0.050710 -0.000150 0.002932 -0.003847 -0.013654 -0.025779
# 2 -0.000150 0.010222 -0.003501 -0.008037 0.001625 -0.002325
# 3 0.002932 -0.003501 0.012176 -0.000015 -0.010268 -0.002571
# 4 -0.003847 -0.008037 -0.000015 0.029618 0.001001 0.001790
# 5 -0.013654 0.001625 -0.010268 0.001001 0.040874 0.010399
# 6 -0.025779 -0.002325 -0.002571 0.001790 0.010399 0.035367
#
#
# Mechanical properties :
#
#
# Convention : Reuss Voigt Hill
#
# Bulk Modulus (GPa) = 13.95256 47.89860 30.92558
# Shear Modulus (GPa) = 24.47447 41.36568 32.92007
#
# Velocity S-wave (km/s) = 3.11589 4.05085 3.61373
# Velocity P-wave (km/s) = 4.29882 6.39375 5.44793
#
# Compressibility (1/GPa) = 0.07167146
#
# Stress axis : x y z
#
# Youngs Moduli (GPa) = 19.71986 97.83044 82.12644
#
# Poissons Ratio (x) = 0.01466 -0.24079
# Poissons Ratio (y) = 0.00295 0.28749
# Poissons Ratio (z) = -0.05782 0.34247
#
# Static dielectric constant tensor:
#      x y z
#    x 2.043850 -0.029340 0.012340 
#    y -0.029340 2.076240 -0.061030 
#    z 0.012340 -0.061030 1.969700 
# 
# From -- ./inp_files/374629.got.cif
#   From: 2010.05.17/outbox.cif.g08.bks.cpg/sg2_188_cif.got.tgz:374629.got - 2010.06.03 11:33:40.
