data_PCOD9042027
_publ_section_title
;
Structure prediction by ZEFSAII (Michael W. Deem and Ramdas Pophale) SiO2 
 PCOD9042027
Probable space group: P -1
;
_chemical_formula_sum "Si O2"
_cell_formula_units_Z 14
_cell_length_a 5.311666
_cell_length_b 11.565687
_cell_length_c 12.590719
_cell_angle_alpha 49.317585
_cell_angle_beta 95.288997
_cell_angle_gamma 108.809109
_cell_volume 547.685746
_symmetry_space_group_name_H-M "P -1"
_symmetry_group_IT_number 2
_symmetry_cell_setting 'triclinic'
loop_
_space_group_symop_operation_xyz
x,y,z
-x,-y,-z
loop_
_atom_site_type_symbol
_atom_site_label
_atom_site_fract_x
_atom_site_fract_y
_atom_site_fract_z
Si Si1 0.307759 0.770271 0.232555
Si Si2 0.903889 0.167819 0.113451
Si Si3 0.290630 0.389362 0.141997
Si Si4 0.281541 0.195378 0.597829
Si Si5 0.666593 0.876711 0.986803
Si Si6 0.507787 0.180376 0.396235
Si Si7 0.083644 0.429240 0.339227
O O1 0.433096 0.754001 0.360961
O O2 0.102387 0.604425 0.278270
O O3 0.213465 0.925721 0.129382
O O4 0.570708 0.818216 0.136478
O O5 0.616229 0.161005 0.063658
O O6 0.004443 0.306288 0.123499
O O7 0.134992 0.200949 0.013292
O O8 0.875486 0.987048 0.259992
O O9 0.394127 0.238580 0.254603
O O10 0.261916 0.456232 0.219138
O O11 0.500000 0.500000 0.000000
O O12 0.307167 0.175684 0.485835
O O13 0.166820 0.341920 0.497073
O O14 0.793876 0.311066 0.360286
O O15 0.500000 0.000000 0.500000
#
# Coordination Sequence:
#
# PCOD9042027 Si02
#       7
#     2   2   2   2   2   2   2
#     4  10  23  44  68  99 140 179 235 285 355 416
#     4  11  24  45  74 100 142 182 243 282 361 411
#     4  11  26  43  70 102 139 183 232 299 357 420
#     4  10  24  43  67  98 131 189 228 287 351 419
#     4  10  25  45  70 107 135 188 230 299 341 429
#     4  11  25  44  68 101 137 180 240 287 351 425
#     4  11  24  44  66 101 138 180 232 294 349 422
#
# _framework density 25.562106
#
# number of rings (size 3 to 8) (size 9 to 14) (size 15 to 20)
#    0.000    1.429    0.000    3.000   12.000    8.571 
#   10.286    0.000    0.000    0.000    0.000    0.000 
#    0.000    0.000    0.000    0.000    0.000    0.000 
#
# Total GULP energy -78376.181796 kJ/mol
# GULP energy per Si atom -5598.298700 kJ/mol
# Density = 2.550393 g / cm^3
# Si number density = 25.562106 Si / 1000 Ang^3
#
#
#
# Elastic Constant Matrix: (Units=GPa)
#
#
# Indices 1 2 3 4 5 6 
#
# 1 55.2572 0.0351 5.6295 -2.9323 -7.4988 5.6504
# 2 0.0351 115.6951 3.7707 -17.4848 9.0636 19.0060
# 3 5.6295 3.7707 100.4024 1.6414 1.3974 6.0576
# 4 -2.9323 -17.4848 1.6414 38.1358 -2.1512 -5.1759
# 5 -7.4988 9.0636 1.3974 -2.1512 25.1096 1.8366
# 6 5.6504 19.0060 6.0576 -5.1759 1.8366 35.6842
#
#
#
# Elastic Compliance Matrix: (Units=1/GPa)
#
#
# Indices 1 2 3 4 5 6 
#
# 1 0.019438 0.000307 -0.001023 0.001597 0.006118 -0.003151
# 2 0.000307 0.010252 -0.000138 0.003918 -0.002917 -0.004767
# 3 -0.001023 -0.000138 0.010141 -0.000835 -0.000777 -0.001567
# 4 0.001597 0.003918 -0.000835 0.028510 0.001415 0.001864
# 5 0.006118 -0.002917 -0.000777 0.001415 0.042964 -0.001290
# 6 -0.003151 -0.004767 -0.001567 0.001864 -0.001290 0.031664
#
#
# Mechanical properties :
#
#
# Convention : Reuss Voigt Hill
#
# Bulk Modulus (GPa) = 26.22994 32.24728 29.23861
# Shear Modulus (GPa) = 31.76912 37.24721 34.50816
#
# Velocity S-wave (km/s) = 3.52919 3.82137 3.67818
# Velocity P-wave (km/s) = 5.18560 5.66685 5.43156
#
# Compressibility (1/GPa) = 0.03812437
#
# Stress axis : x y z
#
# Youngs Moduli (GPa) = 51.44438 97.54608 98.60515
#
# Poissons Ratio (x) = -0.02996 0.10083
# Poissons Ratio (y) = -0.01580 0.01362
# Poissons Ratio (z) = 0.05261 0.01347
#
# Static dielectric constant tensor:
#      x y z
#    x 2.860980 -0.963340 1.336390 
#    y -0.963340 3.127530 -1.544740 
#    z 1.336390 -1.544740 4.158970 
# 
# From -- ./inp_files/363727.got.cif
#   From: 2010.05.17/outbox.cif.g08.bks.cpg/sg2_182_cif.got.tgz:363727.got - 2010.06.03 11:33:40.
