data_PCOD9042858
_publ_section_title
;
Structure prediction by ZEFSAII (Michael W. Deem and Ramdas Pophale) SiO2 
 PCOD9042858
Probable space group: P -1
;
_chemical_formula_sum "Si O2"
_cell_formula_units_Z 15
_cell_length_a 13.301090
_cell_length_b 9.536426
_cell_length_c 10.382663
_cell_angle_alpha 98.929944
_cell_angle_beta 31.198943
_cell_angle_gamma 103.935137
_cell_volume 658.751752
_symmetry_space_group_name_H-M "P -1"
_symmetry_group_IT_number 2
_symmetry_cell_setting 'triclinic'
loop_
_space_group_symop_operation_xyz
x,y,z
-x,-y,-z
loop_
_atom_site_type_symbol
_atom_site_label
_atom_site_fract_x
_atom_site_fract_y
_atom_site_fract_z
Si Si1 0.500000 0.500000 0.000000
Si Si2 0.079954 0.628174 0.030240
Si Si3 0.837057 0.707288 0.724211
Si Si4 0.659223 0.973009 0.977628
Si Si5 0.588690 0.112909 0.312280
Si Si6 0.673804 0.555810 0.139954
Si Si7 0.687749 0.692176 0.424086
Si Si8 0.700270 0.226478 0.762791
O O1 0.271256 0.406853 0.277393
O O2 0.405760 0.640106 0.082807
O O3 0.263604 0.740898 0.782987
O O4 0.169886 0.550581 0.037377
O O5 0.000000 0.500000 0.000000
O O6 0.899625 0.706903 0.259750
O O7 0.797908 0.866480 0.764270
O O8 0.065593 0.718388 0.507315
O O9 0.697280 0.639458 0.991194
O O10 0.676275 0.114441 0.891816
O O11 0.435207 0.874502 0.209760
O O12 0.710203 0.032091 0.071777
O O13 0.416406 0.171919 0.434252
O O14 0.500000 0.000000 0.500000
O O15 0.706665 0.659623 0.244434
O O16 0.460554 0.449947 0.377340
#
# Coordination Sequence:
#
# PCOD9042858 Si02
#       8
#     1   2   2   2   2   2   2   2
#     4  10  24  40  64  98 122 154 216 268 316 388
#     4   9  20  37  58  88 122 168 211 258 314 374
#     4  11  22  41  65  94 123 167 210 268 319 384
#     4  10  24  42  62  91 129 168 214 261 322 384
#     4  11  23  38  61  94 129 168 214 263 315 387
#     4   9  19  35  59  88 123 159 208 255 313 370
#     4   9  19  37  56  86 128 165 201 260 306 371
#     4  10  23  45  65  89 127 169 213 267 324 376
#
# _framework density 22.770340000000001
#
# number of rings (size 3 to 8) (size 9 to 14) (size 15 to 20)
#    0.000    2.133    0.000    2.400    3.733    5.867 
#    2.400    0.000    0.000    0.000    0.000    0.000 
#    0.000    0.000    0.000    0.000    0.000    0.000 
#
# Total GULP energy -83531.639527 kJ/mol
# GULP energy per Si atom -5568.775968 kJ/mol
# Density = 2.271851 g / cm^3
# Si number density = 22.770340 Si / 1000 Ang^3
#
#
#
# Elastic Constant Matrix: (Units=GPa)
#
#
# Indices 1 2 3 4 5 6 
#
# 1 31.4204 16.3253 9.9237 -7.7751 -8.0942 -18.5860
# 2 16.3253 119.0299 21.9911 -15.9471 -5.2782 -26.8624
# 3 9.9237 21.9911 68.2280 -11.9062 -26.9704 -15.0586
# 4 -7.7751 -15.9471 -11.9062 28.5637 -8.7730 -1.5436
# 5 -8.0942 -5.2782 -26.9704 -8.7730 43.6815 4.4085
# 6 -18.5860 -26.8624 -15.0586 -1.5436 4.4085 40.5160
#
#
#
# Elastic Compliance Matrix: (Units=1/GPa)
#
#
# Indices 1 2 3 4 5 6 
#
# 1 0.058335 0.001811 0.011099 0.029545 0.020690 0.030961
# 2 0.001811 0.011202 0.000585 0.008330 0.002867 0.008480
# 3 0.011099 0.000585 0.029655 0.023795 0.023720 0.014827
# 4 0.029545 0.008330 0.023795 0.069003 0.032303 0.027034
# 5 0.020690 0.002867 0.023720 0.032303 0.046554 0.016374
# 6 0.030961 0.008480 0.014827 0.027034 0.016374 0.049266
#
#
# Mechanical properties :
#
#
# Convention : Reuss Voigt Hill
#
# Bulk Modulus (GPa) = 7.92503 35.01762 21.47133
# Shear Modulus (GPa) = 17.91570 33.91478 25.91524
#
# Velocity S-wave (km/s) = 2.80804 3.86350 3.37725
# Velocity P-wave (km/s) = 3.74185 5.94257 4.96566
#
# Compressibility (1/GPa) = 0.12618251
#
# Stress axis : x y z
#
# Youngs Moduli (GPa) = 17.14246 89.27184 33.72079
#
# Poissons Ratio (x) = -0.16171 -0.37428
# Poissons Ratio (y) = -0.03105 -0.01972
# Poissons Ratio (z) = -0.19027 -0.05220
#
# Static dielectric constant tensor:
#      x y z
#    x 1.825630 -0.018430 0.005140 
#    y -0.018430 1.823680 0.035140 
#    z 0.005140 0.035140 1.857700 
# 
# From -- ./inp_files/447621.got.cif
#   From: 2010.05.17/outbox.cif.g08.bks.cpg/sg2_224_cif.got.tgz:447621.got - 2010.06.03 11:33:40.
