data_PCOD9042523
_publ_section_title
;
Structure prediction by ZEFSAII (Michael W. Deem and Ramdas Pophale) SiO2 
 PCOD9042523
Probable space group: P -1
;
_chemical_formula_sum "Si O2"
_cell_formula_units_Z 12
_cell_length_a 5.231773
_cell_length_b 16.091095
_cell_length_c 8.035899
_cell_angle_alpha 61.717699
_cell_angle_beta 85.675751
_cell_angle_gamma 114.701367
_cell_volume 508.647874
_symmetry_space_group_name_H-M "P -1"
_symmetry_group_IT_number 2
_symmetry_cell_setting 'triclinic'
loop_
_space_group_symop_operation_xyz
x,y,z
-x,-y,-z
loop_
_atom_site_type_symbol
_atom_site_label
_atom_site_fract_x
_atom_site_fract_y
_atom_site_fract_z
Si Si1 0.292547 0.256681 0.907309
Si Si2 0.520716 0.940371 0.215918
Si Si3 0.386428 0.853077 0.826810
Si Si4 0.917361 0.732562 0.462451
Si Si5 0.803154 0.893607 0.495951
Si Si6 0.731657 0.497507 0.619843
O O1 0.246032 0.263492 0.704371
O O2 0.538711 0.381148 0.832107
O O3 0.432233 0.183619 0.025802
O O4 0.964303 0.209900 0.049039
O O5 0.809626 0.940388 0.266505
O O6 0.265363 0.814839 0.331954
O O7 0.492355 0.017325 0.281798
O O8 0.500000 0.000000 0.000000
O O9 0.478084 0.837536 0.653232
O O10 0.858187 0.794235 0.556316
O O11 0.847610 0.609685 0.610693
O O12 0.000000 0.000000 0.500000
O O13 0.500000 0.500000 0.500000
O O14 0.000000 0.500000 0.500000
#
# Coordination Sequence:
#
# PCOD9042523 Si02
#       6
#     2   2   2   2   2   2
#     4  11  24  45  72 103 138 191 243 296 347 423
#     4  12  25  42  72 103 141 186 245 295 352 425
#     4  12  25  43  69 102 149 185 232 291 363 425
#     4  11  25  42  73 102 139 185 244 294 348 425
#     4  12  27  44  66 107 152 192 228 291 370 433
#     4  10  23  44  72 104 138 182 242 301 351 406
#
# _framework density 23.591958000000002
#
# number of rings (size 3 to 8) (size 9 to 14) (size 15 to 20)
#    0.000    0.667    3.333    4.500    7.000    1.333 
#    0.000    1.667    0.000    0.000    0.000    0.000 
#    0.000    0.000    0.000    0.000    0.000    0.000 
#
# Total GULP energy -67025.593242 kJ/mol
# GULP energy per Si atom -5585.466103 kJ/mol
# Density = 2.353826 g / cm^3
# Si number density = 23.591958 Si / 1000 Ang^3
#
#
#
# Elastic Constant Matrix: (Units=GPa)
#
#
# Indices 1 2 3 4 5 6 
#
# 1 144.5380 48.6076 35.9471 -12.0594 -13.4476 -11.5866
# 2 48.6076 174.9768 45.2938 -39.9750 -15.4519 -12.0520
# 3 35.9471 45.2938 63.7866 -12.1019 -6.2985 3.1043
# 4 -12.0594 -39.9750 -12.1019 52.0675 2.3066 -4.4682
# 5 -13.4476 -15.4519 -6.2985 2.3066 49.2966 6.3122
# 6 -11.5866 -12.0520 3.1043 -4.4682 6.3122 42.7891
#
#
#
# Elastic Compliance Matrix: (Units=1/GPa)
#
#
# Indices 1 2 3 4 5 6 
#
# 1 0.008580 -0.000978 -0.004046 0.000431 0.001214 0.002207
# 2 -0.000978 0.008791 -0.004641 0.005642 0.001254 0.002952
# 3 -0.004046 -0.004641 0.021544 0.000128 0.000708 -0.004057
# 4 0.000431 0.005642 0.000128 0.024014 0.000245 0.004168
# 5 0.001214 0.001254 0.000708 0.000245 0.021409 -0.002502
# 6 0.002207 0.002952 -0.004057 0.004168 -0.002502 0.025898
#
#
# Mechanical properties :
#
#
# Convention : Reuss Voigt Hill
#
# Bulk Modulus (GPa) = 51.05914 71.44426 61.25170
# Shear Modulus (GPa) = 36.73917 45.72751 41.23334
#
# Velocity S-wave (km/s) = 3.95051 4.40735 4.18517
# Velocity P-wave (km/s) = 6.51907 7.49991 7.02663
#
# Compressibility (1/GPa) = 0.01958513
#
# Stress axis : x y z
#
# Youngs Moduli (GPa) = 116.55324 113.75236 46.41597
#
# Poissons Ratio (x) = 0.11128 0.18781
# Poissons Ratio (y) = 0.11402 0.21539
# Poissons Ratio (z) = 0.47160 0.52787
#
# Static dielectric constant tensor:
#      x y z
#    x 2.051660 -0.007390 -0.003780 
#    y -0.007390 1.942660 0.049840 
#    z -0.003780 0.049840 1.969230 
# 
# From -- ./inp_files/31266.got.cif
#   From: 2010.05.17/outbox.cif.g08.bks.cpg/sg2_16_cif.got.tgz:31266.got - 2010.06.03 11:33:40.
