data_PCOD9042685
_publ_section_title
;
Structure prediction by ZEFSAII (Michael W. Deem and Ramdas Pophale) SiO2 
 PCOD9042685
Probable space group: P -1
;
_chemical_formula_sum "Si O2"
_cell_formula_units_Z 14
_cell_length_a 22.531725
_cell_length_b 5.283210
_cell_length_c 27.577359
_cell_angle_alpha 73.247889
_cell_angle_beta 10.150825
_cell_angle_gamma 71.862058
_cell_volume 546.556042
_symmetry_space_group_name_H-M "P -1"
_symmetry_group_IT_number 2
_symmetry_cell_setting 'triclinic'
loop_
_space_group_symop_operation_xyz
x,y,z
-x,-y,-z
loop_
_atom_site_type_symbol
_atom_site_label
_atom_site_fract_x
_atom_site_fract_y
_atom_site_fract_z
Si Si1 0.737347 0.366566 0.890825
Si Si2 0.789959 0.320777 0.563002
Si Si3 0.263171 0.556388 0.641058
Si Si4 0.642184 0.055516 0.829203
Si Si5 0.781511 0.806147 0.159132
Si Si6 0.386190 0.149425 0.818578
Si Si7 0.103116 0.682568 0.127591
O O1 0.445741 0.625054 0.121462
O O2 0.946478 0.307779 0.775637
O O3 0.563828 0.114031 0.030711
O O4 0.974105 0.455760 0.652230
O O5 0.733154 0.197571 0.562028
O O6 0.421663 0.442280 0.873757
O O7 0.972164 0.098741 0.465943
O O8 0.500000 0.500000 0.500000
O O9 0.426448 0.792914 0.472394
O O10 0.891125 0.589045 0.962127
O O11 0.223545 0.366156 0.638055
O O12 0.500000 0.000000 0.000000
O O13 0.668668 0.902007 0.190477
O O14 0.000000 0.500000 0.000000
O O15 0.000000 0.000000 0.000000
O O16 0.250281 0.930348 0.973036
#
# Coordination Sequence:
#
# PCOD9042685 Si02
#       7
#     2   2   2   2   2   2   2
#     4  11  25  45  72 101 143 185 235 287 349 408
#     4  10  24  44  68 100 142 181 235 283 349 413
#     4  11  24  47  71  99 143 179 235 289 344 417
#     4  10  23  44  74 102 137 191 233 286 346 414
#     4  12  27  46  74 102 132 182 233 282 349 412
#     4  11  26  44  70 101 142 184 229 292 348 411
#     4  11  27  42  69 106 138 187 230 292 350 411
#
# _framework density 25.614937999999999
#
# number of rings (size 3 to 8) (size 9 to 14) (size 15 to 20)
#    0.000    1.143    1.429    3.429   14.000    3.429 
#    0.000    0.000    0.000    0.000    0.000    0.000 
#    0.000    0.000    0.000    0.000    0.000    0.000 
#
# Total GULP energy -78302.718306 kJ/mol
# GULP energy per Si atom -5593.051308 kJ/mol
# Density = 2.555664 g / cm^3
# Si number density = 25.614938 Si / 1000 Ang^3
#
#
#
# Elastic Constant Matrix: (Units=GPa)
#
#
# Indices 1 2 3 4 5 6 
#
# 1 157.4818 21.7949 8.3221 -8.6127 -22.9502 1.7264
# 2 21.7949 100.6988 24.5698 -8.3893 -8.0899 16.8027
# 3 8.3221 24.5698 83.5788 -4.0284 -12.3158 13.0006
# 4 -8.6127 -8.3893 -4.0284 46.1387 -2.6750 -4.5662
# 5 -22.9502 -8.0899 -12.3158 -2.6750 43.2508 -11.3862
# 6 1.7264 16.8027 13.0006 -4.5662 -11.3862 43.7794
#
#
#
# Elastic Compliance Matrix: (Units=1/GPa)
#
#
# Indices 1 2 3 4 5 6 
#
# 1 0.007190 -0.001376 0.000138 0.001479 0.004061 0.001414
# 2 -0.001376 0.011557 -0.002681 0.001254 -0.000176 -0.003500
# 3 0.000138 -0.002681 0.013536 0.000673 0.002896 -0.002173
# 4 0.001479 0.001254 0.000673 0.022671 0.003265 0.002474
# 5 0.004061 -0.000176 0.002896 0.003265 0.028027 0.006677
# 6 0.001414 -0.003500 -0.002173 0.002474 0.006677 0.026769
#
#
# Mechanical properties :
#
#
# Convention : Reuss Voigt Hill
#
# Bulk Modulus (GPa) = 40.90839 50.12587 45.51713
# Shear Modulus (GPa) = 39.76499 45.77197 42.76848
#
# Velocity S-wave (km/s) = 3.94434 4.23179 4.09059
# Velocity P-wave (km/s) = 6.06209 6.59461 6.33395
#
# Compressibility (1/GPa) = 0.02444486
#
# Stress axis : x y z
#
# Youngs Moduli (GPa) = 139.07470 86.52676 73.87493
#
# Poissons Ratio (x) = 0.11910 -0.01023
# Poissons Ratio (y) = 0.19144 0.19809
# Poissons Ratio (z) = -0.01926 0.23202
#
# Static dielectric constant tensor:
#      x y z
#    x 1.867560 -0.008100 0.159460 
#    y -0.008100 2.123070 0.207200 
#    z 0.159460 0.207200 2.029350 
# 
# From -- ./inp_files/624095.got.cif
#   From: 2010.05.17/outbox.cif.g08.bks.cpg/sg2_313_cif.got.tgz:624095.got - 2010.06.03 11:33:40.
