data_PCOD9042674
_publ_section_title
;
Structure prediction by ZEFSAII (Michael W. Deem and Ramdas Pophale) SiO2 
 PCOD9042674
Probable space group: P -1
;
_chemical_formula_sum "Si O2"
_cell_formula_units_Z 16
_cell_length_a 19.118900
_cell_length_b 9.983213
_cell_length_c 6.477765
_cell_angle_alpha 105.548993
_cell_angle_beta 125.843589
_cell_angle_gamma 49.357311
_cell_volume 747.467798
_symmetry_space_group_name_H-M "P -1"
_symmetry_group_IT_number 2
_symmetry_cell_setting 'triclinic'
loop_
_space_group_symop_operation_xyz
x,y,z
-x,-y,-z
loop_
_atom_site_type_symbol
_atom_site_label
_atom_site_fract_x
_atom_site_fract_y
_atom_site_fract_z
Si Si1 0.095751 0.017826 0.208261
Si Si2 0.805598 0.852984 0.857733
Si Si3 0.339465 0.379865 0.989064
Si Si4 0.957029 0.694776 0.425935
Si Si5 0.543587 0.102203 0.536697
Si Si6 0.459236 0.395239 0.817723
Si Si7 0.164207 0.463753 0.424392
Si Si8 0.246308 0.611371 0.302653
O O1 0.142914 0.059380 0.114661
O O2 0.057812 0.173207 0.370373
O O3 0.192105 0.812229 0.352217
O O4 0.000000 0.000000 0.000000
O O5 0.858286 0.664558 0.759949
O O6 0.672581 0.974935 0.638565
O O7 0.843532 0.801816 0.140380
O O8 0.448093 0.229474 0.250946
O O9 0.252322 0.555728 0.052926
O O10 0.392219 0.405813 0.899516
O O11 0.260437 0.351102 0.719702
O O12 0.000000 0.500000 0.500000
O O13 0.054492 0.637421 0.411494
O O14 0.543469 0.202786 0.779058
O O15 0.500000 0.000000 0.500000
O O16 0.374153 0.502500 0.530108
O O17 0.500000 0.500000 0.000000
O O18 0.201340 0.529970 0.331803
#
# Coordination Sequence:
#
# PCOD9042674 Si02
#       8
#     2   2   2   2   2   2   2   2
#     4  12  28  46  72 109 141 183 236 300 354 420
#     4  12  28  44  75 107 143 184 243 292 351 427
#     4  10  23  44  73  99 146 189 224 285 358 408
#     4  12  28  47  74 101 141 187 237 297 358 416
#     4  11  26  44  69 107 144 182 238 289 341 422
#     4  10  24  41  67  98 141 184 227 279 345 422
#     4  11  24  46  74 102 140 193 237 287 350 429
#     4  10  24  42  70 103 139 185 235 284 350 418
#
# _framework density 21.405605999999999
#
# number of rings (size 3 to 8) (size 9 to 14) (size 15 to 20)
#    0.000    1.000    1.250    4.125   10.500    6.000 
#    0.000    0.000    0.000    0.000    0.000    0.000 
#    0.000    0.000    0.000    0.000    0.000    0.000 
#
# Total GULP energy -89211.832062 kJ/mol
# GULP energy per Si atom -5575.739504 kJ/mol
# Density = 2.135689 g / cm^3
# Si number density = 21.405606 Si / 1000 Ang^3
#
#
#
# Elastic Constant Matrix: (Units=GPa)
#
#
# Indices 1 2 3 4 5 6 
#
# 1 54.6891 28.2405 17.8312 1.5315 5.3987 -5.6187
# 2 28.2405 111.0544 39.9962 15.8363 -3.2326 2.6758
# 3 17.8312 39.9962 95.0444 12.1499 2.4421 7.1144
# 4 1.5315 15.8363 12.1499 33.2763 -14.1911 5.1080
# 5 5.3987 -3.2326 2.4421 -14.1911 22.2427 8.8788
# 6 -5.6187 2.6758 7.1144 5.1080 8.8788 39.4192
#
#
#
# Elastic Compliance Matrix: (Units=1/GPa)
#
#
# Indices 1 2 3 4 5 6 
#
# 1 0.023649 -0.005257 -0.001956 -0.003980 -0.011717 0.007236
# 2 -0.005257 0.012228 -0.003703 -0.003407 0.001619 -0.000834
# 3 -0.001956 -0.003703 0.013202 -0.004562 -0.004062 -0.000904
# 4 -0.003980 -0.003407 -0.004562 0.053655 0.041518 -0.015817
# 5 -0.011717 0.001619 -0.004062 0.041518 0.085199 -0.025617
# 6 0.007236 -0.000834 -0.000904 -0.015817 -0.025617 0.034439
#
#
# Mechanical properties :
#
#
# Convention : Reuss Voigt Hill
#
# Bulk Modulus (GPa) = 36.70264 48.10263 42.40264
# Shear Modulus (GPa) = 19.74038 30.63564 25.18801
#
# Velocity S-wave (km/s) = 3.04008 3.78722 3.43403
# Velocity P-wave (km/s) = 5.43197 6.45328 5.96452
#
# Compressibility (1/GPa) = 0.02724600
#
# Stress axis : x y z
#
# Youngs Moduli (GPa) = 42.28469 81.77816 75.74640
#
# Poissons Ratio (x) = 0.42992 0.14818
# Poissons Ratio (y) = 0.22230 0.28050
# Poissons Ratio (z) = 0.08272 0.30284
#
# Static dielectric constant tensor:
#      x y z
#    x 1.690760 -0.245980 0.197240 
#    y -0.245980 2.642140 -0.366990 
#    z 0.197240 -0.366990 1.945350 
# 
# From -- ./inp_files/107277.got.cif
#   From: 2010.05.17/outbox.cif.g08.bks.cpg/sg2_54_cif.got.tgz:107277.got - 2010.06.03 11:33:40.
