data_PCOD9042750
_publ_section_title
;
Structure prediction by ZEFSAII (Michael W. Deem and Ramdas Pophale) SiO2 
 PCOD9042750
Probable space group: P -1
;
_chemical_formula_sum "Si O2"
_cell_formula_units_Z 16
_cell_length_a 27.849150
_cell_length_b 6.305915
_cell_length_c 8.323830
_cell_angle_alpha 56.949548
_cell_angle_beta 138.850073
_cell_angle_gamma 100.566774
_cell_volume 734.619870
_symmetry_space_group_name_H-M "P -1"
_symmetry_group_IT_number 2
_symmetry_cell_setting 'triclinic'
loop_
_space_group_symop_operation_xyz
x,y,z
-x,-y,-z
loop_
_atom_site_type_symbol
_atom_site_label
_atom_site_fract_x
_atom_site_fract_y
_atom_site_fract_z
Si Si1 0.463278 0.975829 0.750691
Si Si2 0.579217 0.919324 0.835896
Si Si3 0.016606 0.695157 0.333428
Si Si4 0.939532 0.812375 0.763786
Si Si5 0.314187 0.842792 0.351239
Si Si6 0.830737 0.651848 0.357463
Si Si7 0.356697 0.623784 0.187806
Si Si8 0.729541 0.391377 0.338978
O O1 0.548168 0.795893 0.953965
O O2 0.398272 0.850608 0.612278
O O3 0.414276 0.300267 0.445323
O O4 0.500000 0.000000 0.000000
O O5 0.500000 0.000000 0.500000
O O6 0.593398 0.191639 0.793142
O O7 0.659718 0.698741 0.058754
O O8 0.097650 0.507593 0.518893
O O9 0.000000 0.500000 0.500000
O O10 0.031641 0.958199 0.325593
O O11 0.946436 0.815089 0.972931
O O12 0.857561 0.839571 0.465878
O O13 0.000000 0.500000 0.000000
O O14 0.326407 0.684219 0.273447
O O15 0.278396 0.752259 0.455758
O O16 0.248261 0.152304 0.017573
O O17 0.810546 0.432576 0.501144
O O18 0.291685 0.711036 0.842652
#
# Coordination Sequence:
#
# PCOD9042750 Si02
#       8
#     2   2   2   2   2   2   2   2
#     4  12  25  41  66  98 130 181 241 297 358 417
#     4  12  22  41  65  91 130 175 233 300 356 406
#     4  10  23  44  75 111 140 181 232 274 346 422
#     4   9  22  43  72 103 145 180 218 282 337 410
#     4  12  27  45  66 102 137 184 240 284 354 424
#     4  11  24  47  66 101 147 177 230 287 337 424
#     4  12  23  45  67  90 141 175 237 297 355 419
#     4  12  27  45  67  99 138 186 231 291 356 414
#
# _framework density 21.779971
#
# number of rings (size 3 to 8) (size 9 to 14) (size 15 to 20)
#    0.000    0.750    5.000    1.875    3.500    7.000 
#    0.000    0.000    0.000    0.000    0.000    0.000 
#    0.000    0.000    0.000    0.000    0.000    0.000 
#
# Total GULP energy -89212.416279 kJ/mol
# GULP energy per Si atom -5575.776017 kJ/mol
# Density = 2.173040 g / cm^3
# Si number density = 21.779971 Si / 1000 Ang^3
#
#
#
# Elastic Constant Matrix: (Units=GPa)
#
#
# Indices 1 2 3 4 5 6 
#
# 1 168.6978 59.4189 42.0279 3.5236 -12.8059 18.2406
# 2 59.4189 142.7060 31.3092 7.6168 -13.1260 25.1058
# 3 42.0279 31.3092 65.4519 0.6480 -13.1421 9.7554
# 4 3.5236 7.6168 0.6480 43.5236 -3.5839 -0.2987
# 5 -12.8059 -13.1260 -13.1421 -3.5839 33.5194 -9.2227
# 6 18.2406 25.1058 9.7554 -0.2987 -9.2227 41.9480
#
#
#
# Elastic Compliance Matrix: (Units=1/GPa)
#
#
# Indices 1 2 3 4 5 6 
#
# 1 0.007772 -0.002182 -0.003709 -0.000173 0.000328 -0.001140
# 2 -0.002182 0.009241 -0.002289 -0.001379 0.000663 -0.003914
# 3 -0.003709 -0.002289 0.019909 0.000851 0.005462 -0.000440
# 4 -0.000173 -0.001379 0.000851 0.023445 0.002633 0.001448
# 5 0.000328 0.000663 0.005462 0.002633 0.034219 0.005732
# 6 -0.001140 -0.003914 -0.000440 0.001448 0.005732 0.028050
#
#
# Mechanical properties :
#
#
# Convention : Reuss Voigt Hill
#
# Bulk Modulus (GPa) = 48.63511 71.37419 60.00465
# Shear Modulus (GPa) = 34.28118 40.07153 37.17635
#
# Velocity S-wave (km/s) = 3.97164 4.29398 4.13595
# Velocity P-wave (km/s) = 6.58867 7.57800 7.10059
#
# Compressibility (1/GPa) = 0.02056128
#
# Stress axis : x y z
#
# Youngs Moduli (GPa) = 128.66148 108.20803 50.22818
#
# Poissons Ratio (x) = 0.23616 0.18631
# Poissons Ratio (y) = 0.28079 0.11498
# Poissons Ratio (z) = 0.47724 0.24770
#
# Static dielectric constant tensor:
#      x y z
#    x 1.845210 -0.017190 -0.089600 
#    y -0.017190 1.815620 0.041780 
#    z -0.089600 0.041780 2.001920 
# 
# From -- ./inp_files/53329.got.cif
#   From: 2010.05.17/outbox.cif.g08.bks.cpg/sg2_27_cif.got.tgz:53329.got - 2010.06.03 11:33:40.
