data_PCOD9042157
_publ_section_title
;
Structure prediction by ZEFSAII (Michael W. Deem and Ramdas Pophale) SiO2 
 PCOD9042157
Probable space group: P -1
;
_chemical_formula_sum "Si O2"
_cell_formula_units_Z 14
_cell_length_a 11.905649
_cell_length_b 11.911541
_cell_length_c 9.552950
_cell_angle_alpha 141.007461
_cell_angle_beta 45.287858
_cell_angle_gamma 121.313860
_cell_volume 604.669509
_symmetry_space_group_name_H-M "P -1"
_symmetry_group_IT_number 2
_symmetry_cell_setting 'triclinic'
loop_
_space_group_symop_operation_xyz
x,y,z
-x,-y,-z
loop_
_atom_site_type_symbol
_atom_site_label
_atom_site_fract_x
_atom_site_fract_y
_atom_site_fract_z
Si Si1 0.690344 0.095899 0.816789
Si Si2 0.073192 0.390054 0.197609
Si Si3 0.700488 0.755748 0.912116
Si Si4 0.145368 0.892487 0.846465
Si Si5 0.338816 0.264664 0.370749
Si Si6 0.609753 0.131829 0.616059
Si Si7 0.840093 0.456668 0.020775
O O1 0.520994 0.190131 0.110174
O O2 0.809363 0.250968 0.869665
O O3 0.677206 0.043207 0.613057
O O4 0.735944 0.915422 0.684177
O O5 0.213849 0.284013 0.055495
O O6 0.000000 0.500000 0.500000
O O7 0.940075 0.256038 0.135850
O O8 0.136848 0.499153 0.119683
O O9 0.735908 0.665299 0.643958
O O10 0.518500 0.722430 0.070991
O O11 0.746763 0.960846 0.037465
O O12 0.257790 0.805009 0.541986
O O13 0.000000 0.000000 0.000000
O O14 0.302855 0.417276 0.664657
O O15 0.500000 0.000000 0.500000
O O16 0.000000 0.500000 0.000000
#
# Coordination Sequence:
#
# PCOD9042157 Si02
#       7
#     2   2   2   2   2   2   2
#     4  10  23  44  69  97 134 175 220 277 330 394
#     4  11  23  41  60  90 133 169 213 271 327 389
#     4   9  20  40  63  92 121 164 222 267 323 383
#     4   9  19  34  60  87 124 163 207 260 316 379
#     4  10  23  44  71  93 132 175 221 274 336 390
#     4   9  18  36  66  97 124 161 220 273 320 389
#     4  12  27  43  65 100 137 177 222 269 334 405
#
# _framework density 23.153144000000001
#
# number of rings (size 3 to 8) (size 9 to 14) (size 15 to 20)
#    0.000    2.000    0.000    2.143    8.000    1.714 
#    0.000    7.857    0.000    0.000    0.000    0.000 
#    0.000    0.000    0.000    0.000    0.000    0.000 
#
# Total GULP energy -78094.104734 kJ/mol
# GULP energy per Si atom -5578.150338 kJ/mol
# Density = 2.310045 g / cm^3
# Si number density = 23.153144 Si / 1000 Ang^3
#
#
#
# Elastic Constant Matrix: (Units=GPa)
#
#
# Indices 1 2 3 4 5 6 
#
# 1 63.5743 25.8648 5.4298 -7.6879 15.2576 -4.3463
# 2 25.8648 101.1889 2.9359 -3.0420 8.1358 7.4679
# 3 5.4298 2.9359 66.3777 -11.3933 17.5707 0.3204
# 4 -7.6879 -3.0420 -11.3933 31.7388 -1.9004 3.4600
# 5 15.2576 8.1358 17.5707 -1.9004 30.5509 -7.3918
# 6 -4.3463 7.4679 0.3204 3.4600 -7.3918 28.8069
#
#
#
# Elastic Compliance Matrix: (Units=1/GPa)
#
#
# Indices 1 2 3 4 5 6 
#
# 1 0.020252 -0.004433 0.001774 0.004420 -0.009377 0.001248
# 2 -0.004433 0.011507 0.000543 0.000561 -0.002163 -0.004280
# 3 0.001774 0.000543 0.019556 0.007196 -0.012860 -0.004255
# 4 0.004420 0.000561 0.007196 0.035453 -0.005558 -0.005243
# 5 -0.009377 -0.002163 -0.012860 -0.005558 0.048012 0.012276
# 6 0.001248 -0.004280 -0.004255 -0.005243 0.012276 0.039839
#
#
# Mechanical properties :
#
#
# Convention : Reuss Voigt Hill
#
# Bulk Modulus (GPa) = 21.23906 33.28909 27.26407
# Shear Modulus (GPa) = 25.70099 31.34666 28.52382
#
# Velocity S-wave (km/s) = 3.33535 3.68351 3.51374
# Velocity P-wave (km/s) = 4.90162 5.70087 5.31629
#
# Compressibility (1/GPa) = 0.04708307
#
# Stress axis : x y z
#
# Youngs Moduli (GPa) = 49.37763 86.90610 51.13562
#
# Poissons Ratio (x) = 0.38529 -0.09073
# Poissons Ratio (y) = 0.21891 -0.02779
# Poissons Ratio (z) = -0.08761 -0.04722
#
# Static dielectric constant tensor:
#      x y z
#    x 1.780240 0.098420 0.008540 
#    y 0.098420 1.783550 -0.036610 
#    z 0.008540 -0.036610 1.963640 
# 
# From -- ./inp_files/154807.got.cif
#   From: 2010.05.17/outbox.cif.g08.bks.cpg/sg2_78_cif.got.tgz:154807.got - 2010.06.03 11:33:40.
