data_PCOD9042639
_publ_section_title
;
Structure prediction by ZEFSAII (Michael W. Deem and Ramdas Pophale) SiO2 
 PCOD9042639
Probable space group: P -1
;
_chemical_formula_sum "Si O2"
_cell_formula_units_Z 12
_cell_length_a 13.615681
_cell_length_b 8.866113
_cell_length_c 5.196362
_cell_angle_alpha 94.409234
_cell_angle_beta 65.679495
_cell_angle_gamma 123.994169
_cell_volume 464.062759
_symmetry_space_group_name_H-M "P -1"
_symmetry_group_IT_number 2
_symmetry_cell_setting 'triclinic'
loop_
_space_group_symop_operation_xyz
x,y,z
-x,-y,-z
loop_
_atom_site_type_symbol
_atom_site_label
_atom_site_fract_x
_atom_site_fract_y
_atom_site_fract_z
Si Si1 0.118998 0.664961 0.056035
Si Si2 0.715534 0.691173 0.650780
Si Si3 0.673034 0.390295 0.981410
Si Si4 0.482620 0.691634 0.351379
Si Si5 0.995534 0.860430 0.282015
Si Si6 0.237735 0.017770 0.702753
O O1 0.200679 0.612759 0.124379
O O2 0.215574 0.824318 0.762049
O O3 0.000000 0.500000 0.000000
O O4 0.055560 0.750020 0.302964
O O5 0.575397 0.524480 0.664143
O O6 0.840122 0.713667 0.373464
O O7 0.733355 0.881526 0.590117
O O8 0.718052 0.600883 0.902544
O O9 0.587042 0.307563 0.317685
O O10 0.420371 0.724283 0.175659
O O11 0.638009 0.832302 0.236752
O O12 0.000000 0.000000 0.500000
O O13 0.098055 0.969707 0.952780
#
# Coordination Sequence:
#
# PCOD9042639 Si02
#       6
#     2   2   2   2   2   2
#     4  10  24  48  75 112 157 206 260 318 402 463
#     4  10  23  44  73 107 156 199 258 317 391 458
#     4  10  25  44  76 108 159 201 256 318 398 462
#     4  10  24  47  76 113 157 202 262 318 395 467
#     4  10  24  43  73 109 154 198 264 320 384 458
#     4  10  24  44  75 114 150 208 257 323 385 473
#
# _framework density 25.858568000000002
#
# number of rings (size 3 to 8) (size 9 to 14) (size 15 to 20)
#    2.000    0.000    0.000    2.000    2.333    5.333 
#    3.000    0.000    0.000    0.000    0.000    0.000 
#    0.000    0.000    0.000    0.000    0.000    0.000 
#
# Total GULP energy -67006.905347 kJ/mol
# GULP energy per Si atom -5583.908779 kJ/mol
# Density = 2.579971 g / cm^3
# Si number density = 25.858568 Si / 1000 Ang^3
#
#
#
# Elastic Constant Matrix: (Units=GPa)
#
#
# Indices 1 2 3 4 5 6 
#
# 1 181.7685 64.0739 58.0943 -13.5995 6.4057 -1.4883
# 2 64.0739 119.2735 26.6870 -22.7559 1.7568 5.1843
# 3 58.0943 26.6870 136.1445 -3.6303 5.7069 -1.4611
# 4 -13.5995 -22.7559 -3.6303 40.3589 2.8835 -7.5289
# 5 6.4057 1.7568 5.7069 2.8835 45.6579 -11.3768
# 6 -1.4883 5.1843 -1.4611 -7.5289 -11.3768 46.1122
#
#
#
# Elastic Compliance Matrix: (Units=1/GPa)
#
#
# Indices 1 2 3 4 5 6 
#
# 1 0.007574 -0.003418 -0.002520 0.000530 -0.000523 0.000506
# 2 -0.003418 0.011368 -0.000626 0.005104 -0.000368 -0.000666
# 3 -0.002520 -0.000626 0.008561 -0.000378 -0.000660 0.000036
# 4 0.000530 0.005104 -0.000378 0.028592 -0.001074 0.003835
# 5 -0.000523 -0.000368 -0.000660 -0.001074 0.023545 0.005637
# 6 0.000506 -0.000666 0.000036 0.003835 0.005637 0.023795
#
#
# Mechanical properties :
#
#
# Convention : Reuss Voigt Hill
#
# Bulk Modulus (GPa) = 69.56208 81.65520 75.60864
# Shear Modulus (GPa) = 41.20113 45.64790 43.42451
#
# Velocity S-wave (km/s) = 3.99598 4.20609 4.10238
# Velocity P-wave (km/s) = 6.94621 7.43199 7.19320
#
# Compressibility (1/GPa) = 0.01437565
#
# Stress axis : x y z
#
# Youngs Moduli (GPa) = 132.02716 87.96332 116.80588
#
# Poissons Ratio (x) = 0.30067 0.29441
# Poissons Ratio (y) = 0.45128 0.07306
# Poissons Ratio (z) = 0.33277 0.05502
#
# Static dielectric constant tensor:
#      x y z
#    x 2.047990 0.002470 0.022930 
#    y 0.002470 2.080100 -0.014930 
#    z 0.022930 -0.014930 2.064290 
# 
# From -- ./inp_files/88893.got.cif
#   From: 2010.05.17/outbox.cif.g08.bks.cpg/sg2_45_cif.got.tgz:88893.got - 2010.06.03 11:33:40.
