data_PCOD9042783
_publ_section_title
;
Structure prediction by ZEFSAII (Michael W. Deem and Ramdas Pophale) SiO2 
 PCOD9042783
Probable space group: P -1
;
_chemical_formula_sum "Si O2"
_cell_formula_units_Z 11
_cell_length_a 11.936235
_cell_length_b 7.232396
_cell_length_c 8.945593
_cell_angle_alpha 50.371882
_cell_angle_beta 137.865899
_cell_angle_gamma 110.252919
_cell_volume 386.820063
_symmetry_space_group_name_H-M "P -1"
_symmetry_group_IT_number 2
_symmetry_cell_setting 'triclinic'
loop_
_space_group_symop_operation_xyz
x,y,z
-x,-y,-z
loop_
_atom_site_type_symbol
_atom_site_label
_atom_site_fract_x
_atom_site_fract_y
_atom_site_fract_z
Si Si1 0.491625 0.350767 0.760261
Si Si2 0.000000 0.500000 0.500000
Si Si3 0.876634 0.070485 0.200898
Si Si4 0.977232 0.749852 0.032906
Si Si5 0.412661 0.167210 0.486045
Si Si6 0.677853 0.699484 0.073047
O O1 0.383607 0.224956 0.604894
O O2 0.483833 0.631085 0.563440
O O3 0.685734 0.198179 0.000453
O O4 0.428049 0.337566 0.869743
O O5 0.955499 0.447830 0.669761
O O6 0.194572 0.552577 0.719512
O O7 0.936657 0.245660 0.047984
O O8 0.000000 0.000000 0.500000
O O9 0.847252 0.821770 0.210334
O O10 0.774198 0.782037 0.793627
O O11 0.000000 0.000000 0.000000
O O12 0.541797 0.896457 0.741207
#
# Coordination Sequence:
#
# PCOD9042783 Si02
#       6
#     2   1   2   2   2   2
#     4  10  23  44  76 111 142 185 251 306 368 427
#     4  12  30  44  72 108 150 208 234 298 378 444
#     4  11  23  45  80 111 146 192 246 314 362 427
#     4  12  27  50  72 108 159 192 248 297 370 446
#     4  10  24  45  75 106 138 198 236 308 363 424
#     4  11  24  47  71 106 148 188 252 298 367 438
#
# _framework density 28.436997999999999
#
# number of rings (size 3 to 8) (size 9 to 14) (size 15 to 20)
#    0.000    1.091    1.818    4.364   10.182    2.909 
#    0.000    1.818    0.000    0.000    0.000    0.000 
#    0.000    0.000    0.000    0.000    0.000    0.000 
#
# Total GULP energy -61575.527920 kJ/mol
# GULP energy per Si atom -5597.775265 kJ/mol
# Density = 2.837227 g / cm^3
# Si number density = 28.436998 Si / 1000 Ang^3
#
#
#
# Elastic Constant Matrix: (Units=GPa)
#
#
# Indices 1 2 3 4 5 6 
#
# 1 204.2404 8.8999 68.4091 -23.0262 -17.8483 13.1423
# 2 8.8999 73.0716 30.2250 16.3027 -0.1136 -10.5646
# 3 68.4091 30.2250 238.2973 5.7105 -2.4675 9.0628
# 4 -23.0262 16.3027 5.7105 47.4048 4.7113 -4.3541
# 5 -17.8483 -0.1136 -2.4675 4.7113 56.5879 -9.6799
# 6 13.1423 -10.5646 9.0628 -4.3541 -9.6799 42.0592
#
#
#
# Elastic Compliance Matrix: (Units=1/GPa)
#
#
# Indices 1 2 3 4 5 6 
#
# 1 0.006039 -0.000936 -0.001635 0.003213 0.001372 -0.001121
# 2 -0.000936 0.016449 -0.001844 -0.005568 0.000882 0.004448
# 3 -0.001635 -0.001844 0.004961 -0.000825 -0.000441 -0.001208
# 4 0.003213 -0.005568 -0.000825 0.024786 -0.001082 0.000092
# 5 0.001372 0.000882 -0.000441 -0.001082 0.018882 0.004121
# 6 -0.001121 0.004448 -0.001208 0.000092 0.004121 0.026462
#
#
# Mechanical properties :
#
#
# Convention : Reuss Voigt Hill
#
# Bulk Modulus (GPa) = 53.71111 81.18639 67.44875
# Shear Modulus (GPa) = 44.39900 56.41540 50.40720
#
# Velocity S-wave (km/s) = 3.95563 4.45890 4.21478
# Velocity P-wave (km/s) = 6.30805 7.42433 6.88883
#
# Compressibility (1/GPa) = 0.01861812
#
# Stress axis : x y z
#
# Youngs Moduli (GPa) = 165.59275 60.79454 201.57734
#
# Poissons Ratio (x) = 0.05690 0.32959
# Poissons Ratio (y) = 0.15500 0.37175
# Poissons Ratio (z) = 0.27075 0.11212
#
# Static dielectric constant tensor:
#      x y z
#    x 2.092250 -0.172160 -0.065230 
#    y -0.172160 2.411880 -0.059900 
#    z -0.065230 -0.059900 2.260590 
# 
# From -- ./inp_files/236982.got.cif
#   From: 2010.05.17/outbox.cif.g08.bks.cpg/sg2_119_cif.got.tgz:236982.got - 2010.06.03 11:33:40.
