data_PCOD9042317
_publ_section_title
;
Structure prediction by ZEFSAII (Michael W. Deem and Ramdas Pophale) SiO2 
 PCOD9042317
Probable space group: P -1
;
_chemical_formula_sum "Si O2"
_cell_formula_units_Z 16
_cell_length_a 11.548899
_cell_length_b 8.849408
_cell_length_c 20.184773
_cell_angle_alpha 144.061901
_cell_angle_beta 43.393413
_cell_angle_gamma 111.351080
_cell_volume 691.267087
_symmetry_space_group_name_H-M "P -1"
_symmetry_group_IT_number 2
_symmetry_cell_setting 'triclinic'
loop_
_space_group_symop_operation_xyz
x,y,z
-x,-y,-z
loop_
_atom_site_type_symbol
_atom_site_label
_atom_site_fract_x
_atom_site_fract_y
_atom_site_fract_z
Si Si1 0.911652 0.680189 0.942865
Si Si2 0.474546 0.718659 0.892471
Si Si3 0.460235 0.376869 0.906159
Si Si4 0.058056 0.228645 0.190315
Si Si5 0.855467 0.751189 0.556614
Si Si6 0.839092 0.750454 0.210654
Si Si7 0.694228 0.170084 0.312157
Si Si8 0.836587 0.267222 0.485207
O O1 0.758482 0.572192 0.980780
O O2 0.778391 0.012347 0.150448
O O3 0.944583 0.693985 0.857500
O O4 0.118399 0.483461 0.829932
O O5 0.466181 0.559465 0.905983
O O6 0.645148 0.452185 0.679638
O O7 0.500000 0.000000 0.000000
O O8 0.259821 0.906125 0.011186
O O9 0.649803 0.015572 0.700112
O O10 0.500000 0.500000 0.000000
O O11 0.022380 0.514253 0.350164
O O12 0.872730 0.200731 0.274542
O O13 0.817682 0.538799 0.544316
O O14 0.962313 0.870447 0.601826
O O15 0.663577 0.969385 0.308118
O O16 0.848650 0.004547 0.341395
O O17 0.000000 0.500000 0.000000
O O18 0.500000 0.500000 0.500000
#
# Coordination Sequence:
#
# PCOD9042317 Si02
#       8
#     2   2   2   2   2   2   2   2
#     4  11  25  44  69 101 144 187 242 293 357 422
#     4  12  26  45  71 108 147 192 236 290 367 442
#     4  12  26  43  68 105 147 187 237 296 355 429
#     4  12  24  44  72 105 144 187 238 291 362 435
#     4  11  24  40  72 104 142 184 236 293 365 428
#     4  10  23  44  70  95 138 189 237 297 353 417
#     4  11  24  46  72  99 137 191 244 295 356 424
#     4  11  23  43  71 101 143 189 239 292 364 429
#
# _framework density 23.145902
#
# number of rings (size 3 to 8) (size 9 to 14) (size 15 to 20)
#    0.000    0.750    2.500    4.875    5.250    0.500 
#    0.000    0.625    0.000    0.000    0.000    0.000 
#    0.000    0.000    0.000    0.000    0.000    0.000 
#
# Total GULP energy -89364.157914 kJ/mol
# GULP energy per Si atom -5585.259870 kJ/mol
# Density = 2.309322 g / cm^3
# Si number density = 23.145902 Si / 1000 Ang^3
#
#
#
# Elastic Constant Matrix: (Units=GPa)
#
#
# Indices 1 2 3 4 5 6 
#
# 1 53.1786 29.2302 26.9134 -10.4835 7.0978 -12.0406
# 2 29.2302 126.4677 47.7310 -10.5211 -5.9209 -51.1121
# 3 26.9134 47.7310 112.9389 7.8145 14.0321 -13.8593
# 4 -10.4835 -10.5211 7.8145 36.9674 -13.4173 5.3773
# 5 7.0978 -5.9209 14.0321 -13.4173 60.0404 7.0037
# 6 -12.0406 -51.1121 -13.8593 5.3773 7.0037 54.4920
#
#
#
# Elastic Compliance Matrix: (Units=1/GPa)
#
#
# Indices 1 2 3 4 5 6 
#
# 1 0.024508 -0.002959 -0.004884 0.006797 -0.000623 0.000807
# 2 -0.002959 0.015921 -0.005107 0.003916 0.002558 0.012266
# 3 -0.004884 -0.005107 0.013047 -0.007001 -0.004389 -0.001296
# 4 0.006797 0.003916 -0.007001 0.035097 0.009208 -0.001253
# 5 -0.000623 0.002558 -0.004389 0.009208 0.020342 -0.002378
# 6 0.000807 0.012266 -0.001296 -0.001253 -0.002378 0.030134
#
#
# Mechanical properties :
#
#
# Convention : Reuss Voigt Hill
#
# Bulk Modulus (GPa) = 36.26139 55.59269 45.92704
# Shear Modulus (GPa) = 28.71203 42.88066 35.79634
#
# Velocity S-wave (km/s) = 3.52587 4.30888 3.93689
# Velocity P-wave (km/s) = 5.68121 6.98755 6.36796
#
# Compressibility (1/GPa) = 0.02757754
#
# Stress axis : x y z
#
# Youngs Moduli (GPa) = 40.80231 62.80839 76.64445
#
# Poissons Ratio (x) = 0.18584 0.37431
# Poissons Ratio (y) = 0.12072 0.39144
# Poissons Ratio (z) = 0.19927 0.32078
#
# Static dielectric constant tensor:
#      x y z
#    x 1.934780 0.057100 -0.000650 
#    y 0.057100 1.854840 -0.002490 
#    z -0.000650 -0.002490 1.828150 
# 
# From -- ./inp_files/567046.got.cif
#   From: 2010.05.17/outbox.cif.g08.bks.cpg/sg2_284_cif.got.tgz:567046.got - 2010.06.03 11:33:40.
