data_PCOD9042034
_publ_section_title
;
Structure prediction by ZEFSAII (Michael W. Deem and Ramdas Pophale) SiO2 
 PCOD9042034
Probable space group: P -1
;
_chemical_formula_sum "Si O2"
_cell_formula_units_Z 15
_cell_length_a 12.589198
_cell_length_b 10.745606
_cell_length_c 7.092314
_cell_angle_alpha 111.991321
_cell_angle_beta 61.736278
_cell_angle_gamma 125.863996
_cell_volume 678.479459
_symmetry_space_group_name_H-M "P -1"
_symmetry_group_IT_number 2
_symmetry_cell_setting 'triclinic'
loop_
_space_group_symop_operation_xyz
x,y,z
-x,-y,-z
loop_
_atom_site_type_symbol
_atom_site_label
_atom_site_fract_x
_atom_site_fract_y
_atom_site_fract_z
Si Si1 0.500000 0.500000 0.000000
Si Si2 0.473365 0.057043 0.254002
Si Si3 0.158318 0.869864 0.066887
Si Si4 0.847367 0.431581 0.001461
Si Si5 0.784343 0.484656 0.672327
Si Si6 0.279109 0.844510 0.602605
Si Si7 0.854658 0.678209 0.377845
Si Si8 0.648534 0.783228 0.743598
O O1 0.362178 0.521420 0.174255
O O2 0.430515 0.342410 0.100146
O O3 0.592031 0.086184 0.319593
O O4 0.460095 0.205519 0.298242
O O5 0.332205 0.937551 0.416137
O O6 0.500000 0.000000 0.000000
O O7 0.208353 0.750650 0.034396
O O8 0.001372 0.800274 0.233121
O O9 0.256265 0.045194 0.151177
O O10 0.164356 0.859763 0.828774
O O11 0.849886 0.483591 0.816498
O O12 0.785370 0.519373 0.224528
O O13 0.000000 0.500000 0.000000
O O14 0.763174 0.331021 0.500019
O O15 0.875997 0.629314 0.541292
O O16 0.748830 0.740992 0.520109
#
# Coordination Sequence:
#
# PCOD9042034 Si02
#       8
#     1   2   2   2   2   2   2   2
#     4  10  26  40  70 102 140 184 232 284 362 424
#     4  11  23  42  66 102 141 180 234 292 348 417
#     4  11  22  43  70  98 139 180 240 284 343 423
#     4  10  23  44  69 100 136 183 238 290 345 414
#     4  11  23  43  69 100 143 187 231 291 352 425
#     4  11  24  39  70 107 135 181 238 287 354 417
#     4  10  24  45  64 102 142 186 230 289 354 420
#     4  11  23  45  71  97 143 188 228 296 352 420
#
# _framework density 22.108262
#
# number of rings (size 3 to 8) (size 9 to 14) (size 15 to 20)
#    0.000    1.333    2.667    2.000    3.733    3.200 
#    7.200    3.333    0.000    0.000    0.000    0.000 
#    0.000    0.000    0.000    0.000    0.000    0.000 
#
# Total GULP energy -83584.083630 kJ/mol
# GULP energy per Si atom -5572.272242 kJ/mol
# Density = 2.205794 g / cm^3
# Si number density = 22.108262 Si / 1000 Ang^3
#
#
#
# Elastic Constant Matrix: (Units=GPa)
#
#
# Indices 1 2 3 4 5 6 
#
# 1 46.1367 35.5630 59.7101 -3.6979 -11.8116 -7.2937
# 2 35.5630 108.3644 63.2075 -19.5871 -19.5099 -8.3778
# 3 59.7101 63.2075 172.2470 -19.2976 -11.8679 -3.7975
# 4 -3.6979 -19.5871 -19.2976 51.8304 2.5324 -8.4671
# 5 -11.8116 -19.5099 -11.8679 2.5324 42.0587 -1.1708
# 6 -7.2937 -8.3778 -3.7975 -8.4671 -1.1708 32.1995
#
#
#
# Elastic Compliance Matrix: (Units=1/GPa)
#
#
# Indices 1 2 3 4 5 6 
#
# 1 0.046661 -0.006217 -0.013654 -0.003338 0.006755 0.006709
# 2 -0.006217 0.014414 -0.002269 0.004515 0.004123 0.003411
# 3 -0.013654 -0.002269 0.011454 0.002227 -0.001840 -0.001814
# 4 -0.003338 0.004515 0.002227 0.022649 0.000607 0.006659
# 5 0.006755 0.004123 -0.001840 0.000607 0.027129 0.003532
# 6 0.006709 0.003411 -0.001814 0.006659 0.003532 0.035129
#
#
# Mechanical properties :
#
#
# Convention : Reuss Voigt Hill
#
# Bulk Modulus (GPa) = 35.40074 71.52326 53.46200
# Shear Modulus (GPa) = 23.68165 36.43557 30.05861
#
# Velocity S-wave (km/s) = 3.27642 4.06402 3.69129
# Velocity P-wave (km/s) = 5.51003 7.37857 6.51167
#
# Compressibility (1/GPa) = 0.02824800
#
# Stress axis : x y z
#
# Youngs Moduli (GPa) = 21.43111 69.37637 87.30323
#
# Poissons Ratio (x) = 0.43134 1.19208
# Poissons Ratio (y) = 0.13324 0.19809
# Poissons Ratio (z) = 0.29263 0.15742
#
# Static dielectric constant tensor:
#      x y z
#    x 1.858660 0.040390 -0.010650 
#    y 0.040390 1.842430 -0.005600 
#    z -0.010650 -0.005600 1.853640 
# 
# From -- ./inp_files/92763.got.cif
#   From: 2010.05.17/outbox.cif.g08.bks.cpg/sg2_47_cif.got.tgz:92763.got - 2010.06.03 11:33:40.
