data_PCOD9042645
_publ_section_title
;
Structure prediction by ZEFSAII (Michael W. Deem and Ramdas Pophale) SiO2 
 PCOD9042645
Probable space group: P -1
;
_chemical_formula_sum "Si O2"
_cell_formula_units_Z 16
_cell_length_a 18.538955
_cell_length_b 11.224250
_cell_length_c 10.321098
_cell_angle_alpha 145.076046
_cell_angle_beta 40.933024
_cell_angle_gamma 150.260820
_cell_volume 602.691253
_symmetry_space_group_name_H-M "P -1"
_symmetry_group_IT_number 2
_symmetry_cell_setting 'triclinic'
loop_
_space_group_symop_operation_xyz
x,y,z
-x,-y,-z
loop_
_atom_site_type_symbol
_atom_site_label
_atom_site_fract_x
_atom_site_fract_y
_atom_site_fract_z
Si Si1 0.566407 0.330255 0.742459
Si Si2 0.721920 0.429173 0.892633
Si Si3 0.538215 0.669444 0.754787
Si Si4 0.323415 0.111450 0.512052
Si Si5 0.192968 0.815940 0.034605
Si Si6 0.866741 0.861283 0.739625
Si Si7 0.027926 0.432024 0.684742
Si Si8 0.065772 0.833406 0.809783
O O1 0.644597 0.391110 0.829099
O O2 0.708335 0.557176 0.664674
O O3 0.500000 0.000000 0.500000
O O4 0.500000 0.500000 0.000000
O O5 0.696199 0.156234 0.704892
O O6 0.618321 0.410505 0.123413
O O7 0.897251 0.685290 0.882108
O O8 0.471675 0.363770 0.613105
O O9 0.638155 0.775126 0.585962
O O10 0.637451 0.924652 0.945193
O O11 0.182275 0.006965 0.691989
O O12 0.114387 0.646251 0.121730
O O13 0.118216 0.943956 0.214992
O O14 0.152484 0.629568 0.799979
O O15 0.985115 0.827815 0.550267
O O16 0.876918 0.989415 0.977726
O O17 0.062180 0.587170 0.642102
#
# Coordination Sequence:
#
# PCOD9042645 Si02
#       8
#     2   2   2   2   2   2   2   2
#     4  12  31  51  79 120 167 218 277 343 420 506
#     4  12  27  47  80 109 157 210 270 343 414 490
#     4  11  26  45  72 111 156 206 272 334 422 493
#     4  11  26  47  72 114 157 210 268 344 413 497
#     4  10  23  44  73 108 159 203 269 332 418 494
#     4  11  25  44  77 109 153 206 268 341 413 486
#     4  10  23  46  74 113 151 209 269 341 407 499
#     4  11  26  48  76 117 154 206 279 338 414 498
#
# _framework density 26.547588999999999
#
# number of rings (size 3 to 8) (size 9 to 14) (size 15 to 20)
#    0.000    1.000    0.000    4.125   10.500    6.000 
#    0.000    0.625    0.000    0.000    0.000    0.000 
#    0.000    0.000    0.000    0.000    0.000    0.000 
#
# Total GULP energy -89296.731232 kJ/mol
# GULP energy per Si atom -5581.045702 kJ/mol
# Density = 2.648717 g / cm^3
# Si number density = 26.547589 Si / 1000 Ang^3
#
#
#
# Elastic Constant Matrix: (Units=GPa)
#
#
# Indices 1 2 3 4 5 6 
#
# 1 99.1859 64.0065 44.1011 -7.1275 11.9001 25.5118
# 2 64.0065 185.0407 55.9639 1.2327 6.9771 22.8580
# 3 44.1011 55.9639 130.6581 -8.6479 -5.9644 6.0401
# 4 -7.1275 1.2327 -8.6479 45.1855 8.6046 5.6159
# 5 11.9001 6.9771 -5.9644 8.6046 35.9073 16.7651
# 6 25.5118 22.8580 6.0401 5.6159 16.7651 44.9455
#
#
#
# Elastic Compliance Matrix: (Units=1/GPa)
#
#
# Indices 1 2 3 4 5 6 
#
# 1 0.016229 -0.003694 -0.003540 0.003351 -0.003214 -0.006078
# 2 -0.003694 0.007433 -0.001923 -0.001048 0.000382 -0.001437
# 3 -0.003540 -0.001923 0.009823 0.000785 0.002734 0.000549
# 4 0.003351 -0.001048 0.000785 0.024177 -0.005414 -0.002476
# 5 -0.003214 0.000382 0.002734 -0.005414 0.035947 -0.011470
# 6 -0.006078 -0.001437 0.000549 -0.002476 -0.011470 0.030944
#
#
# Mechanical properties :
#
#
# Convention : Reuss Voigt Hill
#
# Bulk Modulus (GPa) = 65.90292 82.55861 74.23076
# Shear Modulus (GPa) = 33.80125 41.92854 37.86489
#
# Velocity S-wave (km/s) = 3.57211 3.97844 3.78074
# Velocity P-wave (km/s) = 6.47237 7.22979 6.86154
#
# Compressibility (1/GPa) = 0.01517383
#
# Stress axis : x y z
#
# Youngs Moduli (GPa) = 61.61773 134.52752 101.79922
#
# Poissons Ratio (x) = 0.49688 0.36035
# Poissons Ratio (y) = 0.22759 0.19573
# Poissons Ratio (z) = 0.21811 0.25865
#
# Static dielectric constant tensor:
#      x y z
#    x 2.143360 -0.011600 0.013140 
#    y -0.011600 2.085360 0.081600 
#    z 0.013140 0.081600 2.272150 
# 
# From -- ./inp_files/474886.got.cif
#   From: 2010.05.17/outbox.cif.g08.bks.cpg/sg2_238_cif.got.tgz:474886.got - 2010.06.03 11:33:40.
