data_PCOD9042002
_publ_section_title
;
Structure prediction by ZEFSAII (Michael W. Deem and Ramdas Pophale) SiO2 
 PCOD9042002
Probable space group: P -1
;
_chemical_formula_sum "Si O2"
_cell_formula_units_Z 14
_cell_length_a 9.017525
_cell_length_b 7.777337
_cell_length_c 19.294027
_cell_angle_alpha 145.210440
_cell_angle_beta 132.993782
_cell_angle_gamma 49.922625
_cell_volume 553.198770
_symmetry_space_group_name_H-M "P -1"
_symmetry_group_IT_number 2
_symmetry_cell_setting 'triclinic'
loop_
_space_group_symop_operation_xyz
x,y,z
-x,-y,-z
loop_
_atom_site_type_symbol
_atom_site_label
_atom_site_fract_x
_atom_site_fract_y
_atom_site_fract_z
Si Si1 0.220080 0.836219 0.398867
Si Si2 0.788458 0.951957 0.256032
Si Si3 0.009630 0.624955 0.966025
Si Si4 0.588586 0.076909 0.659386
Si Si5 0.367777 0.462771 0.830082
Si Si6 0.453487 0.059762 0.086533
Si Si7 0.108006 0.249395 0.241737
O O1 0.376789 0.960289 0.540404
O O2 0.190455 0.508503 0.310648
O O3 0.988908 0.044427 0.384963
O O4 0.322701 0.840244 0.357631
O O5 0.887525 0.649751 0.141972
O O6 0.654852 0.844261 0.238653
O O7 0.633584 0.157696 0.221576
O O8 0.560394 0.292481 0.015643
O O9 0.773437 0.749279 0.911057
O O10 0.000000 0.500000 0.000000
O O11 0.762018 0.832328 0.673789
O O12 0.524932 0.366978 0.785744
O O13 0.137237 0.619048 0.782225
O O14 0.883309 0.079164 0.901978
O O15 0.500000 0.000000 0.000000
#
# Coordination Sequence:
#
# PCOD9042002 Si02
#       7
#     2   2   2   2   2   2   2
#     4  10  25  43  70  98 129 177 225 277 325 395
#     4  11  23  42  62  98 133 171 220 266 332 392
#     4  11  22  40  66  99 136 175 211 274 327 395
#     4  11  23  48  68  93 135 175 224 277 335 376
#     4  10  25  42  63  97 131 173 218 274 325 399
#     4  11  23  38  65  98 130 168 217 262 330 396
#     4  10  23  44  68  98 132 173 222 270 333 392
#
# _framework density 25.307361
#
# number of rings (size 3 to 8) (size 9 to 14) (size 15 to 20)
#    0.000    1.429    1.429    2.571    4.000    9.714 
#    0.000    4.286    0.000    0.000    0.000    0.000 
#    0.000    0.000    0.000    0.000    0.000    0.000 
#
# Total GULP energy -78453.339135 kJ/mol
# GULP energy per Si atom -5603.809938 kJ/mol
# Density = 2.524976 g / cm^3
# Si number density = 25.307361 Si / 1000 Ang^3
#
#
#
# Elastic Constant Matrix: (Units=GPa)
#
#
# Indices 1 2 3 4 5 6 
#
# 1 86.8615 20.2300 18.3057 -2.3484 6.2234 7.6799
# 2 20.2300 123.6707 39.2735 -41.6315 3.0869 0.1009
# 3 18.3057 39.2735 90.6118 -40.2578 25.9965 2.3472
# 4 -2.3484 -41.6315 -40.2578 44.9900 -7.2648 3.8653
# 5 6.2234 3.0869 25.9965 -7.2648 50.5740 -5.1404
# 6 7.6799 0.1009 2.3472 3.8653 -5.1404 35.7370
#
#
#
# Elastic Compliance Matrix: (Units=1/GPa)
#
#
# Indices 1 2 3 4 5 6 
#
# 1 0.012920 -0.002596 -0.003291 -0.004587 -0.000617 -0.002146
# 2 -0.002596 0.012370 -0.000054 0.011502 0.001189 -0.000547
# 3 -0.003291 -0.000054 0.022981 0.019238 -0.009067 -0.004187
# 4 -0.004587 0.011502 0.019238 0.049813 -0.003501 -0.006202
# 5 -0.000617 0.001189 -0.009067 -0.003501 0.024403 0.004614
# 6 -0.002146 -0.000547 -0.004187 -0.006202 0.004614 0.030054
#
#
# Mechanical properties :
#
#
# Convention : Reuss Voigt Hill
#
# Bulk Modulus (GPa) = 27.47869 50.75137 39.11503
# Shear Modulus (GPa) = 28.32002 41.14919 34.73461
#
# Velocity S-wave (km/s) = 3.34884 4.03672 3.70876
# Velocity P-wave (km/s) = 5.08277 6.46717 5.81630
#
# Compressibility (1/GPa) = 0.03639184
#
# Stress axis : x y z
#
# Youngs Moduli (GPa) = 77.39641 80.83758 43.51382
#
# Poissons Ratio (x) = 0.20982 0.14319
# Poissons Ratio (y) = 0.20089 0.00234
# Poissons Ratio (z) = 0.25469 0.00436
#
# Static dielectric constant tensor:
#      x y z
#    x 2.012460 0.067660 0.035500 
#    y 0.067660 2.072970 -0.014400 
#    z 0.035500 -0.014400 2.027550 
# 
# From -- ./inp_files/586916.got.cif
#   From: 2010.05.17/outbox.cif.g08.bks.cpg/sg2_294_cif.got.tgz:586916.got - 2010.06.03 11:33:40.
