data_PCOD9042770
_publ_section_title
;
Structure prediction by ZEFSAII (Michael W. Deem and Ramdas Pophale) SiO2 
 PCOD9042770
Probable space group: P -1
;
_chemical_formula_sum "Si O2"
_cell_formula_units_Z 14
_cell_length_a 8.994883
_cell_length_b 12.622807
_cell_length_c 8.157071
_cell_angle_alpha 132.421492
_cell_angle_beta 92.457621
_cell_angle_gamma 113.014366
_cell_volume 561.557090
_symmetry_space_group_name_H-M "P -1"
_symmetry_group_IT_number 2
_symmetry_cell_setting 'triclinic'
loop_
_space_group_symop_operation_xyz
x,y,z
-x,-y,-z
loop_
_atom_site_type_symbol
_atom_site_label
_atom_site_fract_x
_atom_site_fract_y
_atom_site_fract_z
Si Si1 0.833084 0.051602 0.786010
Si Si2 0.526049 0.741965 0.624115
Si Si3 0.798838 0.448547 0.037995
Si Si4 0.801762 0.341285 0.266344
Si Si5 0.801721 0.915609 0.113125
Si Si6 0.833042 0.205185 0.609783
Si Si7 0.365625 0.424686 0.065834
O O1 0.872397 0.116746 0.668715
O O2 0.992952 0.031479 0.830001
O O3 0.635692 0.874566 0.618139
O O4 0.830164 0.197409 0.043594
O O5 0.354285 0.732038 0.680456
O O6 0.450742 0.549555 0.356164
O O7 0.682724 0.819384 0.847792
O O8 0.731564 0.404016 0.176283
O O9 0.010970 0.598855 0.237525
O O10 0.714980 0.258325 0.755830
O O11 0.779734 0.552133 0.999455
O O12 0.000000 0.500000 0.500000
O O13 0.788241 0.075232 0.324542
O O14 0.709420 0.769841 0.097470
O O15 0.500000 0.500000 0.000000
#
# Coordination Sequence:
#
# PCOD9042770 Si02
#       7
#     2   2   2   2   2   2   2
#     4  11  24  45  71 109 143 192 241 298 357 428
#     4  12  28  45  68 111 149 188 239 298 364 430
#     4  10  24  45  74 104 140 191 245 289 358 430
#     4  11  26  47  74 103 147 192 240 297 363 429
#     4  12  25  46  74 108 149 188 241 301 363 419
#     4  10  23  44  76 105 138 191 245 292 354 432
#     4  12  26  46  73 104 146 190 240 300 355 430
#
# _framework density 24.930679999999999
#
# number of rings (size 3 to 8) (size 9 to 14) (size 15 to 20)
#    0.000    0.857    1.429    4.286    8.000    2.286 
#    0.000    3.571    0.000    0.000    0.000    0.000 
#    0.000    0.000    0.000    0.000    0.000    0.000 
#
# Total GULP energy -78158.776003 kJ/mol
# GULP energy per Si atom -5582.769715 kJ/mol
# Density = 2.487394 g / cm^3
# Si number density = 24.930680 Si / 1000 Ang^3
#
#
#
# Elastic Constant Matrix: (Units=GPa)
#
#
# Indices 1 2 3 4 5 6 
#
# 1 65.8184 45.3526 37.1507 -2.0255 16.5210 15.2064
# 2 45.3526 109.7029 38.1929 5.0894 -0.3826 9.1805
# 3 37.1507 38.1929 105.7258 5.5344 -16.3212 16.2242
# 4 -2.0255 5.0894 5.5344 39.8814 -5.8016 1.4130
# 5 16.5210 -0.3826 -16.3212 -5.8016 31.9706 0.5318
# 6 15.2064 9.1805 16.2242 1.4130 0.5318 39.8991
#
#
#
# Elastic Compliance Matrix: (Units=1/GPa)
#
#
# Indices 1 2 3 4 5 6 
#
# 1 0.037528 -0.010858 -0.012262 0.001530 -0.025396 -0.006534
# 2 -0.010858 0.013750 -0.000434 -0.001521 0.005259 0.001135
# 3 -0.012262 -0.000434 0.016554 -0.000651 0.014700 -0.002131
# 4 0.001530 -0.001521 -0.000651 0.025992 0.003591 -0.000937
# 5 -0.025396 0.005259 0.014700 0.003591 0.052594 0.001663
# 6 -0.006534 0.001135 -0.002131 -0.000937 0.001663 0.028170
#
#
# Mechanical properties :
#
#
# Convention : Reuss Voigt Hill
#
# Bulk Modulus (GPa) = 48.25679 58.07105 53.16392
# Shear Modulus (GPa) = 21.87179 33.05362 27.46270
#
# Velocity S-wave (km/s) = 2.96515 3.64513 3.32258
# Velocity P-wave (km/s) = 5.57864 6.40777 6.00753
#
# Compressibility (1/GPa) = 0.02072247
#
# Stress axis : x y z
#
# Youngs Moduli (GPa) = 26.64672 72.72953 60.40655
#
# Poissons Ratio (x) = 0.78972 0.74073
# Poissons Ratio (y) = 0.28934 0.02623
# Poissons Ratio (z) = 0.32675 0.03158
#
# Static dielectric constant tensor:
#      x y z
#    x 1.999950 0.021440 -0.010800 
#    y 0.021440 1.987410 -0.043190 
#    z -0.010800 -0.043190 1.948330 
# 
# From -- ./inp_files/209321.got.cif
#   From: 2010.05.17/outbox.cif.g08.bks.cpg/sg2_105_cif.got.tgz:209321.got - 2010.06.03 11:33:40.
