data_PCOD9042333
_publ_section_title
;
Structure prediction by ZEFSAII (Michael W. Deem and Ramdas Pophale) SiO2 
 PCOD9042333
Probable space group: P -1
;
_chemical_formula_sum "Si O2"
_cell_formula_units_Z 14
_cell_length_a 8.670551
_cell_length_b 14.853810
_cell_length_c 7.561096
_cell_angle_alpha 82.813303
_cell_angle_beta 75.730979
_cell_angle_gamma 37.422244
_cell_volume 569.365205
_symmetry_space_group_name_H-M "P -1"
_symmetry_group_IT_number 2
_symmetry_cell_setting 'triclinic'
loop_
_space_group_symop_operation_xyz
x,y,z
-x,-y,-z
loop_
_atom_site_type_symbol
_atom_site_label
_atom_site_fract_x
_atom_site_fract_y
_atom_site_fract_z
Si Si1 0.914370 0.667673 0.065797
Si Si2 0.638933 0.341616 0.531605
Si Si3 0.775820 0.936422 0.595585
Si Si4 0.619216 0.727335 0.452184
Si Si5 0.504810 0.787127 0.863035
Si Si6 0.503728 0.397697 0.944683
Si Si7 0.723133 0.932912 0.198420
O O1 0.856172 0.649214 0.278542
O O2 0.891240 0.785551 0.079046
O O3 0.694209 0.729961 0.982522
O O4 0.200145 0.516737 0.952640
O O5 0.500000 0.500000 0.500000
O O6 0.452487 0.344695 0.525241
O O7 0.670379 0.317796 0.739956
O O8 0.924317 0.202172 0.398159
O O9 0.578715 0.964881 0.759002
O O10 0.632316 0.099333 0.586417
O O11 0.771374 0.902444 0.402471
O O12 0.650383 0.735204 0.647335
O O13 0.269529 0.966216 0.883759
O O14 0.422469 0.720002 0.923143
O O15 0.500000 0.500000 0.000000
#
# Coordination Sequence:
#
# PCOD9042333 Si02
#       7
#     2   2   2   2   2   2   2
#     4  11  23  45  69 100 138 174 226 277 328 406
#     4  12  25  42  65  97 140 181 219 277 341 397
#     4   9  20  41  68  99 134 173 226 274 333 403
#     4  10  23  44  70  98 129 179 221 278 338 388
#     4  11  23  43  70 100 132 174 229 272 334 401
#     4  12  27  45  63  99 142 177 225 279 331 406
#     4   9  20  40  72 101 127 176 225 282 331 390
#
# _framework density 24.588785999999999
#
# number of rings (size 3 to 8) (size 9 to 14) (size 15 to 20)
#    0.000    1.429    1.429    3.857    2.000    0.571 
#    0.000    6.429    0.000    0.000    0.000    0.000 
#    0.000    0.000    0.000    0.000    0.000    0.000 
#
# Total GULP energy -78412.854883 kJ/mol
# GULP energy per Si atom -5600.918206 kJ/mol
# Density = 2.453282 g / cm^3
# Si number density = 24.588786 Si / 1000 Ang^3
#
#
#
# Elastic Constant Matrix: (Units=GPa)
#
#
# Indices 1 2 3 4 5 6 
#
# 1 63.1609 33.0718 14.3015 -1.5189 -2.0058 33.9739
# 2 33.0718 100.7769 25.9438 2.9242 -24.5780 27.6772
# 3 14.3015 25.9438 87.0402 -2.1970 -6.7943 0.6663
# 4 -1.5189 2.9242 -2.1970 39.9129 0.5874 -15.6087
# 5 -2.0058 -24.5780 -6.7943 0.5874 37.2549 6.9297
# 6 33.9739 27.6772 0.6663 -15.6087 6.9297 52.7822
#
#
#
# Elastic Compliance Matrix: (Units=1/GPa)
#
#
# Indices 1 2 3 4 5 6 
#
# 1 0.028088 -0.001911 -0.003809 -0.006645 0.003275 -0.019424
# 2 -0.001911 0.018520 -0.004209 -0.006630 0.013719 -0.012190
# 3 -0.003809 -0.004209 0.013276 0.003121 -0.001658 0.005632
# 4 -0.006645 -0.006630 0.003121 0.032806 -0.008118 0.018482
# 5 0.003275 0.013719 -0.001658 -0.008118 0.039021 -0.016804
# 6 -0.019424 -0.012190 0.005632 0.018482 -0.016804 0.045441
#
#
# Mechanical properties :
#
#
# Convention : Reuss Voigt Hill
#
# Bulk Modulus (GPa) = 24.98435 44.17914 34.58175
# Shear Modulus (GPa) = 23.76976 37.83407 30.80192
#
# Velocity S-wave (km/s) = 3.11254 3.92685 3.54316
# Velocity P-wave (km/s) = 4.80626 6.21018 5.55277
#
# Compressibility (1/GPa) = 0.04002506
#
# Stress axis : x y z
#
# Youngs Moduli (GPa) = 35.60261 53.99618 75.32553
#
# Poissons Ratio (x) = 0.10318 0.28691
# Poissons Ratio (y) = 0.06803 0.31707
# Poissons Ratio (z) = 0.13561 0.22729
#
# Static dielectric constant tensor:
#      x y z
#    x 1.960030 0.005510 0.007140 
#    y 0.005510 1.952720 -0.043050 
#    z 0.007140 -0.043050 1.925860 
# 
# From -- ./inp_files/185784.got.cif
#   From: 2010.05.17/outbox.cif.g08.bks.cpg/sg2_93_cif.got.tgz:185784.got - 2010.06.03 11:33:40.
