data_PCOD9042415
_publ_section_title
;
Structure prediction by ZEFSAII (Michael W. Deem and Ramdas Pophale) SiO2 
 PCOD9042415
Probable space group: P -1
;
_chemical_formula_sum "Si O2"
_cell_formula_units_Z 15
_cell_length_a 11.395438
_cell_length_b 6.665751
_cell_length_c 11.376695
_cell_angle_alpha 64.512414
_cell_angle_beta 60.078561
_cell_angle_gamma 98.060650
_cell_volume 602.538088
_symmetry_space_group_name_H-M "P -1"
_symmetry_group_IT_number 2
_symmetry_cell_setting 'triclinic'
loop_
_space_group_symop_operation_xyz
x,y,z
-x,-y,-z
loop_
_atom_site_type_symbol
_atom_site_label
_atom_site_fract_x
_atom_site_fract_y
_atom_site_fract_z
Si Si1 0.426769 0.723855 0.162904
Si Si2 0.702246 0.895331 0.112657
Si Si3 0.693593 0.441706 0.360591
Si Si4 0.500000 0.000000 0.500000
Si Si5 0.627753 0.790077 0.698838
Si Si6 0.858803 0.232168 0.160235
Si Si7 0.804836 0.121556 0.748766
Si Si8 0.132053 0.221563 0.602761
O O1 0.521163 0.778811 0.221157
O O2 0.453172 0.501874 0.150684
O O3 0.252052 0.666949 0.265670
O O4 0.500000 0.000000 0.000000
O O5 0.738421 0.679534 0.197331
O O6 0.777999 0.126965 0.103617
O O7 0.764990 0.976042 0.929811
O O8 0.735755 0.246841 0.311754
O O9 0.785343 0.546228 0.407005
O O10 0.515462 0.259463 0.494006
O O11 0.531238 0.887805 0.643719
O O12 0.709929 0.957372 0.727679
O O13 0.754980 0.790100 0.547002
O O14 0.908462 0.031487 0.237428
O O15 0.000000 0.500000 0.000000
O O16 0.982082 0.214009 0.624678
#
# Coordination Sequence:
#
# PCOD9042415 Si02
#       8
#     2   2   2   1   2   2   2   2
#     4  10  25  44  68 102 138 186 228 290 351 412
#     4  10  23  44  71 105 139 178 239 292 350 418
#     4  11  24  43  75  99 138 183 234 296 348 408
#     4  12  26  48  74 104 136 190 238 294 352 408
#     4  12  27  46  73 104 141 187 239 287 349 423
#     4  11  23  41  72 104 138 186 234 293 349 412
#     4  11  26  46  69 102 145 185 230 286 355 418
#     4  11  26  45  67 106 142 188 235 285 350 425
#
# _framework density 24.894694000000001
#
# number of rings (size 3 to 8) (size 9 to 14) (size 15 to 20)
#    0.000    1.067    2.667    2.000    3.733   10.667 
#    0.000    0.000    0.000    0.000    0.000    0.000 
#    0.000    0.000    0.000    0.000    0.000    0.000 
#
# Total GULP energy -83695.976486 kJ/mol
# GULP energy per Si atom -5579.731766 kJ/mol
# Density = 2.483803 g / cm^3
# Si number density = 24.894694 Si / 1000 Ang^3
#
#
#
# Elastic Constant Matrix: (Units=GPa)
#
#
# Indices 1 2 3 4 5 6 
#
# 1 139.6666 54.7553 33.3736 9.5160 11.8630 4.6101
# 2 54.7553 152.6965 53.9297 -6.9819 29.2950 27.8661
# 3 33.3736 53.9297 103.4441 -3.6102 15.5168 6.7259
# 4 9.5160 -6.9819 -3.6102 46.7103 2.4271 6.8747
# 5 11.8630 29.2950 15.5168 2.4271 36.6868 2.8519
# 6 4.6101 27.8661 6.7259 6.8747 2.8519 46.0875
#
#
#
# Elastic Compliance Matrix: (Units=1/GPa)
#
#
# Indices 1 2 3 4 5 6 
#
# 1 0.008833 -0.003119 -0.001465 -0.002629 0.000304 0.001589
# 2 -0.003119 0.011386 -0.003459 0.003308 -0.006360 -0.006167
# 3 -0.001465 -0.003459 0.012244 0.000765 -0.002029 0.000463
# 4 -0.002629 0.003308 0.000765 0.023424 -0.003265 -0.005141
# 5 0.000304 -0.006360 -0.002029 -0.003265 0.033114 0.002549
# 6 0.001589 -0.006167 0.000463 -0.005141 0.002549 0.025810
#
#
# Mechanical properties :
#
#
# Convention : Reuss Voigt Hill
#
# Bulk Modulus (GPa) = 61.05751 75.54717 68.30234
# Shear Modulus (GPa) = 36.66878 42.81348 39.74113
#
# Velocity S-wave (km/s) = 3.84207 4.15153 3.99979
# Velocity P-wave (km/s) = 6.65294 7.30704 6.98765
#
# Compressibility (1/GPa) = 0.01637800
#
# Stress axis : x y z
#
# Youngs Moduli (GPa) = 113.20657 87.82724 81.67210
#
# Poissons Ratio (x) = 0.27392 0.11961
# Poissons Ratio (y) = 0.35307 0.28253
# Poissons Ratio (z) = 0.16580 0.30383
#
# Static dielectric constant tensor:
#      x y z
#    x 1.660790 -0.137480 0.186050 
#    y -0.137480 1.937310 0.071310 
#    z 0.186050 0.071310 1.879030 
# 
# From -- ./inp_files/409044.got.cif
#   From: 2010.05.17/outbox.cif.g08.bks.cpg/sg2_205_cif.got.tgz:409044.got - 2010.06.03 11:33:40.
