data_PCOD9042158
_publ_section_title
;
Structure prediction by ZEFSAII (Michael W. Deem and Ramdas Pophale) SiO2 
 PCOD9042158
Probable space group: P -1
;
_chemical_formula_sum "Si O2"
_cell_formula_units_Z 16
_cell_length_a 12.824350
_cell_length_b 12.152566
_cell_length_c 12.255891
_cell_angle_alpha 106.405986
_cell_angle_beta 102.819876
_cell_angle_gamma 143.436237
_cell_volume 675.848021
_symmetry_space_group_name_H-M "P -1"
_symmetry_group_IT_number 2
_symmetry_cell_setting 'triclinic'
loop_
_space_group_symop_operation_xyz
x,y,z
-x,-y,-z
loop_
_atom_site_type_symbol
_atom_site_label
_atom_site_fract_x
_atom_site_fract_y
_atom_site_fract_z
Si Si1 0.532700 0.035312 0.207149
Si Si2 0.092113 0.596712 0.789451
Si Si3 0.524960 0.783359 0.239687
Si Si4 0.185880 0.240601 0.361247
Si Si5 0.197365 0.361538 0.859672
Si Si6 0.075207 0.207955 0.555845
Si Si7 0.296372 0.944068 0.323590
Si Si8 0.842533 0.587149 0.747147
O O1 0.584090 0.970623 0.267857
O O2 0.391112 0.983565 0.242238
O O3 0.806285 0.345919 0.288812
O O4 0.315105 0.790319 0.990571
O O5 0.806981 0.257364 0.673064
O O6 0.064187 0.706582 0.808751
O O7 0.249045 0.504458 0.174052
O O8 0.784622 0.989722 0.424905
O O9 0.460437 0.643653 0.078526
O O10 0.500000 0.500000 0.500000
O O11 0.095763 0.226647 0.232940
O O12 0.193524 0.328711 0.495343
O O13 0.960236 0.914952 0.233120
O O14 0.259354 0.430295 0.763845
O O15 0.964303 0.227506 0.794437
O O16 0.000000 0.000000 0.500000
O O17 0.562932 0.271599 0.528187
#
# Coordination Sequence:
#
# PCOD9042158 Si02
#       8
#     2   2   2   2   2   2   2   2
#     4  11  25  42  67 100 144 179 231 292 337 425
#     4  11  24  43  64 103 136 180 237 283 350 413
#     4  12  23  45  71 100 140 183 228 285 352 408
#     4  11  23  46  67 101 139 177 233 286 343 415
#     4  11  24  44  74  98 137 188 225 285 353 404
#     4  10  23  44  69  97 134 175 233 287 335 412
#     4  12  22  44  67 100 137 185 225 284 350 402
#     4  12  24  41  70  98 139 182 232 290 343 414
#
# _framework density 23.673962
#
# number of rings (size 3 to 8) (size 9 to 14) (size 15 to 20)
#    0.000    0.750    5.000    3.000    0.000    4.000 
#    0.000    1.250    0.000    0.000    0.000    0.000 
#    0.000    0.000    0.000    0.000    0.000    0.000 
#
# Total GULP energy -89618.395961 kJ/mol
# GULP energy per Si atom -5601.149748 kJ/mol
# Density = 2.362008 g / cm^3
# Si number density = 23.673962 Si / 1000 Ang^3
#
#
#
# Elastic Constant Matrix: (Units=GPa)
#
#
# Indices 1 2 3 4 5 6 
#
# 1 99.4396 46.9992 -6.5293 -13.4601 4.0976 -2.5254
# 2 46.9992 104.2438 23.2683 -31.2264 -8.3019 15.9008
# 3 -6.5293 23.2683 64.4619 -12.2022 -13.2268 -10.7622
# 4 -13.4601 -31.2264 -12.2022 30.0560 5.2681 -3.6739
# 5 4.0976 -8.3019 -13.2268 5.2681 39.4791 -16.7888
# 6 -2.5254 15.9008 -10.7622 -3.6739 -16.7888 48.3085
#
#
#
# Elastic Compliance Matrix: (Units=1/GPa)
#
#
# Indices 1 2 3 4 5 6 
#
# 1 0.014542 -0.008326 0.005568 0.000621 0.000656 0.005016
# 2 -0.008326 0.020250 -0.007659 0.013652 -0.003015 -0.008817
# 3 0.005568 -0.007659 0.023677 0.003801 0.010325 0.011964
# 4 0.000621 0.013652 0.003801 0.049682 -0.002910 -0.000847
# 5 0.000656 -0.003015 0.010325 -0.002910 0.034963 0.015256
# 6 0.005016 -0.008817 0.011964 -0.000847 0.015256 0.031767
#
#
# Mechanical properties :
#
#
# Convention : Reuss Voigt Hill
#
# Bulk Modulus (GPa) = 26.57165 43.95795 35.26480
# Shear Modulus (GPa) = 24.00824 37.19587 30.60206
#
# Velocity S-wave (km/s) = 3.18798 3.96810 3.59924
# Velocity P-wave (km/s) = 4.97989 6.29308 5.67460
#
# Compressibility (1/GPa) = 0.03763410
#
# Stress axis : x y z
#
# Youngs Moduli (GPa) = 68.76869 49.38157 42.23462
#
# Poissons Ratio (x) = 0.41115 -0.23515
# Poissons Ratio (y) = 0.57256 0.32349
# Poissons Ratio (z) = -0.38288 0.37823
#
# Static dielectric constant tensor:
#      x y z
#    x 1.916630 0.009170 0.002480 
#    y 0.009170 1.944930 -0.018360 
#    z 0.002480 -0.018360 1.898510 
# 
# From -- ./inp_files/428569.got.cif
#   From: 2010.05.17/outbox.cif.g08.bks.cpg/sg2_215_cif.got.tgz:428569.got - 2010.06.03 11:33:40.
