data_PCOD9042942
_publ_section_title
;
Structure prediction by ZEFSAII (Michael W. Deem and Ramdas Pophale) SiO2 
 PCOD9042942
Probable space group: P -1
;
_chemical_formula_sum "Si O2"
_cell_formula_units_Z 12
_cell_length_a 10.591952
_cell_length_b 6.794129
_cell_length_c 13.213667
_cell_angle_alpha 101.362676
_cell_angle_beta 44.733205
_cell_angle_gamma 121.334621
_cell_volume 547.619903
_symmetry_space_group_name_H-M "P -1"
_symmetry_group_IT_number 2
_symmetry_cell_setting 'triclinic'
loop_
_space_group_symop_operation_xyz
x,y,z
-x,-y,-z
loop_
_atom_site_type_symbol
_atom_site_label
_atom_site_fract_x
_atom_site_fract_y
_atom_site_fract_z
Si Si1 0.973367 0.425574 0.123580
Si Si2 0.665852 0.042622 0.994930
Si Si3 0.111097 0.583575 0.554778
Si Si4 0.501964 0.076492 0.311982
Si Si5 0.713505 0.693023 0.459396
Si Si6 0.940240 0.837477 0.808976
O O1 0.126293 0.687145 0.110755
O O2 0.718087 0.261175 0.270368
O O3 0.047152 0.248942 0.094946
O O4 0.000000 0.500000 0.000000
O O5 0.735798 0.855219 0.922873
O O6 0.570865 0.033941 0.159256
O O7 0.500000 0.000000 0.000000
O O8 0.157189 0.403489 0.567398
O O9 0.032846 0.345733 0.293148
O O10 0.000000 0.500000 0.500000
O O11 0.347605 0.824664 0.429381
O O12 0.364634 0.196142 0.399592
O O13 0.500000 0.500000 0.500000
O O14 0.863530 0.903571 0.315111
#
# Coordination Sequence:
#
# PCOD9042942 Si02
#       6
#     2   2   2   2   2   2
#     4  10  23  45  67 101 136 176 225 279 337 411
#     4  11  26  42  68  99 137 178 226 279 340 403
#     4  11  26  42  68 102 139 180 227 284 343 404
#     4  10  24  42  69  99 135 175 227 275 343 400
#     4  11  23  43  71 100 136 180 231 282 338 409
#     4  11  24  42  70  96 138 177 226 278 343 401
#
# _framework density 21.91301
#
# number of rings (size 3 to 8) (size 9 to 14) (size 15 to 20)
#    0.000    1.333    0.000    4.000    7.000   10.000 
#    0.000    0.000    0.000    0.000    0.000    0.000 
#    0.000    0.000    0.000    0.000    0.000    0.000 
#
# Total GULP energy -67004.379780 kJ/mol
# GULP energy per Si atom -5583.698315 kJ/mol
# Density = 2.186314 g / cm^3
# Si number density = 21.913010 Si / 1000 Ang^3
#
#
#
# Elastic Constant Matrix: (Units=GPa)
#
#
# Indices 1 2 3 4 5 6 
#
# 1 140.5734 66.2550 29.5514 2.6898 6.7059 -36.2403
# 2 66.2550 117.8023 46.4356 1.2660 3.8696 -42.6477
# 3 29.5514 46.4356 101.5061 9.2816 0.2211 -24.9069
# 4 2.6898 1.2660 9.2816 34.6939 -13.1692 -3.7778
# 5 6.7059 3.8696 0.2211 -13.1692 26.3513 0.8931
# 6 -36.2403 -42.6477 -24.9069 -3.7778 0.8931 52.4867
#
#
#
# Elastic Compliance Matrix: (Units=1/GPa)
#
#
# Indices 1 2 3 4 5 6 
#
# 1 0.010231 -0.004409 0.000006 -0.001291 -0.002718 0.003438
# 2 -0.004409 0.015297 -0.003976 0.001437 -0.000631 0.007613
# 3 0.000006 -0.003976 0.012609 -0.003461 -0.001339 0.002530
# 4 -0.001291 0.001437 -0.003461 0.036957 0.018583 0.000977
# 5 -0.002718 -0.000631 -0.001339 0.018583 0.048116 -0.002506
# 6 0.003438 0.007613 0.002530 0.000977 -0.002506 0.028926
#
#
# Mechanical properties :
#
#
# Convention : Reuss Voigt Hill
#
# Bulk Modulus (GPa) = 46.77513 71.59619 59.18566
# Shear Modulus (GPa) = 28.40554 37.21570 32.81062
#
# Velocity S-wave (km/s) = 3.60430 4.12556 3.87371
# Velocity P-wave (km/s) = 6.22202 7.44564 6.86116
#
# Compressibility (1/GPa) = 0.02137888
#
# Stress axis : x y z
#
# Youngs Moduli (GPa) = 97.74093 65.37181 79.30665
#
# Poissons Ratio (x) = 0.28821 -0.00047
# Poissons Ratio (y) = 0.43091 0.31536
# Poissons Ratio (z) = -0.00057 0.25995
#
# Static dielectric constant tensor:
#      x y z
#    x 1.801250 0.014040 0.024020 
#    y 0.014040 1.822750 0.034950 
#    z 0.024020 0.034950 1.867080 
# 
# From -- ./inp_files/372109.got.cif
#   From: 2010.05.17/outbox.cif.g08.bks.cpg/sg2_187_cif.got.tgz:372109.got - 2010.06.03 11:33:40.
