data_PCOD9042280
_publ_section_title
;
Structure prediction by ZEFSAII (Michael W. Deem and Ramdas Pophale) SiO2 
 PCOD9042280
Probable space group: P -1
;
_chemical_formula_sum "Si O2"
_cell_formula_units_Z 14
_cell_length_a 10.175611
_cell_length_b 9.146412
_cell_length_c 10.542995
_cell_angle_alpha 71.372378
_cell_angle_beta 86.423384
_cell_angle_gamma 37.241157
_cell_volume 530.269270
_symmetry_space_group_name_H-M "P -1"
_symmetry_group_IT_number 2
_symmetry_cell_setting 'triclinic'
loop_
_space_group_symop_operation_xyz
x,y,z
-x,-y,-z
loop_
_atom_site_type_symbol
_atom_site_label
_atom_site_fract_x
_atom_site_fract_y
_atom_site_fract_z
Si Si1 0.943007 0.929148 0.132982
Si Si2 0.864745 0.280078 0.215576
Si Si3 0.587415 0.531168 0.376030
Si Si4 0.623564 0.015927 0.561589
Si Si5 0.498935 0.824300 0.939570
Si Si6 0.183463 0.227804 0.145452
Si Si7 0.444066 0.401036 0.267803
O O1 0.155965 0.706431 0.634005
O O2 0.176191 0.632381 0.257022
O O3 0.840133 0.137432 0.191655
O O4 0.000000 0.000000 0.000000
O O5 0.473226 0.553901 0.254756
O O6 0.096086 0.134229 0.182919
O O7 0.669025 0.587651 0.097424
O O8 0.500000 0.500000 0.500000
O O9 0.518600 0.759428 0.379770
O O10 0.366658 0.866320 0.582192
O O11 0.766932 0.967542 0.083197
O O12 0.500000 0.000000 0.500000
O O13 0.819407 0.746034 0.708749
O O14 0.581111 0.919785 0.880917
O O15 0.553897 0.672396 0.851174
O O16 0.000000 0.500000 0.000000
#
# Coordination Sequence:
#
# PCOD9042280 Si02
#       7
#     2   2   2   2   2   2   2
#     4  12  23  39  75 111 145 195 249 303 373 440
#     4  11  22  45  72 107 152 194 249 310 367 443
#     4  10  23  44  70 105 146 195 247 308 368 434
#     4  11  23  47  71  99 152 190 243 308 367 445
#     4  11  22  44  72 108 152 191 243 314 364 444
#     4  10  24  46  72 102 145 195 241 304 379 442
#     4  11  22  44  72 110 147 190 250 304 375 438
#
# _framework density 26.401682000000001
#
# number of rings (size 3 to 8) (size 9 to 14) (size 15 to 20)
#    0.000    1.143    4.286    2.143    0.000    0.000 
#    7.714    7.857    0.000    0.000    0.000    0.000 
#    0.000    0.000    0.000    0.000    0.000    0.000 
#
# Total GULP energy -78004.328351 kJ/mol
# GULP energy per Si atom -5571.737739 kJ/mol
# Density = 2.634159 g / cm^3
# Si number density = 26.401682 Si / 1000 Ang^3
#
#
#
# Elastic Constant Matrix: (Units=GPa)
#
#
# Indices 1 2 3 4 5 6 
#
# 1 177.0081 31.3809 32.7489 1.6575 -16.4698 -14.6787
# 2 31.3809 100.2630 32.7260 30.1143 -2.0774 13.6559
# 3 32.7489 32.7260 142.7758 -5.8063 -12.1343 -2.1551
# 4 1.6575 30.1143 -5.8063 46.6701 -6.4559 4.5630
# 5 -16.4698 -2.0774 -12.1343 -6.4559 53.6084 6.0973
# 6 -14.6787 13.6559 -2.1551 4.5630 6.0973 44.8474
#
#
#
# Elastic Compliance Matrix: (Units=1/GPa)
#
#
# Indices 1 2 3 4 5 6 
#
# 1 0.006577 -0.002529 -0.000700 0.001289 0.001631 0.002536
# 2 -0.002529 0.015592 -0.003623 -0.010221 -0.001715 -0.004476
# 3 -0.000700 -0.003623 0.008311 0.003593 0.001884 0.000652
# 4 0.001289 -0.010221 0.003593 0.028999 0.004286 0.000174
# 5 0.001631 -0.001715 0.001884 0.004286 0.020264 -0.002045
# 6 0.002536 -0.004476 0.000652 0.000174 -0.002045 0.024783
#
#
# Mechanical properties :
#
#
# Convention : Reuss Voigt Hill
#
# Bulk Modulus (GPa) = 59.60394 68.19538 63.89966
# Shear Modulus (GPa) = 40.38079 50.57124 45.47602
#
# Velocity S-wave (km/s) = 3.91510 4.38134 4.15476
# Velocity P-wave (km/s) = 6.56217 7.17502 6.87543
#
# Compressibility (1/GPa) = 0.01677742
#
# Stress axis : x y z
#
# Youngs Moduli (GPa) = 152.03852 64.13579 120.32287
#
# Poissons Ratio (x) = 0.16220 0.08418
# Poissons Ratio (y) = 0.38451 0.43590
# Poissons Ratio (z) = 0.10637 0.23235
#
# Static dielectric constant tensor:
#      x y z
#    x 2.201610 -0.144950 -0.017960 
#    y -0.144950 2.194370 -0.049940 
#    z -0.017960 -0.049940 2.164000 
# 
# From -- ./inp_files/423458.got.cif
#   From: 2010.05.17/outbox.cif.g08.bks.cpg/sg2_212_cif.got.tgz:423458.got - 2010.06.03 11:33:40.
