data_PCOD9042652
_publ_section_title
;
Structure prediction by ZEFSAII (Michael W. Deem and Ramdas Pophale) SiO2 
 PCOD9042652
Probable space group: P -1
;
_chemical_formula_sum "Si O2"
_cell_formula_units_Z 16
_cell_length_a 13.137722
_cell_length_b 7.045504
_cell_length_c 11.935452
_cell_angle_alpha 91.410593
_cell_angle_beta 140.383908
_cell_angle_gamma 102.043524
_cell_volume 657.804481
_symmetry_space_group_name_H-M "P -1"
_symmetry_group_IT_number 2
_symmetry_cell_setting 'triclinic'
loop_
_space_group_symop_operation_xyz
x,y,z
-x,-y,-z
loop_
_atom_site_type_symbol
_atom_site_label
_atom_site_fract_x
_atom_site_fract_y
_atom_site_fract_z
Si Si1 0.515353 0.733580 0.038208
Si Si2 0.242005 0.613027 0.983971
Si Si3 0.323641 0.430588 0.519839
Si Si4 0.081415 0.568543 0.187997
Si Si5 0.430840 0.169803 0.169640
Si Si6 0.924214 0.850771 0.144955
Si Si7 0.504185 0.879809 0.386803
Si Si8 0.141265 0.119898 0.530232
O O1 0.225981 0.070482 0.021112
O O2 0.681102 0.850774 0.255492
O O3 0.500000 0.500000 0.000000
O O4 0.351310 0.723927 0.972636
O O5 0.047728 0.591649 0.836805
O O6 0.201917 0.372720 0.924464
O O7 0.339230 0.708338 0.183672
O O8 0.255304 0.541756 0.367095
O O9 0.491099 0.602191 0.713182
O O10 0.201623 0.342844 0.523694
O O11 0.366768 0.242604 0.502548
O O12 0.055004 0.783909 0.179338
O O13 0.000000 0.500000 0.000000
O O14 0.536333 0.053198 0.322523
O O15 0.534460 0.827569 0.932752
O O16 0.049008 0.981389 0.345489
O O17 0.500000 0.000000 0.500000
O O18 0.000000 0.000000 0.500000
#
# Coordination Sequence:
#
# PCOD9042652 Si02
#       8
#     2   2   2   2   2   2   2   2
#     4  12  19  46  76 108 157 198 248 312 380 458
#     4  10  23  48  70 109 149 195 250 307 381 446
#     4  12  27  50  72 113 155 193 264 312 381 466
#     4  10  26  47  77 103 152 201 253 316 385 434
#     4  12  26  47  82 108 154 205 245 320 387 456
#     4  10  23  44  73 111 146 192 254 302 391 441
#     4  12  29  47  78 114 144 201 266 309 383 458
#     4  12  23  42  76 115 155 200 247 313 384 460
#
# _framework density 24.323333999999999
#
# number of rings (size 3 to 8) (size 9 to 14) (size 15 to 20)
#    0.750    0.000    6.250    0.000    7.000    1.000 
#    2.250    2.500    0.000    0.000    0.000    0.000 
#    0.000    0.000    0.000    0.000    0.000    0.000 
#
# Total GULP energy -89071.847722 kJ/mol
# GULP energy per Si atom -5566.990483 kJ/mol
# Density = 2.426797 g / cm^3
# Si number density = 24.323334 Si / 1000 Ang^3
#
#
#
# Elastic Constant Matrix: (Units=GPa)
#
#
# Indices 1 2 3 4 5 6 
#
# 1 62.2852 30.3140 42.7769 -7.7382 -4.2812 -12.5109
# 2 30.3140 67.6471 41.8760 4.7200 3.5937 3.3015
# 3 42.7769 41.8760 176.1259 1.8084 -5.7694 -14.5942
# 4 -7.7382 4.7200 1.8084 57.2456 8.7840 4.4003
# 5 -4.2812 3.5937 -5.7694 8.7840 32.0719 3.4954
# 6 -12.5109 3.3015 -14.5942 4.4003 3.4954 22.9527
#
#
#
# Elastic Compliance Matrix: (Units=1/GPa)
#
#
# Indices 1 2 3 4 5 6 
#
# 1 0.026617 -0.011296 -0.002626 0.003269 0.001976 0.013536
# 2 -0.011296 0.022974 -0.003706 -0.001999 -0.003005 -0.010977
# 3 -0.002626 -0.003706 0.007566 -0.000773 0.001215 0.003875
# 4 0.003269 -0.001999 -0.000773 0.018895 -0.004506 -0.001358
# 5 0.001976 -0.003005 0.001215 -0.004506 0.033445 -0.001948
# 6 0.013536 -0.010977 0.003875 -0.001358 -0.001948 0.055546
#
#
# Mechanical properties :
#
#
# Convention : Reuss Voigt Hill
#
# Bulk Modulus (GPa) = 45.66184 59.55466 52.60825
# Shear Modulus (GPa) = 24.08487 35.19345 29.63916
#
# Velocity S-wave (km/s) = 3.15015 3.80794 3.49456
# Velocity P-wave (km/s) = 5.66082 6.62357 6.16103
#
# Compressibility (1/GPa) = 0.02190013
#
# Stress axis : x y z
#
# Youngs Moduli (GPa) = 37.56979 43.52834 132.17578
#
# Poissons Ratio (x) = 0.49168 0.34713
# Poissons Ratio (y) = 0.42437 0.48988
# Poissons Ratio (z) = 0.09867 0.16133
#
# Static dielectric constant tensor:
#      x y z
#    x 2.063330 -0.039430 0.066280 
#    y -0.039430 2.004370 0.017170 
#    z 0.066280 0.017170 1.856760 
# 
# From -- ./inp_files/442090.got.cif
#   From: 2010.05.17/outbox.cif.g08.bks.cpg/sg2_222_cif.got.tgz:442090.got - 2010.06.03 11:33:40.
