data_PCOD9042322
_publ_section_title
;
Structure prediction by ZEFSAII (Michael W. Deem and Ramdas Pophale) SiO2 
 PCOD9042322
Probable space group: P -1
;
_chemical_formula_sum "Si O2"
_cell_formula_units_Z 15
_cell_length_a 22.260218
_cell_length_b 5.263953
_cell_length_c 6.855102
_cell_angle_alpha 135.968970
_cell_angle_beta 92.470463
_cell_angle_gamma 88.639207
_cell_volume 557.753861
_symmetry_space_group_name_H-M "P -1"
_symmetry_group_IT_number 2
_symmetry_cell_setting 'triclinic'
loop_
_space_group_symop_operation_xyz
x,y,z
-x,-y,-z
loop_
_atom_site_type_symbol
_atom_site_label
_atom_site_fract_x
_atom_site_fract_y
_atom_site_fract_z
Si Si1 0.868580 0.111174 0.104524
Si Si2 0.108127 0.088672 0.573150
Si Si3 0.411469 0.763052 0.445265
Si Si4 0.769021 0.648951 0.365229
Si Si5 0.583732 0.041155 0.019566
Si Si6 0.500000 0.500000 0.000000
Si Si7 0.039548 0.158454 0.265017
Si Si8 0.308507 0.803640 0.141771
O O1 0.897756 0.473618 0.211966
O O2 0.801023 0.259894 0.200426
O O3 0.894230 0.012532 0.261464
O O4 0.892257 0.792496 0.789773
O O5 0.177630 0.051202 0.495019
O O6 0.056607 0.935830 0.340259
O O7 0.421110 0.027908 0.780605
O O8 0.458774 0.769728 0.281544
O O9 0.348360 0.782781 0.332822
O O10 0.416913 0.353360 0.300811
O O11 0.728432 0.826110 0.623754
O O12 0.733753 0.545512 0.104288
O O13 0.533580 0.319579 0.099955
O O14 0.647888 0.193390 0.039761
O O15 0.000000 0.500000 0.500000
O O16 0.000000 0.000000 0.000000
#
# Coordination Sequence:
#
# PCOD9042322 Si02
#       8
#     2   2   2   2   2   1   2   2
#     4  10  25  47  71 103 142 186 238 290 355 428
#     4  10  25  47  71 103 142 186 238 290 355 428
#     4  11  24  41  65  97 133 177 228 284 349 415
#     4  10  23  44  70  96 136 181 231 285 362 413
#     4  11  24  41  65  97 133 177 228 284 349 415
#     4  10  24  42  66  92 140 176 236 274 352 412
#     4  12  24  48  73 110 145 190 237 297 358 429
#     4  11  23  43  64 101 129 176 224 295 342 427
#
# _framework density 26.893584000000001
#
# number of rings (size 3 to 8) (size 9 to 14) (size 15 to 20)
#    0.800    0.533    1.333    3.200    0.000    9.600 
#    0.000    0.000    0.000    0.000    0.000    0.000 
#    0.000    0.000    0.000    0.000    0.000    0.000 
#
# Total GULP energy -83574.915117 kJ/mol
# GULP energy per Si atom -5571.661008 kJ/mol
# Density = 2.683237 g / cm^3
# Si number density = 26.893584 Si / 1000 Ang^3
#
#
#
# Elastic Constant Matrix: (Units=GPa)
#
#
# Indices 1 2 3 4 5 6 
#
# 1 112.9572 18.8341 55.3533 -6.6518 -14.6465 -30.9220
# 2 18.8341 102.1106 41.3448 -22.0275 -15.9402 -23.3286
# 3 55.3533 41.3448 175.9187 -12.4996 3.8850 -28.0817
# 4 -6.6518 -22.0275 -12.4996 47.8642 -4.0490 1.6068
# 5 -14.6465 -15.9402 3.8850 -4.0490 53.3907 4.7582
# 6 -30.9220 -23.3286 -28.0817 1.6068 4.7582 35.6273
#
#
#
# Elastic Compliance Matrix: (Units=1/GPa)
#
#
# Indices 1 2 3 4 5 6 
#
# 1 0.013315 0.002052 -0.003030 0.001988 0.003752 0.009921
# 2 0.002052 0.014426 -0.002334 0.006434 0.004774 0.008460
# 3 -0.003030 -0.002334 0.007590 0.000225 -0.002252 0.002115
# 4 0.001988 0.006434 0.000225 0.024367 0.003897 0.004497
# 5 0.003752 0.004774 -0.002252 0.003897 0.021505 0.001560
# 6 0.009921 0.008460 0.002115 0.004497 0.001560 0.043475
#
#
# Mechanical properties :
#
#
# Convention : Reuss Voigt Hill
#
# Bulk Modulus (GPa) = 34.83434 69.11676 51.97555
# Shear Modulus (GPa) = 35.49382 45.74005 40.61694
#
# Velocity S-wave (km/s) = 3.63683 4.12852 3.89045
# Velocity P-wave (km/s) = 5.53319 6.96291 6.28881
#
# Compressibility (1/GPa) = 0.02870731
#
# Stress axis : x y z
#
# Youngs Moduli (GPa) = 75.10310 69.32035 131.75871
#
# Poissons Ratio (x) = -0.14225 0.39920
# Poissons Ratio (y) = -0.15412 0.30751
# Poissons Ratio (z) = 0.22755 0.16179
#
# Static dielectric constant tensor:
#      x y z
#    x 2.201330 -0.049640 -0.011410 
#    y -0.049640 1.909960 -0.016550 
#    z -0.011410 -0.016550 2.134520 
# 
# From -- ./inp_files/121922.got.cif
#   From: 2010.05.17/outbox.cif.g08.bks.cpg/sg2_61_cif.got.tgz:121922.got - 2010.06.03 11:33:40.
