data_PCOD9042588
_publ_section_title
;
Structure prediction by ZEFSAII (Michael W. Deem and Ramdas Pophale) SiO2 
 PCOD9042588
Probable space group: P -1
;
_chemical_formula_sum "Si O2"
_cell_formula_units_Z 16
_cell_length_a 15.609463
_cell_length_b 9.244891
_cell_length_c 11.776426
_cell_angle_alpha 114.274893
_cell_angle_beta 74.112217
_cell_angle_gamma 151.291811
_cell_volume 729.367451
_symmetry_space_group_name_H-M "P -1"
_symmetry_group_IT_number 2
_symmetry_cell_setting 'triclinic'
loop_
_space_group_symop_operation_xyz
x,y,z
-x,-y,-z
loop_
_atom_site_type_symbol
_atom_site_label
_atom_site_fract_x
_atom_site_fract_y
_atom_site_fract_z
Si Si1 0.977258 0.282389 0.403349
Si Si2 0.601202 0.738284 0.705549
Si Si3 0.314125 0.709674 0.542228
Si Si4 0.308399 0.217708 0.824067
Si Si5 0.719496 0.682508 0.472358
Si Si6 0.187676 0.697288 0.023471
Si Si7 0.583491 0.925275 0.163079
Si Si8 0.203993 0.377221 0.022287
O O1 0.000000 0.500000 0.500000
O O2 0.172966 0.518354 0.430897
O O3 0.889155 0.138049 0.265404
O O4 0.849139 0.973515 0.430245
O O5 0.456895 0.428363 0.739538
O O6 0.723881 0.797526 0.620062
O O7 0.481526 0.628283 0.612241
O O8 0.706640 0.027989 0.836242
O O9 0.251125 0.451804 0.545784
O O10 0.500000 0.000000 0.500000
O O11 0.331505 0.867170 0.686722
O O12 0.373802 0.196580 0.887695
O O13 0.290945 0.375610 0.909672
O O14 0.171863 0.499533 0.020657
O O15 0.000000 0.500000 0.000000
O O16 0.308441 0.854742 0.917612
O O17 0.368650 0.635492 0.138767
O O18 0.000000 0.000000 0.000000
#
# Coordination Sequence:
#
# PCOD9042588 Si02
#       8
#     2   2   2   2   2   2   2   2
#     4  11  25  45  68 102 138 182 236 288 351 415
#     4  10  23  44  73 100 141 177 239 283 354 408
#     4  12  27  45  71 107 143 184 239 291 354 422
#     4  11  24  46  73 100 141 185 233 295 347 422
#     4  10  24  44  74 100 136 191 231 291 348 418
#     4  12  28  46  72 106 143 186 233 298 355 425
#     4  12  26  48  74 101 148 187 234 294 362 414
#     4  12  28  45  72 105 138 187 239 287 354 426
#
# _framework density 21.936814999999999
#
# number of rings (size 3 to 8) (size 9 to 14) (size 15 to 20)
#    0.000    0.750    2.500    3.375   12.250    2.000 
#    0.000    0.000    0.000    0.000    0.000    0.000 
#    0.000    0.000    0.000    0.000    0.000    0.000 
#
# Total GULP energy -89345.285931 kJ/mol
# GULP energy per Si atom -5584.080371 kJ/mol
# Density = 2.188689 g / cm^3
# Si number density = 21.936815 Si / 1000 Ang^3
#
#
#
# Elastic Constant Matrix: (Units=GPa)
#
#
# Indices 1 2 3 4 5 6 
#
# 1 134.8533 47.0637 17.9460 26.9684 18.5887 -6.6702
# 2 47.0637 105.5766 28.5840 15.3036 13.9644 7.7541
# 3 17.9460 28.5840 85.7994 12.7503 -6.3354 -1.7507
# 4 26.9684 15.3036 12.7503 29.9966 4.0198 -4.2146
# 5 18.5887 13.9644 -6.3354 4.0198 30.4998 2.2645
# 6 -6.6702 7.7541 -1.7507 -4.2146 2.2645 35.8069
#
#
#
# Elastic Compliance Matrix: (Units=1/GPa)
#
#
# Indices 1 2 3 4 5 6 
#
# 1 0.010685 -0.003231 -0.000413 -0.006897 -0.004368 0.002134
# 2 -0.003231 0.013056 -0.003749 -0.002099 -0.004244 -0.003591
# 3 -0.000413 -0.003749 0.014045 -0.004332 0.005414 0.000569
# 4 -0.006897 -0.002099 -0.004332 0.043269 -0.001747 0.004161
# 5 -0.004368 -0.004244 0.005414 -0.001747 0.038918 -0.002297
# 6 0.002134 -0.003591 0.000569 0.004161 -0.002297 0.029766
#
#
# Mechanical properties :
#
#
# Convention : Reuss Voigt Hill
#
# Bulk Modulus (GPa) = 43.47293 57.04630 50.25962
# Shear Modulus (GPa) = 29.03754 34.76971 31.90363
#
# Velocity S-wave (km/s) = 3.64220 3.98552 3.81772
# Velocity P-wave (km/s) = 6.12763 6.87317 6.51108
#
# Compressibility (1/GPa) = 0.02300282
#
# Stress axis : x y z
#
# Youngs Moduli (GPa) = 93.59016 76.59189 71.19740
#
# Poissons Ratio (x) = 0.24743 0.02938
# Poissons Ratio (y) = 0.30235 0.26690
# Poissons Ratio (z) = 0.03862 0.28712
#
# Static dielectric constant tensor:
#      x y z
#    x 1.798420 0.019460 -0.001200 
#    y 0.019460 1.834310 0.035620 
#    z -0.001200 0.035620 1.815840 
# 
# From -- ./inp_files/274340.got.cif
#   From: 2010.05.17/outbox.cif.g08.bks.cpg/sg2_138_cif.got.tgz:274340.got - 2010.06.03 11:33:40.
