data_PCOD9042759
_publ_section_title
;
Structure prediction by ZEFSAII (Michael W. Deem and Ramdas Pophale) SiO2 
 PCOD9042759
Probable space group: P -1
;
_chemical_formula_sum "Si O2"
_cell_formula_units_Z 16
_cell_length_a 13.116126
_cell_length_b 9.794809
_cell_length_c 8.511863
_cell_angle_alpha 133.917428
_cell_angle_beta 113.215178
_cell_angle_gamma 92.100964
_cell_volume 639.607202
_symmetry_space_group_name_H-M "P -1"
_symmetry_group_IT_number 2
_symmetry_cell_setting 'triclinic'
loop_
_space_group_symop_operation_xyz
x,y,z
-x,-y,-z
loop_
_atom_site_type_symbol
_atom_site_label
_atom_site_fract_x
_atom_site_fract_y
_atom_site_fract_z
Si Si1 0.127183 0.110509 0.060163
Si Si2 0.593994 0.739754 0.073162
Si Si3 0.762837 0.972031 0.651571
Si Si4 0.696377 0.492135 0.725196
Si Si5 0.947622 0.338476 0.483581
Si Si6 0.881031 0.389111 0.950548
Si Si7 0.590425 0.137820 0.813001
Si Si8 0.335620 0.845399 0.773226
O O1 0.100130 0.906663 0.777539
O O2 0.228076 0.153328 0.294253
O O3 0.193813 0.308666 0.141154
O O4 0.000000 0.000000 0.000000
O O5 0.687580 0.821271 0.343923
O O6 0.461279 0.694242 0.038634
O O7 0.636109 0.952042 0.158430
O O8 0.614420 0.568378 0.845118
O O9 0.887229 0.166480 0.813330
O O10 0.714929 0.141653 0.820514
O O11 0.616025 0.309020 0.403577
O O12 0.761349 0.384469 0.787651
O O13 0.814178 0.317419 0.439164
O O14 0.000000 0.500000 0.500000
O O15 0.069986 0.435859 0.742744
O O16 0.000000 0.500000 0.000000
O O17 0.500000 0.000000 0.500000
O O18 0.609789 0.080382 0.960042
#
# Coordination Sequence:
#
# PCOD9042759 Si02
#       8
#     2   2   2   2   2   2   2   2
#     4  12  25  40  63 103 142 182 230 276 335 410
#     4  11  24  45  70 101 131 182 231 292 343 395
#     4  11  22  46  68  96 143 181 227 283 339 409
#     4  12  26  42  68 105 140 179 230 283 335 410
#     4  12  22  40  66  96 136 186 221 270 337 406
#     4  12  23  41  67 100 139 181 222 266 342 408
#     4  10  23  44  75  97 128 185 231 284 351 404
#     4  12  22  46  70  97 142 178 226 285 346 408
#
# _framework density 25.015350999999999
#
# number of rings (size 3 to 8) (size 9 to 14) (size 15 to 20)
#    0.000    0.500    6.250    1.875    1.750    1.000 
#    0.000    0.625    0.000    0.000    0.000    0.000 
#    0.000    0.000    0.000    0.000    0.000    0.000 
#
# Total GULP energy -89087.757589 kJ/mol
# GULP energy per Si atom -5567.984849 kJ/mol
# Density = 2.495841 g / cm^3
# Si number density = 25.015351 Si / 1000 Ang^3
#
#
#
# Elastic Constant Matrix: (Units=GPa)
#
#
# Indices 1 2 3 4 5 6 
#
# 1 78.6213 -2.9270 -6.3272 10.8886 -21.6635 -4.0243
# 2 -2.9270 105.7960 41.3245 -11.4083 -17.6969 12.2622
# 3 -6.3272 41.3245 113.6041 -16.6271 -22.7162 4.7576
# 4 10.8886 -11.4083 -16.6271 42.6625 -3.4544 -2.0559
# 5 -21.6635 -17.6969 -22.7162 -3.4544 47.7431 6.3830
# 6 -4.0243 12.2622 4.7576 -2.0559 6.3830 22.2015
#
#
#
# Elastic Compliance Matrix: (Units=1/GPa)
#
#
# Indices 1 2 3 4 5 6 
#
# 1 0.015432 0.000886 0.001844 -0.002357 0.008123 -0.000641
# 2 0.000886 0.012480 -0.002944 0.001997 0.004745 -0.007280
# 3 0.001844 -0.002944 0.011774 0.003714 0.005871 -0.001907
# 4 -0.002357 0.001997 0.003714 0.026260 0.003457 -0.000888
# 5 0.008123 0.004745 0.005871 0.003457 0.030900 -0.010970
# 6 -0.000641 -0.007280 -0.001907 -0.000888 -0.010970 0.052427
#
#
# Mechanical properties :
#
#
# Convention : Reuss Voigt Hill
#
# Bulk Modulus (GPa) = 25.47422 40.24023 32.85722
# Shear Modulus (GPa) = 30.71488 40.25149 35.48318
#
# Velocity S-wave (km/s) = 3.50786 4.01568 3.77033
# Velocity P-wave (km/s) = 5.15871 6.13368 5.66720
#
# Compressibility (1/GPa) = 0.03925537
#
# Stress axis : x y z
#
# Youngs Moduli (GPa) = 64.79886 80.13121 84.93630
#
# Poissons Ratio (x) = -0.07098 -0.15658
# Poissons Ratio (y) = -0.05740 0.25008
# Poissons Ratio (z) = -0.11946 0.23593
#
# Static dielectric constant tensor:
#      x y z
#    x -11.264440 -2.817820 -0.227790 
#    y -2.817820 1.465910 -0.074010 
#    z -0.227790 -0.074010 1.843670 
# 
# From -- ./inp_files/305938.got.cif
#   From: 2010.05.17/outbox.cif.g08.bks.cpg/sg2_153_cif.got.tgz:305938.got - 2010.06.03 11:33:40.
