data_PCOD9042489
_publ_section_title
;
Structure prediction by ZEFSAII (Michael W. Deem and Ramdas Pophale) SiO2 
 PCOD9042489
Probable space group: P -1
;
_chemical_formula_sum "Si O2"
_cell_formula_units_Z 16
_cell_length_a 11.458124
_cell_length_b 12.237201
_cell_length_c 7.288232
_cell_angle_alpha 123.348048
_cell_angle_beta 84.620989
_cell_angle_gamma 67.059086
_cell_volume 720.374027
_symmetry_space_group_name_H-M "P -1"
_symmetry_group_IT_number 2
_symmetry_cell_setting 'triclinic'
loop_
_space_group_symop_operation_xyz
x,y,z
-x,-y,-z
loop_
_atom_site_type_symbol
_atom_site_label
_atom_site_fract_x
_atom_site_fract_y
_atom_site_fract_z
Si Si1 0.585472 0.463509 0.642221
Si Si2 0.859230 0.935457 0.548044
Si Si3 0.139152 0.595584 0.622604
Si Si4 0.311202 0.870572 0.736323
Si Si5 0.394481 0.095972 0.939782
Si Si6 0.582821 0.210279 0.926078
Si Si7 0.853907 0.690266 0.561783
Si Si8 0.004286 0.084919 0.861230
O O1 0.500000 0.500000 0.500000
O O2 0.724181 0.460588 0.567704
O O3 0.631799 0.290337 0.522682
O O4 0.488603 0.607487 0.918399
O O5 0.821784 0.817998 0.532045
O O6 0.946510 0.873030 0.293634
O O7 0.945452 0.979511 0.710984
O O8 0.718176 0.098459 0.688425
O O9 0.159269 0.455321 0.618167
O O10 0.008566 0.633203 0.551669
O O11 0.100011 0.752983 0.876583
O O12 0.362880 0.831271 0.905553
O O13 0.145308 0.977200 0.852708
O O14 0.366880 0.972976 0.739281
O O15 0.466865 0.167146 0.881824
O O16 0.251656 0.224694 0.175186
O O17 0.500000 0.000000 0.000000
#
# Coordination Sequence:
#
# PCOD9042489 Si02
#       8
#     2   2   2   2   2   2   2   2
#     4  10  20  31  55  89 108 136 182 237 282 319
#     4  11  23  38  58  78 113 158 184 227 274 339
#     4  11  22  35  59  87 113 140 187 239 277 331
#     4  10  19  34  58  80 111 143 184 235 270 327
#     4  10  17  33  59  83 110 139 180 233 281 329
#     4  10  19  36  58  82 111 142 185 232 284 324
#     4  11  21  36  60  87 109 145 187 235 285 319
#     4  11  23  39  54  81 116 151 193 219 276 337
#
# _framework density 22.210684000000001
#
# number of rings (size 3 to 8) (size 9 to 14) (size 15 to 20)
#    0.000    1.500    5.000    2.250    0.000    2.000 
#    0.000    1.250    0.000    3.000    0.000    0.000 
#    0.000    0.000    0.000    0.000    0.000    0.000 
#
# Total GULP energy -89411.939969 kJ/mol
# GULP energy per Si atom -5588.246248 kJ/mol
# Density = 2.216013 g / cm^3
# Si number density = 22.210684 Si / 1000 Ang^3
#
#
#
# Elastic Constant Matrix: (Units=GPa)
#
#
# Indices 1 2 3 4 5 6 
#
# 1 100.1920 20.9769 12.3876 13.2009 -4.6425 -1.5878
# 2 20.9769 76.7603 29.7278 27.8649 17.6051 14.0165
# 3 12.3876 29.7278 62.6478 24.5913 3.2141 2.4400
# 4 13.2009 27.8649 24.5913 37.1076 0.8831 5.1694
# 5 -4.6425 17.6051 3.2141 0.8831 28.6220 17.0282
# 6 -1.5878 14.0165 2.4400 5.1694 17.0282 31.3021
#
#
#
# Elastic Compliance Matrix: (Units=1/GPa)
#
#
# Indices 1 2 3 4 5 6 
#
# 1 0.011072 -0.003328 -0.000269 -0.001386 0.003765 0.000254
# 2 -0.003328 0.023864 -0.004772 -0.013133 -0.013796 -0.000809
# 3 -0.000269 -0.004772 0.022872 -0.011851 -0.001003 0.002843
# 4 -0.001386 -0.013133 -0.011851 0.045911 0.012230 -0.007501
# 5 0.003765 -0.013796 -0.001003 0.012230 0.060820 -0.028659
# 6 0.000254 -0.000809 0.002843 -0.007501 -0.028659 0.048929
#
#
# Mechanical properties :
#
#
# Convention : Reuss Voigt Hill
#
# Bulk Modulus (GPa) = 24.34791 40.64275 32.49533
# Shear Modulus (GPa) = 20.50045 31.17353 25.83699
#
# Velocity S-wave (km/s) = 3.04139 3.75045 3.41437
# Velocity P-wave (km/s) = 4.82902 6.09040 5.49601
#
# Compressibility (1/GPa) = 0.04107129
#
# Stress axis : x y z
#
# Youngs Moduli (GPa) = 90.31763 41.90342 43.72114
#
# Poissons Ratio (x) = 0.13946 0.01175
# Poissons Ratio (y) = 0.30059 0.20862
# Poissons Ratio (z) = 0.02428 0.19995
#
# Static dielectric constant tensor:
#      x y z
#    x 1.822740 0.008010 0.017440 
#    y 0.008010 1.860870 -0.008180 
#    z 0.017440 -0.008180 1.815250 
# 
# From -- ./inp_files/268895.got.cif
#   From: 2010.05.17/outbox.cif.g08.bks.cpg/sg2_135_cif.got.tgz:268895.got - 2010.06.03 11:33:40.
