data_PCOD9042353
_publ_section_title
;
Structure prediction by ZEFSAII (Michael W. Deem and Ramdas Pophale) SiO2 
 PCOD9042353
Probable space group: P -1
;
_chemical_formula_sum "Si O2"
_cell_formula_units_Z 16
_cell_length_a 8.849501
_cell_length_b 10.667312
_cell_length_c 14.532389
_cell_angle_alpha 115.593389
_cell_angle_beta 61.804079
_cell_angle_gamma 65.374958
_cell_volume 681.020628
_symmetry_space_group_name_H-M "P -1"
_symmetry_group_IT_number 2
_symmetry_cell_setting 'triclinic'
loop_
_space_group_symop_operation_xyz
x,y,z
-x,-y,-z
loop_
_atom_site_type_symbol
_atom_site_label
_atom_site_fract_x
_atom_site_fract_y
_atom_site_fract_z
Si Si1 0.891038 0.138722 0.483947
Si Si2 0.113085 0.066165 0.741213
Si Si3 0.867551 0.983894 0.913408
Si Si4 0.937327 0.490837 0.911963
Si Si5 0.334112 0.219941 0.559763
Si Si6 0.430101 0.640586 0.735881
Si Si7 0.271185 0.311580 0.425844
Si Si8 0.369809 0.987518 0.185444
O O1 0.620029 0.403714 0.651939
O O2 0.130239 0.072442 0.343783
O O3 0.832441 0.045708 0.405256
O O4 0.000000 0.000000 0.500000
O O5 0.960879 0.058142 0.848791
O O6 0.965067 0.305746 0.846630
O O7 0.431957 0.888148 0.619292
O O8 0.736001 0.957678 0.871956
O O9 0.668338 0.179754 0.107095
O O10 0.149245 0.757189 0.809523
O O11 0.167209 0.400279 0.745195
O O12 0.000000 0.500000 0.000000
O O13 0.642229 0.723458 0.035827
O O14 0.130072 0.334352 0.569082
O O15 0.500000 0.000000 0.500000
O O16 0.605911 0.607768 0.596683
O O17 0.434109 0.092673 0.248187
O O18 0.000000 0.500000 0.500000
#
# Coordination Sequence:
#
# PCOD9042353 Si02
#       8
#     2   2   2   2   2   2   2   2
#     4  11  27  42  73 104 140 189 242 294 365 435
#     4  10  23  44  70  99 140 188 236 295 353 437
#     4  10  25  46  70 106 142 193 242 297 366 432
#     4  11  26  43  71 108 149 186 242 304 368 433
#     4  10  23  44  73  98 139 190 241 286 363 432
#     4  11  25  48  74 100 149 193 244 295 369 432
#     4  12  25  46  74 103 144 190 242 304 358 441
#     4  11  26  44  70 107 143 183 250 296 367 425
#
# _framework density 23.494149
#
# number of rings (size 3 to 8) (size 9 to 14) (size 15 to 20)
#    0.000    1.250    2.500    1.500   10.500    4.500 
#    2.250    0.000    0.000    0.000    0.000    0.000 
#    0.000    0.000    0.000    0.000    0.000    0.000 
#
# Total GULP energy -89220.924535 kJ/mol
# GULP energy per Si atom -5576.307783 kJ/mol
# Density = 2.344068 g / cm^3
# Si number density = 23.494149 Si / 1000 Ang^3
#
#
#
# Elastic Constant Matrix: (Units=GPa)
#
#
# Indices 1 2 3 4 5 6 
#
# 1 83.8954 17.9223 37.4333 -9.0738 17.8732 -8.4981
# 2 17.9223 142.9530 51.6858 5.6240 9.3969 -16.3277
# 3 37.4333 51.6858 126.1237 16.6704 2.5777 -15.9099
# 4 -9.0738 5.6240 16.6704 40.1165 -8.7740 7.0618
# 5 17.8732 9.3969 2.5777 -8.7740 28.1187 -6.2214
# 6 -8.4981 -16.3277 -15.9099 7.0618 -6.2214 44.1581
#
#
#
# Elastic Compliance Matrix: (Units=1/GPa)
#
#
# Indices 1 2 3 4 5 6 
#
# 1 0.016607 0.000255 -0.005474 0.004138 -0.008983 -0.000609
# 2 0.000255 0.008518 -0.003198 -0.000677 -0.002529 0.001798
# 3 -0.005474 -0.003198 0.012014 -0.005857 0.002363 0.003362
# 4 0.004138 -0.000677 -0.005857 0.030797 0.006510 -0.005572
# 5 -0.008983 -0.002529 0.002363 0.006510 0.044695 0.003444
# 6 -0.000609 0.001798 0.003362 -0.005572 0.003444 0.025781
#
#
# Mechanical properties :
#
#
# Convention : Reuss Voigt Hill
#
# Bulk Modulus (GPa) = 49.24850 63.00608 56.12729
# Shear Modulus (GPa) = 30.86150 38.87405 34.86777
#
# Velocity S-wave (km/s) = 3.62827 4.07212 3.85659
# Velocity P-wave (km/s) = 6.20967 6.99897 6.61610
#
# Compressibility (1/GPa) = 0.02030519
#
# Stress axis : x y z
#
# Youngs Moduli (GPa) = 60.21582 117.39852 83.23652
#
# Poissons Ratio (x) = -0.02995 0.45560
# Poissons Ratio (y) = -0.01536 0.26622
# Poissons Ratio (z) = 0.32960 0.37549
#
# Static dielectric constant tensor:
#      x y z
#    x 2.573040 -0.004010 0.325420 
#    y -0.004010 1.755700 -0.233350 
#    z 0.325420 -0.233350 1.969200 
# 
# From -- ./inp_files/500693.got.cif
#   From: 2010.05.17/outbox.cif.g08.bks.cpg/sg2_251_cif.got.tgz:500693.got - 2010.06.03 11:33:40.
