data_PCOD9042079
_publ_section_title
;
Structure prediction by ZEFSAII (Michael W. Deem and Ramdas Pophale) SiO2 
 PCOD9042079
Probable space group: P -1
;
_chemical_formula_sum "Si O2"
_cell_formula_units_Z 16
_cell_length_a 11.752540
_cell_length_b 20.102117
_cell_length_c 9.570813
_cell_angle_alpha 147.975007
_cell_angle_beta 136.662012
_cell_angle_gamma 33.821081
_cell_volume 665.365626
_symmetry_space_group_name_H-M "P -1"
_symmetry_group_IT_number 2
_symmetry_cell_setting 'triclinic'
loop_
_space_group_symop_operation_xyz
x,y,z
-x,-y,-z
loop_
_atom_site_type_symbol
_atom_site_label
_atom_site_fract_x
_atom_site_fract_y
_atom_site_fract_z
Si Si1 0.818117 0.500929 0.659389
Si Si2 0.376635 0.417640 0.074398
Si Si3 0.420578 0.975382 0.746792
Si Si4 0.342494 0.563859 0.843489
Si Si5 0.836280 0.125844 0.685214
Si Si6 0.274929 0.181725 0.511777
Si Si7 0.978119 0.704334 0.155207
Si Si8 0.090531 0.053312 0.288008
O O1 0.680191 0.524541 0.712644
O O2 0.720793 0.530469 0.469380
O O3 0.033677 0.327806 0.535289
O O4 0.870019 0.622739 0.958105
O O5 0.573969 0.390453 0.131873
O O6 0.199113 0.546835 0.038261
O O7 0.377269 0.266901 0.801322
O O8 0.375959 0.846699 0.499939
O O9 0.594320 0.915703 0.679160
O O10 0.203958 0.140899 0.810991
O O11 0.500000 0.000000 0.000000
O O12 0.500000 0.500000 0.000000
O O13 0.157299 0.728000 0.035415
O O14 0.860142 0.058532 0.739437
O O15 0.000000 0.000000 0.500000
O O16 0.263231 0.067627 0.401677
O O17 0.047065 0.778907 0.462426
O O18 0.000000 0.000000 0.000000
#
# Coordination Sequence:
#
# PCOD9042079 Si02
#       8
#     2   2   2   2   2   2   2   2
#     4  11  23  45  75 101 143 182 236 297 358 422
#     4  11  22  48  72 104 143 181 240 296 360 422
#     4  11  27  44  71 102 148 192 237 290 361 427
#     4  12  29  45  70 104 142 193 242 291 352 430
#     4  11  28  49  69 102 148 188 235 297 358 426
#     4  11  22  46  76 107 140 186 244 296 359 429
#     4  10  23  44  69 103 136 183 228 291 357 416
#     4  11  23  43  76 107 135 182 239 301 361 415
#
# _framework density 24.046928999999999
#
# number of rings (size 3 to 8) (size 9 to 14) (size 15 to 20)
#    0.000    1.000    3.750    1.875    8.750    3.000 
#    2.250    2.500    0.000    0.000    0.000    0.000 
#    0.000    0.000    0.000    0.000    0.000    0.000 
#
# Total GULP energy -89140.820758 kJ/mol
# GULP energy per Si atom -5571.301297 kJ/mol
# Density = 2.399220 g / cm^3
# Si number density = 24.046929 Si / 1000 Ang^3
#
#
#
# Elastic Constant Matrix: (Units=GPa)
#
#
# Indices 1 2 3 4 5 6 
#
# 1 92.6146 7.2334 20.2677 8.4405 -15.7554 -2.7920
# 2 7.2334 82.2304 51.8276 9.2067 -15.1479 13.0255
# 3 20.2677 51.8276 138.8671 -9.9656 -7.7497 20.3510
# 4 8.4405 9.2067 -9.9656 41.6363 1.3243 -7.2852
# 5 -15.7554 -15.1479 -7.7497 1.3243 40.7789 5.5693
# 6 -2.7920 13.0255 20.3510 -7.2852 5.5693 20.3107
#
#
#
# Elastic Compliance Matrix: (Units=1/GPa)
#
#
# Indices 1 2 3 4 5 6 
#
# 1 0.012402 0.001743 -0.002501 -0.003582 0.005022 0.000431
# 2 0.001743 0.020572 -0.006247 -0.008850 0.009104 -0.012365
# 3 -0.002501 -0.006247 0.010995 0.003492 -0.000496 -0.005965
# 4 -0.003582 -0.008850 0.003492 0.030288 -0.006966 0.014459
# 5 0.005022 0.009104 -0.000496 -0.006966 0.032157 -0.015968
# 6 0.000431 -0.012365 -0.005965 0.014459 -0.015968 0.072766
#
#
# Mechanical properties :
#
#
# Convention : Reuss Voigt Hill
#
# Bulk Modulus (GPa) = 33.37873 52.48548 42.93210
# Shear Modulus (GPa) = 24.60930 36.17073 30.39002
#
# Velocity S-wave (km/s) = 3.20251 3.88257 3.55882
# Velocity P-wave (km/s) = 5.25220 6.47864 5.89739
#
# Compressibility (1/GPa) = 0.02995920
#
# Stress axis : x y z
#
# Youngs Moduli (GPa) = 80.63042 48.61073 90.95227
#
# Poissons Ratio (x) = -0.08473 0.22744
# Poissons Ratio (y) = -0.14054 0.56819
# Poissons Ratio (z) = 0.20163 0.30368
#
# Static dielectric constant tensor:
#      x y z
#    x 1.040780 0.589570 -0.569730 
#    y 0.589570 1.638740 0.363310 
#    z -0.569730 0.363310 1.628840 
# 
# From -- ./inp_files/283520.got.cif
#   From: 2010.05.17/outbox.cif.g08.bks.cpg/sg2_142_cif.got.tgz:283520.got - 2010.06.03 11:33:40.
