data_PCOD9042358
_publ_section_title
;
Structure prediction by ZEFSAII (Michael W. Deem and Ramdas Pophale) SiO2 
 PCOD9042358
Probable space group: P -1
;
_chemical_formula_sum "Si O2"
_cell_formula_units_Z 14
_cell_length_a 5.348767
_cell_length_b 7.784284
_cell_length_c 22.696890
_cell_angle_alpha 123.804562
_cell_angle_beta 56.285350
_cell_angle_gamma 85.597361
_cell_volume 542.102922
_symmetry_space_group_name_H-M "P -1"
_symmetry_group_IT_number 2
_symmetry_cell_setting 'triclinic'
loop_
_space_group_symop_operation_xyz
x,y,z
-x,-y,-z
loop_
_atom_site_type_symbol
_atom_site_label
_atom_site_fract_x
_atom_site_fract_y
_atom_site_fract_z
Si Si1 0.343555 0.394973 0.708276
Si Si2 0.492621 0.785203 0.765292
Si Si3 0.337870 0.004283 0.322134
Si Si4 0.317447 0.896104 0.117825
Si Si5 0.590790 0.727391 0.932233
Si Si6 0.710269 0.129007 0.508215
Si Si7 0.309487 0.438168 0.900709
O O1 0.560637 0.520498 0.724585
O O2 0.461106 0.124594 0.666815
O O3 0.403525 0.387670 0.628695
O O4 0.943630 0.569756 0.817662
O O5 0.667764 0.795283 0.681999
O O6 0.580774 0.924185 0.830000
O O7 0.065522 0.956425 0.836802
O O8 0.574790 0.749459 0.203881
O O9 0.928508 0.115302 0.419152
O O10 0.324123 0.735817 0.140732
O O11 0.601634 0.694884 0.995042
O O12 0.296863 0.684430 0.935625
O O13 0.500000 0.000000 0.000000
O O14 0.500000 0.000000 0.500000
O O15 0.000000 0.000000 0.500000
O O16 0.000000 0.500000 0.000000
#
# Coordination Sequence:
#
# PCOD9042358 Si02
#       7
#     2   2   2   2   2   2   2
#     4  11  24  42  70  99 139 178 231 282 345 404
#     4  11  25  43  68 102 137 179 224 286 334 417
#     4  10  23  44  71  98 136 181 228 282 347 407
#     4  11  24  44  63  97 140 174 234 273 337 412
#     4  12  23  37  65 100 137 182 223 283 343 408
#     4  10  23  44  71 100 131 175 230 284 335 410
#     4  11  23  41  69  97 136 185 228 281 348 411
#
# _framework density 25.825351000000001
#
# number of rings (size 3 to 8) (size 9 to 14) (size 15 to 20)
#    0.000    1.143    1.429    4.714    2.000    6.857 
#    0.000    0.000    0.000   11.143    0.000    0.000 
#    0.000    0.000    0.000    0.000    0.000    0.000 
#
# Total GULP energy -78006.411343 kJ/mol
# GULP energy per Si atom -5571.886525 kJ/mol
# Density = 2.576657 g / cm^3
# Si number density = 25.825351 Si / 1000 Ang^3
#
#
#
# Elastic Constant Matrix: (Units=GPa)
#
#
# Indices 1 2 3 4 5 6 
#
# 1 102.7085 17.7713 30.4325 -10.5629 10.4340 20.8103
# 2 17.7713 83.1111 9.8439 -30.4235 -2.5307 22.4943
# 3 30.4325 9.8439 187.1496 -48.8541 -11.8966 28.4687
# 4 -10.5629 -30.4235 -48.8541 49.0549 13.4386 -2.2978
# 5 10.4340 -2.5307 -11.8966 13.4386 38.0133 -0.8834
# 6 20.8103 22.4943 28.4687 -2.2978 -0.8834 55.2637
#
#
#
# Elastic Compliance Matrix: (Units=1/GPa)
#
#
# Indices 1 2 3 4 5 6 
#
# 1 0.011533 -0.000848 -0.001089 0.001894 -0.004312 -0.003427
# 2 -0.000848 0.021034 0.005195 0.018525 -0.003527 -0.010205
# 3 -0.001089 0.005195 0.009288 0.012203 -0.000902 -0.005996
# 4 0.001894 0.018525 0.012203 0.047253 -0.012469 -0.012774
# 5 -0.004312 -0.003527 -0.000902 -0.012469 0.031463 0.003509
# 6 -0.003427 -0.010205 -0.005996 -0.012774 0.003509 0.026153
#
#
# Mechanical properties :
#
#
# Convention : Reuss Voigt Hill
#
# Bulk Modulus (GPa) = 20.67358 54.34052 37.50705
# Shear Modulus (GPa) = 31.98369 49.46113 40.72241
#
# Velocity S-wave (km/s) = 3.52300 4.38107 3.97525
# Velocity P-wave (km/s) = 4.95693 6.83219 5.96867
#
# Compressibility (1/GPa) = 0.04837092
#
# Stress axis : x y z
#
# Youngs Moduli (GPa) = 86.70890 47.54277 107.67136
#
# Poissons Ratio (x) = 0.04030 0.11728
# Poissons Ratio (y) = 0.07350 -0.55939
# Poissons Ratio (z) = 0.09445 -0.24700
#
# Static dielectric constant tensor:
#      x y z
#    x 2.368900 -0.087970 -0.067050 
#    y -0.087970 2.264680 0.000480 
#    z -0.067050 0.000480 2.203400 
# 
# From -- ./inp_files/34565.got.cif
#   From: 2010.05.17/outbox.cif.g08.bks.cpg/sg2_18_cif.got.tgz:34565.got - 2010.06.03 11:33:40.
