data_PCOD9042564
_publ_section_title
;
Structure prediction by ZEFSAII (Michael W. Deem and Ramdas Pophale) SiO2 
 PCOD9042564
Probable space group: P -1
;
_chemical_formula_sum "Si O2"
_cell_formula_units_Z 16
_cell_length_a 10.205375
_cell_length_b 19.014792
_cell_length_c 6.903550
_cell_angle_alpha 56.494190
_cell_angle_beta 126.181487
_cell_angle_gamma 135.792185
_cell_volume 733.926588
_symmetry_space_group_name_H-M "P -1"
_symmetry_group_IT_number 2
_symmetry_cell_setting 'triclinic'
loop_
_space_group_symop_operation_xyz
x,y,z
-x,-y,-z
loop_
_atom_site_type_symbol
_atom_site_label
_atom_site_fract_x
_atom_site_fract_y
_atom_site_fract_z
Si Si1 0.105129 0.103313 0.563917
Si Si2 0.365401 0.403671 0.718694
Si Si3 0.070825 0.424326 0.648868
Si Si4 0.190483 0.713145 0.702195
Si Si5 0.187105 0.908106 0.352906
Si Si6 0.156225 0.193371 0.080961
Si Si7 0.183879 0.412994 0.189432
Si Si8 0.623725 0.866808 0.905239
O O1 0.167227 0.189759 0.325320
O O2 0.954354 0.094198 0.603814
O O3 0.284644 0.121274 0.821471
O O4 0.000000 0.000000 0.500000
O O5 0.258822 0.361367 0.479962
O O6 0.603483 0.473801 0.803334
O O7 0.730841 0.538178 0.365194
O O8 0.285032 0.308208 0.934241
O O9 0.000000 0.500000 0.500000
O O10 0.888035 0.328317 0.518174
O O11 0.115539 0.392067 0.939963
O O12 0.209793 0.819667 0.578368
O O13 0.414481 0.755242 0.877059
O O14 0.020147 0.621072 0.828453
O O15 0.361182 0.028796 0.285454
O O16 0.065813 0.865348 0.109336
O O17 0.240686 0.135801 0.136651
#
# Coordination Sequence:
#
# PCOD9042564 Si02
#       8
#     2   2   2   2   2   2   2   2
#     4  11  21  40  69  98 132 176 228 275 321 399
#     4  10  23  44  72  97 128 177 222 285 331 402
#     4  11  25  45  68  96 135 174 220 285 337 395
#     4  11  26  45  63 100 139 179 221 277 340 401
#     4  11  21  43  68  96 137 180 216 277 329 403
#     4  11  21  41  69  99 134 171 228 272 331 396
#     4  10  23  47  68  94 130 171 230 274 339 390
#     4  11  24  41  66 101 142 179 217 274 340 391
#
# _framework density 21.800543000000001
#
# number of rings (size 3 to 8) (size 9 to 14) (size 15 to 20)
#    0.000    1.250    5.000    1.500    3.500    3.000 
#    2.250    0.625    0.000    0.000    0.000    0.000 
#    0.000    0.000    0.000    0.000    0.000    0.000 
#
# Total GULP energy -89175.648965 kJ/mol
# GULP energy per Si atom -5573.478060 kJ/mol
# Density = 2.175092 g / cm^3
# Si number density = 21.800543 Si / 1000 Ang^3
#
#
#
# Elastic Constant Matrix: (Units=GPa)
#
#
# Indices 1 2 3 4 5 6 
#
# 1 54.4861 45.5351 38.1943 1.0513 -4.5303 -3.4609
# 2 45.5351 104.2270 33.6333 -8.0992 -4.6285 16.5865
# 3 38.1943 33.6333 146.7338 5.3370 -38.6239 10.8815
# 4 1.0513 -8.0992 5.3370 42.3453 0.3184 4.0876
# 5 -4.5303 -4.6285 -38.6239 0.3184 27.6700 -4.3994
# 6 -3.4609 16.5865 10.8815 4.0876 -4.3994 40.0729
#
#
#
# Elastic Compliance Matrix: (Units=1/GPa)
#
#
# Indices 1 2 3 4 5 6 
#
# 1 0.038770 -0.016685 -0.008797 -0.004185 -0.006713 0.012333
# 2 -0.016685 0.018654 0.000467 0.004878 -0.000581 -0.009850
# 3 -0.008797 0.000467 0.013875 -0.001317 0.017599 -0.002654
# 4 -0.004185 0.004878 -0.001317 0.025313 -0.002780 -0.004910
# 5 -0.006713 -0.000581 0.017599 -0.002780 0.059817 0.001733
# 6 0.012333 -0.009850 -0.002654 -0.004910 0.001733 0.031509
#
#
# Mechanical properties :
#
#
# Convention : Reuss Voigt Hill
#
# Bulk Modulus (GPa) = 47.01565 60.01913 53.51739
# Shear Modulus (GPa) = 20.40345 34.55657 27.48001
#
# Velocity S-wave (km/s) = 3.06259 3.98568 3.55423
# Velocity P-wave (km/s) = 5.84115 6.98367 6.43781
#
# Compressibility (1/GPa) = 0.02126951
#
# Stress axis : x y z
#
# Youngs Moduli (GPa) = 25.79318 53.60767 72.07322
#
# Poissons Ratio (x) = 0.89446 0.63401
# Poissons Ratio (y) = 0.43037 -0.03369
# Poissons Ratio (z) = 0.22689 -0.02506
#
# Static dielectric constant tensor:
#      x y z
#    x 1.846410 -0.022700 0.038460 
#    y -0.022700 1.830170 -0.025060 
#    z 0.038460 -0.025060 1.805750 
# 
# From -- ./inp_files/83106.got.cif
#   From: 2010.05.17/outbox.cif.g08.bks.cpg/sg2_42_cif.got.tgz:83106.got - 2010.06.03 11:33:40.
