data_PCOD9042256
_publ_section_title
;
Structure prediction by ZEFSAII (Michael W. Deem and Ramdas Pophale) SiO2 
 PCOD9042256
Probable space group: P -1
;
_chemical_formula_sum "Si O2"
_cell_formula_units_Z 13
_cell_length_a 8.286207
_cell_length_b 13.155593
_cell_length_c 4.869038
_cell_angle_alpha 96.319515
_cell_angle_beta 61.261692
_cell_angle_gamma 87.942329
_cell_volume 460.158467
_symmetry_space_group_name_H-M "P -1"
_symmetry_group_IT_number 2
_symmetry_cell_setting 'triclinic'
loop_
_space_group_symop_operation_xyz
x,y,z
-x,-y,-z
loop_
_atom_site_type_symbol
_atom_site_label
_atom_site_fract_x
_atom_site_fract_y
_atom_site_fract_z
Si Si1 0.612091 0.606814 0.151480
Si Si2 0.863468 0.053723 0.395944
Si Si3 0.222553 0.821444 0.983216
Si Si4 0.241985 0.300434 0.420413
Si Si5 0.758870 0.411150 0.208108
Si Si6 0.000000 0.500000 0.500000
Si Si7 0.407582 0.089822 0.300159
O O1 0.723304 0.675789 0.282858
O O2 0.725416 0.492390 0.003305
O O3 0.425838 0.592070 0.458057
O O4 0.593012 0.657614 0.886336
O O5 0.912441 0.105849 0.086103
O O6 0.711842 0.975139 0.424201
O O7 0.778814 0.147931 0.687775
O O8 0.000000 0.000000 0.500000
O O9 0.183504 0.705310 0.948565
O O10 0.426962 0.845503 0.720317
O O11 0.259689 0.178710 0.321571
O O12 0.071997 0.374186 0.468566
O O13 0.891710 0.466457 0.308392
O O14 0.500000 0.000000 0.000000
#
# Coordination Sequence:
#
# PCOD9042256 Si02
#       7
#     2   2   2   2   2   1   2
#     4  10  24  43  71  97 135 180 233 283 336 415
#     4  11  26  46  69 104 142 177 231 289 352 407
#     4  11  24  44  73 100 135 187 230 285 342 417
#     4  11  24  46  68 102 137 183 228 285 346 407
#     4  10  23  44  70 103 138 178 235 284 349 413
#     4  10  26  44  68 102 144 178 222 288 356 410
#     4  10  24  45  72 102 137 184 238 284 337 411
#
# _framework density 28.251135000000001
#
# number of rings (size 3 to 8) (size 9 to 14) (size 15 to 20)
#    0.000    1.538    1.538    0.923    6.462   12.923 
#    2.769    0.000    0.000    0.000    0.000    0.000 
#    0.000    0.000    0.000    0.000    0.000    0.000 
#
# Total GULP energy -72668.334244 kJ/mol
# GULP energy per Si atom -5589.871865 kJ/mol
# Density = 2.818683 g / cm^3
# Si number density = 28.251135 Si / 1000 Ang^3
#
#
#
# Elastic Constant Matrix: (Units=GPa)
#
#
# Indices 1 2 3 4 5 6 
#
# 1 61.6752 19.9679 31.6639 -1.4532 14.7347 1.8237
# 2 19.9679 224.9797 51.7748 -2.7564 9.8782 -6.2122
# 3 31.6639 51.7748 119.9942 -11.2365 26.1784 4.8171
# 4 -1.4532 -2.7564 -11.2365 43.4126 -3.5666 -6.1517
# 5 14.7347 9.8782 26.1784 -3.5666 47.3013 3.4162
# 6 1.8237 -6.2122 4.8171 -6.1517 3.4162 46.7494
#
#
#
# Elastic Compliance Matrix: (Units=1/GPa)
#
#
# Indices 1 2 3 4 5 6 
#
# 1 0.019394 -0.000631 -0.004107 -0.000792 -0.003678 -0.000253
# 2 -0.000631 0.004993 -0.002084 -0.000100 0.000237 0.000872
# 3 -0.004107 -0.002084 0.011524 0.002251 -0.004444 -0.000683
# 4 -0.000792 -0.000100 0.002251 0.024048 0.000625 0.002904
# 5 -0.003678 0.000237 -0.004444 0.000625 0.024824 -0.001099
# 6 -0.000253 0.000872 -0.000683 0.002904 -0.001099 0.022049
#
#
# Mechanical properties :
#
#
# Convention : Reuss Voigt Hill
#
# Bulk Modulus (GPa) = 44.90825 68.16247 56.53536
# Shear Modulus (GPa) = 39.09339 47.70881 43.40110
#
# Velocity S-wave (km/s) = 3.72396 4.11389 3.92377
# Velocity P-wave (km/s) = 5.86695 6.83704 6.37049
#
# Compressibility (1/GPa) = 0.02226762
#
# Stress axis : x y z
#
# Youngs Moduli (GPa) = 51.56124 200.28499 86.77240
#
# Poissons Ratio (x) = 0.12646 0.35636
# Poissons Ratio (y) = 0.03256 0.18081
# Poissons Ratio (z) = 0.21176 0.41734
#
# Static dielectric constant tensor:
#      x y z
#    x 2.109150 -0.077500 -0.047150 
#    y -0.077500 2.188380 0.019790 
#    z -0.047150 0.019790 2.112490 
# 
# From -- ./inp_files/24537.got.cif
#   From: 2010.05.17/outbox.cif.g08.bks.cpg/sg2_13_cif.got.tgz:24537.got - 2010.06.03 11:33:40.
