data_PCOD9042074
_publ_section_title
;
Structure prediction by ZEFSAII (Michael W. Deem and Ramdas Pophale) SiO2 
 PCOD9042074
Probable space group: P -1
;
_chemical_formula_sum "Si O2"
_cell_formula_units_Z 16
_cell_length_a 17.285453
_cell_length_b 12.584024
_cell_length_c 8.717296
_cell_angle_alpha 129.025338
_cell_angle_beta 149.792711
_cell_angle_gamma 45.533623
_cell_volume 679.294921
_symmetry_space_group_name_H-M "P -1"
_symmetry_group_IT_number 2
_symmetry_cell_setting 'triclinic'
loop_
_space_group_symop_operation_xyz
x,y,z
-x,-y,-z
loop_
_atom_site_type_symbol
_atom_site_label
_atom_site_fract_x
_atom_site_fract_y
_atom_site_fract_z
Si Si1 0.829059 0.109832 0.724549
Si Si2 0.377625 0.057753 0.672741
Si Si3 0.674254 0.360302 0.195954
Si Si4 0.209131 0.343290 0.814560
Si Si5 0.191226 0.442065 0.221599
Si Si6 0.170764 0.623548 0.848376
Si Si7 0.689210 0.868282 0.702352
Si Si8 0.271607 0.942183 0.824371
O O1 0.830490 0.071946 0.511924
O O2 0.675207 0.077198 0.503240
O O3 0.805501 0.274760 0.883766
O O4 0.000000 0.000000 0.000000
O O5 0.324506 0.174253 0.825408
O O6 0.266224 0.138950 0.406340
O O7 0.565560 0.034786 0.936494
O O8 0.759251 0.422986 0.528145
O O9 0.770521 0.336504 0.176801
O O10 0.669860 0.208803 0.113636
O O11 0.500000 0.500000 0.000000
O O12 0.259583 0.449142 0.884387
O O13 0.022923 0.352005 0.472566
O O14 0.212573 0.398368 0.041602
O O15 0.297704 0.290593 0.360095
O O16 0.000000 0.500000 0.000000
O O17 0.500000 0.000000 0.500000
O O18 0.802980 0.921864 0.058392
#
# Coordination Sequence:
#
# PCOD9042074 Si02
#       8
#     2   2   2   2   2   2   2   2
#     4  12  25  43  67 102 139 180 230 288 354 419
#     4  11  23  45  72  98 138 189 233 288 352 425
#     4  12  25  46  70 103 144 183 241 294 357 425
#     4  11  23  43  71  99 139 182 232 289 357 417
#     4  12  25  43  72 106 141 187 243 291 355 427
#     4  11  24  43  67 100 138 181 227 291 356 413
#     4  10  23  44  69 102 141 189 234 286 357 420
#     4  11  25  45  70 104 141 188 236 291 353 429
#
# _framework density 23.553834999999999
#
# number of rings (size 3 to 8) (size 9 to 14) (size 15 to 20)
#    0.000    0.750    2.500    5.625    1.750    4.000 
#    0.000    4.375    0.000    0.000    0.000    0.000 
#    0.000    0.000    0.000    0.000    0.000    0.000 
#
# Total GULP energy -89533.634502 kJ/mol
# GULP energy per Si atom -5595.852156 kJ/mol
# Density = 2.350023 g / cm^3
# Si number density = 23.553835 Si / 1000 Ang^3
#
#
#
# Elastic Constant Matrix: (Units=GPa)
#
#
# Indices 1 2 3 4 5 6 
#
# 1 105.8121 26.8877 44.9391 5.3720 -23.9907 15.9883
# 2 26.8877 96.7869 19.8730 16.6904 3.7079 26.3591
# 3 44.9391 19.8730 123.1953 20.4260 -27.7518 3.9594
# 4 5.3720 16.6904 20.4260 36.2014 -6.8042 -2.9954
# 5 -23.9907 3.7079 -27.7518 -6.8042 48.7447 5.3112
# 6 15.9883 26.3591 3.9594 -2.9954 5.3112 43.0311
#
#
#
# Elastic Compliance Matrix: (Units=1/GPa)
#
#
# Indices 1 2 3 4 5 6 
#
# 1 0.013203 -0.002518 -0.003378 0.001828 0.005413 -0.003593
# 2 -0.002518 0.014762 -0.000631 -0.007290 -0.002845 -0.008205
# 3 -0.003378 -0.000631 0.011172 -0.004758 0.004106 -0.000224
# 4 0.001828 -0.007290 -0.004758 0.034456 0.002872 0.006268
# 5 0.005413 -0.002845 0.004106 0.002872 0.026540 -0.003722
# 6 -0.003593 -0.008205 -0.000224 0.006268 -0.003722 0.030516
#
#
# Mechanical properties :
#
#
# Convention : Reuss Voigt Hill
#
# Bulk Modulus (GPa) = 38.34096 56.57712 47.45904
# Shear Modulus (GPa) = 32.80877 41.20174 37.00526
#
# Velocity S-wave (km/s) = 3.73624 4.18695 3.96800
# Velocity P-wave (km/s) = 5.90982 6.88815 6.41766
#
# Compressibility (1/GPa) = 0.02608176
#
# Stress axis : x y z
#
# Youngs Moduli (GPa) = 75.74222 67.74254 89.50568
#
# Poissons Ratio (x) = 0.17059 0.30236
# Poissons Ratio (y) = 0.19073 0.05650
# Poissons Ratio (z) = 0.25586 0.04276
#
# Static dielectric constant tensor:
#      x y z
#    x 2.030680 -0.025680 0.035810 
#    y -0.025680 1.858060 -0.092390 
#    z 0.035810 -0.092390 1.908350 
# 
# From -- ./inp_files/333855.got.cif
#   From: 2010.05.17/outbox.cif.g08.bks.cpg/sg2_167_cif.got.tgz:333855.got - 2010.06.03 11:33:40.
