data_PCOD9042421
_publ_section_title
;
Structure prediction by ZEFSAII (Michael W. Deem and Ramdas Pophale) SiO2 
 PCOD9042421
Probable space group: P -1
;
_chemical_formula_sum "Si O2"
_cell_formula_units_Z 14
_cell_length_a 20.211088
_cell_length_b 12.714574
_cell_length_c 5.024654
_cell_angle_alpha 59.872934
_cell_angle_beta 69.282569
_cell_angle_gamma 27.417757
_cell_volume 500.411671
_symmetry_space_group_name_H-M "P -1"
_symmetry_group_IT_number 2
_symmetry_cell_setting 'triclinic'
loop_
_space_group_symop_operation_xyz
x,y,z
-x,-y,-z
loop_
_atom_site_type_symbol
_atom_site_label
_atom_site_fract_x
_atom_site_fract_y
_atom_site_fract_z
Si Si1 0.869342 0.532373 0.371575
Si Si2 0.700152 0.584759 0.378112
Si Si3 0.145790 0.862861 0.512570
Si Si4 0.647197 0.095518 0.815610
Si Si5 0.941758 0.740612 0.053447
Si Si6 0.380845 0.079581 0.345884
Si Si7 0.608122 0.408845 0.171403
O O1 0.844897 0.422631 0.515428
O O2 0.715667 0.790043 0.418323
O O3 0.929057 0.477646 0.065700
O O4 0.999343 0.364744 0.602288
O O5 0.728504 0.405640 0.475430
O O6 0.556058 0.816792 0.468222
O O7 0.668922 0.724240 0.996713
O O8 0.228456 0.772698 0.791627
O O9 0.109417 0.044406 0.191549
O O10 0.000000 0.000000 0.500000
O O11 0.639550 0.242611 0.516967
O O12 0.504756 0.315645 0.925712
O O13 0.804884 0.861203 0.034214
O O14 0.639354 0.004163 0.720416
O O15 0.500000 0.500000 0.000000
#
# Coordination Sequence:
#
# PCOD9042421 Si02
#       7
#     2   2   2   2   2   2   2
#     4  12  24  50  69 107 147 193 241 305 361 442
#     4  11  24  46  71 107 142 196 243 298 374 436
#     4  11  21  46  74 109 146 189 246 313 370 434
#     4  10  24  45  67 104 144 194 243 301 366 446
#     4  11  27  45  75 107 145 191 248 304 374 429
#     4  11  24  47  71 101 151 193 246 296 365 450
#     4  10  23  44  71 105 146 193 247 301 374 441
#
# _framework density 27.976966999999998
#
# number of rings (size 3 to 8) (size 9 to 14) (size 15 to 20)
#    0.000    1.143    4.286    0.429    4.000    2.857 
#    7.714    0.000    0.000    0.000    0.000    0.000 
#    0.000    0.000    0.000    0.000    0.000    0.000 
#
# Total GULP energy -78304.877012 kJ/mol
# GULP energy per Si atom -5593.205501 kJ/mol
# Density = 2.791329 g / cm^3
# Si number density = 27.976967 Si / 1000 Ang^3
#
#
#
# Elastic Constant Matrix: (Units=GPa)
#
#
# Indices 1 2 3 4 5 6 
#
# 1 161.1640 31.1236 27.4873 -1.5226 21.1085 -9.3270
# 2 31.1236 147.5535 28.6922 -6.8953 -3.6543 21.9742
# 3 27.4873 28.6922 82.8510 4.4252 13.6091 -9.9287
# 4 -1.5226 -6.8953 4.4252 40.4580 -4.3143 6.5792
# 5 21.1085 -3.6543 13.6091 -4.3143 71.0054 -17.6643
# 6 -9.3270 21.9742 -9.9287 6.5792 -17.6643 62.1124
#
#
#
# Elastic Compliance Matrix: (Units=1/GPa)
#
#
# Indices 1 2 3 4 5 6 
#
# 1 0.006982 -0.001359 -0.001466 -0.000122 -0.001665 0.000834
# 2 -0.001359 0.008354 -0.003123 0.002390 0.000651 -0.003727
# 3 -0.001466 -0.003123 0.014462 -0.002855 -0.001937 0.002948
# 4 -0.000122 0.002390 -0.002855 0.026181 0.001376 -0.003702
# 5 -0.001665 0.000651 -0.001937 0.001376 0.015963 0.003604
# 6 0.000834 -0.003727 0.002948 -0.003702 0.003604 0.019432
#
#
# Mechanical properties :
#
#
# Convention : Reuss Voigt Hill
#
# Bulk Modulus (GPa) = 55.86073 62.90830 59.38451
# Shear Modulus (GPa) = 45.77149 54.99953 50.38551
#
# Velocity S-wave (km/s) = 4.04919 4.43864 4.24838
# Velocity P-wave (km/s) = 6.47080 6.98593 6.73330
#
# Compressibility (1/GPa) = 0.01790166
#
# Stress axis : x y z
#
# Youngs Moduli (GPa) = 143.21552 119.70311 69.14744
#
# Poissons Ratio (x) = 0.16267 0.10137
# Poissons Ratio (y) = 0.19462 0.21597
# Poissons Ratio (z) = 0.20996 0.37388
#
# Static dielectric constant tensor:
#      x y z
#    x 2.271140 0.053400 -0.033820 
#    y 0.053400 2.274400 -0.065480 
#    z -0.033820 -0.065480 2.226570 
# 
# From -- ./inp_files/118155.got.cif
#   From: 2010.05.17/outbox.cif.g08.bks.cpg/sg2_60_cif.got.tgz:118155.got - 2010.06.03 11:33:40.
