data_PCOD9042683
_publ_section_title
;
Structure prediction by ZEFSAII (Michael W. Deem and Ramdas Pophale) SiO2 
 PCOD9042683
Probable space group: P -1
;
_chemical_formula_sum "Si O2"
_cell_formula_units_Z 15
_cell_length_a 20.425736
_cell_length_b 11.454399
_cell_length_c 14.669097
_cell_angle_alpha 141.027323
_cell_angle_beta 159.426491
_cell_angle_gamma 29.632076
_cell_volume 583.121139
_symmetry_space_group_name_H-M "P -1"
_symmetry_group_IT_number 2
_symmetry_cell_setting 'triclinic'
loop_
_space_group_symop_operation_xyz
x,y,z
-x,-y,-z
loop_
_atom_site_type_symbol
_atom_site_label
_atom_site_fract_x
_atom_site_fract_y
_atom_site_fract_z
Si Si1 0.424577 0.164481 0.613915
Si Si2 0.645810 0.452659 0.368085
Si Si3 0.180675 0.185068 0.636031
Si Si4 0.102537 0.241117 0.935401
Si Si5 0.672486 0.738897 0.938749
Si Si6 0.682014 0.577837 0.179152
Si Si7 0.500000 0.500000 0.500000
Si Si8 0.282134 0.839700 0.259799
O O1 0.324049 0.365539 0.528346
O O2 0.332382 0.301965 0.673094
O O3 0.339908 0.008365 0.401171
O O4 0.717050 0.970738 0.887074
O O5 0.405626 0.617930 0.216579
O O6 0.872238 0.270643 0.617869
O O7 0.571074 0.359284 0.135090
O O8 0.253145 0.321774 0.755635
O O9 0.913598 0.296467 0.324476
O O10 0.394402 0.910571 0.719052
O O11 0.193716 0.240684 0.791372
O O12 0.258057 0.187890 0.015299
O O13 0.000000 0.500000 0.000000
O O14 0.715939 0.496084 0.825448
O O15 0.425385 0.716532 0.465847
O O16 0.000000 0.000000 0.000000
#
# Coordination Sequence:
#
# PCOD9042683 Si02
#       8
#     2   2   2   2   2   2   1   2
#     4  12  26  51  73 104 151 193 238 297 365 435
#     4  12  28  46  73 109 143 194 241 293 364 438
#     4  10  23  44  74 101 148 179 241 303 368 418
#     4  12  25  47  70 101 146 195 240 289 362 432
#     4  11  23  44  69 106 137 194 231 303 361 424
#     4  11  24  46  71 107 139 190 239 298 362 431
#     4  12  24  44  72 108 144 180 248 294 358 422
#     4  12  29  45  75 110 141 191 246 303 358 424
#
# _framework density 25.723642999999999
#
# number of rings (size 3 to 8) (size 9 to 14) (size 15 to 20)
#    0.000    0.533    4.000    2.400    9.333    1.600 
#    4.800    0.000    0.000    0.000    0.000    0.000 
#    0.000    0.000    0.000    0.000    0.000    0.000 
#
# Total GULP energy -83797.755324 kJ/mol
# GULP energy per Si atom -5586.517022 kJ/mol
# Density = 2.566509 g / cm^3
# Si number density = 25.723643 Si / 1000 Ang^3
#
#
#
# Elastic Constant Matrix: (Units=GPa)
#
#
# Indices 1 2 3 4 5 6 
#
# 1 95.0903 11.5376 6.6557 -2.5616 -13.3716 -3.0640
# 2 11.5376 31.9567 -2.5951 -12.6806 4.7423 2.0810
# 3 6.6557 -2.5951 70.3259 -12.0494 -3.7826 -7.8902
# 4 -2.5616 -12.6806 -12.0494 49.7803 2.0991 -3.5491
# 5 -13.3716 4.7423 -3.7826 2.0991 33.6175 1.3335
# 6 -3.0640 2.0810 -7.8902 -3.5491 1.3335 40.3267
#
#
#
# Elastic Compliance Matrix: (Units=1/GPa)
#
#
# Indices 1 2 3 4 5 6 
#
# 1 0.012079 -0.005865 -0.001216 -0.001352 0.005553 0.000680
# 2 -0.005865 0.039213 0.003348 0.010798 -0.008138 -0.000595
# 3 -0.001216 0.003348 0.015660 0.004793 0.000379 0.003208
# 4 -0.001352 0.010798 0.004793 0.024241 -0.003135 0.002515
# 5 0.005553 -0.008138 0.000379 -0.003135 0.033360 -0.000463
# 6 0.000680 -0.000595 0.003208 0.002515 -0.000463 0.025744
#
#
# Mechanical properties :
#
#
# Convention : Reuss Voigt Hill
#
# Bulk Modulus (GPa) = 16.81103 25.39660 21.10381
# Shear Modulus (GPa) = 28.15438 36.86324 32.50881
#
# Velocity S-wave (km/s) = 3.31190 3.78967 3.55881
# Velocity P-wave (km/s) = 4.60156 5.38916 5.01086
#
# Compressibility (1/GPa) = 0.05948475
#
# Stress axis : x y z
#
# Youngs Moduli (GPa) = 82.78595 25.50189 63.85785
#
# Poissons Ratio (x) = 0.14956 0.07768
# Poissons Ratio (y) = 0.48553 -0.21378
# Poissons Ratio (z) = 0.10070 -0.08537
#
# Static dielectric constant tensor:
#      x y z
#    x 2.015420 -0.047870 -0.015370 
#    y -0.047870 2.087100 0.005000 
#    z -0.015370 0.005000 2.088310 
# 
# From -- ./inp_files/418846.got.cif
#   From: 2010.05.17/outbox.cif.g08.bks.cpg/sg2_210_cif.got.tgz:418846.got - 2010.06.03 11:33:40.
