data_PCOD9042690
_publ_section_title
;
Structure prediction by ZEFSAII (Michael W. Deem and Ramdas Pophale) SiO2 
 PCOD9042690
Probable space group: P -1
;
_chemical_formula_sum "Si O2"
_cell_formula_units_Z 14
_cell_length_a 11.684009
_cell_length_b 11.190267
_cell_length_c 10.031371
_cell_angle_alpha 36.633118
_cell_angle_beta 99.499433
_cell_angle_gamma 90.546915
_cell_volume 754.852724
_symmetry_space_group_name_H-M "P -1"
_symmetry_group_IT_number 2
_symmetry_cell_setting 'triclinic'
loop_
_space_group_symop_operation_xyz
x,y,z
-x,-y,-z
loop_
_atom_site_type_symbol
_atom_site_label
_atom_site_fract_x
_atom_site_fract_y
_atom_site_fract_z
Si Si1 0.895174 0.463669 0.828730
Si Si2 0.401778 0.360796 0.765748
Si Si3 0.963895 0.232319 0.325738
Si Si4 0.988192 0.764118 0.208037
Si Si5 0.265605 0.021097 0.043003
Si Si6 0.807238 0.293241 0.494758
Si Si7 0.654881 0.392629 0.738599
O O1 0.759206 0.463760 0.773206
O O2 0.931156 0.681420 0.659121
O O3 0.971286 0.340291 0.832119
O O4 0.928806 0.352003 0.075099
O O5 0.304135 0.519021 0.687819
O O6 0.536151 0.375674 0.809211
O O7 0.380109 0.446878 0.533265
O O8 0.373990 0.135762 0.974095
O O9 0.858812 0.261691 0.386196
O O10 0.000000 0.000000 0.500000
O O11 0.085397 0.665810 0.424826
O O12 0.847934 0.799858 0.177529
O O13 0.000000 0.000000 0.000000
O O14 0.232390 0.907409 0.271706
O O15 0.293354 0.832496 0.113594
#
# Coordination Sequence:
#
# PCOD9042690 Si02
#       7
#     2   2   2   2   2   2   2
#     4  11  22  40  56  85 120 152 189 235 288 340
#     4  10  20  35  58  85 115 152 187 235 282 336
#     4  11  25  38  58  83 118 155 190 235 290 345
#     4  10  17  33  59  86 115 141 183 239 288 336
#     4  10  19  32  57  86 118 145 183 237 288 337
#     4  10  21  37  56  87 115 143 195 237 287 338
#     4  10  21  36  55  86 118 148 192 230 282 343
#
# _framework density 18.546664
#
# number of rings (size 3 to 8) (size 9 to 14) (size 15 to 20)
#    0.000    1.714    4.286    3.000    2.000    2.286 
#    0.000    0.714    0.000    1.714    0.000    0.000 
#    0.000    0.000    0.000    0.000    0.000    0.000 
#
# Total GULP energy -78114.510792 kJ/mol
# GULP energy per Si atom -5579.607914 kJ/mol
# Density = 1.850445 g / cm^3
# Si number density = 18.546664 Si / 1000 Ang^3
#
#
#
# Elastic Constant Matrix: (Units=GPa)
#
#
# Indices 1 2 3 4 5 6 
#
# 1 134.1747 54.1565 30.0018 -4.2918 -8.7035 11.8436
# 2 54.1565 111.8542 41.0157 -3.5064 -12.0234 2.5103
# 3 30.0018 41.0157 55.8404 -11.7257 -12.4631 1.9366
# 4 -4.2918 -3.5064 -11.7257 28.1379 4.0446 -11.1034
# 5 -8.7035 -12.0234 -12.4631 4.0446 28.8812 -1.3293
# 6 11.8436 2.5103 1.9366 -11.1034 -1.3293 32.4814
#
#
#
# Elastic Compliance Matrix: (Units=1/GPa)
#
#
# Indices 1 2 3 4 5 6 
#
# 1 0.009849 -0.003712 -0.002700 -0.001578 0.000310 -0.003670
# 2 -0.003712 0.013904 -0.008448 -0.002568 0.001382 -0.000038
# 3 -0.002700 -0.008448 0.029359 0.011375 0.006933 0.004059
# 4 -0.001578 -0.002568 0.011375 0.046308 -0.002392 0.015828
# 5 0.000310 0.001382 0.006933 -0.002392 0.038626 0.000130
# 6 -0.003670 -0.000038 0.004059 0.015828 0.000130 0.037302
#
#
# Mechanical properties :
#
#
# Convention : Reuss Voigt Hill
#
# Bulk Modulus (GPa) = 42.74938 61.35751 52.05344
# Shear Modulus (GPa) = 23.48911 29.67979 26.58445
#
# Velocity S-wave (km/s) = 3.56263 4.00469 3.79011
# Velocity P-wave (km/s) = 6.32636 7.38498 6.87607
#
# Compressibility (1/GPa) = 0.02339215
#
# Stress axis : x y z
#
# Youngs Moduli (GPa) = 101.53779 71.92073 34.06131
#
# Poissons Ratio (x) = 0.26699 0.09196
# Poissons Ratio (y) = 0.37693 0.28774
# Poissons Ratio (z) = 0.27412 0.60757
#
# Static dielectric constant tensor:
#      x y z
#    x 1.680320 -0.002120 -0.014760 
#    y -0.002120 1.583340 -0.027010 
#    z -0.014760 -0.027010 1.672040 
# 
# From -- ./inp_files/225140.got.cif
#   From: 2010.05.17/outbox.cif.g08.bks.cpg/sg2_113_cif.got.tgz:225140.got - 2010.06.03 11:33:40.
