data_PCOD9042416
_publ_section_title
;
Structure prediction by ZEFSAII (Michael W. Deem and Ramdas Pophale) SiO2 
 PCOD9042416
Probable space group: P -1
;
_chemical_formula_sum "Si O2"
_cell_formula_units_Z 14
_cell_length_a 6.513038
_cell_length_b 20.231330
_cell_length_c 4.990324
_cell_angle_alpha 86.058015
_cell_angle_beta 106.691789
_cell_angle_gamma 117.336181
_cell_volume 557.974337
_symmetry_space_group_name_H-M "P -1"
_symmetry_group_IT_number 2
_symmetry_cell_setting 'triclinic'
loop_
_space_group_symop_operation_xyz
x,y,z
-x,-y,-z
loop_
_atom_site_type_symbol
_atom_site_label
_atom_site_fract_x
_atom_site_fract_y
_atom_site_fract_z
Si Si1 0.235439 0.298303 0.080316
Si Si2 0.701018 0.541480 0.843257
Si Si3 0.922835 0.072937 0.668232
Si Si4 0.251043 0.094643 0.282327
Si Si5 0.277667 0.812977 0.313267
Si Si6 0.839290 0.439214 0.670271
Si Si7 0.520172 0.719730 0.338811
O O1 0.423141 0.309435 0.908882
O O2 0.985108 0.253931 0.838471
O O3 0.267900 0.375798 0.193557
O O4 0.269718 0.255967 0.364125
O O5 0.653021 0.472456 0.649016
O O6 0.500000 0.500000 0.000000
O O7 0.971066 0.559086 0.038408
O O8 0.790511 0.118897 0.722341
O O9 0.058202 0.096912 0.425901
O O10 0.752831 0.984322 0.626485
O O11 0.135567 0.087336 0.952900
O O12 0.527151 0.158981 0.376576
O O13 0.437506 0.781720 0.217604
O O14 0.692134 0.352142 0.572471
O O15 0.000000 0.500000 0.500000
#
# Coordination Sequence:
#
# PCOD9042416 Si02
#       7
#     2   2   2   2   2   2   2
#     4  12  28  45  69 100 136 184 231 286 351 410
#     4  11  23  44  67  95 130 175 230 288 349 409
#     4  10  23  44  71 105 139 182 227 277 340 400
#     4  10  23  44  71 105 140 177 233 279 326 418
#     4  12  25  46  70 101 143 185 224 282 352 401
#     4  11  25  42  70  99 129 177 235 294 350 418
#     4  12  28  46  66 102 138 177 235 287 341 425
#
# _framework density 25.090761000000001
#
# number of rings (size 3 to 8) (size 9 to 14) (size 15 to 20)
#    0.000    0.857    2.857    3.000    4.000    5.714 
#    0.000    4.286    0.000    0.000    0.000    0.000 
#    0.000    0.000    0.000    0.000    0.000    0.000 
#
# Total GULP energy -77963.239855 kJ/mol
# GULP energy per Si atom -5568.802847 kJ/mol
# Density = 2.503365 g / cm^3
# Si number density = 25.090761 Si / 1000 Ang^3
#
#
#
# Elastic Constant Matrix: (Units=GPa)
#
#
# Indices 1 2 3 4 5 6 
#
# 1 95.8038 60.5801 15.4779 0.5535 -1.9641 -35.1281
# 2 60.5801 136.6223 40.1628 15.0271 -4.2996 -32.1702
# 3 15.4779 40.1628 76.0703 20.6361 -8.6075 11.5028
# 4 0.5535 15.0271 20.6361 41.2050 14.3207 12.1194
# 5 -1.9641 -4.2996 -8.6075 14.3207 38.7136 3.4455
# 6 -35.1281 -32.1702 11.5028 12.1194 3.4455 51.8717
#
#
#
# Elastic Compliance Matrix: (Units=1/GPa)
#
#
# Indices 1 2 3 4 5 6 
#
# 1 0.017271 -0.004788 -0.002694 0.000587 -0.001297 0.009273
# 2 -0.004788 0.013429 -0.005961 -0.004312 0.000863 0.007358
# 3 -0.002694 -0.005961 0.021433 -0.008715 0.007971 -0.008768
# 4 0.000587 -0.004312 -0.008715 0.038081 -0.015744 -0.008196
# 5 -0.001297 0.000863 0.007971 -0.015744 0.033516 -0.000658
# 6 0.009273 0.007358 -0.008768 -0.008196 -0.000658 0.034025
#
#
# Mechanical properties :
#
#
# Convention : Reuss Voigt Hill
#
# Bulk Modulus (GPa) = 39.60955 60.10423 49.85689
# Shear Modulus (GPa) = 25.89917 39.17642 32.53780
#
# Velocity S-wave (km/s) = 3.21630 3.95573 3.60502
# Velocity P-wave (km/s) = 5.44184 6.69854 6.10262
#
# Compressibility (1/GPa) = 0.02524643
#
# Stress axis : x y z
#
# Youngs Moduli (GPa) = 57.90006 74.46660 46.65654
#
# Poissons Ratio (x) = 0.35654 0.12571
# Poissons Ratio (y) = 0.27722 0.27812
# Poissons Ratio (z) = 0.15601 0.44390
#
# Static dielectric constant tensor:
#      x y z
#    x 1.973380 -0.003120 0.007700 
#    y -0.003120 2.045470 0.043690 
#    z 0.007700 0.043690 2.055990 
# 
# From -- ./inp_files/11474.got.cif
#   From: 2010.05.17/outbox.cif.g08.bks.cpg/sg2_6_cif.got.tgz:11474.got - 2010.06.03 11:33:40.
