data_PCOD9042183
_publ_section_title
;
Structure prediction by ZEFSAII (Michael W. Deem and Ramdas Pophale) SiO2 
 PCOD9042183
Probable space group: P -1
;
_chemical_formula_sum "Si O2"
_cell_formula_units_Z 12
_cell_length_a 19.404698
_cell_length_b 5.090686
_cell_length_c 5.252561
_cell_angle_alpha 89.543299
_cell_angle_beta 122.278236
_cell_angle_gamma 85.309778
_cell_volume 436.391274
_symmetry_space_group_name_H-M "P -1"
_symmetry_group_IT_number 2
_symmetry_cell_setting 'triclinic'
loop_
_space_group_symop_operation_xyz
x,y,z
-x,-y,-z
loop_
_atom_site_type_symbol
_atom_site_label
_atom_site_fract_x
_atom_site_fract_y
_atom_site_fract_z
Si Si1 0.172625 0.311442 0.214426
Si Si2 0.951437 0.835951 0.711401
Si Si3 0.631988 0.294570 0.796488
Si Si4 0.879493 0.195042 0.181697
Si Si5 0.672315 0.011677 0.369655
Si Si6 0.465909 0.293701 0.728424
O O1 0.097500 0.388988 0.260237
O O2 0.172930 0.535524 0.000121
O O3 0.258417 0.231128 0.518921
O O4 0.146329 0.039956 0.046845
O O5 0.881611 0.045651 0.453270
O O6 0.025033 0.746733 0.664780
O O7 0.000000 0.000000 0.000000
O O8 0.541732 0.213616 0.692053
O O9 0.605044 0.573719 0.605955
O O10 0.677537 0.131091 0.660848
O O11 0.677356 0.224680 0.153061
O O12 0.582780 0.906749 0.205218
O O13 0.500000 0.500000 0.000000
#
# Coordination Sequence:
#
# PCOD9042183 Si02
#       6
#     2   2   2   2   2   2
#     4  11  26  42  67 100 140 183 229 291 355 420
#     4   9  21  43  70 100 136 180 236 286 345 421
#     4  11  26  46  68 101 135 184 232 289 359 422
#     4  10  23  44  69  99 136 185 233 286 349 421
#     4  12  28  43  69 101 145 181 233 296 361 424
#     4  11  25  45  76 101 135 183 242 294 351 430
#
# _framework density 27.498259000000001
#
# number of rings (size 3 to 8) (size 9 to 14) (size 15 to 20)
#    0.000    1.333    1.667    1.500    9.333    8.667 
#    0.000    0.000    0.000    0.000    0.000    0.000 
#    0.000    0.000    0.000    0.000    0.000    0.000 
#
# Total GULP energy -67095.715025 kJ/mol
# GULP energy per Si atom -5591.309585 kJ/mol
# Density = 2.743567 g / cm^3
# Si number density = 27.498259 Si / 1000 Ang^3
#
#
#
# Elastic Constant Matrix: (Units=GPa)
#
#
# Indices 1 2 3 4 5 6 
#
# 1 77.9876 17.1041 34.5313 2.7799 12.9568 2.7343
# 2 17.1041 94.1291 33.9645 -11.4629 -2.8035 5.4844
# 3 34.5313 33.9645 131.7927 -40.5902 -20.1432 5.1677
# 4 2.7799 -11.4629 -40.5902 56.4805 -2.9889 5.3916
# 5 12.9568 -2.8035 -20.1432 -2.9889 50.6493 -8.9701
# 6 2.7343 5.4844 5.1677 5.3916 -8.9701 30.3764
#
#
#
# Elastic Compliance Matrix: (Units=1/GPa)
#
#
# Indices 1 2 3 4 5 6 
#
# 1 0.018397 -0.001550 -0.007914 -0.007240 -0.008594 -0.001283
# 2 -0.001550 0.011967 -0.002313 0.001012 -0.000128 -0.001845
# 3 -0.007914 -0.002313 0.015045 0.011267 0.008375 -0.000956
# 4 -0.007240 0.001012 0.011267 0.027141 0.007261 -0.004121
# 5 -0.008594 -0.000128 0.008375 0.007261 0.026754 0.005984
# 6 -0.001283 -0.001845 -0.000956 -0.004121 0.005984 0.036030
#
#
# Mechanical properties :
#
#
# Convention : Reuss Voigt Hill
#
# Bulk Modulus (GPa) = 45.75760 52.78990 49.27375
# Shear Modulus (GPa) = 30.08885 42.05521 36.07203
#
# Velocity S-wave (km/s) = 3.31147 3.91497 3.62580
# Velocity P-wave (km/s) = 5.59441 6.29882 5.95704
#
# Compressibility (1/GPa) = 0.02185429
#
# Stress axis : x y z
#
# Youngs Moduli (GPa) = 54.35541 83.56260 66.46771
#
# Poissons Ratio (x) = 0.12955 0.52601
# Poissons Ratio (y) = 0.08427 0.15377
# Poissons Ratio (z) = 0.43016 0.19332
#
# Static dielectric constant tensor:
#      x y z
#    x 2.229740 -0.102610 0.018150 
#    y -0.102610 2.141760 -0.002170 
#    z 0.018150 -0.002170 2.171430 
# 
# From -- ./inp_files/102446.got.cif
#   From: 2010.05.17/outbox.cif.g08.bks.cpg/sg2_52_cif.got.tgz:102446.got - 2010.06.03 11:33:40.
