data_PCOD9042931
_publ_section_title
;
Structure prediction by ZEFSAII (Michael W. Deem and Ramdas Pophale) SiO2 
 PCOD9042931
Probable space group: P -1
;
_chemical_formula_sum "Si O2"
_cell_formula_units_Z 12
_cell_length_a 8.894542
_cell_length_b 9.084917
_cell_length_c 9.878297
_cell_angle_alpha 115.876248
_cell_angle_beta 71.887229
_cell_angle_gamma 122.820611
_cell_volume 600.627563
_symmetry_space_group_name_H-M "P -1"
_symmetry_group_IT_number 2
_symmetry_cell_setting 'triclinic'
loop_
_space_group_symop_operation_xyz
x,y,z
-x,-y,-z
loop_
_atom_site_type_symbol
_atom_site_label
_atom_site_fract_x
_atom_site_fract_y
_atom_site_fract_z
Si Si1 0.345698 0.794781 0.433379
Si Si2 0.657948 0.449722 0.902157
Si Si3 0.521911 0.203989 0.083216
Si Si4 0.872791 0.832100 0.868035
Si Si5 0.655845 0.444093 0.409284
Si Si6 0.989379 0.828713 0.521125
O O1 0.399816 0.700144 0.260307
O O2 0.315680 0.663508 0.516987
O O3 0.170204 0.812701 0.455088
O O4 0.500000 0.000000 0.500000
O O5 0.827429 0.636679 0.875838
O O6 0.500000 0.500000 0.000000
O O7 0.665490 0.342239 0.989630
O O8 0.322792 0.179520 0.100817
O O9 0.593182 0.304554 0.245703
O O10 0.500000 0.000000 0.000000
O O11 0.949447 0.844204 0.698886
O O12 0.000000 0.000000 0.000000
O O13 0.500000 0.500000 0.500000
O O14 0.833693 0.639713 0.425559
O O15 0.000000 0.000000 0.500000
#
# Coordination Sequence:
#
# PCOD9042931 Si02
#       6
#     2   2   2   2   2   2
#     4  12  26  44  74 101 140 188 234 287 353 414
#     4  10  23  45  66  99 136 182 226 276 352 413
#     4  11  25  43  71 103 138 181 228 285 350 413
#     4  11  26  45  69 100 143 180 231 288 351 412
#     4  12  23  47  71 101 142 180 232 290 345 420
#     4  12  28  45  71 106 140 186 240 291 347 413
#
# _framework density 19.979102999999999
#
# number of rings (size 3 to 8) (size 9 to 14) (size 15 to 20)
#    0.000    0.667    3.333    3.500   11.667    0.000 
#    0.000    1.667    0.000    0.000    0.000    0.000 
#    0.000    0.000    0.000    0.000    0.000    0.000 
#
# Total GULP energy -67072.401935 kJ/mol
# GULP energy per Si atom -5589.366828 kJ/mol
# Density = 1.993363 g / cm^3
# Si number density = 19.979103 Si / 1000 Ang^3
#
#
#
# Elastic Constant Matrix: (Units=GPa)
#
#
# Indices 1 2 3 4 5 6 
#
# 1 117.9862 80.4858 41.2503 12.2459 10.6939 1.8924
# 2 80.4858 -59.0580 11.4768 0.2656 -125.1027 -49.0606
# 3 41.2503 11.4768 156.7992 19.0257 -24.0165 -16.7080
# 4 12.2459 0.2656 19.0257 45.9796 -9.6920 9.8988
# 5 10.6939 -125.1027 -24.0165 -9.6920 -37.9747 -17.4678
# 6 1.8924 -49.0606 -16.7080 9.8988 -17.4678 42.5461
#
#
#
# Elastic Compliance Matrix: (Units=1/GPa)
#
#
# Indices 1 2 3 4 5 6 
#
# 1 0.008995 -0.000775 -0.001249 -0.000830 0.005737 0.000764
# 2 -0.000775 0.003436 -0.001490 -0.001227 -0.010081 -0.000441
# 3 -0.001249 -0.001490 0.007373 -0.003155 -0.000174 0.001896
# 4 -0.000830 -0.001227 -0.003155 0.025453 0.002721 -0.007422
# 5 0.005737 -0.010081 -0.000174 0.002721 0.011519 -0.007851
# 6 0.000764 -0.000441 0.001896 -0.007422 -0.007851 0.022209
#
#
# Mechanical properties :
#
#
# Convention : Reuss Voigt Hill
#
# Bulk Modulus (GPa) = 78.26616 53.57258 65.91937
# Shear Modulus (GPa) = 55.38840 15.61118 35.49979
#
# Velocity S-wave (km/s) = 5.27099 2.79834 4.21984
# Velocity P-wave (km/s) = 8.73519 6.10848 7.53714
#
# Compressibility (1/GPa) = 0.01277691
#
# Stress axis : x y z
#
# Youngs Moduli (GPa) = 111.17453 291.00748 135.62453
#
# Poissons Ratio (x) = 0.22559 0.16937
# Poissons Ratio (y) = 0.08618 0.20205
# Poissons Ratio (z) = 0.13884 0.43353
#
# Static dielectric constant tensor:
#      x y z
#    x 1.661740 -0.007290 0.017430 
#    y -0.007290 1.692280 -0.034960 
#    z 0.017430 -0.034960 1.704920 
# 
# From -- ./inp_files/148230.got.cif
#   From: 2010.05.17/outbox.cif.g08.bks.cpg/sg2_75_cif.got.tgz:148230.got - 2010.06.03 11:33:40.
