data_PCOD9042490
_publ_section_title
;
Structure prediction by ZEFSAII (Michael W. Deem and Ramdas Pophale) SiO2 
 PCOD9042490
Probable space group: P -1
;
_chemical_formula_sum "Si O2"
_cell_formula_units_Z 16
_cell_length_a 9.527714
_cell_length_b 9.001207
_cell_length_c 13.709485
_cell_angle_alpha 85.104368
_cell_angle_beta 77.494741
_cell_angle_gamma 33.823792
_cell_volume 629.194018
_symmetry_space_group_name_H-M "P -1"
_symmetry_group_IT_number 2
_symmetry_cell_setting 'triclinic'
loop_
_space_group_symop_operation_xyz
x,y,z
-x,-y,-z
loop_
_atom_site_type_symbol
_atom_site_label
_atom_site_fract_x
_atom_site_fract_y
_atom_site_fract_z
Si Si1 0.734637 0.226473 0.172694
Si Si2 0.012571 0.210405 0.531422
Si Si3 0.439866 0.896197 0.924245
Si Si4 0.645712 0.940729 0.387111
Si Si5 0.503116 0.114668 0.776930
Si Si6 0.854834 0.418750 0.047555
Si Si7 0.195158 0.845502 0.283093
Si Si8 0.480179 0.342823 0.494292
O O1 0.471434 0.525953 0.239957
O O2 0.650056 0.146619 0.139908
O O3 0.828114 0.264650 0.075455
O O4 0.973349 0.009182 0.225512
O O5 0.915549 0.145445 0.605148
O O6 0.822252 0.428402 0.463893
O O7 0.453439 0.799086 0.610644
O O8 0.059583 0.291756 0.604582
O O9 0.573223 0.921247 0.851103
O O10 0.157815 0.190707 0.993973
O O11 0.645743 0.647800 0.983096
O O12 0.589036 0.892598 0.305692
O O13 0.500000 0.000000 0.500000
O O14 0.706291 0.074339 0.537259
O O15 0.725612 0.048573 0.738940
O O16 0.253650 0.412802 0.846600
O O17 0.500000 0.500000 0.500000
#
# Coordination Sequence:
#
# PCOD9042490 Si02
#       8
#     2   2   2   2   2   2   2   2
#     4  11  23  43  71 103 140 187 237 287 345 420
#     4  10  23  44  72 101 136 184 236 279 354 411
#     4  12  24  44  74 102 142 184 238 296 347 414
#     4  10  26  49  73 109 143 184 236 292 354 415
#     4  11  26  45  68 107 144 188 231 295 353 420
#     4  11  24  45  69 106 140 188 233 288 358 419
#     4  11  24  43  67 104 143 187 237 284 349 421
#     4  10  23  44  75  99 135 177 239 283 358 407
#
# _framework density 25.429358000000001
#
# number of rings (size 3 to 8) (size 9 to 14) (size 15 to 20)
#    0.750    0.500    0.000    5.625    3.500    2.500 
#    6.750    0.000    0.000    0.000    0.000    0.000 
#    0.000    0.000    0.000    0.000    0.000    0.000 
#
# Total GULP energy -89367.250306 kJ/mol
# GULP energy per Si atom -5585.453144 kJ/mol
# Density = 2.537148 g / cm^3
# Si number density = 25.429358 Si / 1000 Ang^3
#
#
#
# Elastic Constant Matrix: (Units=GPa)
#
#
# Indices 1 2 3 4 5 6 
#
# 1 192.7932 34.8353 67.5007 -12.2279 15.3407 10.7534
# 2 34.8353 115.6183 51.3272 -15.0042 9.2779 -31.8263
# 3 67.5007 51.3272 109.1624 -13.8880 3.9921 2.1459
# 4 -12.2279 -15.0042 -13.8880 25.0988 5.8006 10.7954
# 5 15.3407 9.2779 3.9921 5.8006 51.7935 0.0141
# 6 10.7534 -31.8263 2.1459 10.7954 0.0141 57.2830
#
#
#
# Elastic Compliance Matrix: (Units=1/GPa)
#
#
# Indices 1 2 3 4 5 6 
#
# 1 0.006973 -0.000551 -0.003648 0.002322 -0.001945 -0.001916
# 2 -0.000551 0.014098 -0.006123 0.001899 -0.002105 0.007808
# 3 -0.003648 -0.006123 0.014926 0.004471 0.000527 -0.004119
# 4 0.002322 0.001899 0.004471 0.050058 -0.006977 -0.008980
# 5 -0.001945 -0.002105 0.000527 -0.006977 0.021001 0.000485
# 6 -0.001916 0.007808 -0.004119 -0.008980 0.000485 0.024002
#
#
# Mechanical properties :
#
#
# Convention : Reuss Voigt Hill
#
# Bulk Modulus (GPa) = 65.13641 80.54448 72.84044
# Shear Modulus (GPa) = 31.88369 44.42912 38.15641
#
# Velocity S-wave (km/s) = 3.54477 4.18444 3.87781
# Velocity P-wave (km/s) = 6.51338 7.42217 6.98257
#
# Compressibility (1/GPa) = 0.01535240
#
# Stress axis : x y z
#
# Youngs Moduli (GPa) = 143.41663 70.93086 66.99731
#
# Poissons Ratio (x) = 0.03909 0.24442
# Poissons Ratio (y) = 0.07905 0.41022
# Poissons Ratio (z) = 0.52321 0.43430
#
# Static dielectric constant tensor:
#      x y z
#    x 2.100450 0.019410 0.018760 
#    y 0.019410 2.076750 -0.012240 
#    z 0.018760 -0.012240 2.055130 
# 
# From -- ./inp_files/495047.got.cif
#   From: 2010.05.17/outbox.cif.g08.bks.cpg/sg2_248_cif.got.tgz:495047.got - 2010.06.03 11:33:40.
