data_PCOD9042762
_publ_section_title
;
Structure prediction by ZEFSAII (Michael W. Deem and Ramdas Pophale) SiO2 
 PCOD9042762
Probable space group: P -1
;
_chemical_formula_sum "Si O2"
_cell_formula_units_Z 15
_cell_length_a 9.623194
_cell_length_b 18.265599
_cell_length_c 11.580718
_cell_angle_alpha 137.686904
_cell_angle_beta 111.616755
_cell_angle_gamma 35.560569
_cell_volume 640.165669
_symmetry_space_group_name_H-M "P -1"
_symmetry_group_IT_number 2
_symmetry_cell_setting 'triclinic'
loop_
_space_group_symop_operation_xyz
x,y,z
-x,-y,-z
loop_
_atom_site_type_symbol
_atom_site_label
_atom_site_fract_x
_atom_site_fract_y
_atom_site_fract_z
Si Si1 0.748274 0.757248 0.765632
Si Si2 0.389034 0.597173 0.207718
Si Si3 0.961746 0.775166 0.662201
Si Si4 0.723340 0.988242 0.460089
Si Si5 0.676617 0.639918 0.415905
Si Si6 0.379495 0.183591 0.823099
Si Si7 0.000000 0.000000 0.000000
Si Si8 0.635680 0.580087 0.827091
O O1 0.607463 0.745008 0.638571
O O2 0.965331 0.685246 0.660509
O O3 0.962533 0.588075 0.738510
O O4 0.500000 0.000000 0.000000
O O5 0.565312 0.587496 0.304855
O O6 0.424170 0.468195 0.146136
O O7 0.500000 0.500000 0.000000
O O8 0.039980 0.847790 0.391951
O O9 0.153074 0.610646 0.422764
O O10 0.621203 0.997211 0.775430
O O11 0.065189 0.827799 0.796314
O O12 0.490276 0.185701 0.529332
O O13 0.571226 0.085661 0.651892
O O14 0.798900 0.814913 0.250762
O O15 0.227123 0.392628 0.053081
O O16 0.677326 0.191849 0.060020
#
# Coordination Sequence:
#
# PCOD9042762 Si02
#       8
#     2   2   2   2   2   2   1   2
#     4  11  27  49  73 103 141 195 245 299 358 429
#     4  12  27  44  73 109 151 193 232 296 372 437
#     4  11  22  46  68 104 137 181 241 299 356 425
#     4  11  23  49  70 106 145 187 243 297 361 438
#     4  11  26  46  73 104 147 189 238 295 363 430
#     4  10  23  44  76 100 138 184 241 301 352 425
#     4  10  24  40  74  98 140 184 234 306 360 418
#     4  11  24  45  69 105 140 185 243 292 363 422
#
# _framework density 23.431435
#
# number of rings (size 3 to 8) (size 9 to 14) (size 15 to 20)
#    0.000    1.067    2.667    2.400    1.867    6.933 
#    2.400    0.000    0.000    0.000    0.000    0.000 
#    0.000    0.000    0.000    0.000    0.000    0.000 
#
# Total GULP energy -83725.637645 kJ/mol
# GULP energy per Si atom -5581.709176 kJ/mol
# Density = 2.337810 g / cm^3
# Si number density = 23.431435 Si / 1000 Ang^3
#
#
#
# Elastic Constant Matrix: (Units=GPa)
#
#
# Indices 1 2 3 4 5 6 
#
# 1 93.9780 18.8891 58.3827 -24.4889 25.4189 -0.5319
# 2 18.8891 104.9214 29.7543 11.3228 2.1659 -10.8745
# 3 58.3827 29.7543 104.5562 -5.0324 32.9933 -0.6635
# 4 -24.4889 11.3228 -5.0324 40.4461 -7.5671 13.3268
# 5 25.4189 2.1659 32.9933 -7.5671 47.7979 -7.2467
# 6 -0.5319 -10.8745 -0.6635 13.3268 -7.2467 39.8890
#
#
#
# Elastic Compliance Matrix: (Units=1/GPa)
#
#
# Indices 1 2 3 4 5 6 
#
# 1 0.021909 -0.003390 -0.009470 0.014422 -0.003628 -0.006267
# 2 -0.003390 0.012345 -0.002889 -0.007373 0.003023 0.006285
# 3 -0.009470 -0.002889 0.018004 -0.003933 -0.007997 -0.000753
# 4 0.014422 -0.007373 -0.003933 0.039973 -0.000620 -0.015351
# 5 -0.003628 0.003023 -0.007997 -0.000620 0.029065 0.006130
# 6 -0.006267 0.006285 -0.000753 -0.015351 0.006130 0.032929
#
#
# Mechanical properties :
#
#
# Convention : Reuss Voigt Hill
#
# Bulk Modulus (GPa) = 48.16947 57.50086 52.83517
# Shear Modulus (GPa) = 25.95464 38.72192 32.33828
#
# Velocity S-wave (km/s) = 3.33180 4.06958 3.71903
# Velocity P-wave (km/s) = 5.95008 6.83193 6.40620
#
# Compressibility (1/GPa) = 0.02076004
#
# Stress axis : x y z
#
# Youngs Moduli (GPa) = 45.64322 81.00273 55.54360
#
# Poissons Ratio (x) = 0.27458 0.52599
# Poissons Ratio (y) = 0.15472 0.16049
# Poissons Ratio (z) = 0.43224 0.23405
#
# Static dielectric constant tensor:
#      x y z
#    x 1.886610 0.010380 -0.025470 
#    y 0.010380 1.873480 -0.014620 
#    z -0.025470 -0.014620 1.899580 
# 
# From -- ./inp_files/403408.got.cif
#   From: 2010.05.17/outbox.cif.g08.bks.cpg/sg2_202_cif.got.tgz:403408.got - 2010.06.03 11:33:40.
