data_PCOD9042065
_publ_section_title
;
Structure prediction by ZEFSAII (Michael W. Deem and Ramdas Pophale) SiO2 
 PCOD9042065
Probable space group: P -1
;
_chemical_formula_sum "Si O2"
_cell_formula_units_Z 15
_cell_length_a 23.402534
_cell_length_b 11.298388
_cell_length_c 10.199597
_cell_angle_alpha 128.862040
_cell_angle_beta 52.791639
_cell_angle_gamma 162.958515
_cell_volume 615.283735
_symmetry_space_group_name_H-M "P -1"
_symmetry_group_IT_number 2
_symmetry_cell_setting 'triclinic'
loop_
_space_group_symop_operation_xyz
x,y,z
-x,-y,-z
loop_
_atom_site_type_symbol
_atom_site_label
_atom_site_fract_x
_atom_site_fract_y
_atom_site_fract_z
Si Si1 0.226481 0.838890 0.924275
Si Si2 0.386905 0.424595 0.762343
Si Si3 0.801095 0.263311 0.414865
Si Si4 0.836209 0.397013 0.874567
Si Si5 0.000000 0.500000 0.500000
Si Si6 0.684601 0.663472 0.902201
Si Si7 0.668455 0.371955 0.129527
Si Si8 0.586587 0.156820 0.633533
O O1 0.454887 0.239465 0.893797
O O2 0.176058 0.707436 0.751957
O O3 0.213048 0.993919 0.070160
O O4 0.127166 0.569935 0.000979
O O5 0.316297 0.416920 0.757571
O O6 0.676890 0.876099 0.385428
O O7 0.618374 0.903544 0.796381
O O8 0.298565 0.286544 0.931143
O O9 0.996677 0.625796 0.475776
O O10 0.691971 0.205724 0.548519
O O11 0.963186 0.558418 0.706128
O O12 0.831935 0.571945 0.001088
O O13 0.731514 0.585183 0.744354
O O14 0.583350 0.162616 0.244435
O O15 0.500000 0.000000 0.000000
O O16 0.500000 0.000000 0.500000
#
# Coordination Sequence:
#
# PCOD9042065 Si02
#       8
#     2   2   2   2   1   2   2   2
#     4   9  17  36  61  82 116 153 195 234 298 355
#     4   9  19  37  66  87 112 154 205 243 293 347
#     4  11  23  39  59  94 122 155 191 246 297 354
#     4  10  20  38  60  87 116 158 196 245 294 350
#     4  12  28  38  54  86 132 160 194 238 296 352
#     4   9  16  31  58  94 113 141 187 257 298 335
#     4  10  17  33  58  85 116 153 190 240 294 348
#     4  12  20  31  58  96 123 139 192 260 302 328
#
# _framework density 24.378996000000001
#
# number of rings (size 3 to 8) (size 9 to 14) (size 15 to 20)
#    0.000    1.867    5.333    2.400    0.000    2.667 
#    0.000    0.667    0.000    0.800    0.000    0.000 
#    0.000    0.000    0.000    0.000    0.000    0.000 
#
# Total GULP energy -83601.705453 kJ/mol
# GULP energy per Si atom -5573.447030 kJ/mol
# Density = 2.432351 g / cm^3
# Si number density = 24.378996 Si / 1000 Ang^3
#
#
#
# Elastic Constant Matrix: (Units=GPa)
#
#
# Indices 1 2 3 4 5 6 
#
# 1 200.7030 21.4454 72.3000 -7.1818 -25.1068 -7.0143
# 2 21.4454 58.6793 15.8521 -5.8776 -7.4202 -11.2248
# 3 72.3000 15.8521 146.8051 -11.0133 0.3648 0.4898
# 4 -7.1818 -5.8776 -11.0133 19.1413 -4.7051 -12.9277
# 5 -25.1068 -7.4202 0.3648 -4.7051 69.0141 -0.5870
# 6 -7.0143 -11.2248 0.4898 -12.9277 -0.5870 25.0738
#
#
#
# Elastic Compliance Matrix: (Units=1/GPa)
#
#
# Indices 1 2 3 4 5 6 
#
# 1 0.006718 -0.000064 -0.003001 0.004282 0.002780 0.004182
# 2 -0.000064 0.024838 -0.000927 0.024175 0.004502 0.023689
# 3 -0.003001 -0.000927 0.008662 0.003610 -0.000988 0.000414
# 4 0.004282 0.024175 0.003610 0.114618 0.012559 0.071339
# 5 0.002780 0.004502 -0.000988 0.012559 0.016929 0.009684
# 6 0.004182 0.023689 0.000414 0.071339 0.009684 0.088657
#
#
# Mechanical properties :
#
#
# Convention : Reuss Voigt Hill
#
# Bulk Modulus (GPa) = 31.02400 69.48695 50.25548
# Shear Modulus (GPa) = 17.91148 42.41851 30.16500
#
# Velocity S-wave (km/s) = 2.71349 4.17581 3.52139
# Velocity P-wave (km/s) = 4.75087 7.19823 6.09858
#
# Compressibility (1/GPa) = 0.03223310
#
# Stress axis : x y z
#
# Youngs Moduli (GPa) = 148.86314 40.26103 115.44993
#
# Poissons Ratio (x) = 0.00257 0.34647
# Poissons Ratio (y) = 0.00950 0.10704
# Poissons Ratio (z) = 0.44675 0.03733
#
# Static dielectric constant tensor:
#      x y z
#    x 2.009090 0.140090 0.019990 
#    y 0.140090 2.394630 0.170390 
#    z 0.019990 0.170390 1.957370 
# 
# From -- ./inp_files/344781.got.cif
#   From: 2010.05.17/outbox.cif.g08.bks.cpg/sg2_173_cif.got.tgz:344781.got - 2010.06.03 11:33:40.
