data_PCOD9042526
_publ_section_title
;
Structure prediction by ZEFSAII (Michael W. Deem and Ramdas Pophale) SiO2 
 PCOD9042526
Probable space group: P -1
;
_chemical_formula_sum "Si O2"
_cell_formula_units_Z 12
_cell_length_a 12.015825
_cell_length_b 14.677350
_cell_length_c 9.278858
_cell_angle_alpha 47.546379
_cell_angle_beta 36.713557
_cell_angle_gamma 30.356026
_cell_volume 493.634800
_symmetry_space_group_name_H-M "P -1"
_symmetry_group_IT_number 2
_symmetry_cell_setting 'triclinic'
loop_
_space_group_symop_operation_xyz
x,y,z
-x,-y,-z
loop_
_atom_site_type_symbol
_atom_site_label
_atom_site_fract_x
_atom_site_fract_y
_atom_site_fract_z
Si Si1 0.332386 0.178182 0.888250
Si Si2 0.772355 0.776434 0.391358
Si Si3 0.738929 0.424546 0.228035
Si Si4 0.613153 0.607454 0.888844
Si Si5 0.994986 0.125784 0.779483
Si Si6 0.805997 0.116615 0.441526
O O1 0.309980 0.162287 0.755566
O O2 0.496969 0.225694 0.676798
O O3 0.024116 0.325298 0.107167
O O4 0.500000 0.000000 0.000000
O O5 0.615354 0.738793 0.669064
O O6 0.094604 0.585853 0.255061
O O7 0.792121 0.881375 0.367357
O O8 0.500000 0.500000 0.500000
O O9 0.805030 0.262326 0.247517
O O10 0.643032 0.582088 0.057348
O O11 0.323342 0.680753 0.088291
O O12 0.082560 0.034033 0.630682
O O13 0.000000 0.000000 0.000000
O O14 0.000000 0.000000 0.500000
#
# Coordination Sequence:
#
# PCOD9042526 Si02
#       6
#     2   2   2   2   2   2
#     4  11  24  45  76 105 147 191 238 311 362 434
#     4  10  24  46  71 110 144 192 249 295 375 433
#     4  11  25  49  74 107 146 197 248 298 373 444
#     4  10  23  44  72 104 151 191 240 305 364 442
#     4  12  25  42  74 109 146 190 243 308 362 438
#     4  12  26  46  71 108 149 190 245 304 370 437
#
# _framework density 24.309467000000001
#
# number of rings (size 3 to 8) (size 9 to 14) (size 15 to 20)
#    0.000    1.000    1.667    4.500    0.000    8.667 
#    3.000    0.000    0.000    0.000    0.000    0.000 
#    0.000    0.000    0.000    0.000    0.000    0.000 
#
# Total GULP energy -67069.025653 kJ/mol
# GULP energy per Si atom -5589.085471 kJ/mol
# Density = 2.425414 g / cm^3
# Si number density = 24.309467 Si / 1000 Ang^3
#
#
#
# Elastic Constant Matrix: (Units=GPa)
#
#
# Indices 1 2 3 4 5 6 
#
# 1 159.5180 38.4953 60.2589 -2.6069 -4.7138 -14.5368
# 2 38.4953 82.2678 35.8837 5.6242 16.1735 -28.0058
# 3 60.2589 35.8837 166.1880 6.1314 -11.5660 -15.2605
# 4 -2.6069 5.6242 6.1314 47.9801 -14.2363 -3.3540
# 5 -4.7138 16.1735 -11.5660 -14.2363 50.0545 7.9520
# 6 -14.5368 -28.0058 -15.2605 -3.3540 7.9520 47.6931
#
#
#
# Elastic Compliance Matrix: (Units=1/GPa)
#
#
# Indices 1 2 3 4 5 6 
#
# 1 0.007936 -0.003450 -0.002104 0.001640 0.001920 -0.000485
# 2 -0.003450 0.021859 -0.002945 -0.004899 -0.011432 0.012404
# 3 -0.002104 -0.002945 0.007559 -0.000002 0.002560 -0.000379
# 4 0.001640 -0.004899 -0.000002 0.023996 0.008907 -0.002175
# 5 0.001920 -0.011432 0.002560 0.008907 0.028476 -0.009430
# 6 -0.000485 0.012404 -0.000379 -0.002175 -0.009430 0.029401
#
#
# Mechanical properties :
#
#
# Convention : Reuss Voigt Hill
#
# Bulk Modulus (GPa) = 49.12455 75.24996 62.18726
# Shear Modulus (GPa) = 34.96229 47.36794 41.16512
#
# Velocity S-wave (km/s) = 3.79650 4.41901 4.11953
# Velocity P-wave (km/s) = 6.28249 7.55375 6.94726
#
# Compressibility (1/GPa) = 0.02035642
#
# Stress axis : x y z
#
# Youngs Moduli (GPa) = 126.01472 45.74727 132.28501
#
# Poissons Ratio (x) = 0.15784 0.27831
# Poissons Ratio (y) = 0.43478 0.38955
# Poissons Ratio (z) = 0.26512 0.13471
#
# Static dielectric constant tensor:
#      x y z
#    x 1.912620 0.042410 -0.024560 
#    y 0.042410 2.044740 0.075880 
#    z -0.024560 0.075880 1.854070 
# 
# From -- ./inp_files/271675.got.cif
#   From: 2010.05.17/outbox.cif.g08.bks.cpg/sg2_136_cif.got.tgz:271675.got - 2010.06.03 11:33:40.
