data_PCOD9042281
_publ_section_title
;
Structure prediction by ZEFSAII (Michael W. Deem and Ramdas Pophale) SiO2 
 PCOD9042281
Probable space group: P -1
;
_chemical_formula_sum "Si O2"
_cell_formula_units_Z 16
_cell_length_a 13.919884
_cell_length_b 9.225979
_cell_length_c 5.316739
_cell_angle_alpha 75.071634
_cell_angle_beta 67.318320
_cell_angle_gamma 84.498890
_cell_volume 608.725362
_symmetry_space_group_name_H-M "P -1"
_symmetry_group_IT_number 2
_symmetry_cell_setting 'triclinic'
loop_
_space_group_symop_operation_xyz
x,y,z
-x,-y,-z
loop_
_atom_site_type_symbol
_atom_site_label
_atom_site_fract_x
_atom_site_fract_y
_atom_site_fract_z
Si Si1 0.764044 0.064904 0.190806
Si Si2 0.628658 0.315221 0.807399
Si Si3 0.136694 0.575454 0.445290
Si Si4 0.940803 0.282216 0.046766
Si Si5 0.228238 0.258471 0.411926
Si Si6 0.905728 0.912319 0.770293
Si Si7 0.452295 0.859165 0.463567
Si Si8 0.565612 0.615877 0.675336
O O1 0.844328 0.166621 0.214151
O O2 0.655722 0.150612 0.263945
O O3 0.753793 0.899001 0.392380
O O4 0.821981 0.033027 0.887194
O O5 0.750801 0.339508 0.718403
O O6 0.592646 0.164637 0.764018
O O7 0.602986 0.460630 0.585629
O O8 0.545640 0.369451 0.077888
O O9 0.070138 0.622692 0.732055
O O10 0.166327 0.401262 0.518721
O O11 0.077271 0.623695 0.229610
O O12 0.040705 0.174708 0.012017
O O13 0.159220 0.208267 0.267739
O O14 0.344874 0.327133 0.248492
O O15 0.000000 0.000000 0.500000
O O16 0.546894 0.742313 0.429413
O O17 0.500000 0.000000 0.500000
#
# Coordination Sequence:
#
# PCOD9042281 Si02
#       8
#     2   2   2   2   2   2   2   2
#     4  12  26  47  74 108 152 203 252 320 385 467
#     4  10  23  45  71 103 152 199 246 306 384 458
#     4  11  27  49  78 117 153 200 260 322 388 459
#     4  12  26  50  81 108 150 204 263 319 388 465
#     4  11  27  47  72 112 154 196 259 323 387 453
#     4  12  28  49  78 108 151 203 262 323 399 454
#     4  12  24  41  70 111 146 189 248 304 373 461
#     4  10  23  44  70 105 146 199 249 306 382 451
#
# _framework density 26.284431000000001
#
# number of rings (size 3 to 8) (size 9 to 14) (size 15 to 20)
#    0.000    0.750    3.750    2.250    5.250    2.500 
#    4.500    0.000    0.000    0.000    0.000    0.000 
#    0.000    0.000    0.000    0.000    0.000    0.000 
#
# Total GULP energy -89414.453836 kJ/mol
# GULP energy per Si atom -5588.403365 kJ/mol
# Density = 2.622461 g / cm^3
# Si number density = 26.284431 Si / 1000 Ang^3
#
#
#
# Elastic Constant Matrix: (Units=GPa)
#
#
# Indices 1 2 3 4 5 6 
#
# 1 142.8232 46.4778 7.4414 0.9854 -6.3654 15.2102
# 2 46.4778 139.1977 20.2765 4.2495 2.4755 -3.6688
# 3 7.4414 20.2765 78.1148 8.1140 -0.1146 6.5745
# 4 0.9854 4.2495 8.1140 45.6862 -0.9577 2.0322
# 5 -6.3654 2.4755 -0.1146 -0.9577 33.6432 -0.2175
# 6 15.2102 -3.6688 6.5745 2.0322 -0.2175 66.1319
#
#
#
# Elastic Compliance Matrix: (Units=1/GPa)
#
#
# Indices 1 2 3 4 5 6 
#
# 1 0.008221 -0.002853 0.000113 0.000196 0.001758 -0.002060
# 2 -0.002853 0.008498 -0.002001 -0.000458 -0.001176 0.001337
# 3 0.000113 -0.002001 0.013657 -0.002175 0.000144 -0.001427
# 4 0.000196 -0.000458 -0.002175 0.022352 0.000696 -0.000539
# 5 0.001758 -0.001176 0.000144 0.000696 0.030161 -0.000406
# 6 -0.002060 0.001337 -0.001427 -0.000539 -0.000406 0.015826
#
#
# Mechanical properties :
#
#
# Convention : Reuss Voigt Hill
#
# Bulk Modulus (GPa) = 47.86074 56.50303 52.18188
# Shear Modulus (GPa) = 43.41783 48.15491 45.78637
#
# Velocity S-wave (km/s) = 4.06870 4.28491 4.17820
# Velocity P-wave (km/s) = 6.34986 6.78410 6.57057
#
# Compressibility (1/GPa) = 0.02089395
#
# Stress axis : x y z
#
# Youngs Moduli (GPa) = 121.64581 117.67242 73.22494
#
# Poissons Ratio (x) = 0.33570 -0.00827
# Poissons Ratio (y) = 0.34704 0.14651
# Poissons Ratio (z) = -0.01375 0.23544
#
# Static dielectric constant tensor:
#      x y z
#    x 2.065750 -0.066250 0.178740 
#    y -0.066250 2.283780 -0.280260 
#    z 0.178740 -0.280260 2.548600 
# 
# From -- ./inp_files/90037.got.cif
#   From: 2010.05.17/outbox.cif.g08.bks.cpg/sg2_46_cif.got.tgz:90037.got - 2010.06.03 11:33:40.
