data_PCOD9042953
_publ_section_title
;
Structure prediction by ZEFSAII (Michael W. Deem and Ramdas Pophale) SiO2 
 PCOD9042953
Probable space group: P -1
;
_chemical_formula_sum "Si O2"
_cell_formula_units_Z 14
_cell_length_a 12.160331
_cell_length_b 20.306921
_cell_length_c 20.945527
_cell_angle_alpha 17.871056
_cell_angle_beta 150.048860
_cell_angle_gamma 159.279936
_cell_volume 547.982912
_symmetry_space_group_name_H-M "P -1"
_symmetry_group_IT_number 2
_symmetry_cell_setting 'triclinic'
loop_
_space_group_symop_operation_xyz
x,y,z
-x,-y,-z
loop_
_atom_site_type_symbol
_atom_site_label
_atom_site_fract_x
_atom_site_fract_y
_atom_site_fract_z
Si Si1 0.329925 0.608603 0.576498
Si Si2 0.163215 0.329285 0.455133
Si Si3 0.322116 0.976977 0.743981
Si Si4 0.180233 0.140297 0.180493
Si Si5 0.544293 0.901097 0.047685
Si Si6 0.421514 0.862301 0.692804
Si Si7 0.630772 0.429539 0.937448
O O1 0.337360 0.373384 0.823222
O O2 0.000000 0.500000 0.500000
O O3 0.504963 0.732993 0.481506
O O4 0.518403 0.880529 0.473438
O O5 0.500000 0.500000 0.500000
O O6 0.299189 0.524390 0.276425
O O7 0.900293 0.334602 0.327834
O O8 0.945490 0.989153 0.691527
O O9 0.958582 0.777703 0.760968
O O10 0.479408 0.025119 0.845381
O O11 0.353139 0.778613 0.902433
O O12 0.278095 0.985019 0.340019
O O13 0.500000 0.500000 0.000000
O O14 0.892873 0.047776 0.083992
O O15 0.500000 0.000000 0.000000
O O16 0.378404 0.650811 0.920112
#
# Coordination Sequence:
#
# PCOD9042953 Si02
#       7
#     2   2   2   2   2   2   2
#     4  11  27  42  69 107 140 184 237 298 366 429
#     4  10  23  45  67 102 141 186 243 291 351 438
#     4  10  23  45  70  99 134 185 237 288 355 420
#     4  11  26  42  69 102 146 189 232 297 367 427
#     4  11  24  44  71 103 140 187 241 296 354 435
#     4  11  24  44  72 101 140 189 235 300 364 433
#     4  10  23  45  71  98 138 178 240 292 351 418
#
# _framework density 25.548242999999999
#
# number of rings (size 3 to 8) (size 9 to 14) (size 15 to 20)
#    0.000    1.429    1.429    1.714    6.000    3.429 
#    5.143    0.000    0.000    0.000    0.000    0.000 
#    0.000    0.000    0.000    0.000    0.000    0.000 
#
# Total GULP energy -78180.299081 kJ/mol
# GULP energy per Si atom -5584.307077 kJ/mol
# Density = 2.549009 g / cm^3
# Si number density = 25.548243 Si / 1000 Ang^3
#
#
#
# Elastic Constant Matrix: (Units=GPa)
#
#
# Indices 1 2 3 4 5 6 
#
# 1 132.1970 39.7568 32.7549 5.7276 -4.2528 6.7116
# 2 39.7568 144.2418 49.3353 32.3320 -9.0901 32.5849
# 3 32.7549 49.3353 115.5666 13.5714 -23.9636 -0.0496
# 4 5.7276 32.3320 13.5714 61.8814 5.6045 -1.2108
# 5 -4.2528 -9.0901 -23.9636 5.6045 39.3074 11.4928
# 6 6.7116 32.5849 -0.0496 -1.2108 11.4928 33.2924
#
#
#
# Elastic Compliance Matrix: (Units=1/GPa)
#
#
# Indices 1 2 3 4 5 6 
#
# 1 0.008556 -0.002171 -0.001811 0.000848 -0.001031 0.000784
# 2 -0.002171 0.014520 -0.003227 -0.007640 0.007068 -0.016496
# 3 -0.001811 -0.003227 0.011970 -0.001300 0.006139 0.001375
# 4 0.000848 -0.007640 -0.001300 0.021370 -0.008762 0.011107
# 5 -0.001031 0.007068 0.006139 -0.008762 0.037825 -0.020077
# 6 0.000784 -0.016496 0.001375 0.011107 -0.020077 0.053361
#
#
# Mechanical properties :
#
#
# Convention : Reuss Voigt Hill
#
# Bulk Modulus (GPa) = 48.48038 70.63327 59.55683
# Shear Modulus (GPa) = 29.60381 44.90678 37.25529
#
# Velocity S-wave (km/s) = 3.40772 4.19707 3.82282
# Velocity P-wave (km/s) = 5.87372 7.15502 6.54580
#
# Compressibility (1/GPa) = 0.02062690
#
# Stress axis : x y z
#
# Youngs Moduli (GPa) = 116.87047 68.87272 83.53972
#
# Poissons Ratio (x) = 0.14953 0.15132
# Poissons Ratio (y) = 0.25373 0.26961
# Poissons Ratio (z) = 0.21169 0.22227
#
# Static dielectric constant tensor:
#      x y z
#    x 2.066780 -0.078480 0.088690 
#    y -0.078480 2.044090 -0.082260 
#    z 0.088690 -0.082260 2.074990 
# 
# From -- ./inp_files/131438.got.cif
#   From: 2010.05.17/outbox.cif.g08.bks.cpg/sg2_66_cif.got.tgz:131438.got - 2010.06.03 11:33:40.
