data_PCOD9042471
_publ_section_title
;
Structure prediction by ZEFSAII (Michael W. Deem and Ramdas Pophale) SiO2 
 PCOD9042471
Probable space group: P -1
;
_chemical_formula_sum "Si O2"
_cell_formula_units_Z 8
_cell_length_a 9.399943
_cell_length_b 7.947465
_cell_length_c 5.775231
_cell_angle_alpha 67.936629
_cell_angle_beta 107.330957
_cell_angle_gamma 79.920817
_cell_volume 361.065704
_symmetry_space_group_name_H-M "P -1"
_symmetry_group_IT_number 2
_symmetry_cell_setting 'triclinic'
loop_
_space_group_symop_operation_xyz
x,y,z
-x,-y,-z
loop_
_atom_site_type_symbol
_atom_site_label
_atom_site_fract_x
_atom_site_fract_y
_atom_site_fract_z
Si Si1 0.277387 0.083624 0.251779
Si Si2 0.019079 0.593207 0.211356
Si Si3 0.344638 0.669125 0.270556
Si Si4 0.572367 0.103885 0.175005
O O1 0.417266 0.173367 0.225247
O O2 0.323352 0.864358 0.301730
O O3 0.284102 0.055028 0.545968
O O4 0.120498 0.204259 0.985629
O O5 0.191368 0.611805 0.272538
O O6 0.000000 0.500000 0.500000
O O7 0.000000 0.500000 0.000000
O O8 0.500000 0.500000 0.500000
O O9 0.368349 0.733219 0.987551
O O10 0.500000 0.000000 0.000000
#
# Coordination Sequence:
#
# PCOD9042471 Si02
#       4
#     2   2   2   2
#     4  10  23  44  71  98 141 183 229 293 348 413
#     4  12  30  47  71 105 144 184 235 289 349 411
#     4  11  25  43  71 100 139 185 235 284 348 418
#     4   9  21  40  72 100 136 177 236 283 354 406
#
# _framework density 22.156628999999999
#
# number of rings (size 3 to 8) (size 9 to 14) (size 15 to 20)
#    0.000    1.500    0.000    2.250   21.000    2.000 
#    0.000    0.000    0.000    0.000    0.000    0.000 
#    0.000    0.000    0.000    0.000    0.000    0.000 
#
# Total GULP energy -44616.580680 kJ/mol
# GULP energy per Si atom -5577.072585 kJ/mol
# Density = 2.210620 g / cm^3
# Si number density = 22.156629 Si / 1000 Ang^3
#
#
#
# Elastic Constant Matrix: (Units=GPa)
#
#
# Indices 1 2 3 4 5 6 
#
# 1 215.5668 38.6171 112.2143 -19.8013 -3.0160 27.6996
# 2 38.6171 88.3923 43.6352 -5.6289 8.9514 -2.8436
# 3 112.2143 43.6352 230.0632 -28.1199 0.7555 -3.0243
# 4 -19.8013 -5.6289 -28.1199 34.8428 -5.6910 7.6424
# 5 -3.0160 8.9514 0.7555 -5.6910 55.0998 -7.1875
# 6 27.6996 -2.8436 -3.0243 7.6424 -7.1875 25.5047
#
#
#
# Elastic Compliance Matrix: (Units=1/GPa)
#
#
# Indices 1 2 3 4 5 6 
#
# 1 0.008677 -0.002166 -0.003449 0.004271 -0.000172 -0.011403
# 2 -0.002166 0.013259 -0.001584 -0.001459 -0.001941 0.003533
# 3 -0.003449 -0.001584 0.006677 0.002451 0.000730 0.003832
# 4 0.004271 -0.001459 0.002451 0.036489 0.002275 -0.014803
# 5 -0.000172 -0.001941 0.000730 0.002275 0.019308 0.004817
# 6 -0.011403 0.003533 0.003832 -0.014803 0.004817 0.058234
#
#
# Mechanical properties :
#
#
# Convention : Reuss Voigt Hill
#
# Bulk Modulus (GPa) = 70.34516 102.55062 86.44789
# Shear Modulus (GPa) = 30.90619 45.72651 38.31635
#
# Velocity S-wave (km/s) = 3.73888 4.54782 4.16305
# Velocity P-wave (km/s) = 7.10331 8.60010 7.88729
#
# Compressibility (1/GPa) = 0.01421562
#
# Stress axis : x y z
#
# Youngs Moduli (GPa) = 115.24062 75.42301 149.77042
#
# Poissons Ratio (x) = 0.16336 0.51656
# Poissons Ratio (y) = 0.24959 0.23721
# Poissons Ratio (z) = 0.39746 0.11946
#
# Static dielectric constant tensor:
#      x y z
#    x 1.886120 -0.133080 -0.151220 
#    y -0.133080 1.954560 0.160270 
#    z -0.151220 0.160270 2.084030 
# 
# From -- ./inp_files/15251.got.cif
#   From: 2010.05.17/outbox.cif.g08.bks.cpg/sg2_8_cif.got.tgz:15251.got - 2010.06.03 11:33:40.
