data_PCOD9042711
_publ_section_title
;
Structure prediction by ZEFSAII (Michael W. Deem and Ramdas Pophale) SiO2 
 PCOD9042711
Probable space group: P -1
;
_chemical_formula_sum "Si O2"
_cell_formula_units_Z 16
_cell_length_a 9.295193
_cell_length_b 10.141412
_cell_length_c 12.004297
_cell_angle_alpha 118.462885
_cell_angle_beta 100.640738
_cell_angle_gamma 40.002756
_cell_volume 606.027444
_symmetry_space_group_name_H-M "P -1"
_symmetry_group_IT_number 2
_symmetry_cell_setting 'triclinic'
loop_
_space_group_symop_operation_xyz
x,y,z
-x,-y,-z
loop_
_atom_site_type_symbol
_atom_site_label
_atom_site_fract_x
_atom_site_fract_y
_atom_site_fract_z
Si Si1 0.596044 0.442760 0.364967
Si Si2 0.255540 0.133437 0.068327
Si Si3 0.472045 0.723352 0.082960
Si Si4 0.109831 0.290004 0.513771
Si Si5 0.897131 0.241492 0.622980
Si Si6 0.996360 0.064772 0.899902
Si Si7 0.430614 0.254993 0.665882
Si Si8 0.101470 0.537072 0.118844
O O1 0.500000 0.500000 0.500000
O O2 0.835398 0.167474 0.251114
O O3 0.377909 0.552146 0.306626
O O4 0.598775 0.610661 0.388605
O O5 0.306321 0.999764 0.133589
O O6 0.133679 0.392217 0.166588
O O7 0.119888 0.128447 0.962210
O O8 0.500000 0.000000 0.000000
O O9 0.280958 0.745035 0.087386
O O10 0.622316 0.621356 0.176195
O O11 0.662711 0.588045 0.956436
O O12 0.920573 0.334210 0.559924
O O13 0.000000 0.500000 0.500000
O O14 0.266495 0.248581 0.611839
O O15 0.694936 0.983191 0.614323
O O16 0.000000 0.000000 0.500000
O O17 0.015790 0.224732 0.741211
O O18 0.000000 0.000000 0.000000
O O19 0.000000 0.500000 0.000000
#
# Coordination Sequence:
#
# PCOD9042711 Si02
#       8
#     2   2   2   2   2   2   2   2
#     4  12  27  47  75 112 163 217 271 337 420 505
#     4   9  20  43  68 108 147 201 266 333 402 479
#     4  10  23  44  74 109 154 200 268 351 399 491
#     4  11  26  49  78 110 158 218 269 339 412 504
#     4  12  26  49  75 112 162 209 267 333 417 500
#     4  10  23  45  75 111 152 210 269 340 413 487
#     4  11  26  48  74 116 155 208 284 331 416 503
#     4  11  25  46  75 114 152 211 271 344 409 493
#
# _framework density 26.401441999999999
#
# number of rings (size 3 to 8) (size 9 to 14) (size 15 to 20)
#    0.000    1.250    1.250    3.750    5.250    5.000 
#    9.000    5.000    0.000    0.000    0.000    0.000 
#    0.000    0.000    0.000    0.000    0.000    0.000 
#
# Total GULP energy -89374.746277 kJ/mol
# GULP energy per Si atom -5585.921642 kJ/mol
# Density = 2.634135 g / cm^3
# Si number density = 26.401442 Si / 1000 Ang^3
#
#
#
# Elastic Constant Matrix: (Units=GPa)
#
#
# Indices 1 2 3 4 5 6 
#
# 1 187.6496 45.1340 52.0424 25.5798 9.5483 4.8537
# 2 45.1340 124.4653 43.5976 18.2365 -6.8564 29.7606
# 3 52.0424 43.5976 174.5148 11.1648 0.6954 1.7563
# 4 25.5798 18.2365 11.1648 40.1409 -6.4776 -1.3056
# 5 9.5483 -6.8564 0.6954 -6.4776 45.0583 3.1885
# 6 4.8537 29.7606 1.7563 -1.3056 3.1885 60.8184
#
#
#
# Elastic Compliance Matrix: (Units=1/GPa)
#
#
# Indices 1 2 3 4 5 6 
#
# 1 0.006673 -0.001640 -0.001353 -0.003469 -0.002166 0.000348
# 2 -0.001640 0.011269 -0.002064 -0.003357 0.002001 -0.005501
# 3 -0.001353 -0.002064 0.006644 -0.000050 -0.000203 0.000936
# 4 -0.003469 -0.003357 -0.000050 0.029430 0.004291 0.002328
# 5 -0.002166 0.002001 -0.000203 0.004291 0.023715 -0.001952
# 6 0.000348 -0.005501 0.000936 0.002328 -0.001952 0.019232
#
#
# Mechanical properties :
#
#
# Convention : Reuss Voigt Hill
#
# Bulk Modulus (GPa) = 69.10051 85.35308 77.22679
# Shear Modulus (GPa) = 44.68196 52.26057 48.47127
#
# Velocity S-wave (km/s) = 4.11835 4.45394 4.28943
# Velocity P-wave (km/s) = 6.98886 7.67132 7.33803
#
# Compressibility (1/GPa) = 0.01447167
#
# Stress axis : x y z
#
# Youngs Moduli (GPa) = 149.85879 88.73518 150.51228
#
# Poissons Ratio (x) = 0.14553 0.20367
# Poissons Ratio (y) = 0.24578 0.31068
# Poissons Ratio (z) = 0.20278 0.18316
#
# Static dielectric constant tensor:
#      x y z
#    x 2.060600 -0.041890 0.027640 
#    y -0.041890 2.249380 0.017500 
#    z 0.027640 0.017500 2.138880 
# 
# From -- ./inp_files/493467.got.cif
#   From: 2010.05.17/outbox.cif.g08.bks.cpg/sg2_247_cif.got.tgz:493467.got - 2010.06.03 11:33:40.
