data_PCOD9042801
_publ_section_title
;
Structure prediction by ZEFSAII (Michael W. Deem and Ramdas Pophale) SiO2 
 PCOD9042801
Probable space group: P -1
;
_chemical_formula_sum "Si O2"
_cell_formula_units_Z 12
_cell_length_a 14.389885
_cell_length_b 9.810073
_cell_length_c 17.893113
_cell_angle_alpha 39.787052
_cell_angle_beta 157.844063
_cell_angle_gamma 139.431484
_cell_volume 597.446897
_symmetry_space_group_name_H-M "P -1"
_symmetry_group_IT_number 2
_symmetry_cell_setting 'triclinic'
loop_
_space_group_symop_operation_xyz
x,y,z
-x,-y,-z
loop_
_atom_site_type_symbol
_atom_site_label
_atom_site_fract_x
_atom_site_fract_y
_atom_site_fract_z
Si Si1 0.196381 0.352517 0.468132
Si Si2 0.962571 0.098366 0.543721
Si Si3 0.728130 0.449004 0.278012
Si Si4 0.713262 0.423808 0.023334
Si Si5 0.330233 0.111426 0.952643
Si Si6 0.731650 0.376578 0.879159
O O1 0.487301 0.462034 0.632672
O O2 0.137998 0.250459 0.550269
O O3 0.991057 0.494273 0.234187
O O4 0.136100 0.141248 0.459194
O O5 0.738005 0.228192 0.336097
O O6 0.121742 0.084242 0.742796
O O7 0.404486 0.807081 0.926698
O O8 0.000000 0.500000 0.500000
O O9 0.494378 0.437399 0.165385
O O10 0.287106 0.328763 0.872232
O O11 0.725264 0.391785 0.957884
O O12 0.309448 0.875810 0.069880
O O13 0.000000 0.500000 0.000000
#
# Coordination Sequence:
#
# PCOD9042801 Si02
#       6
#     2   2   2   2   2   2
#     4  11  21  32  58  86 110 138 187 226 272 319
#     4  10  17  33  59  90 109 135 178 234 273 321
#     4   8  17  31  58  85 112 138 171 225 289 312
#     4  10  20  37  59  81 112 137 185 233 266 316
#     4   9  17  35  57  81 110 141 177 226 268 319
#     4  12  23  37  54  79 114 150 184 224 270 322
#
# _framework density 20.085467999999999
#
# number of rings (size 3 to 8) (size 9 to 14) (size 15 to 20)
#    1.000    1.000    3.333    2.500    0.000    1.333 
#    0.000    0.000    0.000   10.000    0.000    0.000 
#    0.000    0.000    0.000    0.000    0.000    0.000 
#
# Total GULP energy -66879.930531 kJ/mol
# GULP energy per Si atom -5573.327544 kJ/mol
# Density = 2.003975 g / cm^3
# Si number density = 20.085468 Si / 1000 Ang^3
#
#
#
# Elastic Constant Matrix: (Units=GPa)
#
#
# Indices 1 2 3 4 5 6 
#
# 1 41.0163 22.7459 22.6412 -0.9178 23.2024 -8.4661
# 2 22.7459 39.6899 26.1582 10.1520 21.4609 1.4320
# 3 22.6412 26.1582 167.8516 15.0841 22.1628 4.7305
# 4 -0.9178 10.1520 15.0841 32.4004 -2.1104 12.0212
# 5 23.2024 21.4609 22.1628 -2.1104 34.2899 -0.0608
# 6 -8.4661 1.4320 4.7305 12.0212 -0.0608 13.8825
#
#
#
# Elastic Compliance Matrix: (Units=1/GPa)
#
#
# Indices 1 2 3 4 5 6 
#
# 1 0.063027 -0.015600 -0.002022 -0.014076 -0.032350 0.052781
# 2 -0.015600 0.051269 -0.001474 -0.017518 -0.021656 0.000775
# 3 -0.002022 -0.001474 0.007046 -0.002561 -0.002424 -0.001275
# 4 -0.014076 -0.017518 -0.002561 0.060367 0.025756 -0.058064
# 5 -0.032350 -0.021656 -0.002424 0.025756 0.067690 -0.038675
# 6 0.052781 0.000775 -0.001275 -0.058064 -0.038675 0.154686
#
#
# Mechanical properties :
#
#
# Convention : Reuss Voigt Hill
#
# Bulk Modulus (GPa) = 12.02610 43.51648 27.77129
# Shear Modulus (GPa) = 10.63845 27.91540 19.27693
#
# Velocity S-wave (km/s) = 2.30393 3.73209 3.10134
# Velocity P-wave (km/s) = 3.61634 6.34697 5.16536
#
# Compressibility (1/GPa) = 0.08315249
#
# Stress axis : x y z
#
# Youngs Moduli (GPa) = 15.86616 19.50479 141.92308
#
# Poissons Ratio (x) = 0.30427 0.28692
# Poissons Ratio (y) = 0.24751 0.20916
# Poissons Ratio (z) = 0.03208 0.02875
#
# Static dielectric constant tensor:
#      x y z
#    x 1.746370 -0.056730 -0.025310 
#    y -0.056730 1.714230 -0.006000 
#    z -0.025310 -0.006000 1.830570 
# 
# From -- ./inp_files/220475.got.cif
#   From: 2010.05.17/outbox.cif.g08.bks.cpg/sg2_111_cif.got.tgz:220475.got - 2010.06.03 11:33:40.
