data_PCOD9042044
_publ_section_title
;
Structure prediction by ZEFSAII (Michael W. Deem and Ramdas Pophale) SiO2 
 PCOD9042044
Probable space group: P -1
;
_chemical_formula_sum "Si O2"
_cell_formula_units_Z 16
_cell_length_a 19.765497
_cell_length_b 5.561854
_cell_length_c 10.655766
_cell_angle_alpha 62.020456
_cell_angle_beta 140.516151
_cell_angle_gamma 123.670131
_cell_volume 618.016658
_symmetry_space_group_name_H-M "P -1"
_symmetry_group_IT_number 2
_symmetry_cell_setting 'triclinic'
loop_
_space_group_symop_operation_xyz
x,y,z
-x,-y,-z
loop_
_atom_site_type_symbol
_atom_site_label
_atom_site_fract_x
_atom_site_fract_y
_atom_site_fract_z
Si Si1 0.777765 0.557614 0.796026
Si Si2 0.019767 0.633580 0.857020
Si Si3 0.376496 0.850889 0.525333
Si Si4 0.373426 0.349160 0.225654
Si Si5 0.547072 0.056084 0.912248
Si Si6 0.856079 0.813083 0.208902
Si Si7 0.189591 0.858250 0.705812
Si Si8 0.174101 0.883718 0.393451
O O1 0.706418 0.415183 0.606314
O O2 0.687488 0.543997 0.775033
O O3 0.854520 0.882383 0.790334
O O4 0.862151 0.403770 0.003395
O O5 0.915815 0.433971 0.677008
O O6 0.050667 0.974885 0.801925
O O7 0.000000 0.500000 0.000000
O O8 0.294268 0.901960 0.502278
O O9 0.412359 0.108744 0.409345
O O10 0.480013 0.835441 0.760830
O O11 0.460573 0.634348 0.219512
O O12 0.269792 0.219994 0.013187
O O13 0.677454 0.079284 0.091409
O O14 0.500000 0.000000 0.000000
O O15 0.863313 0.492989 0.292786
O O16 0.864361 0.977597 0.313332
O O17 0.185071 0.968736 0.532018
#
# Coordination Sequence:
#
# PCOD9042044 Si02
#       8
#     2   2   2   2   2   2   2   2
#     4  11  23  43  70 102 142 180 238 297 356 415
#     4  12  22  42  73 103 136 183 238 296 359 410
#     4  11  22  44  67 103 138 181 240 288 359 415
#     4  10  23  44  69 100 141 180 233 301 350 427
#     4  11  23  43  71  99 139 189 237 289 361 420
#     4  11  25  47  74 102 144 188 235 293 357 425
#     4  11  27  49  70 102 149 189 234 290 357 434
#     4  11  25  42  69 102 142 186 234 294 348 427
#
# _framework density 25.88927
#
# number of rings (size 3 to 8) (size 9 to 14) (size 15 to 20)
#    0.000    1.000    3.750    3.000    1.750    2.500 
#    9.000    3.125    0.000    0.000    0.000    0.000 
#    0.000    0.000    0.000    0.000    0.000    0.000 
#
# Total GULP energy -89675.887628 kJ/mol
# GULP energy per Si atom -5604.742977 kJ/mol
# Density = 2.583034 g / cm^3
# Si number density = 25.889270 Si / 1000 Ang^3
#
#
#
# Elastic Constant Matrix: (Units=GPa)
#
#
# Indices 1 2 3 4 5 6 
#
# 1 130.9072 54.4632 31.3145 -6.8634 -24.4473 -5.0197
# 2 54.4632 115.9247 30.0451 8.4333 -5.5243 20.0688
# 3 31.3145 30.0451 95.4639 10.1062 -9.3724 3.9858
# 4 -6.8634 8.4333 10.1062 26.0602 -1.2267 -3.2216
# 5 -24.4473 -5.5243 -9.3724 -1.2267 53.5880 -1.5223
# 6 -5.0197 20.0688 3.9858 -3.2216 -1.5223 35.4328
#
#
#
# Elastic Compliance Matrix: (Units=1/GPa)
#
#
# Indices 1 2 3 4 5 6 
#
# 1 0.012685 -0.006779 -0.002631 0.007636 0.004997 0.006842
# 2 -0.006779 0.014232 -0.001319 -0.007177 -0.002294 -0.009624
# 3 -0.002631 -0.001319 0.012436 -0.005239 0.000677 -0.001472
# 4 0.007636 -0.007177 -0.005239 0.046132 0.003169 0.010067
# 5 0.004997 -0.002294 0.000677 0.003169 0.020984 0.003121
# 6 0.006842 -0.009624 -0.001472 0.010067 0.003121 0.035858
#
#
# Mechanical properties :
#
#
# Convention : Reuss Voigt Hill
#
# Bulk Modulus (GPa) = 55.88329 63.77127 59.82728
# Shear Modulus (GPa) = 29.45530 38.11439 33.78484
#
# Velocity S-wave (km/s) = 3.37670 3.84110 3.61636
# Velocity P-wave (km/s) = 6.06920 6.66017 6.37154
#
# Compressibility (1/GPa) = 0.01789444
#
# Stress axis : x y z
#
# Youngs Moduli (GPa) = 78.83485 70.26316 80.41353
#
# Poissons Ratio (x) = 0.47635 0.21154
# Poissons Ratio (y) = 0.53446 0.10607
# Poissons Ratio (z) = 0.20738 0.09268
#
# Static dielectric constant tensor:
#      x y z
#    x 2.027220 -0.034340 0.035400 
#    y -0.034340 2.051330 -0.007340 
#    z 0.035400 -0.007340 2.038040 
# 
# From -- ./inp_files/468297.got.cif
#   From: 2010.05.17/outbox.cif.g08.bks.cpg/sg2_235_cif.got.tgz:468297.got - 2010.06.03 11:33:40.
