data_PCOD9042728
_publ_section_title
;
Structure prediction by ZEFSAII (Michael W. Deem and Ramdas Pophale) SiO2 
 PCOD9042728
Probable space group: P -1
;
_chemical_formula_sum "Si O2"
_cell_formula_units_Z 16
_cell_length_a 5.747946
_cell_length_b 10.003871
_cell_length_c 15.299352
_cell_angle_alpha 111.727649
_cell_angle_beta 79.567490
_cell_angle_gamma 90.038742
_cell_volume 801.604287
_symmetry_space_group_name_H-M "P -1"
_symmetry_group_IT_number 2
_symmetry_cell_setting 'triclinic'
loop_
_space_group_symop_operation_xyz
x,y,z
-x,-y,-z
loop_
_atom_site_type_symbol
_atom_site_label
_atom_site_fract_x
_atom_site_fract_y
_atom_site_fract_z
Si Si1 0.638466 0.935850 0.559287
Si Si2 0.070689 0.931670 0.298300
Si Si3 0.245852 0.778366 0.613861
Si Si4 0.305929 0.854655 0.890194
Si Si5 0.369721 0.587241 0.709759
Si Si6 0.193634 0.993559 0.114825
Si Si7 0.854831 0.701790 0.359641
Si Si8 0.186671 0.547326 0.426510
O O1 0.474028 0.870543 0.627936
O O2 0.792160 0.802836 0.472612
O O3 0.500000 0.000000 0.500000
O O4 0.756759 0.066289 0.629638
O O5 0.895654 0.810054 0.304426
O O6 0.169410 0.916309 0.190868
O O7 0.959917 0.096713 0.351919
O O8 0.202128 0.673202 0.670975
O O9 0.293493 0.680039 0.501834
O O10 0.346765 0.687412 0.819822
O O11 0.565151 0.919201 0.872510
O O12 0.068277 0.922938 0.869820
O O13 0.243953 0.888350 0.003327
O O14 0.318425 0.421085 0.683058
O O15 0.620298 0.579989 0.640561
O O16 0.080710 0.604851 0.356511
O O17 0.000000 0.500000 0.500000
#
# Coordination Sequence:
#
# PCOD9042728 Si02
#       8
#     2   2   2   2   2   2   2   2
#     4  12  23  39  59  89 131 175 225 269 323 395
#     4  12  25  39  66  91 131 172 225 276 333 391
#     4  12  22  38  60  89 123 172 220 270 323 389
#     4  10  23  44  75 101 131 169 224 292 340 399
#     4  12  25  39  63  94 131 173 217 273 342 398
#     4  10  23  46  71 105 129 166 231 288 342 395
#     4  12  25  39  55  92 132 175 213 267 333 406
#     4  12  24  38  57  90 134 174 220 269 325 407
#
# _framework density 19.959973999999999
#
# number of rings (size 3 to 8) (size 9 to 14) (size 15 to 20)
#    0.000    0.500    6.250    3.000    3.500    0.000 
#    0.000    0.625    0.000    0.750    0.000    0.000 
#    0.000    0.000    0.000    0.000    0.000    0.000 
#
# Total GULP energy -89179.590761 kJ/mol
# GULP energy per Si atom -5573.724423 kJ/mol
# Density = 1.991454 g / cm^3
# Si number density = 19.959974 Si / 1000 Ang^3
#
#
#
# Elastic Constant Matrix: (Units=GPa)
#
#
# Indices 1 2 3 4 5 6 
#
# 1 76.0465 26.2596 32.5112 1.0272 1.5393 7.4354
# 2 26.2596 91.3174 40.3471 -2.4987 -1.5718 7.8539
# 3 32.5112 40.3471 125.9286 3.7947 0.3884 9.7130
# 4 1.0272 -2.4987 3.7947 27.6757 0.3625 0.6407
# 5 1.5393 -1.5718 0.3884 0.3625 18.7696 -3.7386
# 6 7.4354 7.8539 9.7130 0.6407 -3.7386 30.7294
#
#
#
# Elastic Compliance Matrix: (Units=1/GPa)
#
#
# Indices 1 2 3 4 5 6 
#
# 1 0.015718 -0.003096 -0.002868 -0.000390 -0.001946 -0.002334
# 2 -0.003096 0.013586 -0.003495 0.001841 0.001126 -0.001520
# 3 -0.002868 -0.003495 0.009973 -0.001532 -0.000553 -0.001600
# 4 -0.000390 0.001841 -0.001532 0.036549 -0.000634 -0.000731
# 5 -0.001946 0.001126 -0.000553 -0.000634 0.054961 0.007058
# 6 -0.002334 -0.001520 -0.001600 -0.000731 0.007058 0.034875
#
#
# Mechanical properties :
#
#
# Convention : Reuss Voigt Hill
#
# Bulk Modulus (GPa) = 49.12200 54.61424 51.86812
# Shear Modulus (GPa) = 26.12788 28.37993 27.25390
#
# Velocity S-wave (km/s) = 3.62195 3.77482 3.69918
# Velocity P-wave (km/s) = 6.49270 6.81325 6.65490
#
# Compressibility (1/GPa) = 0.02035748
#
# Stress axis : x y z
#
# Youngs Moduli (GPa) = 63.62115 73.60542 100.27405
#
# Poissons Ratio (x) = 0.22789 0.28760
# Poissons Ratio (y) = 0.19698 0.35049
# Poissons Ratio (z) = 0.18248 0.25727
#
# Static dielectric constant tensor:
#      x y z
#    x 1.895930 -0.006010 0.019690 
#    y -0.006010 1.745320 0.010420 
#    z 0.019690 0.010420 1.683290 
# 
# From -- ./inp_files/38041.got.cif
#   From: 2010.05.17/outbox.cif.g08.bks.cpg/sg2_20_cif.got.tgz:38041.got - 2010.06.03 11:33:40.
