data_PCOD9042499
_publ_section_title
;
Structure prediction by ZEFSAII (Michael W. Deem and Ramdas Pophale) SiO2 
 PCOD9042499
Probable space group: P -1
;
_chemical_formula_sum "Si O2"
_cell_formula_units_Z 16
_cell_length_a 14.377857
_cell_length_b 8.959518
_cell_length_c 11.161713
_cell_angle_alpha 53.594983
_cell_angle_beta 108.931608
_cell_angle_gamma 140.282241
_cell_volume 714.678744
_symmetry_space_group_name_H-M "P -1"
_symmetry_group_IT_number 2
_symmetry_cell_setting 'triclinic'
loop_
_space_group_symop_operation_xyz
x,y,z
-x,-y,-z
loop_
_atom_site_type_symbol
_atom_site_label
_atom_site_fract_x
_atom_site_fract_y
_atom_site_fract_z
Si Si1 0.885205 0.184600 0.166926
Si Si2 0.380009 0.825287 0.637571
Si Si3 0.112684 0.490181 0.315689
Si Si4 0.230884 0.424087 0.955821
Si Si5 0.061683 0.833291 0.177414
Si Si6 0.887658 0.754623 0.340847
Si Si7 0.650192 0.304733 0.866981
Si Si8 0.567478 0.784220 0.342231
O O1 0.955468 0.255953 0.293132
O O2 0.885073 0.972534 0.218130
O O3 0.710936 0.989508 0.212617
O O4 0.000000 0.500000 0.000000
O O5 0.381357 0.695878 0.817218
O O6 0.241348 0.539073 0.644495
O O7 0.500000 0.000000 0.500000
O O8 0.380152 0.021154 0.612871
O O9 0.111769 0.693922 0.273870
O O10 0.124231 0.337896 0.485628
O O11 0.240075 0.660015 0.186308
O O12 0.087310 0.342834 0.885374
O O13 0.259209 0.497609 0.072470
O O14 0.188131 0.154470 0.031192
O O15 0.030243 0.871053 0.277828
O O16 0.577867 0.346385 0.725739
O O17 0.500000 0.000000 0.000000
O O18 0.500000 0.500000 0.500000
#
# Coordination Sequence:
#
# PCOD9042499 Si02
#       8
#     2   2   2   2   2   2   2   2
#     4  12  27  45  77 114 145 198 253 306 374 445
#     4  11  23  44  69  96 147 194 233 294 379 443
#     4  12  26  43  75 110 145 193 250 304 372 441
#     4  10  23  44  72 101 148 189 243 313 364 436
#     4  10  24  44  74 109 145 186 246 306 381 434
#     4  11  25  45  73 107 149 186 245 310 370 438
#     4  12  25  46  70 104 150 192 247 307 364 437
#     4  12  27  49  74 109 152 199 249 305 379 451
#
# _framework density 22.387681000000001
#
# number of rings (size 3 to 8) (size 9 to 14) (size 15 to 20)
#    0.000    0.750    1.250    6.000    8.750    2.000 
#    2.250    1.875    0.000    0.000    0.000    0.000 
#    0.000    0.000    0.000    0.000    0.000    0.000 
#
# Total GULP energy -89217.295051 kJ/mol
# GULP energy per Si atom -5576.080941 kJ/mol
# Density = 2.233673 g / cm^3
# Si number density = 22.387681 Si / 1000 Ang^3
#
#
#
# Elastic Constant Matrix: (Units=GPa)
#
#
# Indices 1 2 3 4 5 6 
#
# 1 118.7720 35.8141 61.3101 -8.4145 -13.7963 -11.7625
# 2 35.8141 103.7584 54.6047 -16.3645 -0.7633 -18.4064
# 3 61.3101 54.6047 114.0950 -26.0314 -0.3953 -20.2539
# 4 -8.4145 -16.3645 -26.0314 44.3836 -2.5603 1.1874
# 5 -13.7963 -0.7633 -0.3953 -2.5603 39.0678 0.0114
# 6 -11.7625 -18.4064 -20.2539 1.1874 0.0114 34.9150
#
#
#
# Elastic Compliance Matrix: (Units=1/GPa)
#
#
# Indices 1 2 3 4 5 6 
#
# 1 0.012509 -0.001109 -0.006575 -0.001647 0.004221 -0.000130
# 2 -0.001109 0.013511 -0.004743 0.001881 -0.000054 0.003934
# 3 -0.006575 -0.004743 0.016964 0.006719 -0.001804 0.004897
# 4 -0.001647 0.001881 0.006719 0.026835 0.001281 0.003422
# 5 0.004221 -0.000054 -0.001804 0.001281 0.027152 0.000295
# 6 -0.000130 0.003934 0.004897 0.003422 0.000295 0.033395
#
#
# Mechanical properties :
#
#
# Convention : Reuss Voigt Hill
#
# Bulk Modulus (GPa) = 55.15951 71.12037 63.13994
# Shear Modulus (GPa) = 31.00530 35.99972 33.50251
#
# Velocity S-wave (km/s) = 3.72550 4.01436 3.87262
# Velocity P-wave (km/s) = 6.57249 7.30228 6.94698
#
# Compressibility (1/GPa) = 0.01812924
#
# Stress axis : x y z
#
# Youngs Moduli (GPa) = 79.94391 74.01539 58.94920
#
# Poissons Ratio (x) = 0.08209 0.38760
# Poissons Ratio (y) = 0.08867 0.27958
# Poissons Ratio (z) = 0.52564 0.35104
#
# Static dielectric constant tensor:
#      x y z
#    x 1.937690 0.173230 0.002530 
#    y 0.173230 2.630400 0.202420 
#    z 0.002530 0.202420 2.039770 
# 
# From -- ./inp_files/446815.got.cif
#   From: 2010.05.17/outbox.cif.g08.bks.cpg/sg2_224_cif.got.tgz:446815.got - 2010.06.03 11:33:40.
