data_PCOD9042676
_publ_section_title
;
Structure prediction by ZEFSAII (Michael W. Deem and Ramdas Pophale) SiO2 
 PCOD9042676
Probable space group: P -1
;
_chemical_formula_sum "Si O2"
_cell_formula_units_Z 12
_cell_length_a 12.792894
_cell_length_b 8.772001
_cell_length_c 7.689178
_cell_angle_alpha 86.319049
_cell_angle_beta 38.085514
_cell_angle_gamma 70.840492
_cell_volume 474.047195
_symmetry_space_group_name_H-M "P -1"
_symmetry_group_IT_number 2
_symmetry_cell_setting 'triclinic'
loop_
_space_group_symop_operation_xyz
x,y,z
-x,-y,-z
loop_
_atom_site_type_symbol
_atom_site_label
_atom_site_fract_x
_atom_site_fract_y
_atom_site_fract_z
Si Si1 0.928068 0.447137 0.768994
Si Si2 0.694534 0.038912 0.386053
Si Si3 0.436088 0.594570 0.891867
Si Si4 0.663781 0.698568 0.345803
Si Si5 0.171590 0.978918 0.156098
Si Si6 0.727141 0.906892 0.689872
O O1 0.000000 0.500000 0.500000
O O2 0.113382 0.271845 0.584466
O O3 0.736324 0.430352 0.969513
O O4 0.860310 0.583835 0.002168
O O5 0.652955 0.872690 0.433297
O O6 0.754435 0.035065 0.506293
O O7 0.509730 0.214406 0.571519
O O8 0.832690 0.018654 0.044688
O O9 0.613881 0.571673 0.540448
O O10 0.500000 0.500000 0.000000
O O11 0.339236 0.800403 0.014326
O O12 0.219277 0.118804 0.173331
O O13 0.000000 0.000000 0.500000
O O14 0.500000 0.000000 0.000000
#
# Coordination Sequence:
#
# PCOD9042676 Si02
#       6
#     2   2   2   2   2   2
#     4  12  26  43  70 107 140 183 238 285 346 427
#     4  10  23  44  74 100 138 190 225 292 353 408
#     4  11  26  45  70 102 144 185 222 294 357 406
#     4  10  23  47  69 101 143 176 242 288 340 424
#     4  11  24  47  69 103 142 177 242 289 338 426
#     4  12  25  44  74 101 136 192 235 284 354 406
#
# _framework density 25.313936000000002
#
# number of rings (size 3 to 8) (size 9 to 14) (size 15 to 20)
#    0.000    1.000    1.667    5.500    7.000    2.667 
#    0.000    0.000    0.000    0.000    0.000    0.000 
#    0.000    0.000    0.000    0.000    0.000    0.000 
#
# Total GULP energy -66863.918573 kJ/mol
# GULP energy per Si atom -5571.993214 kJ/mol
# Density = 2.525632 g / cm^3
# Si number density = 25.313936 Si / 1000 Ang^3
#
#
#
# Elastic Constant Matrix: (Units=GPa)
#
#
# Indices 1 2 3 4 5 6 
#
# 1 71.2421 28.8671 36.5770 -6.9849 15.6566 -24.9270
# 2 28.8671 90.4373 42.5531 -7.8583 11.2187 -23.3215
# 3 36.5770 42.5531 207.8974 -3.5149 22.7267 -12.2420
# 4 -6.9849 -7.8583 -3.5149 55.9415 -2.9246 13.5852
# 5 15.6566 11.2187 22.7267 -2.9246 45.2212 -10.5157
# 6 -24.9270 -23.3215 -12.2420 13.5852 -10.5157 49.5899
#
#
#
# Elastic Compliance Matrix: (Units=1/GPa)
#
#
# Indices 1 2 3 4 5 6 
#
# 1 0.019554 -0.003014 -0.002036 -0.000035 -0.003324 0.007214
# 2 -0.003014 0.014229 -0.002070 0.000385 -0.000379 0.004480
# 3 -0.002036 -0.002070 0.005741 -0.000048 -0.001895 -0.000968
# 4 -0.000035 0.000385 -0.000048 0.019160 -0.000005 -0.005099
# 5 -0.003324 -0.000379 -0.001895 -0.000005 0.025005 0.002987
# 6 0.007214 0.004480 -0.000968 -0.005099 0.002987 0.027690
#
#
# Mechanical properties :
#
#
# Convention : Reuss Voigt Hill
#
# Bulk Modulus (GPa) = 39.55030 65.06347 52.30689
# Shear Modulus (GPa) = 37.29973 47.58916 42.44445
#
# Velocity S-wave (km/s) = 3.84277 4.34055 4.09922
# Velocity P-wave (km/s) = 5.94533 7.13295 6.56605
#
# Compressibility (1/GPa) = 0.02528426
#
# Stress axis : x y z
#
# Youngs Moduli (GPa) = 51.13948 70.27699 174.17434
#
# Poissons Ratio (x) = 0.21183 0.35459
# Poissons Ratio (y) = 0.15414 0.36062
# Poissons Ratio (z) = 0.10411 0.14550
#
# Static dielectric constant tensor:
#      x y z
#    x 2.295590 0.100220 -0.082660 
#    y 0.100220 2.018590 -0.012540 
#    z -0.082660 -0.012540 2.092860 
# 
# From -- ./inp_files/291990.got.cif
#   From: 2010.05.17/outbox.cif.g08.bks.cpg/sg2_146_cif.got.tgz:291990.got - 2010.06.03 11:33:40.
