data_PCOD9042269
_publ_section_title
;
Structure prediction by ZEFSAII (Michael W. Deem and Ramdas Pophale) SiO2 
 PCOD9042269
Probable space group: P -1
;
_chemical_formula_sum "Si O2"
_cell_formula_units_Z 16
_cell_length_a 5.410878
_cell_length_b 11.168103
_cell_length_c 11.642087
_cell_angle_alpha 108.482026
_cell_angle_beta 82.582168
_cell_angle_gamma 108.041807
_cell_volume 634.056381
_symmetry_space_group_name_H-M "P -1"
_symmetry_group_IT_number 2
_symmetry_cell_setting 'triclinic'
loop_
_space_group_symop_operation_xyz
x,y,z
-x,-y,-z
loop_
_atom_site_type_symbol
_atom_site_label
_atom_site_fract_x
_atom_site_fract_y
_atom_site_fract_z
Si Si1 0.563590 0.172862 0.033238
Si Si2 0.071135 0.576319 0.673380
Si Si3 0.309782 0.690387 0.476998
Si Si4 0.301971 0.286334 0.734572
Si Si5 0.037174 0.177114 0.178246
Si Si6 0.580572 0.961286 0.233558
Si Si7 0.159215 0.906740 0.409106
Si Si8 0.762487 0.464764 0.091210
O O1 0.829026 0.178526 0.088085
O O2 0.590082 0.319461 0.028727
O O3 0.295869 0.145466 0.112381
O O4 0.524273 0.074381 0.899281
O O5 0.305526 0.660446 0.603666
O O6 0.896384 0.677417 0.726531
O O7 0.150827 0.549300 0.787435
O O8 0.923407 0.434762 0.589222
O O9 0.557984 0.680792 0.387064
O O10 0.253792 0.824255 0.477508
O O11 0.399372 0.173832 0.753863
O O12 0.354160 0.413014 0.850681
O O13 0.005131 0.209791 0.700011
O O14 0.860627 0.066664 0.238565
O O15 0.379872 0.998037 0.342292
O O16 0.000000 0.000000 0.500000
O O17 0.000000 0.500000 0.000000
#
# Coordination Sequence:
#
# PCOD9042269 Si02
#       8
#     2   2   2   2   2   2   2   2
#     4  11  26  46  73 108 148 196 245 307 369 445
#     4  10  23  44  70 104 141 189 242 307 367 432
#     4  10  23  46  68 102 141 181 254 296 366 439
#     4  11  25  43  72  99 142 186 240 304 368 435
#     4  11  26  46  73 108 151 192 251 297 375 444
#     4  11  27  43  71 102 144 192 243 299 373 438
#     4  11  26  44  70 102 140 191 242 306 373 439
#     4  11  24  45  76 107 146 186 248 302 379 442
#
# _framework density 25.234351
#
# number of rings (size 3 to 8) (size 9 to 14) (size 15 to 20)
#    0.000    1.250    1.250    2.250   12.250    2.000 
#    2.250    0.000    0.000    0.000    0.000    0.000 
#    0.000    0.000    0.000    0.000    0.000    0.000 
#
# Total GULP energy -89571.277689 kJ/mol
# GULP energy per Si atom -5598.204856 kJ/mol
# Density = 2.517692 g / cm^3
# Si number density = 25.234351 Si / 1000 Ang^3
#
#
#
# Elastic Constant Matrix: (Units=GPa)
#
#
# Indices 1 2 3 4 5 6 
#
# 1 69.4717 20.4493 25.9388 -7.9762 -25.7453 -0.7444
# 2 20.4493 109.9322 38.6798 -1.8870 -33.3785 0.0766
# 3 25.9388 38.6798 105.5474 -20.6135 -29.3373 -12.4912
# 4 -7.9762 -1.8870 -20.6135 54.4594 5.8108 -8.0823
# 5 -25.7453 -33.3785 -29.3373 5.8108 41.2317 0.2627
# 6 -0.7444 0.0766 -12.4912 -8.0823 0.2627 34.0611
#
#
#
# Elastic Compliance Matrix: (Units=1/GPa)
#
#
# Indices 1 2 3 4 5 6 
#
# 1 0.019039 0.000337 -0.001569 0.001044 0.010898 0.000004
# 2 0.000337 0.012634 -0.002818 -0.001734 0.008687 -0.001533
# 3 -0.001569 -0.002818 0.014456 0.005448 0.006215 0.006518
# 4 0.001044 -0.001734 0.005448 0.021574 0.000039 0.007144
# 5 0.010898 0.008687 0.006215 0.000039 0.042493 0.002179
# 6 0.000004 -0.001533 0.006518 0.007144 0.002179 0.033431
#
#
# Mechanical properties :
#
#
# Convention : Reuss Voigt Hill
#
# Bulk Modulus (GPa) = 26.29585 50.56524 38.43055
# Shear Modulus (GPa) = 30.41269 39.27598 34.84433
#
# Velocity S-wave (km/s) = 3.47538 3.94947 3.71998
# Velocity P-wave (km/s) = 5.15244 6.39371 5.80634
#
# Compressibility (1/GPa) = 0.03802881
#
# Stress axis : x y z
#
# Youngs Moduli (GPa) = 52.52257 79.14839 69.17590
#
# Poissons Ratio (x) = -0.02669 0.10856
# Poissons Ratio (y) = -0.01771 0.19497
# Poissons Ratio (z) = 0.08242 0.22307
#
# Static dielectric constant tensor:
#      x y z
#    x 2.012170 -0.014570 0.033510 
#    y -0.014570 2.011000 -0.004580 
#    z 0.033510 -0.004580 2.042970 
# 
# From -- ./inp_files/84326.got.cif
#   From: 2010.05.17/outbox.cif.g08.bks.cpg/sg2_43_cif.got.tgz:84326.got - 2010.06.03 11:33:40.
