data_PCOD9042544
_publ_section_title
;
Structure prediction by ZEFSAII (Michael W. Deem and Ramdas Pophale) SiO2 
 PCOD9042544
Probable space group: P -1
;
_chemical_formula_sum "Si O2"
_cell_formula_units_Z 12
_cell_length_a 5.140209
_cell_length_b 20.277243
_cell_length_c 5.249893
_cell_angle_alpha 114.906619
_cell_angle_beta 84.351286
_cell_angle_gamma 116.176394
_cell_volume 442.828384
_symmetry_space_group_name_H-M "P -1"
_symmetry_group_IT_number 2
_symmetry_cell_setting 'triclinic'
loop_
_space_group_symop_operation_xyz
x,y,z
-x,-y,-z
loop_
_atom_site_type_symbol
_atom_site_label
_atom_site_fract_x
_atom_site_fract_y
_atom_site_fract_z
Si Si1 0.103036 0.821689 0.314256
Si Si2 0.702826 0.326148 0.360855
Si Si3 0.768754 0.643643 0.275082
Si Si4 0.007924 0.451318 0.169144
Si Si5 0.683072 0.847485 0.046469
Si Si6 0.695775 0.013007 0.246865
O O1 0.435547 0.836868 0.267420
O O2 0.916637 0.731822 0.279467
O O3 0.950123 0.831192 0.086961
O O4 0.086812 0.892063 0.602558
O O5 0.523566 0.366041 0.584400
O O6 0.754075 0.361091 0.123739
O O7 0.008606 0.352581 0.516027
O O8 0.517271 0.228940 0.233629
O O9 0.736571 0.574954 0.962413
O O10 0.000000 0.500000 0.500000
O O11 0.000000 0.500000 0.000000
O O12 0.797932 0.942045 0.120399
O O13 0.500000 0.000000 0.500000
O O14 0.500000 0.000000 0.000000
#
# Coordination Sequence:
#
# PCOD9042544 Si02
#       6
#     2   2   2   2   2   2
#     4  11  23  44  74 111 155 206 259 317 380 454
#     4  12  27  49  80 115 157 206 260 319 391 466
#     4  12  27  49  80 115 157 206 260 319 391 466
#     4  12  28  54  82 117 156 201 256 326 394 472
#     4  11  23  44  74 111 155 206 259 317 380 454
#     4  10  23  44  72 108 156 203 257 315 376 446
#
# _framework density 27.098534999999998
#
# number of rings (size 3 to 8) (size 9 to 14) (size 15 to 20)
#    0.000    0.667    3.333    3.500    0.000    4.000 
#    0.000    7.500    0.000    0.000    0.000    0.000 
#    0.000    0.000    0.000    0.000    0.000    0.000 
#
# Total GULP energy -67237.028843 kJ/mol
# GULP energy per Si atom -5603.085737 kJ/mol
# Density = 2.703686 g / cm^3
# Si number density = 27.098535 Si / 1000 Ang^3
#
#
#
# Elastic Constant Matrix: (Units=GPa)
#
#
# Indices 1 2 3 4 5 6 
#
# 1 101.7198 42.5769 34.9492 -1.1253 -8.1462 -12.6520
# 2 42.5769 199.2221 56.3368 -0.6447 -13.5496 -15.5198
# 3 34.9492 56.3368 163.7664 17.6167 -21.4865 -12.6304
# 4 -1.1253 -0.6447 17.6167 59.5821 -6.6211 3.7389
# 5 -8.1462 -13.5496 -21.4865 -6.6211 58.7138 3.3576
# 6 -12.6520 -15.5198 -12.6304 3.7389 3.3576 44.2603
#
#
#
# Elastic Compliance Matrix: (Units=1/GPa)
#
#
# Indices 1 2 3 4 5 6 
#
# 1 0.011456 -0.001776 -0.001672 0.000618 0.000518 0.002083
# 2 -0.001776 0.005965 -0.001572 0.000491 0.000550 0.001052
# 3 -0.001672 -0.001572 0.007571 -0.002153 0.001866 0.001172
# 4 0.000618 0.000491 -0.002153 0.017724 0.001517 -0.001878
# 5 0.000518 0.000550 0.001866 0.001517 0.018121 -0.000629
# 6 0.002083 0.001052 0.001172 -0.001878 -0.000629 0.024099
#
#
# Mechanical properties :
#
#
# Convention : Reuss Voigt Hill
#
# Bulk Modulus (GPa) = 66.88398 81.38158 74.13278
# Shear Modulus (GPa) = 50.02073 54.56758 52.29416
#
# Velocity S-wave (km/s) = 4.30104 4.49226 4.39769
# Velocity P-wave (km/s) = 7.02855 7.55011 7.29400
#
# Compressibility (1/GPa) = 0.01495126
#
# Stress axis : x y z
#
# Youngs Moduli (GPa) = 87.28895 167.65343 132.08783
#
# Poissons Ratio (x) = 0.29777 0.22081
# Poissons Ratio (y) = 0.15503 0.20770
# Poissons Ratio (z) = 0.14592 0.26362
#
# Static dielectric constant tensor:
#      x y z
#    x 2.067040 0.044510 0.009400 
#    y 0.044510 2.212110 0.014940 
#    z 0.009400 0.014940 2.221310 
# 
# From -- ./inp_files/11641.got.cif
#   From: 2010.05.17/outbox.cif.g08.bks.cpg/sg2_6_cif.got.tgz:11641.got - 2010.06.03 11:33:40.
