data_PCOD9042560
_publ_section_title
;
Structure prediction by ZEFSAII (Michael W. Deem and Ramdas Pophale) SiO2 
 PCOD9042560
Probable space group: P -1
;
_chemical_formula_sum "Si O2"
_cell_formula_units_Z 16
_cell_length_a 15.737990
_cell_length_b 12.020982
_cell_length_c 8.918645
_cell_angle_alpha 110.731344
_cell_angle_beta 144.767933
_cell_angle_gamma 89.141146
_cell_volume 784.066988
_symmetry_space_group_name_H-M "P -1"
_symmetry_group_IT_number 2
_symmetry_cell_setting 'triclinic'
loop_
_space_group_symop_operation_xyz
x,y,z
-x,-y,-z
loop_
_atom_site_type_symbol
_atom_site_label
_atom_site_fract_x
_atom_site_fract_y
_atom_site_fract_z
Si Si1 0.015748 0.342319 0.921679
Si Si2 0.231104 0.643609 0.245726
Si Si3 0.807014 0.972620 0.198637
Si Si4 0.546812 0.815015 0.990997
Si Si5 0.797304 0.430804 0.170663
Si Si6 0.392138 0.425418 0.075727
Si Si7 0.717941 0.201371 0.182414
Si Si8 0.297781 0.300383 0.215541
O O1 0.920275 0.323383 0.931444
O O2 0.866864 0.295615 0.561404
O O3 0.156974 0.500577 0.163774
O O4 0.115544 0.262574 0.002219
O O5 0.404742 0.755803 0.625883
O O6 0.257439 0.615707 0.101484
O O7 0.775385 0.094646 0.160893
O O8 0.720195 0.930299 0.218763
O O9 0.704199 0.840961 0.878494
O O10 0.000000 0.000000 0.500000
O O11 0.568122 0.683503 0.998945
O O12 0.462636 0.860850 0.020390
O O13 0.719083 0.300447 0.103662
O O14 0.000000 0.500000 0.500000
O O15 0.739523 0.540776 0.178464
O O16 0.318623 0.359048 0.102942
O O17 0.557649 0.575123 0.419520
#
# Coordination Sequence:
#
# PCOD9042560 Si02
#       8
#     2   2   2   2   2   2   2   2
#     4  10  17  33  59  84 112 146 195 238 280 332
#     4  10  19  34  57  88 114 149 187 240 288 340
#     4  11  22  36  61  86 113 154 201 246 280 333
#     4  10  22  39  63  85 115 151 204 246 274 337
#     4  12  22  34  55  87 128 151 181 236 305 356
#     4  10  19  33  57  85 113 148 189 241 294 337
#     4  11  23  38  55  90 124 155 187 233 298 349
#     4  10  17  34  58  85 111 144 200 244 276 332
#
# _framework density 20.406420000000001
#
# number of rings (size 3 to 8) (size 9 to 14) (size 15 to 20)
#    0.000    1.500    5.000    1.875    1.750    0.500 
#    0.000    2.500    0.000    0.750    0.000    0.000 
#    0.000    0.000    0.000    0.000    0.000    0.000 
#
# Total GULP energy -89288.808278 kJ/mol
# GULP energy per Si atom -5580.550517 kJ/mol
# Density = 2.035997 g / cm^3
# Si number density = 20.406420 Si / 1000 Ang^3
#
#
#
# Elastic Constant Matrix: (Units=GPa)
#
#
# Indices 1 2 3 4 5 6 
#
# 1 80.0076 9.6691 6.6509 -8.0949 30.4992 -17.2481
# 2 9.6691 72.3453 7.7473 -8.0663 4.9138 -21.7001
# 3 6.6509 7.7473 35.7435 -3.0164 21.3254 -1.0837
# 4 -8.0949 -8.0663 -3.0164 21.7159 -6.9690 7.0448
# 5 30.4992 4.9138 21.3254 -6.9690 30.6791 0.0952
# 6 -17.2481 -21.7001 -1.0837 7.0448 0.0952 34.2777
#
#
#
# Elastic Compliance Matrix: (Units=1/GPa)
#
#
# Indices 1 2 3 4 5 6 
#
# 1 0.034525 0.001821 0.025398 -0.007019 -0.053928 0.020921
# 2 0.001821 0.017718 -0.001968 0.002329 -0.002788 0.011600
# 3 0.025398 -0.001968 0.067723 -0.011024 -0.074563 0.016148
# 4 -0.007019 0.002329 -0.011024 0.055977 0.027027 -0.013986
# 5 -0.053928 -0.002788 -0.074563 0.027027 0.144738 -0.037215
# 6 0.020921 0.011600 0.016148 -0.013986 -0.037215 0.050533
#
#
# Mechanical properties :
#
#
# Convention : Reuss Voigt Hill
#
# Bulk Modulus (GPa) = 5.86616 26.24789 16.05702
# Shear Modulus (GPa) = 13.24380 28.26979 20.75679
#
# Velocity S-wave (km/s) = 2.55031 3.72605 3.19277
# Velocity P-wave (km/s) = 3.39898 5.60373 4.63437
#
# Compressibility (1/GPa) = 0.17046923
#
# Stress axis : x y z
#
# Youngs Moduli (GPa) = 28.96447 56.43823 14.76603
#
# Poissons Ratio (x) = -0.10280 -0.37502
# Poissons Ratio (y) = -0.05276 0.02906
# Poissons Ratio (z) = -0.73563 0.11106
#
# Static dielectric constant tensor:
#      x y z
#    x 1.788060 -0.049640 0.018520 
#    y -0.049640 1.775010 0.005500 
#    z 0.018520 0.005500 1.744800 
# 
# From -- ./inp_files/308226.got.cif
#   From: 2010.05.17/outbox.cif.g08.bks.cpg/sg2_155_cif.got.tgz:308226.got - 2010.06.03 11:33:40.
