data_PCOD9042733
_publ_section_title
;
Structure prediction by ZEFSAII (Michael W. Deem and Ramdas Pophale) SiO2 
 PCOD9042733
Probable space group: P -1
;
_chemical_formula_sum "Si O2"
_cell_formula_units_Z 13
_cell_length_a 8.992663
_cell_length_b 12.551127
_cell_length_c 5.891266
_cell_angle_alpha 70.161501
_cell_angle_beta 123.124300
_cell_angle_gamma 119.641301
_cell_volume 481.815181
_symmetry_space_group_name_H-M "P -1"
_symmetry_group_IT_number 2
_symmetry_cell_setting 'triclinic'
loop_
_space_group_symop_operation_xyz
x,y,z
-x,-y,-z
loop_
_atom_site_type_symbol
_atom_site_label
_atom_site_fract_x
_atom_site_fract_y
_atom_site_fract_z
Si Si1 0.341115 0.539935 0.734737
Si Si2 0.737853 0.672423 0.503884
Si Si3 0.576291 0.245385 0.618452
Si Si4 0.500000 0.000000 0.000000
Si Si5 0.079214 0.898429 0.426832
Si Si6 0.816978 0.043780 0.030630
Si Si7 0.025342 0.401773 0.924435
O O1 0.304056 0.463221 0.525345
O O2 0.427545 0.686228 0.671311
O O3 0.147799 0.481127 0.760981
O O4 0.500000 0.500000 0.000000
O O5 0.553799 0.703264 0.372487
O O6 0.893762 0.773424 0.402657
O O7 0.853338 0.675492 0.829441
O O8 0.806693 0.306280 0.795689
O O9 0.512387 0.104380 0.729187
O O10 0.392330 0.063566 0.047900
O O11 0.213016 0.910427 0.759892
O O12 0.157148 0.898973 0.238701
O O13 0.999150 0.007987 0.259504
O O14 0.000000 0.500000 0.000000
#
# Coordination Sequence:
#
# PCOD9042733 Si02
#       7
#     2   2   2   1   2   2   2
#     4  12  26  47  80 113 151 203 253 327 403 472
#     4  12  25  47  76 109 154 200 251 330 396 468
#     4  12  26  49  72 115 152 201 262 317 398 471
#     4  12  26  46  76 110 158 202 264 330 380 476
#     4  10  23  44  75 103 148 205 257 317 388 473
#     4  10  23  46  70 106 150 203 262 313 388 462
#     4  12  26  47  78 113 151 197 257 326 393 467
#
# _framework density 26.981297000000001
#
# number of rings (size 3 to 8) (size 9 to 14) (size 15 to 20)
#    0.000    0.615    4.615    2.769    4.308    0.615 
#    2.769    1.538    0.000    0.000    0.000    0.000 
#    0.000    0.000    0.000    0.000    0.000    0.000 
#
# Total GULP energy -72383.669920 kJ/mol
# GULP energy per Si atom -5567.974609 kJ/mol
# Density = 2.691989 g / cm^3
# Si number density = 26.981297 Si / 1000 Ang^3
#
#
#
# Elastic Constant Matrix: (Units=GPa)
#
#
# Indices 1 2 3 4 5 6 
#
# 1 209.1722 48.8772 65.8894 -12.8616 -23.1583 24.2968
# 2 48.8772 112.4710 50.0116 -36.4446 -11.3176 10.5268
# 3 65.8894 50.0116 174.6117 -34.7240 -0.1539 5.1824
# 4 -12.8616 -36.4446 -34.7240 52.6652 8.3741 -14.4031
# 5 -23.1583 -11.3176 -0.1539 8.3741 46.8665 -16.4154
# 6 24.2968 10.5268 5.1824 -14.4031 -16.4154 44.0173
#
#
#
# Elastic Compliance Matrix: (Units=1/GPa)
#
#
# Indices 1 2 3 4 5 6 
#
# 1 0.006372 -0.002113 -0.002202 -0.002450 0.002098 -0.002772
# 2 -0.002113 0.012915 -0.001419 0.007625 0.001112 0.001154
# 3 -0.002202 -0.001419 0.007767 0.004252 -0.001672 0.001408
# 4 -0.002450 0.007625 0.004252 0.028891 -0.001779 0.007818
# 5 0.002098 0.001112 -0.001672 -0.001779 0.025675 0.007766
# 6 -0.002772 0.001154 0.001408 0.007818 0.007766 0.029261
#
#
# Mechanical properties :
#
#
# Convention : Reuss Voigt Hill
#
# Bulk Modulus (GPa) = 64.16289 91.75680 77.95984
# Shear Modulus (GPa) = 39.20270 50.80826 45.00548
#
# Velocity S-wave (km/s) = 3.81590 4.34417 4.08858
# Velocity P-wave (km/s) = 6.57624 7.69700 7.15859
#
# Compressibility (1/GPa) = 0.01558533
#
# Stress axis : x y z
#
# Youngs Moduli (GPa) = 156.94138 77.43073 128.75504
#
# Poissons Ratio (x) = 0.16362 0.28355
# Poissons Ratio (y) = 0.33163 0.18266
# Poissons Ratio (z) = 0.34562 0.10985
#
# Static dielectric constant tensor:
#      x y z
#    x 1.800800 -0.653970 -0.348930 
#    y -0.653970 1.724630 0.115280 
#    z -0.348930 0.115280 2.727110 
# 
# From -- ./inp_files/34193.got.cif
#   From: 2010.05.17/outbox.cif.g08.bks.cpg/sg2_18_cif.got.tgz:34193.got - 2010.06.03 11:33:40.
