data_PCOD9042212
_publ_section_title
;
Structure prediction by ZEFSAII (Michael W. Deem and Ramdas Pophale) SiO2 
 PCOD9042212
Probable space group: P -1
;
_chemical_formula_sum "Si O2"
_cell_formula_units_Z 12
_cell_length_a 4.826444
_cell_length_b 12.077435
_cell_length_c 13.762984
_cell_angle_alpha 136.688814
_cell_angle_beta 106.649881
_cell_angle_gamma 63.869781
_cell_volume 493.322082
_symmetry_space_group_name_H-M "P -1"
_symmetry_group_IT_number 2
_symmetry_cell_setting 'triclinic'
loop_
_space_group_symop_operation_xyz
x,y,z
-x,-y,-z
loop_
_atom_site_type_symbol
_atom_site_label
_atom_site_fract_x
_atom_site_fract_y
_atom_site_fract_z
Si Si1 0.182378 0.600588 0.478584
Si Si2 0.543933 0.839116 0.258411
Si Si3 0.976881 0.162969 0.216139
Si Si4 0.028964 0.176610 0.889944
Si Si5 0.922989 0.864080 0.474076
Si Si6 0.722873 0.718339 0.831842
O O1 0.500000 0.500000 0.500000
O O2 0.974032 0.711848 0.615356
O O3 0.095718 0.457986 0.320033
O O4 0.195038 0.736136 0.483828
O O5 0.731707 0.865746 0.201863
O O6 0.778702 0.760522 0.320302
O O7 0.312497 0.744299 0.140504
O O8 0.327239 0.019484 0.400173
O O9 0.639751 0.249616 0.188318
O O10 0.224885 0.135658 0.138725
O O11 0.981328 0.992356 0.162720
O O12 0.140250 0.280306 0.047924
O O13 0.000000 0.000000 0.500000
#
# Coordination Sequence:
#
# PCOD9042212 Si02
#       6
#     2   2   2   2   2   2
#     4  10  23  44  70 101 137 175 222 281 340 389
#     4  11  23  40  69  98 126 175 228 281 317 396
#     4  11  21  40  63  95 132 183 224 267 325 403
#     4  12  22  41  66  97 134 177 228 269 333 397
#     4  11  22  45  72 103 128 176 234 277 325 397
#     4  11  24  40  60  99 137 178 214 278 338 397
#
# _framework density 24.324883
#
# number of rings (size 3 to 8) (size 9 to 14) (size 15 to 20)
#    0.000    1.000    3.333    3.500    0.000    1.333 
#   12.000    1.667    0.000    0.000    0.000    0.000 
#    0.000    0.000    0.000    0.000    0.000    0.000 
#
# Total GULP energy -67117.466454 kJ/mol
# GULP energy per Si atom -5593.122204 kJ/mol
# Density = 2.426952 g / cm^3
# Si number density = 24.324883 Si / 1000 Ang^3
#
#
#
# Elastic Constant Matrix: (Units=GPa)
#
#
# Indices 1 2 3 4 5 6 
#
# 1 111.8344 36.1848 29.7016 -22.5313 7.3277 16.5918
# 2 36.1848 116.3654 37.9523 -34.3888 -1.1318 -1.5146
# 3 29.7016 37.9523 188.0698 -36.3882 14.2372 -1.6508
# 4 -22.5313 -34.3888 -36.3882 40.2284 -4.0525 4.7020
# 5 7.3277 -1.1318 14.2372 -4.0525 38.0056 -19.8097
# 6 16.5918 -1.5146 -1.6508 4.7020 -19.8097 30.9245
#
#
#
# Elastic Compliance Matrix: (Units=1/GPa)
#
#
# Indices 1 2 3 4 5 6 
#
# 1 0.013951 -0.002828 0.000218 0.006337 -0.009983 -0.014971
# 2 -0.002828 0.012206 -0.000675 0.008238 0.003710 0.003203
# 3 0.000218 -0.000675 0.006748 0.005634 -0.003492 -0.002884
# 4 0.006337 0.008238 0.005634 0.041468 -0.005040 -0.012229
# 5 -0.009983 0.003710 -0.003492 -0.005040 0.048501 0.037187
# 6 -0.014971 0.003203 -0.002884 -0.012229 0.037187 0.066052
#
#
# Mechanical properties :
#
#
# Convention : Reuss Voigt Hill
#
# Bulk Modulus (GPa) = 37.97415 69.32745 53.65080
# Shear Modulus (GPa) = 24.47676 42.66041 33.56859
#
# Velocity S-wave (km/s) = 3.17558 4.19235 3.71888
# Velocity P-wave (km/s) = 5.39359 7.21089 6.36741
#
# Compressibility (1/GPa) = 0.02633370
#
# Stress axis : x y z
#
# Youngs Moduli (GPa) = 71.67963 81.92839 148.18844
#
# Poissons Ratio (x) = 0.23173 -0.03230
# Poissons Ratio (y) = 0.20274 0.10005
# Poissons Ratio (z) = -0.01562 0.05531
#
# Static dielectric constant tensor:
#      x y z
#    x 1.945870 -0.023070 0.057880 
#    y -0.023070 1.983720 0.026800 
#    z 0.057880 0.026800 1.972520 
# 
# From -- ./inp_files/79877.got.cif
#   From: 2010.05.17/outbox.cif.g08.bks.cpg/sg2_40_cif.got.tgz:79877.got - 2010.06.03 11:33:40.
