data_PCOD9042997
_publ_section_title
;
Structure prediction by ZEFSAII (Michael W. Deem and Ramdas Pophale) SiO2 
 PCOD9042997
Probable space group: P -1
;
_chemical_formula_sum "Si O2"
_cell_formula_units_Z 16
_cell_length_a 9.145940
_cell_length_b 6.354022
_cell_length_c 18.529177
_cell_angle_alpha 99.375232
_cell_angle_beta 131.001873
_cell_angle_gamma 85.225857
_cell_volume 801.385506
_symmetry_space_group_name_H-M "P -1"
_symmetry_group_IT_number 2
_symmetry_cell_setting 'triclinic'
loop_
_space_group_symop_operation_xyz
x,y,z
-x,-y,-z
loop_
_atom_site_type_symbol
_atom_site_label
_atom_site_fract_x
_atom_site_fract_y
_atom_site_fract_z
Si Si1 0.287434 0.419739 0.296759
Si Si2 0.924282 0.673350 0.925561
Si Si3 0.994875 0.720722 0.283644
Si Si4 0.719548 0.005358 0.977550
Si Si5 0.012987 0.227296 0.554748
Si Si6 0.311427 0.094496 0.404788
Si Si7 0.615429 0.721810 0.069359
Si Si8 0.285516 0.437481 0.538434
O O1 0.193145 0.416472 0.186785
O O2 0.343313 0.201045 0.342602
O O3 0.488317 0.553454 0.370822
O O4 0.130990 0.522618 0.304236
O O5 0.104735 0.816433 0.959483
O O6 0.000000 0.500000 0.000000
O O7 0.780930 0.834310 0.928281
O O8 0.917873 0.763612 0.340725
O O9 0.813907 0.682017 0.171484
O O10 0.138992 0.922235 0.327203
O O11 0.681157 0.865115 0.029537
O O12 0.524800 0.139135 0.918020
O O13 0.163262 0.363660 0.563517
O O14 0.802971 0.334339 0.496072
O O15 0.000000 0.000000 0.500000
O O16 0.249786 0.273269 0.452472
O O17 0.500000 0.000000 0.500000
O O18 0.500000 0.500000 0.000000
#
# Coordination Sequence:
#
# PCOD9042997 Si02
#       8
#     2   2   2   2   2   2   2   2
#     4  12  25  41  69  99 129 177 231 269 340 407
#     4  11  24  45  70  99 138 177 224 291 338 404
#     4  12  24  41  69  96 129 180 225 269 345 399
#     4  10  23  45  67  96 139 173 225 280 343 397
#     4  11  24  42  62  92 136 175 216 280 334 397
#     4  12  23  43  68  97 136 173 224 284 328 401
#     4  11  24  44  69 100 136 179 226 283 339 409
#     4  11  24  42  62  95 133 171 220 277 332 397
#
# _framework density 19.965425
#
# number of rings (size 3 to 8) (size 9 to 14) (size 15 to 20)
#    0.000    0.750    3.750    4.125    0.000    5.000 
#    0.000    0.000    0.000    0.000    0.000    0.000 
#    0.000    0.000    0.000    0.000    0.000    0.000 
#
# Total GULP energy -89260.365028 kJ/mol
# GULP energy per Si atom -5578.772814 kJ/mol
# Density = 1.991998 g / cm^3
# Si number density = 19.965425 Si / 1000 Ang^3
#
#
#
# Elastic Constant Matrix: (Units=GPa)
#
#
# Indices 1 2 3 4 5 6 
#
# 1 93.1001 28.2695 39.5130 -9.1197 12.8960 -0.4445
# 2 28.2695 96.0755 50.3722 -2.6575 8.4630 -3.6207
# 3 39.5130 50.3722 125.7951 3.1343 14.9236 17.2588
# 4 -9.1197 -2.6575 3.1343 25.0588 -1.1074 -0.0610
# 5 12.8960 8.4630 14.9236 -1.1074 32.6844 -3.1111
# 6 -0.4445 -3.6207 17.2588 -0.0610 -3.1111 45.8000
#
#
#
# Elastic Compliance Matrix: (Units=1/GPa)
#
#
# Indices 1 2 3 4 5 6 
#
# 1 0.013693 -0.001726 -0.003528 0.005109 -0.003065 0.001125
# 2 -0.001726 0.013979 -0.005521 0.001550 -0.000064 0.003167
# 3 -0.003528 -0.005521 0.012523 -0.003605 -0.003536 -0.005435
# 4 0.005109 0.001550 -0.003605 0.042421 0.000823 0.001643
# 5 -0.003065 -0.000064 -0.003536 0.000823 0.033806 0.003595
# 6 0.001125 0.003167 -0.005435 0.001643 0.003595 0.024390
#
#
# Mechanical properties :
#
#
# Convention : Reuss Voigt Hill
#
# Bulk Modulus (GPa) = 53.63169 61.25335 57.44252
# Shear Modulus (GPa) = 29.66022 33.82970 31.74496
#
# Velocity S-wave (km/s) = 3.85850 4.12079 3.99180
# Velocity P-wave (km/s) = 6.83896 7.30668 7.07668
#
# Compressibility (1/GPa) = 0.01864569
#
# Stress axis : x y z
#
# Youngs Moduli (GPa) = 73.03125 71.53746 79.85098
#
# Poissons Ratio (x) = 0.12345 0.28171
# Poissons Ratio (y) = 0.12603 0.44085
# Poissons Ratio (z) = 0.25765 0.39495
#
# Static dielectric constant tensor:
#      x y z
#    x 1.815800 -0.008120 0.009280 
#    y -0.008120 1.765220 -0.052930 
#    z 0.009280 -0.052930 1.687160 
# 
# From -- ./inp_files/37340.got.cif
#   From: 2010.05.17/outbox.cif.g08.bks.cpg/sg2_19_cif.got.tgz:37340.got - 2010.06.03 11:33:40.
