data_PCOD9042396
_publ_section_title
;
Structure prediction by ZEFSAII (Michael W. Deem and Ramdas Pophale) SiO2 
 PCOD9042396
Probable space group: P -1
;
_chemical_formula_sum "Si O2"
_cell_formula_units_Z 12
_cell_length_a 20.412399
_cell_length_b 5.235668
_cell_length_c 9.160494
_cell_angle_alpha 123.280979
_cell_angle_beta 144.757923
_cell_angle_gamma 66.347023
_cell_volume 470.020669
_symmetry_space_group_name_H-M "P -1"
_symmetry_group_IT_number 2
_symmetry_cell_setting 'triclinic'
loop_
_space_group_symop_operation_xyz
x,y,z
-x,-y,-z
loop_
_atom_site_type_symbol
_atom_site_label
_atom_site_fract_x
_atom_site_fract_y
_atom_site_fract_z
Si Si1 0.035481 0.857803 0.666997
Si Si2 0.550719 0.739198 0.337324
Si Si3 0.894243 0.094977 0.738426
Si Si4 0.427574 0.293496 0.188351
Si Si5 0.273756 0.975925 0.011181
Si Si6 0.245105 0.456231 0.543496
O O1 0.000000 0.500000 0.500000
O O2 0.171023 0.943729 0.931193
O O3 0.000000 0.000000 0.500000
O O4 0.950852 0.002277 0.665277
O O5 0.460758 0.473979 0.158080
O O6 0.643156 0.585942 0.361299
O O7 0.481350 0.970433 0.190861
O O8 0.619029 0.938118 0.655549
O O9 0.793414 0.874819 0.559113
O O10 0.156579 0.587940 0.304423
O O11 0.000000 0.000000 0.000000
O O12 0.500000 0.500000 0.500000
O O13 0.302125 0.237668 0.017362
O O14 0.251868 0.685200 0.769026
#
# Coordination Sequence:
#
# PCOD9042396 Si02
#       6
#     2   2   2   2   2   2
#     4  12  24  43  66 100 133 177 234 281 342 413
#     4  11  25  45  69 104 140 182 233 287 353 418
#     4  12  25  46  68 100 143 184 235 296 343 417
#     4  10  23  44  71 103 138 182 233 287 352 415
#     4  11  24  44  72  97 141 183 231 290 345 412
#     4  12  26  44  70 103 138 186 235 284 356 417
#
# _framework density 25.530792999999999
#
# number of rings (size 3 to 8) (size 9 to 14) (size 15 to 20)
#    0.000    0.667    3.333    4.500    0.000   10.667 
#    0.000    0.000    0.000    0.000    0.000    0.000 
#    0.000    0.000    0.000    0.000    0.000    0.000 
#
# Total GULP energy -66895.043421 kJ/mol
# GULP energy per Si atom -5574.586952 kJ/mol
# Density = 2.547268 g / cm^3
# Si number density = 25.530793 Si / 1000 Ang^3
#
#
#
# Elastic Constant Matrix: (Units=GPa)
#
#
# Indices 1 2 3 4 5 6 
#
# 1 157.0072 65.8406 24.4964 1.5008 31.7751 16.4512
# 2 65.8406 166.3573 22.4117 -10.7073 14.5946 23.3712
# 3 24.4964 22.4117 78.4174 -3.6149 21.8421 8.4527
# 4 1.5008 -10.7073 -3.6149 32.5039 8.6731 7.3131
# 5 31.7751 14.5946 21.8421 8.6731 70.0171 4.4467
# 6 16.4512 23.3712 8.4527 7.3131 4.4467 56.3177
#
#
#
# Elastic Compliance Matrix: (Units=1/GPa)
#
#
# Indices 1 2 3 4 5 6 
#
# 1 0.008373 -0.002855 -0.000955 -0.000501 -0.002791 -0.000832
# 2 -0.002855 0.007877 -0.000820 0.003336 -0.000331 -0.002719
# 3 -0.000955 -0.000820 0.014785 0.002926 -0.004266 -0.001643
# 4 -0.000501 0.003336 0.002926 0.034941 -0.005341 -0.005792
# 5 -0.002791 -0.000331 -0.004266 -0.005341 0.017553 0.000901
# 6 -0.000832 -0.002719 -0.001643 -0.005792 0.000901 0.020055
#
#
# Mechanical properties :
#
#
# Convention : Reuss Voigt Hill
#
# Bulk Modulus (GPa) = 45.92849 69.69770 57.81310
# Shear Modulus (GPa) = 41.63020 51.03662 46.33341
#
# Velocity S-wave (km/s) = 4.04243 4.47589 4.26467
# Velocity P-wave (km/s) = 6.31006 7.35325 6.85154
#
# Compressibility (1/GPa) = 0.02177298
#
# Stress axis : x y z
#
# Youngs Moduli (GPa) = 119.43856 126.94410 67.63448
#
# Poissons Ratio (x) = 0.36249 0.06461
# Poissons Ratio (y) = 0.34105 0.05549
# Poissons Ratio (z) = 0.11410 0.10415
#
# Static dielectric constant tensor:
#      x y z
#    x 1.981510 -0.060800 0.042630 
#    y -0.060800 2.053000 -0.137110 
#    z 0.042630 -0.137110 2.358680 
# 
# From -- ./inp_files/473229.got.cif
#   From: 2010.05.17/outbox.cif.g08.bks.cpg/sg2_237_cif.got.tgz:473229.got - 2010.06.03 11:33:40.
