data_PCOD9042450
_publ_section_title
;
Structure prediction by ZEFSAII (Michael W. Deem and Ramdas Pophale) SiO2 
 PCOD9042450
Probable space group: P -1
;
_chemical_formula_sum "Si O2"
_cell_formula_units_Z 16
_cell_length_a 13.772652
_cell_length_b 13.171611
_cell_length_c 6.553569
_cell_angle_alpha 67.827925
_cell_angle_beta 80.326238
_cell_angle_gamma 41.751842
_cell_volume 720.607829
_symmetry_space_group_name_H-M "P -1"
_symmetry_group_IT_number 2
_symmetry_cell_setting 'triclinic'
loop_
_space_group_symop_operation_xyz
x,y,z
-x,-y,-z
loop_
_atom_site_type_symbol
_atom_site_label
_atom_site_fract_x
_atom_site_fract_y
_atom_site_fract_z
Si Si1 0.787432 0.467922 0.820865
Si Si2 0.523104 0.263982 0.419742
Si Si3 0.288559 0.914372 0.901567
Si Si4 0.208705 0.857405 0.340629
Si Si5 0.846095 0.646849 0.823976
Si Si6 0.924041 0.230159 0.304073
Si Si7 0.390017 0.004982 0.136312
Si Si8 0.957399 0.723513 0.447294
O O1 0.647361 0.559831 0.658790
O O2 0.761964 0.602632 0.849942
O O3 0.933613 0.369744 0.710510
O O4 0.823010 0.342152 0.061898
O O5 0.583155 0.217730 0.202918
O O6 0.636665 0.242079 0.528222
O O7 0.537503 0.129601 0.609583
O O8 0.157649 0.082293 0.697053
O O9 0.232187 0.856635 0.092622
O O10 0.338310 0.962042 0.015427
O O11 0.150191 0.791486 0.494781
O O12 0.079895 0.050246 0.307880
O O13 0.747016 0.814372 0.858915
O O14 0.876694 0.678673 0.569539
O O15 0.000000 0.500000 0.000000
O O16 0.954462 0.315572 0.351469
O O17 0.500000 0.000000 0.000000
#
# Coordination Sequence:
#
# PCOD9042450 Si02
#       8
#     2   2   2   2   2   2   2   2
#     4  12  27  41  65  98 134 169 211 267 325 376
#     4  11  25  44  64  97 134 167 212 266 323 383
#     4  11  21  42  69  93 125 172 216 261 314 383
#     4  10  23  44  71  94 127 167 215 272 318 378
#     4  12  24  42  65  93 135 172 212 266 312 377
#     4  11  23  44  68  99 126 164 221 269 314 382
#     4  11  25  40  62  95 132 171 215 257 317 384
#     4  12  23  42  67  96 129 168 219 260 316 384
#
# _framework density 22.203478
#
# number of rings (size 3 to 8) (size 9 to 14) (size 15 to 20)
#    0.000    0.750    5.000    2.625    3.500    5.000 
#    0.000    1.250    0.000    0.000    0.000    0.000 
#    0.000    0.000    0.000    0.000    0.000    0.000 
#
# Total GULP energy -89547.861795 kJ/mol
# GULP energy per Si atom -5596.741362 kJ/mol
# Density = 2.215294 g / cm^3
# Si number density = 22.203478 Si / 1000 Ang^3
#
#
#
# Elastic Constant Matrix: (Units=GPa)
#
#
# Indices 1 2 3 4 5 6 
#
# 1 54.0320 -9.0226 18.2587 -14.5775 -13.6240 -12.5250
# 2 -9.0226 27.0530 19.1949 -3.3502 -0.7399 -7.8819
# 3 18.2587 19.1949 124.8874 -4.9012 -32.0403 -15.8564
# 4 -14.5775 -3.3502 -4.9012 36.9592 -12.3021 4.5000
# 5 -13.6240 -0.7399 -32.0403 -12.3021 38.7207 2.0658
# 6 -12.5250 -7.8819 -15.8564 4.5000 2.0658 28.5135
#
#
#
# Elastic Compliance Matrix: (Units=1/GPa)
#
#
# Indices 1 2 3 4 5 6 
#
# 1 0.035755 0.020330 -0.001010 0.019639 0.017498 0.016397
# 2 0.020330 0.055975 -0.007682 0.011387 0.004523 0.018006
# 3 -0.001010 -0.007682 0.012733 0.003916 0.011113 0.003090
# 4 0.019639 0.011387 0.003916 0.043683 0.023963 0.005322
# 5 0.017498 0.004523 0.011113 0.023963 0.048461 0.007824
# 6 0.016397 0.018006 0.003090 0.005322 0.007824 0.047563
#
#
# Mechanical properties :
#
#
# Convention : Reuss Voigt Hill
#
# Bulk Modulus (GPa) = 7.82854 29.20384 18.51619
# Shear Modulus (GPa) = 18.97716 32.67478 25.82597
#
# Velocity S-wave (km/s) = 2.92669 3.84031 3.41420
# Velocity P-wave (km/s) = 3.86706 5.73109 4.88874
#
# Compressibility (1/GPa) = 0.12773769
#
# Stress axis : x y z
#
# Youngs Moduli (GPa) = 27.96798 17.86501 78.53717
#
# Poissons Ratio (x) = -0.36319 0.07935
# Poissons Ratio (y) = -0.56858 0.60333
# Poissons Ratio (z) = 0.02826 0.13724
#
# Static dielectric constant tensor:
#      x y z
#    x 1.815280 0.005190 0.007870 
#    y 0.005190 1.792730 0.000340 
#    z 0.007870 0.000340 1.819840 
# 
# From -- ./inp_files/39769.got.cif
#   From: 2010.05.17/outbox.cif.g08.bks.cpg/sg2_20_cif.got.tgz:39769.got - 2010.06.03 11:33:40.
