data_PCOD9042513
_publ_section_title
;
Structure prediction by ZEFSAII (Michael W. Deem and Ramdas Pophale) SiO2 
 PCOD9042513
Probable space group: P -1
;
_chemical_formula_sum "Si O2"
_cell_formula_units_Z 16
_cell_length_a 20.411404
_cell_length_b 20.155516
_cell_length_c 5.165297
_cell_angle_alpha 100.422956
_cell_angle_beta 69.902223
_cell_angle_gamma 159.314679
_cell_volume 638.514685
_symmetry_space_group_name_H-M "P -1"
_symmetry_group_IT_number 2
_symmetry_cell_setting 'triclinic'
loop_
_space_group_symop_operation_xyz
x,y,z
-x,-y,-z
loop_
_atom_site_type_symbol
_atom_site_label
_atom_site_fract_x
_atom_site_fract_y
_atom_site_fract_z
Si Si1 0.973854 0.915753 0.681127
Si Si2 0.316585 0.798113 0.336520
Si Si3 0.652874 0.462964 0.392000
Si Si4 0.205117 0.614701 0.879264
Si Si5 0.070649 0.281193 0.338620
Si Si6 0.742722 0.136576 0.173450
Si Si7 0.380177 0.340846 0.740566
Si Si8 0.374426 0.083051 0.487626
O O1 0.986674 0.847189 0.573073
O O2 0.730617 0.709344 0.947403
O O3 0.000000 0.000000 0.500000
O O4 0.167847 0.109220 0.752279
O O5 0.253082 0.697156 0.607185
O O6 0.290740 0.851115 0.504635
O O7 0.571595 0.013930 0.124891
O O8 0.187196 0.651241 0.165655
O O9 0.791419 0.560626 0.508399
O O10 0.551991 0.439804 0.621855
O O11 0.450787 0.229446 0.471483
O O12 0.793351 0.599028 0.032978
O O13 0.409953 0.757487 0.782210
O O14 0.991073 0.376279 0.956145
O O15 0.856013 0.128239 0.483727
O O16 0.677218 0.999931 0.225397
O O17 0.500000 0.500000 0.500000
#
# Coordination Sequence:
#
# PCOD9042513 Si02
#       8
#     2   2   2   2   2   2   2   2
#     4  11  25  42  73 107 141 181 234 302 359 424
#     4  10  24  43  71 107 139 180 233 298 344 418
#     4  12  28  48  74 102 141 191 237 293 359 424
#     4  11  24  44  71 102 141 184 234 287 355 417
#     4  12  28  49  71 102 142 186 238 292 354 424
#     4  10  23  44  72 103 142 183 235 288 356 413
#     4  11  23  44  71 105 139 180 237 293 360 422
#     4  11  27  47  69 102 144 188 236 290 349 430
#
# _framework density 25.058157999999999
#
# number of rings (size 3 to 8) (size 9 to 14) (size 15 to 20)
#    0.000    1.000    2.500    2.250    3.500   15.500 
#    0.000    0.000    0.000    0.000    0.000    0.000 
#    0.000    0.000    0.000    0.000    0.000    0.000 
#
# Total GULP energy -89436.239086 kJ/mol
# GULP energy per Si atom -5589.764943 kJ/mol
# Density = 2.500112 g / cm^3
# Si number density = 25.058158 Si / 1000 Ang^3
#
#
#
# Elastic Constant Matrix: (Units=GPa)
#
#
# Indices 1 2 3 4 5 6 
#
# 1 99.7675 7.0284 26.9675 -20.9891 -15.6731 13.8157
# 2 7.0284 107.7339 27.1233 -22.7168 -7.4858 21.6711
# 3 26.9675 27.1233 109.9440 -18.4141 1.0547 7.6097
# 4 -20.9891 -22.7168 -18.4141 43.6240 3.2934 -2.3324
# 5 -15.6731 -7.4858 1.0547 3.2934 31.7034 -14.8846
# 6 13.8157 21.6711 7.6097 -2.3324 -14.8846 54.3235
#
#
#
# Elastic Compliance Matrix: (Units=1/GPa)
#
#
# Indices 1 2 3 4 5 6 
#
# 1 0.012863 0.001722 -0.002582 0.005487 0.005398 -0.001882
# 2 0.001722 0.011868 -0.002087 0.005814 0.001084 -0.004333
# 3 -0.002582 -0.002087 0.010709 0.002359 -0.002672 -0.000642
# 4 0.005487 0.005814 0.002359 0.029463 -0.000412 -0.002893
# 5 0.005398 0.001084 -0.002672 -0.000412 0.038926 0.009217
# 6 -0.001882 -0.004333 -0.000642 -0.002893 0.009217 0.023107
#
#
# Mechanical properties :
#
#
# Convention : Reuss Voigt Hill
#
# Bulk Modulus (GPa) = 33.84677 48.85376 41.35027
# Shear Modulus (GPa) = 35.04370 43.01858 39.03114
#
# Velocity S-wave (km/s) = 3.74370 4.14786 3.95095
# Velocity P-wave (km/s) = 5.67659 6.51753 6.11154
#
# Compressibility (1/GPa) = 0.02954492
#
# Stress axis : x y z
#
# Youngs Moduli (GPa) = 77.74229 84.25883 93.38078
#
# Poissons Ratio (x) = -0.14506 0.24114
# Poissons Ratio (y) = -0.13384 0.19487
# Poissons Ratio (z) = 0.20075 0.17584
#
# Static dielectric constant tensor:
#      x y z
#    x 2.063660 -0.003820 -0.038070 
#    y -0.003820 1.982430 0.024760 
#    z -0.038070 0.024760 2.029470 
# 
# From -- ./inp_files/120416.got.cif
#   From: 2010.05.17/outbox.cif.g08.bks.cpg/sg2_61_cif.got.tgz:120416.got - 2010.06.03 11:33:40.
