data_PCOD9042211
_publ_section_title
;
Structure prediction by ZEFSAII (Michael W. Deem and Ramdas Pophale) SiO2 
 PCOD9042211
Probable space group: P -1
;
_chemical_formula_sum "Si O2"
_cell_formula_units_Z 16
_cell_length_a 12.471553
_cell_length_b 15.222501
_cell_length_c 18.668685
_cell_angle_alpha 149.806278
_cell_angle_beta 150.280706
_cell_angle_gamma 51.763870
_cell_volume 750.244056
_symmetry_space_group_name_H-M "P -1"
_symmetry_group_IT_number 2
_symmetry_cell_setting 'triclinic'
loop_
_space_group_symop_operation_xyz
x,y,z
-x,-y,-z
loop_
_atom_site_type_symbol
_atom_site_label
_atom_site_fract_x
_atom_site_fract_y
_atom_site_fract_z
Si Si1 0.705673 0.733042 0.305847
Si Si2 0.405461 0.918931 0.307535
Si Si3 0.200793 0.164139 0.285544
Si Si4 0.870580 0.506594 0.738108
Si Si5 0.115800 0.883112 0.528279
Si Si6 0.122983 0.334613 0.495552
Si Si7 0.580098 0.256569 0.126859
Si Si8 0.513692 0.589144 0.681471
O O1 0.591186 0.877318 0.339085
O O2 0.776019 0.734641 0.430093
O O3 0.945574 0.806501 0.446790
O O4 0.500000 0.500000 0.000000
O O5 0.500000 0.000000 0.500000
O O6 0.365203 0.082721 0.359037
O O7 0.140610 0.698082 0.004062
O O8 0.056323 0.195383 0.288957
O O9 0.363429 0.372736 0.483329
O O10 0.000000 0.000000 0.000000
O O11 0.898072 0.321032 0.653983
O O12 0.753499 0.598628 0.790041
O O13 0.670894 0.415936 0.491648
O O14 0.000000 0.000000 0.500000
O O15 0.404443 0.048623 0.835366
O O16 0.348549 0.557906 0.756543
O O17 0.863667 0.317747 0.356654
O O18 0.438443 0.254270 0.116077
#
# Coordination Sequence:
#
# PCOD9042211 Si02
#       8
#     2   2   2   2   2   2   2   2
#     4  12  25  44  69  96 139 182 231 287 348 409
#     4  12  26  44  70 100 138 182 230 284 347 417
#     4  11  23  42  70 103 134 179 232 278 345 406
#     4  11  25  45  67  99 141 175 231 284 344 402
#     4  12  28  45  67 101 139 186 230 281 348 417
#     4  10  23  44  70 101 136 176 234 290 337 420
#     4  10  24  43  70  99 134 176 229 282 347 398
#     4  10  24  44  69 102 134 177 225 292 335 407
#
# _framework density 21.326392999999999
#
# number of rings (size 3 to 8) (size 9 to 14) (size 15 to 20)
#    0.000    1.000    3.750    1.500    5.250    3.000 
#    0.000    1.250    0.000    0.000    0.000    0.000 
#    0.000    0.000    0.000    0.000    0.000    0.000 
#
# Total GULP energy -89431.032633 kJ/mol
# GULP energy per Si atom -5589.439540 kJ/mol
# Density = 2.127785 g / cm^3
# Si number density = 21.326393 Si / 1000 Ang^3
#
#
#
# Elastic Constant Matrix: (Units=GPa)
#
#
# Indices 1 2 3 4 5 6 
#
# 1 76.4393 4.2389 1.8050 -2.8063 1.9911 -12.0485
# 2 4.2389 97.1035 -10.7244 3.1401 -1.0567 1.7598
# 3 1.8050 -10.7244 51.1421 5.5770 -1.4720 4.7134
# 4 -2.8063 3.1401 5.5770 19.3032 -6.7566 -4.2671
# 5 1.9911 -1.0567 -1.4720 -6.7566 19.2820 -3.5394
# 6 -12.0485 1.7598 4.7134 -4.2671 -3.5394 34.4193
#
#
#
# Elastic Compliance Matrix: (Units=1/GPa)
#
#
# Indices 1 2 3 4 5 6 
#
# 1 0.014250 -0.001051 -0.001719 0.004385 0.000963 0.005920
# 2 -0.001051 0.010787 0.002807 -0.003310 -0.000572 -0.001773
# 3 -0.001719 0.002807 0.021557 -0.008737 -0.002000 -0.004986
# 4 0.004385 -0.003310 -0.008737 0.067228 0.024786 0.013784
# 5 0.000963 -0.000572 -0.002000 0.024786 0.062118 0.010101
# 6 0.005920 -0.001773 -0.004986 0.013784 0.010101 0.034647
#
#
# Mechanical properties :
#
#
# Convention : Reuss Voigt Hill
#
# Bulk Modulus (GPa) = 21.42745 23.92486 22.67615
# Shear Modulus (GPa) = 22.11709 29.89194 26.00451
#
# Velocity S-wave (km/s) = 3.22386 3.74791 3.49572
# Velocity P-wave (km/s) = 4.89151 5.47466 5.19128
#
# Compressibility (1/GPa) = 0.04666911
#
# Stress axis : x y z
#
# Youngs Moduli (GPa) = 70.17459 92.70303 46.38770
#
# Poissons Ratio (x) = 0.09739 0.07976
# Poissons Ratio (y) = 0.07372 -0.13021
# Poissons Ratio (z) = 0.12065 -0.26022
#
# Static dielectric constant tensor:
#      x y z
#    x 1.765090 -0.043150 -0.019420 
#    y -0.043150 1.798830 0.023550 
#    z -0.019420 0.023550 1.759420 
# 
# From -- ./inp_files/218330.got.cif
#   From: 2010.05.17/outbox.cif.g08.bks.cpg/sg2_110_cif.got.tgz:218330.got - 2010.06.03 11:33:40.
