data_PCOD9042559
_publ_section_title
;
Structure prediction by ZEFSAII (Michael W. Deem and Ramdas Pophale) SiO2 
 PCOD9042559
Probable space group: P -1
;
_chemical_formula_sum "Si O2"
_cell_formula_units_Z 14
_cell_length_a 12.829728
_cell_length_b 18.610319
_cell_length_c 9.345943
_cell_angle_alpha 29.845576
_cell_angle_beta 46.852746
_cell_angle_gamma 33.505827
_cell_volume 606.711803
_symmetry_space_group_name_H-M "P -1"
_symmetry_group_IT_number 2
_symmetry_cell_setting 'triclinic'
loop_
_space_group_symop_operation_xyz
x,y,z
-x,-y,-z
loop_
_atom_site_type_symbol
_atom_site_label
_atom_site_fract_x
_atom_site_fract_y
_atom_site_fract_z
Si Si1 0.801705 0.540017 0.943967
Si Si2 0.331291 0.038095 0.174434
Si Si3 0.780432 0.622886 0.137100
Si Si4 0.503804 0.648655 0.826318
Si Si5 0.915434 0.961167 0.778576
Si Si6 0.291245 0.687200 0.444069
Si Si7 0.219745 0.688396 0.209192
O O1 0.688831 0.610078 0.779332
O O2 0.991907 0.508186 0.825958
O O3 0.710622 0.645788 0.000515
O O4 0.815025 0.360785 0.274952
O O5 0.386079 0.843375 0.512226
O O6 0.155740 0.135883 0.063660
O O7 0.500000 0.000000 0.000000
O O8 0.292051 0.172530 0.106029
O O9 0.731087 0.515173 0.465362
O O10 0.500000 0.500000 0.000000
O O11 0.399153 0.666805 0.036390
O O12 0.739171 0.152608 0.703366
O O13 0.000000 0.000000 0.500000
O O14 0.072153 0.817219 0.998771
O O15 0.500000 0.500000 0.500000
O O16 0.161442 0.777905 0.267070
#
# Coordination Sequence:
#
# PCOD9042559 Si02
#       7
#     2   2   2   2   2   2   2
#     4  10  23  44  72  95 142 184 232 292 349 437
#     4  12  28  43  67 100 145 182 235 296 356 428
#     4  10  25  47  67 102 138 188 232 286 370 416
#     4  12  25  43  71 106 139 186 241 297 359 417
#     4  12  26  46  70 106 144 186 240 299 352 425
#     4  11  23  44  74 104 141 187 240 292 353 425
#     4  11  25  44  72 102 138 187 239 294 353 432
#
# _framework density 23.075206000000001
#
# number of rings (size 3 to 8) (size 9 to 14) (size 15 to 20)
#    0.000    0.857    2.857    3.000    8.000    1.143 
#    2.571    0.000    0.000    0.000    0.000    0.000 
#    0.000    0.000    0.000    0.000    0.000    0.000 
#
# Total GULP energy -77994.314219 kJ/mol
# GULP energy per Si atom -5571.022444 kJ/mol
# Density = 2.302269 g / cm^3
# Si number density = 23.075206 Si / 1000 Ang^3
#
#
#
# Elastic Constant Matrix: (Units=GPa)
#
#
# Indices 1 2 3 4 5 6 
#
# 1 152.2552 17.9078 19.5302 -11.0755 8.5912 7.9991
# 2 17.9078 48.0911 24.2867 -13.6321 0.0958 4.2364
# 3 19.5302 24.2867 97.3877 -2.7536 0.5449 4.0373
# 4 -11.0755 -13.6321 -2.7536 27.2796 3.5425 -19.3967
# 5 8.5912 0.0958 0.5449 3.5425 48.7880 2.5250
# 6 7.9991 4.2364 4.0373 -19.3967 2.5250 37.7903
#
#
#
# Elastic Compliance Matrix: (Units=1/GPa)
#
#
# Indices 1 2 3 4 5 6 
#
# 1 0.007112 -0.001528 -0.000975 0.002203 -0.001398 -0.000006
# 2 -0.001528 0.029552 -0.006832 0.019078 -0.001493 0.007633
# 3 -0.000975 -0.006832 0.012147 -0.004579 0.000522 -0.002711
# 4 0.002203 0.019078 -0.004579 0.073156 -0.007546 0.035937
# 5 -0.001398 -0.001493 0.000522 -0.007546 0.021542 -0.004905
# 6 -0.000006 0.007633 -0.002711 0.035937 -0.004905 0.044670
#
#
# Mechanical properties :
#
#
# Convention : Reuss Voigt Hill
#
# Bulk Modulus (GPa) = 33.17695 46.79817 39.98756
# Shear Modulus (GPa) = 23.05244 38.50552 30.77898
#
# Velocity S-wave (km/s) = 3.16415 4.08940 3.65616
# Velocity P-wave (km/s) = 5.26859 6.52858 5.93213
#
# Compressibility (1/GPa) = 0.03014141
#
# Stress axis : x y z
#
# Youngs Moduli (GPa) = 140.60435 33.83894 82.32197
#
# Poissons Ratio (x) = 0.05172 0.08025
# Poissons Ratio (y) = 0.21490 0.56241
# Poissons Ratio (z) = 0.13706 0.23118
#
# Static dielectric constant tensor:
#      x y z
#    x 3.768610 -2.038970 1.229120 
#    y -2.038970 4.135740 -1.295700 
#    z 1.229120 -1.295700 2.586520 
# 
# From -- ./inp_files/245254.got.cif
#   From: 2010.05.17/outbox.cif.g08.bks.cpg/sg2_123_cif.got.tgz:245254.got - 2010.06.03 11:33:40.
