data_PCOD9042336
_publ_section_title
;
Structure prediction by ZEFSAII (Michael W. Deem and Ramdas Pophale) SiO2 
 PCOD9042336
Probable space group: P -1
;
_chemical_formula_sum "Si O2"
_cell_formula_units_Z 16
_cell_length_a 11.088726
_cell_length_b 8.283850
_cell_length_c 8.316399
_cell_angle_alpha 107.856237
_cell_angle_beta 63.978215
_cell_angle_gamma 111.605333
_cell_volume 628.553091
_symmetry_space_group_name_H-M "P -1"
_symmetry_group_IT_number 2
_symmetry_cell_setting 'triclinic'
loop_
_space_group_symop_operation_xyz
x,y,z
-x,-y,-z
loop_
_atom_site_type_symbol
_atom_site_label
_atom_site_fract_x
_atom_site_fract_y
_atom_site_fract_z
Si Si1 0.067637 0.866952 0.240521
Si Si2 0.431307 0.712399 0.988988
Si Si3 0.435322 0.321369 0.768722
Si Si4 0.327083 0.127962 0.309767
Si Si5 0.903235 0.317048 0.164902
Si Si6 0.203771 0.024935 0.661783
Si Si7 0.284675 0.515885 0.499313
Si Si8 0.858645 0.404320 0.719676
O O1 0.052871 0.738817 0.365858
O O2 0.935004 0.939742 0.317759
O O3 0.205933 0.028143 0.228080
O O4 0.071895 0.745916 0.045607
O O5 0.426631 0.516338 0.873924
O O6 0.519896 0.841044 0.843731
O O7 0.518053 0.748520 0.114159
O O8 0.274866 0.695248 0.126455
O O9 0.291305 0.194134 0.758756
O O10 0.560718 0.352196 0.574927
O O11 0.302487 0.013398 0.450629
O O12 0.302759 0.319182 0.422820
O O13 0.795888 0.437370 0.285488
O O14 0.047732 0.422726 0.195603
O O15 0.835111 0.143585 0.255112
O O16 0.196441 0.548546 0.404222
#
# Coordination Sequence:
#
# PCOD9042336 Si02
#       8
#     2   2   2   2   2   2   2   2
#     4  12  26  43  67 100 136 175 221 275 330 393
#     4   9  20  41  69  97 131 175 220 273 332 392
#     4   9  20  40  66  97 133 175 221 270 331 394
#     4  11  24  44  69  99 135 175 221 271 332 398
#     4  12  25  42  68 100 137 175 219 275 329 394
#     4  12  25  42  67  99 137 175 221 272 330 395
#     4  10  23  44  70  98 134 175 218 274 333 395
#     4  11  23  43  69  98 135 174 222 273 331 392
#
# _framework density 25.455286999999998
#
# number of rings (size 3 to 8) (size 9 to 14) (size 15 to 20)
#    0.000    1.250    0.000    6.000    0.000    5.000 
#    0.000    0.000    0.000    0.000    0.000    0.000 
#    0.000    0.000    0.000    0.000    0.000    0.000 
#
# Total GULP energy -89733.289203 kJ/mol
# GULP energy per Si atom -5608.330575 kJ/mol
# Density = 2.539735 g / cm^3
# Si number density = 25.455287 Si / 1000 Ang^3
#
#
#
# Elastic Constant Matrix: (Units=GPa)
#
#
# Indices 1 2 3 4 5 6 
#
# 1 68.4399 35.7195 14.1029 -8.0032 5.1094 6.8760
# 2 35.7195 114.6566 36.3959 -14.7365 0.4165 15.0381
# 3 14.1029 36.3959 111.0572 -5.1160 -15.2386 1.9943
# 4 -8.0032 -14.7365 -5.1160 42.2305 -1.9844 -5.7249
# 5 5.1094 0.4165 -15.2386 -1.9844 31.5729 1.4144
# 6 6.8760 15.0381 1.9943 -5.7249 1.4144 45.9549
#
#
#
# Elastic Compliance Matrix: (Units=1/GPa)
#
#
# Indices 1 2 3 4 5 6 
#
# 1 0.017879 -0.004977 -0.001006 0.001278 -0.003200 -0.000745
# 2 -0.004977 0.011964 -0.003214 0.002446 -0.000629 -0.002707
# 3 -0.001006 -0.003214 0.010943 0.000353 0.005482 0.000603
# 4 0.001278 0.002446 0.000353 0.025167 0.001420 0.002085
# 5 -0.003200 -0.000629 0.005482 0.001420 0.034954 -0.000452
# 6 -0.000745 -0.002707 0.000603 0.002085 -0.000452 0.023005
#
#
# Mechanical properties :
#
#
# Convention : Reuss Voigt Hill
#
# Bulk Modulus (GPa) = 44.65777 51.84338 48.25057
# Shear Modulus (GPa) = 33.38416 37.81401 35.59909
#
# Velocity S-wave (km/s) = 3.62537 3.85841 3.74370
# Velocity P-wave (km/s) = 5.92504 6.34511 6.13867
#
# Compressibility (1/GPa) = 0.02239252
#
# Stress axis : x y z
#
# Youngs Moduli (GPa) = 55.92999 83.58360 91.38248
#
# Poissons Ratio (x) = 0.41600 0.09195
# Poissons Ratio (y) = 0.27837 0.29369
# Poissons Ratio (z) = 0.05627 0.26862
#
# Static dielectric constant tensor:
#      x y z
#    x 2.000000 0.006720 -0.018000 
#    y 0.006720 1.972770 0.014910 
#    z -0.018000 0.014910 2.028540 
# 
# From -- ./inp_files/244905.got.cif
#   From: 2010.05.17/outbox.cif.g08.bks.cpg/sg2_123_cif.got.tgz:244905.got - 2010.06.03 11:33:40.
