data_PCOD9042035
_publ_section_title
;
Structure prediction by ZEFSAII (Michael W. Deem and Ramdas Pophale) SiO2 
 PCOD9042035
Probable space group: P -1
;
_chemical_formula_sum "Si O2"
_cell_formula_units_Z 16
_cell_length_a 10.731007
_cell_length_b 11.772441
_cell_length_c 9.467783
_cell_angle_alpha 115.410816
_cell_angle_beta 93.076566
_cell_angle_gamma 130.587448
_cell_volume 717.370561
_symmetry_space_group_name_H-M "P -1"
_symmetry_group_IT_number 2
_symmetry_cell_setting 'triclinic'
loop_
_space_group_symop_operation_xyz
x,y,z
-x,-y,-z
loop_
_atom_site_type_symbol
_atom_site_label
_atom_site_fract_x
_atom_site_fract_y
_atom_site_fract_z
Si Si1 0.610245 0.790455 0.185585
Si Si2 0.972505 0.282964 0.983176
Si Si3 0.802293 0.823926 0.473794
Si Si4 0.339948 0.554809 0.811903
Si Si5 0.398741 0.930667 0.607202
Si Si6 0.431864 0.068027 0.123812
Si Si7 0.035684 0.057043 0.869594
Si Si8 0.047933 0.608344 0.255758
O O1 0.650664 0.782616 0.345997
O O2 0.798688 0.899673 0.167336
O O3 0.569051 0.907494 0.241092
O O4 0.437793 0.597479 0.989989
O O5 0.089335 0.244059 0.958147
O O6 0.904241 0.277149 0.821486
O O7 0.791062 0.110937 0.971733
O O8 0.074382 0.481116 0.158388
O O9 0.744791 0.635008 0.360593
O O10 0.000000 0.000000 0.500000
O O11 0.849341 0.899041 0.676501
O O12 0.495697 0.746450 0.834728
O O13 0.168992 0.523611 0.803004
O O14 0.476953 0.885727 0.693009
O O15 0.178715 0.748960 0.465675
O O16 0.500000 0.000000 0.500000
O O17 0.500000 0.000000 0.000000
O O18 0.000000 0.000000 0.000000
#
# Coordination Sequence:
#
# PCOD9042035 Si02
#       8
#     2   2   2   2   2   2   2   2
#     4  11  23  45  70 102 140 188 241 292 356 421
#     4  11  23  43  67 100 143 183 234 286 355 423
#     4  10  23  44  69 100 136 185 243 288 338 432
#     4  12  24  44  76 104 140 189 243 297 369 412
#     4  12  25  45  74 105 140 187 240 297 360 429
#     4  12  24  46  68 104 149 182 227 305 360 419
#     4  11  24  43  70  98 146 187 228 296 358 421
#     4  11  23  41  72 103 134 182 242 291 348 430
#
# _framework density 22.303675999999999
#
# number of rings (size 3 to 8) (size 9 to 14) (size 15 to 20)
#    0.000    0.750    3.750    4.875    1.750    1.500 
#    0.000    2.500    0.000    0.000    0.000    0.000 
#    0.000    0.000    0.000    0.000    0.000    0.000 
#
# Total GULP energy -89534.891096 kJ/mol
# GULP energy per Si atom -5595.930693 kJ/mol
# Density = 2.225291 g / cm^3
# Si number density = 22.303676 Si / 1000 Ang^3
#
#
#
# Elastic Constant Matrix: (Units=GPa)
#
#
# Indices 1 2 3 4 5 6 
#
# 1 58.2842 22.9866 8.3042 -6.1661 -3.8751 -10.3612
# 2 22.9866 123.6338 35.9921 1.4260 -5.1483 -15.8194
# 3 8.3042 35.9921 95.4213 -23.1702 12.7002 -16.0685
# 4 -6.1661 1.4260 -23.1702 28.7219 -6.1192 -4.6317
# 5 -3.8751 -5.1483 12.7002 -6.1192 37.8150 5.5086
# 6 -10.3612 -15.8194 -16.0685 -4.6317 5.5086 40.8378
#
#
#
# Elastic Compliance Matrix: (Units=1/GPa)
#
#
# Indices 1 2 3 4 5 6 
#
# 1 0.020100 -0.003731 0.002136 0.007325 0.001269 0.005154
# 2 -0.003731 0.010408 -0.004984 -0.004888 0.001871 0.000317
# 3 0.002136 -0.004984 0.017976 0.015414 -0.005187 0.008133
# 4 0.007325 -0.004888 0.015414 0.051265 0.001508 0.011641
# 5 0.001269 0.001871 -0.005187 0.001508 0.029515 -0.004805
# 6 0.005154 0.000317 0.008133 0.011641 -0.004805 0.031086
#
#
# Mechanical properties :
#
#
# Convention : Reuss Voigt Hill
#
# Bulk Modulus (GPa) = 28.30725 45.76724 37.03724
# Shear Modulus (GPa) = 26.98562 35.47872 31.23217
#
# Velocity S-wave (km/s) = 3.48216 3.99270 3.74614
# Velocity P-wave (km/s) = 5.37462 6.46685 5.94587
#
# Compressibility (1/GPa) = 0.03532664
#
# Stress axis : x y z
#
# Youngs Moduli (GPa) = 49.75119 96.08179 55.62832
#
# Poissons Ratio (x) = 0.35848 -0.11881
# Poissons Ratio (y) = 0.18562 0.27723
# Poissons Ratio (z) = -0.10626 0.47883
#
# Static dielectric constant tensor:
#      x y z
#    x 1.873580 0.018380 0.025090 
#    y 0.018380 1.836910 -0.018320 
#    z 0.025090 -0.018320 1.828440 
# 
# From -- ./inp_files/263068.got.cif
#   From: 2010.05.17/outbox.cif.g08.bks.cpg/sg2_132_cif.got.tgz:263068.got - 2010.06.03 11:33:40.
