data_PCOD9042325
_publ_section_title
;
Structure prediction by ZEFSAII (Michael W. Deem and Ramdas Pophale) SiO2 
 PCOD9042325
Probable space group: P -1
;
_chemical_formula_sum "Si O2"
_cell_formula_units_Z 14
_cell_length_a 11.284299
_cell_length_b 5.763834
_cell_length_c 11.734431
_cell_angle_alpha 126.698447
_cell_angle_beta 73.101461
_cell_angle_gamma 102.327928
_cell_volume 584.729890
_symmetry_space_group_name_H-M "P -1"
_symmetry_group_IT_number 2
_symmetry_cell_setting 'triclinic'
loop_
_space_group_symop_operation_xyz
x,y,z
-x,-y,-z
loop_
_atom_site_type_symbol
_atom_site_label
_atom_site_fract_x
_atom_site_fract_y
_atom_site_fract_z
Si Si1 0.613928 0.925400 0.533458
Si Si2 0.028230 0.196663 0.247488
Si Si3 0.120792 0.318323 0.924133
Si Si4 0.742950 0.836884 0.946640
Si Si5 0.321684 0.555146 0.770362
Si Si6 0.897431 0.185052 0.524143
Si Si7 0.463978 0.597679 0.163932
O O1 0.641296 0.587963 0.402670
O O2 0.500000 0.000000 0.500000
O O3 0.752994 0.078178 0.523303
O O4 0.572916 0.072405 0.706431
O O5 0.153079 0.036464 0.133508
O O6 0.084699 0.522030 0.321516
O O7 0.955182 0.206067 0.388505
O O8 0.926152 0.021423 0.149372
O O9 0.197940 0.392631 0.809874
O O10 0.199919 0.362278 0.029147
O O11 0.000000 0.500000 0.000000
O O12 0.645945 0.637216 0.845022
O O13 0.687305 0.103069 0.109285
O O14 0.424564 0.459856 0.801274
O O15 0.000000 0.000000 0.500000
O O16 0.500000 0.500000 0.000000
#
# Coordination Sequence:
#
# PCOD9042325 Si02
#       7
#     2   2   2   2   2   2   2
#     4  10  23  44  70  96 139 183 222 287 352 410
#     4  11  25  41  65 103 139 179 228 285 352 417
#     4  12  25  40  67 101 140 179 229 290 351 411
#     4  12  25  42  72 102 136 180 240 287 350 421
#     4  11  24  44  70  97 141 182 229 289 354 415
#     4  11  25  43  71 100 140 182 234 287 351 414
#     4  11  23  46  72  99 134 184 234 290 351 418
#
# _framework density 23.942682000000001
#
# number of rings (size 3 to 8) (size 9 to 14) (size 15 to 20)
#    0.000    0.857    5.714    0.857    4.000    1.143 
#    0.000    0.714    3.143    0.000    0.000    0.000 
#    0.000    0.000    0.000    0.000    0.000    0.000 
#
# Total GULP energy -77984.294155 kJ/mol
# GULP energy per Si atom -5570.306725 kJ/mol
# Density = 2.388819 g / cm^3
# Si number density = 23.942682 Si / 1000 Ang^3
#
#
#
# Elastic Constant Matrix: (Units=GPa)
#
#
# Indices 1 2 3 4 5 6 
#
# 1 115.7167 17.6609 20.1265 13.7595 -16.7884 15.7411
# 2 17.6609 17.9589 19.6479 16.3864 -5.0046 1.3122
# 3 20.1265 19.6479 183.3357 19.3541 -16.0203 -8.2663
# 4 13.7595 16.3864 19.3541 36.2147 9.6778 -2.8584
# 5 -16.7884 -5.0046 -16.0203 9.6778 33.5580 8.0264
# 6 15.7411 1.3122 -8.2663 -2.8584 8.0264 29.9119
#
#
#
# Elastic Compliance Matrix: (Units=1/GPa)
#
#
# Indices 1 2 3 4 5 6 
#
# 1 0.012820 -0.001697 0.000100 -0.007901 0.010960 -0.010340
# 2 -0.001697 0.152980 -0.004457 -0.081852 0.050223 -0.028348
# 3 0.000100 -0.004457 0.006440 -0.002150 0.002853 0.000952
# 4 -0.007901 -0.081852 -0.002150 0.083867 -0.048087 0.028072
# 5 0.010960 0.050223 0.002853 -0.048087 0.064990 -0.029217
# 6 -0.010340 -0.028348 0.000952 0.028072 -0.029217 0.050902
#
#
# Mechanical properties :
#
#
# Convention : Reuss Voigt Hill
#
# Bulk Modulus (GPa) = 6.24488 47.98687 27.11587
# Shear Modulus (GPa) = 11.42898 37.24197 24.33548
#
# Velocity S-wave (km/s) = 2.18720 3.94822 3.19157
# Velocity P-wave (km/s) = 2.99873 6.39300 4.99314
#
# Compressibility (1/GPa) = 0.16013120
#
# Stress axis : x y z
#
# Youngs Moduli (GPa) = 78.00551 6.53680 155.27192
#
# Poissons Ratio (x) = 0.01110 -0.01555
# Poissons Ratio (y) = 0.13241 0.69206
# Poissons Ratio (z) = -0.00781 0.02913
#
# Static dielectric constant tensor:
#      x y z
#    x 1.854630 0.075940 -0.018020 
#    y 0.075940 1.972370 0.066600 
#    z -0.018020 0.066600 1.886320 
# 
# From -- ./inp_files/411363.got.cif
#   From: 2010.05.17/outbox.cif.g08.bks.cpg/sg2_206_cif.got.tgz:411363.got - 2010.06.03 11:33:40.
