data_PCOD9042625
_publ_section_title
;
Structure prediction by ZEFSAII (Michael W. Deem and Ramdas Pophale) SiO2 
 PCOD9042625
Probable space group: P -1
;
_chemical_formula_sum "Si O2"
_cell_formula_units_Z 13
_cell_length_a 7.265412
_cell_length_b 22.749191
_cell_length_c 22.435887
_cell_angle_alpha 12.252924
_cell_angle_beta 140.234739
_cell_angle_gamma 138.913657
_cell_volume 503.306113
_symmetry_space_group_name_H-M "P -1"
_symmetry_group_IT_number 2
_symmetry_cell_setting 'triclinic'
loop_
_space_group_symop_operation_xyz
x,y,z
-x,-y,-z
loop_
_atom_site_type_symbol
_atom_site_label
_atom_site_fract_x
_atom_site_fract_y
_atom_site_fract_z
Si Si1 0.847347 0.780031 0.755480
Si Si2 0.148512 0.495909 0.219326
Si Si3 0.613089 0.254457 0.163272
Si Si4 0.715658 0.758214 0.301872
Si Si5 0.994045 0.007794 0.238826
Si Si6 0.000000 0.000000 0.000000
Si Si7 0.248458 0.582667 0.534446
O O1 0.144769 0.789029 0.783234
O O2 0.712247 0.078962 0.419506
O O3 0.633000 0.572113 0.872727
O O4 0.937865 0.646429 0.972358
O O5 0.022925 0.208794 0.496678
O O6 0.470827 0.431128 0.340998
O O7 0.189312 0.720600 0.060058
O O8 0.310789 0.140442 0.178467
O O9 0.500000 0.500000 0.500000
O O10 0.899080 0.829786 0.334787
O O11 0.960309 0.746846 0.322029
O O12 0.500000 0.000000 0.000000
O O13 0.845849 0.728007 0.196383
O O14 0.303258 0.801480 0.278132
#
# Coordination Sequence:
#
# PCOD9042625 Si02
#       7
#     2   2   2   2   2   1   2
#     4  10  23  44  73 105 139 196 234 290 356 438
#     4  12  27  43  72 108 148 186 240 298 366 427
#     4  10  23  45  72 102 146 186 243 287 356 437
#     4  12  29  47  72 101 140 191 242 300 362 428
#     4  12  28  45  69 109 146 188 239 309 359 429
#     4  10  24  40  74  96 126 182 238 290 354 404
#     4  11  26  45  71  98 139 187 232 301 346 447
#
# _framework density 25.829211999999998
#
# number of rings (size 3 to 8) (size 9 to 14) (size 15 to 20)
#    0.000    0.923    0.000    4.615   12.923   12.308 
#    0.000    0.000    0.000    0.000    0.000    0.000 
#    0.000    0.000    0.000    0.000    0.000    0.000 
#
# Total GULP energy -72590.570805 kJ/mol
# GULP energy per Si atom -5583.890062 kJ/mol
# Density = 2.577042 g / cm^3
# Si number density = 25.829212 Si / 1000 Ang^3
#
#
#
# Elastic Constant Matrix: (Units=GPa)
#
#
# Indices 1 2 3 4 5 6 
#
# 1 78.0904 40.4754 5.9735 -11.8711 2.2626 21.4211
# 2 40.4754 139.9207 19.4165 -19.5236 -2.3928 26.0976
# 3 5.9735 19.4165 157.7490 -28.5525 4.8404 19.2800
# 4 -11.8711 -19.5236 -28.5525 50.9963 4.5147 -3.7794
# 5 2.2626 -2.3928 4.8404 4.5147 31.7129 2.2312
# 6 21.4211 26.0976 19.2800 -3.7794 2.2312 38.3496
#
#
#
# Elastic Compliance Matrix: (Units=1/GPa)
#
#
# Indices 1 2 3 4 5 6 
#
# 1 0.016970 -0.003299 0.001265 0.002978 -0.001550 -0.007486
# 2 -0.003299 0.009242 -0.000106 0.002317 0.000916 -0.004218
# 3 0.001265 -0.000106 0.007628 0.004375 -0.001608 -0.003945
# 4 0.002978 0.002317 0.004375 0.023770 -0.003887 -0.002871
# 5 -0.001550 0.000916 -0.001608 -0.003887 0.032598 -0.001229
# 6 -0.007486 -0.004218 -0.003945 -0.002871 -0.001229 0.034900
#
#
# Mechanical properties :
#
#
# Convention : Reuss Voigt Hill
#
# Bulk Modulus (GPa) = 33.83016 56.38787 45.10902
# Shear Modulus (GPa) = 35.90916 44.87139 40.39028
#
# Velocity S-wave (km/s) = 3.73266 4.17254 3.95871
# Velocity P-wave (km/s) = 5.63054 6.71505 6.19657
#
# Compressibility (1/GPa) = 0.02955942
#
# Stress axis : x y z
#
# Youngs Moduli (GPa) = 58.92716 108.20526 131.10377
#
# Poissons Ratio (x) = 0.35700 -0.16585
# Poissons Ratio (y) = 0.19441 0.01386
# Poissons Ratio (z) = -0.07454 0.01144
#
# Static dielectric constant tensor:
#      x y z
#    x 1.850270 0.012800 0.215320 
#    y 0.012800 2.018560 0.047740 
#    z 0.215320 0.047740 1.802500 
# 
# From -- ./inp_files/617639.got.cif
#   From: 2010.05.17/outbox.cif.g08.bks.cpg/sg2_309_cif.got.tgz:617639.got - 2010.06.03 11:33:40.
