data_PCOD9042104
_publ_section_title
;
Structure prediction by ZEFSAII (Michael W. Deem and Ramdas Pophale) SiO2 
 PCOD9042104
Probable space group: P -1
;
_chemical_formula_sum "Si O2"
_cell_formula_units_Z 16
_cell_length_a 10.736207
_cell_length_b 12.030403
_cell_length_c 23.256208
_cell_angle_alpha 149.035297
_cell_angle_beta 154.415030
_cell_angle_gamma 34.738006
_cell_volume 651.413432
_symmetry_space_group_name_H-M "P -1"
_symmetry_group_IT_number 2
_symmetry_cell_setting 'triclinic'
loop_
_space_group_symop_operation_xyz
x,y,z
-x,-y,-z
loop_
_atom_site_type_symbol
_atom_site_label
_atom_site_fract_x
_atom_site_fract_y
_atom_site_fract_z
Si Si1 0.342538 0.740157 0.699852
Si Si2 0.689156 0.112996 0.036831
Si Si3 0.203239 0.751682 0.979594
Si Si4 0.662293 0.925714 0.475839
Si Si5 0.808012 0.711450 0.259334
Si Si6 0.308458 0.774421 0.575208
Si Si7 0.723779 0.785794 0.646105
Si Si8 0.696193 0.444675 0.275883
O O1 0.424518 0.664504 0.635088
O O2 0.579434 0.695756 0.321459
O O3 0.006627 0.875605 0.611905
O O4 0.338429 0.581649 0.682204
O O5 0.559170 0.267166 0.104923
O O6 0.642905 0.257637 0.023603
O O7 0.553662 0.902731 0.877922
O O8 0.000000 0.000000 0.000000
O O9 0.042864 0.063014 0.172496
O O10 0.082607 0.526109 0.832030
O O11 0.543285 0.100467 0.454869
O O12 0.960819 0.616428 0.630110
O O13 0.500000 0.000000 0.500000
O O14 0.455901 0.731012 0.123378
O O15 0.017335 0.702530 0.397889
O O16 0.796473 0.959293 0.340410
O O17 0.563382 0.733044 0.614278
#
# Coordination Sequence:
#
# PCOD9042104 Si02
#       8
#     2   2   2   2   2   2   2   2
#     4  12  24  46  76 107 150 188 249 307 359 446
#     4  10  24  45  72 103 146 193 242 302 362 431
#     4  11  23  44  69 104 153 204 241 295 378 445
#     4  12  24  48  81 105 144 197 249 302 370 440
#     4  10  23  44  69 104 152 192 246 310 362 444
#     4  11  23  44  79 113 146 192 250 311 377 431
#     4  10  25  45  75 104 150 190 244 297 374 444
#     4  10  26  48  77 103 148 197 243 304 370 433
#
# _framework density 24.561975
#
# number of rings (size 3 to 8) (size 9 to 14) (size 15 to 20)
#    0.750    0.500    2.500    3.000    3.500    0.000 
#    2.250   10.000    2.750    0.000    0.000    0.000 
#    0.000    0.000    0.000    0.000    0.000    0.000 
#
# Total GULP energy -89327.745738 kJ/mol
# GULP energy per Si atom -5582.984109 kJ/mol
# Density = 2.450607 g / cm^3
# Si number density = 24.561975 Si / 1000 Ang^3
#
#
#
# Elastic Constant Matrix: (Units=GPa)
#
#
# Indices 1 2 3 4 5 6 
#
# 1 123.9159 33.8699 25.6553 -3.3030 -15.1256 14.9335
# 2 33.8699 101.4990 20.1913 13.4190 -4.8334 -1.1866
# 3 25.6553 20.1913 161.1853 -1.5177 1.9506 -7.6468
# 4 -3.3030 13.4190 -1.5177 34.8989 -4.1334 -1.3120
# 5 -15.1256 -4.8334 1.9506 -4.1334 36.1181 -6.6672
# 6 14.9335 -1.1866 -7.6468 -1.3120 -6.6672 43.6045
#
#
#
# Elastic Compliance Matrix: (Units=1/GPa)
#
#
# Indices 1 2 3 4 5 6 
#
# 1 0.010144 -0.003306 -0.001371 0.002476 0.003575 -0.003183
# 2 -0.003306 0.011794 -0.000942 -0.004859 -0.000104 0.001126
# 3 -0.001371 -0.000942 0.006625 0.000492 -0.000723 0.001510
# 4 0.002476 -0.004859 0.000492 0.031285 0.004064 0.000669
# 5 0.003575 -0.000104 -0.000723 0.004064 0.030302 0.003402
# 6 -0.003183 0.001126 0.001510 0.000669 0.003402 0.024859
#
#
# Mechanical properties :
#
#
# Convention : Reuss Voigt Hill
#
# Bulk Modulus (GPa) = 57.72690 60.67035 59.19863
# Shear Modulus (GPa) = 37.87226 43.38322 40.62774
#
# Velocity S-wave (km/s) = 3.93097 4.20727 4.07146
# Velocity P-wave (km/s) = 6.64507 6.95385 6.80121
#
# Compressibility (1/GPa) = 0.01732295
#
# Stress axis : x y z
#
# Youngs Moduli (GPa) = 98.58398 84.79146 150.93530
#
# Poissons Ratio (x) = 0.28035 0.20698
# Poissons Ratio (y) = 0.32595 0.14221
# Poissons Ratio (z) = 0.13519 0.07989
#
# Static dielectric constant tensor:
#      x y z
#    x 1.982850 -0.015630 -0.032490 
#    y -0.015630 1.920250 0.039650 
#    z -0.032490 0.039650 2.036330 
# 
# From -- ./inp_files/594866.got.cif
#   From: 2010.05.17/outbox.cif.g08.bks.cpg/sg2_298_cif.got.tgz:594866.got - 2010.06.03 11:33:40.
