data_PCOD9042965
_publ_section_title
;
Structure prediction by ZEFSAII (Michael W. Deem and Ramdas Pophale) SiO2 
 PCOD9042965
Probable space group: P -1
;
_chemical_formula_sum "Si O2"
_cell_formula_units_Z 10
_cell_length_a 15.515562
_cell_length_b 11.797069
_cell_length_c 14.403060
_cell_angle_alpha 153.150906
_cell_angle_beta 161.318112
_cell_angle_gamma 28.525971
_cell_volume 371.077172
_symmetry_space_group_name_H-M "P -1"
_symmetry_group_IT_number 2
_symmetry_cell_setting 'triclinic'
loop_
_space_group_symop_operation_xyz
x,y,z
-x,-y,-z
loop_
_atom_site_type_symbol
_atom_site_label
_atom_site_fract_x
_atom_site_fract_y
_atom_site_fract_z
Si Si1 0.245800 0.902233 0.860118
Si Si2 0.924703 0.324055 0.713519
Si Si3 0.627018 0.566905 0.878550
Si Si4 0.368840 0.098099 0.319540
Si Si5 0.815252 0.615428 0.485081
O O1 0.542146 0.786017 0.030556
O O2 0.182658 0.646113 0.650248
O O3 0.056475 0.045898 0.689298
O O4 0.248607 0.081338 0.082448
O O5 0.605467 0.362094 0.388528
O O6 0.087697 0.409036 0.855600
O O7 0.000000 0.500000 0.000000
O O8 0.573250 0.295899 0.663516
O O9 0.157325 0.199775 0.262527
O O10 0.537876 0.805625 0.299985
O O11 0.000000 0.500000 0.500000
#
# Coordination Sequence:
#
# PCOD9042965 Si02
#       5
#     2   2   2   2   2
#     4  11  24  43  69 100 142 186 239 288 356 422
#     4  12  25  45  72 103 146 187 232 291 356 419
#     4  11  26  46  71 106 142 189 233 291 354 425
#     4  10  23  45  67 104 141 183 241 297 351 426
#     4  10  24  42  69 100 140 188 239 295 360 420
#
# _framework density 26.948571999999999
#
# number of rings (size 3 to 8) (size 9 to 14) (size 15 to 20)
#    0.000    1.200    2.000    2.400    2.800    4.000 
#    0.000    0.000    0.000    0.000    0.000    0.000 
#    0.000    0.000    0.000    0.000    0.000    0.000 
#
# Total GULP energy -55929.715588 kJ/mol
# GULP energy per Si atom -5592.971559 kJ/mol
# Density = 2.688724 g / cm^3
# Si number density = 26.948572 Si / 1000 Ang^3
#
#
#
# Elastic Constant Matrix: (Units=GPa)
#
#
# Indices 1 2 3 4 5 6 
#
# 1 216.6953 70.0391 38.7814 2.1209 -14.8711 -20.4424
# 2 70.0391 185.6089 46.6742 19.0786 6.7639 5.6826
# 3 38.7814 46.6742 85.7496 2.3065 -8.1808 -1.6718
# 4 2.1209 19.0786 2.3065 30.7034 12.5269 -9.2599
# 5 -14.8711 6.7639 -8.1808 12.5269 48.2301 7.8275
# 6 -20.4424 5.6826 -1.6718 -9.2599 7.8275 79.1633
#
#
#
# Elastic Compliance Matrix: (Units=1/GPa)
#
#
# Indices 1 2 3 4 5 6 
#
# 1 0.005740 -0.002010 -0.001368 0.000883 0.001336 0.001569
# 2 -0.002010 0.007466 -0.003144 -0.004407 -0.000803 -0.001557
# 3 -0.001368 -0.003144 0.014226 -0.000046 0.002456 -0.000075
# 4 0.000883 -0.004407 -0.000046 0.041704 -0.011006 0.006510
# 5 0.001336 -0.000803 0.002456 -0.011006 0.025071 -0.003312
# 6 0.001569 -0.001557 -0.000075 0.006510 -0.003312 0.014236
#
#
# Mechanical properties :
#
#
# Convention : Reuss Voigt Hill
#
# Bulk Modulus (GPa) = 69.49254 88.78260 79.13757
# Shear Modulus (GPa) = 39.59376 53.78996 46.69186
#
# Velocity S-wave (km/s) = 3.83722 4.47253 4.16700
# Velocity P-wave (km/s) = 6.74354 7.72581 7.25133
#
# Compressibility (1/GPa) = 0.01439003
#
# Stress axis : x y z
#
# Youngs Moduli (GPa) = 174.21223 133.93419 70.29527
#
# Poissons Ratio (x) = 0.26914 0.09616
# Poissons Ratio (y) = 0.35008 0.22098
# Poissons Ratio (z) = 0.23832 0.42103
#
# Static dielectric constant tensor:
#      x y z
#    x 2.133420 -0.066440 -0.054720 
#    y -0.066440 2.224460 0.008260 
#    z -0.054720 0.008260 2.107700 
# 
# From -- ./inp_files/73473.got.cif
#   From: 2010.05.17/outbox.cif.g08.bks.cpg/sg2_37_cif.got.tgz:73473.got - 2010.06.03 11:33:40.
