data_PCOD9042375
_publ_section_title
;
Structure prediction by ZEFSAII (Michael W. Deem and Ramdas Pophale) SiO2 
 PCOD9042375
Probable space group: P -1
;
_chemical_formula_sum "Si O2"
_cell_formula_units_Z 16
_cell_length_a 9.170104
_cell_length_b 9.418098
_cell_length_c 15.619477
_cell_angle_alpha 128.229535
_cell_angle_beta 85.544518
_cell_angle_gamma 57.769765
_cell_volume 707.827656
_symmetry_space_group_name_H-M "P -1"
_symmetry_group_IT_number 2
_symmetry_cell_setting 'triclinic'
loop_
_space_group_symop_operation_xyz
x,y,z
-x,-y,-z
loop_
_atom_site_type_symbol
_atom_site_label
_atom_site_fract_x
_atom_site_fract_y
_atom_site_fract_z
Si Si1 0.402237 0.069894 0.435922
Si Si2 0.682193 0.546891 0.829637
Si Si3 0.294421 0.122890 0.156445
Si Si4 0.563634 0.563668 0.439883
Si Si5 0.961603 0.264739 0.873067
Si Si6 0.641952 0.855777 0.184180
Si Si7 0.973473 0.097655 0.135835
Si Si8 0.767722 0.126702 0.573430
O O1 0.340855 0.325297 0.499860
O O2 0.500000 0.000000 0.500000
O O3 0.590765 0.838630 0.275483
O O4 0.231061 0.064121 0.447618
O O5 0.753029 0.641812 0.798030
O O6 0.873669 0.320268 0.802445
O O7 0.630425 0.406285 0.733947
O O8 0.475367 0.831789 0.990796
O O9 0.082349 0.192933 0.182641
O O10 0.417715 0.056220 0.214972
O O11 0.500000 0.500000 0.500000
O O12 0.732525 0.329413 0.274881
O O13 0.343803 0.799815 0.485379
O O14 0.215389 0.091463 0.800794
O O15 0.808653 0.566396 0.024918
O O16 0.913314 0.145396 0.894381
O O17 0.000000 0.000000 0.000000
O O18 0.000000 0.000000 0.500000
#
# Coordination Sequence:
#
# PCOD9042375 Si02
#       8
#     2   2   2   2   2   2   2   2
#     4  10  25  43  69  96 141 185 236 282 348 421
#     4  10  24  44  70 101 144 178 239 287 365 416
#     4  10  25  43  72 105 139 182 228 304 349 420
#     4  11  27  49  72 102 145 190 237 292 356 430
#     4  10  25  41  73 100 138 182 228 290 356 427
#     4  10  23  44  71 101 138 183 237 283 353 423
#     4  12  28  43  75 107 143 181 239 295 362 416
#     4  11  27  44  72  99 139 187 237 294 349 426
#
# _framework density 22.604372999999999
#
# number of rings (size 3 to 8) (size 9 to 14) (size 15 to 20)
#    0.000    1.500    0.000    1.500   24.500    1.000 
#    0.000    1.250    0.000    0.000    0.000    0.000 
#    0.000    0.000    0.000    0.000    0.000    0.000 
#
# Total GULP energy -89290.926935 kJ/mol
# GULP energy per Si atom -5580.682933 kJ/mol
# Density = 2.255292 g / cm^3
# Si number density = 22.604373 Si / 1000 Ang^3
#
#
#
# Elastic Constant Matrix: (Units=GPa)
#
#
# Indices 1 2 3 4 5 6 
#
# 1 137.7261 65.5089 45.0232 -19.0858 -1.8756 22.8821
# 2 65.5089 116.3242 24.5706 -22.5000 2.3660 15.9961
# 3 45.0232 24.5706 84.7718 -21.9879 -4.0830 -1.1928
# 4 -19.0858 -22.5000 -21.9879 31.8339 3.5165 1.5524
# 5 -1.8756 2.3660 -4.0830 3.5165 35.6248 0.4245
# 6 22.8821 15.9961 -1.1928 1.5524 0.4245 40.6554
#
#
#
# Elastic Compliance Matrix: (Units=1/GPa)
#
#
# Indices 1 2 3 4 5 6 
#
# 1 0.012182 -0.005029 -0.004920 0.000551 0.000417 -0.005047
# 2 -0.005029 0.013024 0.000566 0.006894 -0.001715 -0.002523
# 3 -0.004920 0.000566 0.016571 0.008685 0.000713 0.002694
# 4 0.000551 0.006894 0.008685 0.043231 -0.003649 -0.004380
# 5 0.000417 -0.001715 0.000713 -0.003649 0.028645 0.000301
# 6 -0.005047 -0.002523 0.002694 -0.004380 0.000301 0.028674
#
#
# Mechanical properties :
#
#
# Convention : Reuss Voigt Hill
#
# Bulk Modulus (GPa) = 43.45928 67.66973 55.56450
# Shear Modulus (GPa) = 29.62729 35.20411 32.41570
#
# Velocity S-wave (km/s) = 3.62427 3.95068 3.79099
# Velocity P-wave (km/s) = 6.06478 7.12825 6.61791
#
# Compressibility (1/GPa) = 0.02301004
#
# Stress axis : x y z
#
# Youngs Moduli (GPa) = 82.08943 76.77859 60.34763
#
# Poissons Ratio (x) = 0.38611 0.29694
# Poissons Ratio (y) = 0.41282 -0.03415
# Poissons Ratio (z) = 0.40391 -0.04344
#
# Static dielectric constant tensor:
#      x y z
#    x 1.896360 -0.016090 0.012610 
#    y -0.016090 1.846660 0.039670 
#    z 0.012610 0.039670 1.921110 
# 
# From -- ./inp_files/495596.got.cif
#   From: 2010.05.17/outbox.cif.g08.bks.cpg/sg2_248_cif.got.tgz:495596.got - 2010.06.03 11:33:40.
