data_PCOD9042753
_publ_section_title
;
Structure prediction by ZEFSAII (Michael W. Deem and Ramdas Pophale) SiO2 
 PCOD9042753
Probable space group: P -1
;
_chemical_formula_sum "Si O2"
_cell_formula_units_Z 12
_cell_length_a 5.065509
_cell_length_b 18.130911
_cell_length_c 12.325269
_cell_angle_alpha 152.800240
_cell_angle_beta 90.755320
_cell_angle_gamma 107.066365
_cell_volume 385.122131
_symmetry_space_group_name_H-M "P -1"
_symmetry_group_IT_number 2
_symmetry_cell_setting 'triclinic'
loop_
_space_group_symop_operation_xyz
x,y,z
-x,-y,-z
loop_
_atom_site_type_symbol
_atom_site_label
_atom_site_fract_x
_atom_site_fract_y
_atom_site_fract_z
Si Si1 0.957131 0.471127 0.738871
Si Si2 0.093863 0.384901 0.876249
Si Si3 0.182289 0.206172 0.844148
Si Si4 0.048881 0.972145 0.724434
Si Si5 0.213445 0.247183 0.362666
Si Si6 0.632145 0.412210 0.411981
O O1 0.945793 0.274220 0.445589
O O2 0.674055 0.415603 0.562540
O O3 0.399913 0.660519 0.967911
O O4 0.982284 0.460503 0.864344
O O5 0.098558 0.342207 0.961328
O O6 0.500000 0.500000 0.000000
O O7 0.882315 0.142259 0.511593
O O8 0.989450 0.109286 0.830460
O O9 0.000000 0.000000 0.500000
O O10 0.394676 0.167001 0.043954
O O11 0.710026 0.794445 0.563196
O O12 0.306666 0.395901 0.431263
O O13 0.000000 0.000000 0.000000
O O14 0.000000 0.500000 0.500000
#
# Coordination Sequence:
#
# PCOD9042753 Si02
#       6
#     2   2   2   2   2   2
#     4  10  23  44  75 113 162 203 256 314 399 463
#     4   9  18  43  78 120 160 209 250 323 393 484
#     4   8  18  39  71 112 157 208 250 312 383 471
#     4  11  22  45  81 120 157 207 266 327 388 472
#     4  12  25  47  80 113 155 204 266 323 389 467
#     4  12  29  53  80 109 156 211 268 331 394 461
#
# _framework density 31.158944999999999
#
# number of rings (size 3 to 8) (size 9 to 14) (size 15 to 20)
#    1.000    0.667    1.667    2.500    0.000    2.000 
#    0.000    5.833    0.000    0.000    0.000    0.000 
#    0.000    0.000    0.000    0.000    0.000    0.000 
#
# Total GULP energy -66901.735413 kJ/mol
# GULP energy per Si atom -5575.144618 kJ/mol
# Density = 3.108803 g / cm^3
# Si number density = 31.158945 Si / 1000 Ang^3
#
#
#
# Elastic Constant Matrix: (Units=GPa)
#
#
# Indices 1 2 3 4 5 6 
#
# 1 329.3497 109.0204 91.1524 -10.3485 -5.5896 -28.0308
# 2 109.0204 298.2612 53.0796 -35.3097 -24.7602 -19.2828
# 3 91.1524 53.0796 312.7153 -31.1806 -25.4344 -5.3446
# 4 -10.3485 -35.3097 -31.1806 67.8769 -3.4216 -22.8457
# 5 -5.5896 -24.7602 -25.4344 -3.4216 57.2527 -14.1431
# 6 -28.0308 -19.2828 -5.3446 -22.8457 -14.1431 67.7936
#
#
#
# Elastic Compliance Matrix: (Units=1/GPa)
#
#
# Indices 1 2 3 4 5 6 
#
# 1 0.003761 -0.001185 -0.000915 -0.000129 -0.000303 0.001039
# 2 -0.001185 0.004521 0.000160 0.003207 0.002708 0.002454
# 3 -0.000915 0.000160 0.003848 0.002206 0.002106 0.001153
# 4 -0.000129 0.003207 0.002206 0.020813 0.005890 0.009275
# 5 -0.000303 0.002708 0.002106 0.005890 0.021705 0.007324
# 6 0.001039 0.002454 0.001153 0.009275 0.007324 0.020623
#
#
# Mechanical properties :
#
#
# Convention : Reuss Voigt Hill
#
# Bulk Modulus (GPa) = 121.20774 160.75901 140.98338
# Shear Modulus (GPa) = 61.04913 84.38956 72.71934
#
# Velocity S-wave (km/s) = 4.43118 5.20983 4.83620
# Velocity P-wave (km/s) = 8.07247 9.37524 8.74814
#
# Compressibility (1/GPa) = 0.00825030
#
# Stress axis : x y z
#
# Youngs Moduli (GPa) = 265.88355 221.20846 259.85727
#
# Poissons Ratio (x) = 0.26216 0.23773
# Poissons Ratio (y) = 0.31510 -0.04161
# Poissons Ratio (z) = 0.24324 -0.03542
#
# Static dielectric constant tensor:
#      x y z
#    x 2.753420 -0.081660 0.561330 
#    y -0.081660 3.903300 0.301340 
#    z 0.561330 0.301340 3.112480 
# 
# From -- ./inp_files/132802.got.cif
#   From: 2010.05.17/outbox.cif.g08.bks.cpg/sg2_67_cif.got.tgz:132802.got - 2010.06.03 11:33:40.
