data_PCOD9042204
_publ_section_title
;
Structure prediction by ZEFSAII (Michael W. Deem and Ramdas Pophale) SiO2 
 PCOD9042204
Probable space group: P -1
;
_chemical_formula_sum "Si O2"
_cell_formula_units_Z 16
_cell_length_a 12.335216
_cell_length_b 9.023441
_cell_length_c 17.982473
_cell_angle_alpha 49.734992
_cell_angle_beta 151.121457
_cell_angle_gamma 130.198895
_cell_volume 720.259455
_symmetry_space_group_name_H-M "P -1"
_symmetry_group_IT_number 2
_symmetry_cell_setting 'triclinic'
loop_
_space_group_symop_operation_xyz
x,y,z
-x,-y,-z
loop_
_atom_site_type_symbol
_atom_site_label
_atom_site_fract_x
_atom_site_fract_y
_atom_site_fract_z
Si Si1 0.965218 0.039336 0.172890
Si Si2 0.674754 0.653774 0.504774
Si Si3 0.695125 0.532370 0.384900
Si Si4 0.765683 0.740934 0.872768
Si Si5 0.558270 0.078352 0.279390
Si Si6 0.483149 0.282920 0.023555
Si Si7 0.112819 0.632550 0.873925
Si Si8 0.952760 0.231838 0.574908
O O1 0.880564 0.225990 0.096465
O O2 0.101251 0.110911 0.156964
O O3 0.107256 0.967932 0.348156
O O4 0.770040 0.841226 0.107016
O O5 0.500000 0.500000 0.500000
O O6 0.683180 0.587708 0.445468
O O7 0.919857 0.668392 0.688045
O O8 0.582158 0.855809 0.379551
O O9 0.452277 0.404176 0.251584
O O10 0.886589 0.399698 0.532717
O O11 0.796983 0.713277 0.330671
O O12 0.663009 0.861639 0.835457
O O13 0.919609 0.596433 0.045670
O O14 0.569231 0.140705 0.180595
O O15 0.776558 0.210980 0.408099
O O16 0.645162 0.314541 0.039652
O O17 0.500000 0.500000 0.000000
#
# Coordination Sequence:
#
# PCOD9042204 Si02
#       8
#     2   2   2   2   2   2   2   2
#     4  12  27  44  74 104 141 190 240 290 357 418
#     4  12  28  44  74 108 149 180 238 299 360 414
#     4  10  24  42  72 100 140 185 232 290 353 414
#     4  11  26  47  74 101 148 187 239 285 359 433
#     4  11  26  47  70 107 141 189 239 292 357 424
#     4  12  28  47  74 105 143 187 243 296 351 422
#     4  12  26  49  70 105 145 189 236 294 355 420
#     4  10  23  44  70 100 138 186 234 288 349 422
#
# _framework density 22.214217999999999
#
# number of rings (size 3 to 8) (size 9 to 14) (size 15 to 20)
#    0.000    0.750    2.500    3.000   12.250    2.500 
#    0.000    0.000    0.000    0.000    0.000    0.000 
#    0.000    0.000    0.000    0.000    0.000    0.000 
#
# Total GULP energy -89492.347629 kJ/mol
# GULP energy per Si atom -5593.271727 kJ/mol
# Density = 2.216366 g / cm^3
# Si number density = 22.214218 Si / 1000 Ang^3
#
#
#
# Elastic Constant Matrix: (Units=GPa)
#
#
# Indices 1 2 3 4 5 6 
#
# 1 115.7095 35.7287 0.9297 -4.9326 -5.6118 7.7888
# 2 35.7287 67.9788 13.9175 -16.2477 2.1220 -4.3848
# 3 0.9297 13.9175 67.3719 -19.4114 -15.2692 -5.7565
# 4 -4.9326 -16.2477 -19.4114 29.3860 4.9429 -9.0270
# 5 -5.6118 2.1220 -15.2692 4.9429 29.7698 -6.5589
# 6 7.7888 -4.3848 -5.7565 -9.0270 -6.5589 42.8932
#
#
#
# Elastic Compliance Matrix: (Units=1/GPa)
#
#
# Indices 1 2 3 4 5 6 
#
# 1 0.010954 -0.006840 0.000923 -0.002640 0.002874 -0.002681
# 2 -0.006840 0.022059 -0.001451 0.012458 -0.004521 0.005233
# 3 0.000923 -0.001451 0.022487 0.014648 0.011025 0.007470
# 4 -0.002640 0.012458 0.014648 0.054786 0.000404 0.015310
# 5 0.002874 -0.004521 0.011025 0.000404 0.041571 0.006937
# 6 -0.002681 0.005233 0.007470 0.015310 0.006937 0.029621
#
#
# Mechanical properties :
#
#
# Convention : Reuss Voigt Hill
#
# Bulk Modulus (GPa) = 24.53026 39.13467 31.83246
# Shear Modulus (GPa) = 23.83206 33.77543 28.80375
#
# Velocity S-wave (km/s) = 3.27896 3.90351 3.60479
# Velocity P-wave (km/s) = 5.04004 6.16212 5.62911
#
# Compressibility (1/GPa) = 0.04076598
#
# Stress axis : x y z
#
# Youngs Moduli (GPa) = 91.28864 45.33348 44.46948
#
# Poissons Ratio (x) = 0.31008 -0.04107
# Poissons Ratio (y) = 0.62442 0.06451
# Poissons Ratio (z) = -0.08430 0.06576
#
# Static dielectric constant tensor:
#      x y z
#    x 1.770670 -0.014250 -0.006320 
#    y -0.014250 1.886400 0.010490 
#    z -0.006320 0.010490 1.863590 
# 
# From -- ./inp_files/186762.got.cif
#   From: 2010.05.17/outbox.cif.g08.bks.cpg/sg2_94_cif.got.tgz:186762.got - 2010.06.03 11:33:40.
