data_PCOD9042385
_publ_section_title
;
Structure prediction by ZEFSAII (Michael W. Deem and Ramdas Pophale) SiO2 
 PCOD9042385
Probable space group: P -1
;
_chemical_formula_sum "Si O2"
_cell_formula_units_Z 14
_cell_length_a 9.248025
_cell_length_b 6.969511
_cell_length_c 9.408664
_cell_angle_alpha 84.172775
_cell_angle_beta 108.519018
_cell_angle_gamma 111.085806
_cell_volume 536.468309
_symmetry_space_group_name_H-M "P -1"
_symmetry_group_IT_number 2
_symmetry_cell_setting 'triclinic'
loop_
_space_group_symop_operation_xyz
x,y,z
-x,-y,-z
loop_
_atom_site_type_symbol
_atom_site_label
_atom_site_fract_x
_atom_site_fract_y
_atom_site_fract_z
Si Si1 0.379722 0.280641 0.535159
Si Si2 0.079254 0.984892 0.835456
Si Si3 0.156674 0.343803 0.008643
Si Si4 0.600424 0.255441 0.852304
Si Si5 0.757435 0.087436 0.684274
Si Si6 0.814786 0.467620 0.477981
Si Si7 0.751657 0.295315 0.180504
O O1 0.500000 0.500000 0.500000
O O2 0.446420 0.225173 0.708083
O O3 0.213320 0.324385 0.505860
O O4 0.356850 0.105859 0.424870
O O5 0.164913 0.875201 0.764569
O O6 0.989732 0.804258 0.934233
O O7 0.933201 0.061617 0.737028
O O8 0.204551 0.184631 0.936728
O O9 0.292366 0.498709 0.139039
O O10 0.123009 0.504128 0.877042
O O11 0.693294 0.117499 0.817244
O O12 0.605842 0.223623 0.026094
O O13 0.761801 0.295274 0.593823
O O14 0.713069 0.373293 0.311590
O O15 0.000000 0.500000 0.500000
#
# Coordination Sequence:
#
# PCOD9042385 Si02
#       7
#     2   2   2   2   2   2   2
#     4  12  26  49  76 101 142 195 242 292 355 423
#     4  11  20  36  68 104 137 185 230 300 348 408
#     4   9  21  37  64 103 137 175 240 288 346 410
#     4  10  23  44  71 102 136 185 243 294 338 427
#     4  12  26  43  75 107 140 190 248 288 351 429
#     4  12  28  47  71 107 151 187 232 298 362 427
#     4  10  24  41  64 102 143 179 229 293 355 416
#
# _framework density 26.096601
#
# number of rings (size 3 to 8) (size 9 to 14) (size 15 to 20)
#    0.857    0.286    1.429    5.143    4.000    4.000 
#    0.000    0.714    0.000    0.000    0.000    0.000 
#    0.000    0.000    0.000    0.000    0.000    0.000 
#
# Total GULP energy -78356.390330 kJ/mol
# GULP energy per Si atom -5596.885024 kJ/mol
# Density = 2.603720 g / cm^3
# Si number density = 26.096601 Si / 1000 Ang^3
#
#
#
# Elastic Constant Matrix: (Units=GPa)
#
#
# Indices 1 2 3 4 5 6 
#
# 1 58.2339 31.9675 8.2642 -4.2804 16.9728 -9.5290
# 2 31.9675 125.1325 29.3476 23.5682 16.4146 -19.2396
# 3 8.2642 29.3476 123.6994 3.7634 11.1889 3.5566
# 4 -4.2804 23.5682 3.7634 51.8851 -8.6156 9.4502
# 5 16.9728 16.4146 11.1889 -8.6156 33.3473 2.3164
# 6 -9.5290 -19.2396 3.5566 9.4502 2.3164 38.8588
#
#
#
# Elastic Compliance Matrix: (Units=1/GPa)
#
#
# Indices 1 2 3 4 5 6 
#
# 1 0.023050 -0.004482 0.000220 0.001712 -0.009404 0.003557
# 2 -0.004482 0.013485 -0.002282 -0.008925 -0.006476 0.008343
# 3 0.000220 -0.002282 0.008803 0.000482 -0.001686 -0.001899
# 4 0.001712 -0.008925 0.000482 0.027367 0.011220 -0.011367
# 5 -0.009404 -0.006476 -0.001686 0.011220 0.042162 -0.010600
# 6 0.003557 0.008343 -0.001899 -0.011367 -0.010600 0.034307
#
#
# Mechanical properties :
#
#
# Convention : Reuss Voigt Hill
#
# Bulk Modulus (GPa) = 31.00877 49.58050 40.29463
# Shear Modulus (GPa) = 28.89933 40.65067 34.77500
#
# Velocity S-wave (km/s) = 3.33137 3.95105 3.65437
# Velocity P-wave (km/s) = 5.16773 6.31304 5.76888
#
# Compressibility (1/GPa) = 0.03224894
#
# Stress axis : x y z
#
# Youngs Moduli (GPa) = 43.38351 74.15643 113.59337
#
# Poissons Ratio (x) = 0.33237 -0.02495
# Poissons Ratio (y) = 0.19444 0.25927
# Poissons Ratio (z) = -0.00953 0.16926
#
# Static dielectric constant tensor:
#      x y z
#    x 2.120710 0.031200 0.003310 
#    y 0.031200 2.006320 0.000290 
#    z 0.003310 0.000290 2.073100 
# 
# From -- ./inp_files/373192.got.cif
#   From: 2010.05.17/outbox.cif.g08.bks.cpg/sg2_187_cif.got.tgz:373192.got - 2010.06.03 11:33:40.
