data_PCOD9042876
_publ_section_title
;
Structure prediction by ZEFSAII (Michael W. Deem and Ramdas Pophale) SiO2 
 PCOD9042876
Probable space group: P -1
;
_chemical_formula_sum "Si O2"
_cell_formula_units_Z 12
_cell_length_a 7.947338
_cell_length_b 22.212957
_cell_length_c 14.159720
_cell_angle_alpha 19.630736
_cell_angle_beta 33.538431
_cell_angle_gamma 34.831857
_cell_volume 455.282792
_symmetry_space_group_name_H-M "P -1"
_symmetry_group_IT_number 2
_symmetry_cell_setting 'triclinic'
loop_
_space_group_symop_operation_xyz
x,y,z
-x,-y,-z
loop_
_atom_site_type_symbol
_atom_site_label
_atom_site_fract_x
_atom_site_fract_y
_atom_site_fract_z
Si Si1 0.253308 0.053416 0.235008
Si Si2 0.799084 0.238993 0.465374
Si Si3 0.473127 0.655748 0.377274
Si Si4 0.404546 0.342696 0.121150
Si Si5 0.142943 0.660680 0.241197
Si Si6 0.189993 0.222867 0.586156
O O1 0.609142 0.981481 0.211056
O O2 0.212251 0.928826 0.348552
O O3 0.000000 0.000000 0.500000
O O4 0.245036 0.269002 0.912941
O O5 0.131819 0.253656 0.333069
O O6 0.581558 0.228580 0.671950
O O7 0.679665 0.437999 0.179322
O O8 0.564762 0.446397 0.675441
O O9 0.144547 0.699541 0.416239
O O10 0.404988 0.311303 0.280163
O O11 0.704183 0.259714 0.038640
O O12 0.000000 0.500000 0.500000
O O13 0.894861 0.754621 0.295604
#
# Coordination Sequence:
#
# PCOD9042876 Si02
#       6
#     2   2   2   2   2   2
#     4  12  27  40  64  99 137 176 216 264 332 393
#     4   9  20  42  66  92 130 171 211 279 316 387
#     4  10  23  45  65  96 133 173 218 265 337 388
#     4   9  21  41  68  98 124 165 226 267 332 371
#     4  11  24  40  73 100 127 171 221 279 325 385
#     4  11  24  44  69  95 134 176 217 276 318 393
#
# _framework density 26.357244999999999
#
# number of rings (size 3 to 8) (size 9 to 14) (size 15 to 20)
#    0.000    1.667    0.000    4.500    7.000    1.333 
#    0.000    1.667    0.000    0.000    0.000    0.000 
#    0.000    0.000    0.000    0.000    0.000    0.000 
#
# Total GULP energy -66955.432271 kJ/mol
# GULP energy per Si atom -5579.619356 kJ/mol
# Density = 2.629725 g / cm^3
# Si number density = 26.357245 Si / 1000 Ang^3
#
#
#
# Elastic Constant Matrix: (Units=GPa)
#
#
# Indices 1 2 3 4 5 6 
#
# 1 73.0210 34.8927 -1.4515 2.3081 2.6329 2.4502
# 2 34.8927 135.7595 32.9222 39.7873 17.7287 22.2576
# 3 -1.4515 32.9222 93.5031 32.0463 5.5389 18.7165
# 4 2.3081 39.7873 32.0463 54.5397 6.4007 16.4818
# 5 2.6329 17.7287 5.5389 6.4007 23.2382 10.0376
# 6 2.4502 22.2576 18.7165 16.4818 10.0376 57.6487
#
#
#
# Elastic Compliance Matrix: (Units=1/GPa)
#
#
# Indices 1 2 3 4 5 6 
#
# 1 0.016127 -0.005290 0.001242 0.002274 0.001249 0.000086
# 2 -0.005290 0.011965 -0.001468 -0.006650 -0.005922 -0.000986
# 3 0.001242 -0.001468 0.013882 -0.006522 0.000418 -0.002201
# 4 0.002274 -0.006650 -0.006522 0.027940 0.000154 -0.003427
# 5 0.001249 -0.005922 0.000418 0.000154 0.050152 -0.006679
# 6 0.000086 -0.000986 -0.002201 -0.003427 -0.006679 0.020581
#
#
# Mechanical properties :
#
#
# Convention : Reuss Voigt Hill
#
# Bulk Modulus (GPa) = 32.31653 48.33448 40.32550
# Shear Modulus (GPa) = 30.86558 42.81333 36.83946
#
# Velocity S-wave (km/s) = 3.42577 4.03469 3.74264
# Velocity P-wave (km/s) = 5.28540 6.33111 5.83174
#
# Compressibility (1/GPa) = 0.03094392
#
# Stress axis : x y z
#
# Youngs Moduli (GPa) = 62.00640 83.57476 72.03437
#
# Poissons Ratio (x) = 0.44211 -0.08949
# Poissons Ratio (y) = 0.32801 0.10574
# Poissons Ratio (z) = -0.07703 0.12268
#
# Static dielectric constant tensor:
#      x y z
#    x 2.205350 -0.021480 0.099500 
#    y -0.021480 2.067030 -0.001450 
#    z 0.099500 -0.001450 2.081110 
# 
# From -- ./inp_files/157578.got.cif
#   From: 2010.05.17/outbox.cif.g08.bks.cpg/sg2_79_cif.got.tgz:157578.got - 2010.06.03 11:33:40.
