data_PCOD9042540
_publ_section_title
;
Structure prediction by ZEFSAII (Michael W. Deem and Ramdas Pophale) SiO2 
 PCOD9042540
Probable space group: P -1
;
_chemical_formula_sum "Si O2"
_cell_formula_units_Z 16
_cell_length_a 21.579836
_cell_length_b 11.557569
_cell_length_c 11.918355
_cell_angle_alpha 152.481002
_cell_angle_beta 152.243288
_cell_angle_gamma 29.736305
_cell_volume 589.509563
_symmetry_space_group_name_H-M "P -1"
_symmetry_group_IT_number 2
_symmetry_cell_setting 'triclinic'
loop_
_space_group_symop_operation_xyz
x,y,z
-x,-y,-z
loop_
_atom_site_type_symbol
_atom_site_label
_atom_site_fract_x
_atom_site_fract_y
_atom_site_fract_z
Si Si1 0.916276 0.285822 0.849494
Si Si2 0.623075 0.616498 0.304181
Si Si3 0.688886 0.107828 0.407933
Si Si4 0.858831 0.062272 0.249999
Si Si5 0.980535 0.718818 0.755913
Si Si6 0.322214 0.255753 0.724998
Si Si7 0.442803 0.552377 0.301793
Si Si8 0.339492 0.218751 0.247002
O O1 0.842637 0.068943 0.571244
O O2 0.802615 0.511582 0.783848
O O3 0.070684 0.143934 0.916807
O O4 0.930051 0.402644 0.093422
O O5 0.779619 0.365705 0.336932
O O6 0.589467 0.799597 0.296904
O O7 0.621813 0.755577 0.539977
O O8 0.500000 0.500000 0.000000
O O9 0.565265 0.245898 0.237211
O O10 0.644056 0.347308 0.636571
O O11 0.673554 0.870690 0.251761
O O12 0.000000 0.000000 0.500000
O O13 0.733688 0.002234 0.063770
O O14 0.814959 0.792610 0.581968
O O15 0.000000 0.500000 0.500000
O O16 0.000000 0.000000 0.000000
O O17 0.331610 0.542965 0.021349
O O18 0.537173 0.733785 0.590255
#
# Coordination Sequence:
#
# PCOD9042540 Si02
#       8
#     2   2   2   2   2   2   2   2
#     4  11  24  50  77 112 157 205 271 333 415 499
#     4  12  28  49  72 116 153 207 274 340 411 493
#     4  10  23  45  70 107 147 202 258 324 412 491
#     4  12  28  48  80 112 156 216 276 337 417 495
#     4  12  28  48  75 117 163 207 267 333 420 503
#     4  12  25  42  74  98 159 193 260 330 411 474
#     4  10  23  44  72 107 147 201 266 327 405 503
#     4  11  25  49  76 108 151 202 275 335 408 491
#
# _framework density 27.141204999999999
#
# number of rings (size 3 to 8) (size 9 to 14) (size 15 to 20)
#    0.000    0.750    3.750    2.250    5.250    1.500 
#    6.750    0.000    0.000    0.000    0.000    0.000 
#    0.000    0.000    0.000    0.000    0.000    0.000 
#
# Total GULP energy -89419.622695 kJ/mol
# GULP energy per Si atom -5588.726418 kJ/mol
# Density = 2.707943 g / cm^3
# Si number density = 27.141205 Si / 1000 Ang^3
#
#
#
# Elastic Constant Matrix: (Units=GPa)
#
#
# Indices 1 2 3 4 5 6 
#
# 1 126.7771 12.2334 45.8720 11.4463 15.9199 12.6371
# 2 12.2334 88.9617 17.7798 3.1014 6.9537 28.5199
# 3 45.8720 17.7798 154.2429 -17.9897 13.9652 3.7556
# 4 11.4463 3.1014 -17.9897 29.6205 -3.7866 -0.5662
# 5 15.9199 6.9537 13.9652 -3.7866 68.9547 -0.1051
# 6 12.6371 28.5199 3.7556 -0.5662 -0.1051 27.1941
#
#
#
# Elastic Compliance Matrix: (Units=1/GPa)
#
#
# Indices 1 2 3 4 5 6 
#
# 1 0.010671 0.001797 -0.003841 -0.007058 -0.002264 -0.006469
# 2 0.001797 0.018094 -0.002515 -0.004749 -0.002021 -0.019570
# 3 -0.003841 -0.002515 0.008676 0.007053 -0.000224 0.003370
# 4 -0.007058 -0.004749 0.007053 0.041807 0.002988 0.008168
# 5 -0.002264 -0.002021 -0.000224 0.002988 0.015443 0.003325
# 6 -0.006469 -0.019570 0.003370 0.008168 0.003325 0.060021
#
#
# Mechanical properties :
#
#
# Convention : Reuss Voigt Hill
#
# Bulk Modulus (GPa) = 35.30635 57.97245 46.63940
# Shear Modulus (GPa) = 28.85668 44.76028 36.80848
#
# Velocity S-wave (km/s) = 3.26422 4.06539 3.68664
# Velocity P-wave (km/s) = 5.21953 6.59109 5.94500
#
# Compressibility (1/GPa) = 0.02832352
#
# Stress axis : x y z
#
# Youngs Moduli (GPa) = 93.71448 55.26781 115.25518
#
# Poissons Ratio (x) = -0.09932 0.44273
# Poissons Ratio (y) = -0.16842 0.28981
# Poissons Ratio (z) = 0.35998 0.13897
#
# Static dielectric constant tensor:
#      x y z
#    x 2.287980 0.008430 -0.092560 
#    y 0.008430 2.314660 -0.000740 
#    z -0.092560 -0.000740 2.157380 
# 
# From -- ./inp_files/471271.got.cif
#   From: 2010.05.17/outbox.cif.g08.bks.cpg/sg2_236_cif.got.tgz:471271.got - 2010.06.03 11:33:40.
