data_PCOD9042840
_publ_section_title
;
Structure prediction by ZEFSAII (Michael W. Deem and Ramdas Pophale) SiO2 
 PCOD9042840
Probable space group: P -1
;
_chemical_formula_sum "Si O2"
_cell_formula_units_Z 12
_cell_length_a 14.538361
_cell_length_b 7.306481
_cell_length_c 7.344206
_cell_angle_alpha 119.144070
_cell_angle_beta 93.790721
_cell_angle_gamma 121.234052
_cell_volume 526.912287
_symmetry_space_group_name_H-M "P -1"
_symmetry_group_IT_number 2
_symmetry_cell_setting 'triclinic'
loop_
_space_group_symop_operation_xyz
x,y,z
-x,-y,-z
loop_
_atom_site_type_symbol
_atom_site_label
_atom_site_fract_x
_atom_site_fract_y
_atom_site_fract_z
Si Si1 0.625085 0.908995 0.301816
Si Si2 0.248407 0.743752 0.867919
Si Si3 0.357032 0.534135 0.036429
Si Si4 0.116026 0.168471 0.971655
Si Si5 0.170794 0.721342 0.209214
Si Si6 0.009150 0.776337 0.463103
O O1 0.487516 0.768521 0.241502
O O2 0.668082 0.055882 0.182889
O O3 0.712592 0.117435 0.570406
O O4 0.634975 0.671177 0.174480
O O5 0.123531 0.489338 0.641039
O O6 0.310980 0.645297 0.942870
O O7 0.209607 0.848608 0.074474
O O8 0.259463 0.362042 0.101116
O O9 0.089573 0.930852 0.724571
O O10 0.113842 0.409544 0.022754
O O11 0.000000 0.000000 0.000000
O O12 0.078246 0.730158 0.309516
O O13 0.000000 0.000000 0.500000
#
# Coordination Sequence:
#
# PCOD9042840 Si02
#       6
#     2   2   2   2   2   2
#     4  11  23  44  72  92 139 181 218 284 333 392
#     4  11  24  41  69  99 132 183 220 274 343 400
#     4  10  23  45  64  99 140 169 228 286 321 401
#     4  11  24  39  66  97 131 175 221 272 338 398
#     4  11  24  42  67 101 133 176 230 273 334 409
#     4  12  22  42  63  95 145 166 217 291 324 390
#
# _framework density 22.774187999999999
#
# number of rings (size 3 to 8) (size 9 to 14) (size 15 to 20)
#    0.000    1.000    5.000    2.000    2.333    4.000 
#    0.000    8.333    0.000    0.000    0.000    0.000 
#    0.000    0.000    0.000    0.000    0.000    0.000 
#
# Total GULP energy -66979.824272 kJ/mol
# GULP energy per Si atom -5581.652023 kJ/mol
# Density = 2.272235 g / cm^3
# Si number density = 22.774188 Si / 1000 Ang^3
#
#
#
# Elastic Constant Matrix: (Units=GPa)
#
#
# Indices 1 2 3 4 5 6 
#
# 1 116.5204 41.3204 38.5896 21.3688 10.6342 35.3095
# 2 41.3204 116.1485 18.6311 -1.5456 16.9183 30.8491
# 3 38.5896 18.6311 94.7552 7.8483 7.1074 8.1794
# 4 21.3688 -1.5456 7.8483 20.9016 9.2874 0.8645
# 5 10.6342 16.9183 7.1074 9.2874 47.6283 13.5252
# 6 35.3095 30.8491 8.1794 0.8645 13.5252 49.4342
#
#
#
# Elastic Compliance Matrix: (Units=1/GPa)
#
#
# Indices 1 2 3 4 5 6 
#
# 1 0.017270 -0.003615 -0.004290 -0.017875 0.004473 -0.010282
# 2 -0.003615 0.011586 -0.000770 0.006510 -0.003412 -0.003701
# 3 -0.004290 -0.000770 0.012372 0.000121 -0.001153 0.001811
# 4 -0.017875 0.006510 0.000121 0.073153 -0.015946 0.011769
# 5 0.004473 -0.003412 -0.001153 -0.015946 0.026737 -0.007912
# 6 -0.010282 -0.003701 0.001811 0.011769 -0.007912 0.031542
#
#
# Mechanical properties :
#
#
# Convention : Reuss Voigt Hill
#
# Bulk Modulus (GPa) = 41.87742 58.27850 50.07796
# Shear Modulus (GPa) = 25.25651 38.85170 32.05410
#
# Velocity S-wave (km/s) = 3.33377 4.13480 3.75570
# Velocity P-wave (km/s) = 5.76600 6.95993 6.39091
#
# Compressibility (1/GPa) = 0.02387922
#
# Stress axis : x y z
#
# Youngs Moduli (GPa) = 57.90262 86.31330 80.82624
#
# Poissons Ratio (x) = 0.31198 0.34676
# Poissons Ratio (y) = 0.20929 0.06222
# Poissons Ratio (z) = 0.24842 0.06644
#
# Static dielectric constant tensor:
#      x y z
#    x 1.946930 -0.027550 0.044640 
#    y -0.027550 1.899180 -0.046900 
#    z 0.044640 -0.046900 1.895370 
# 
# From -- ./inp_files/197133.got.cif
#   From: 2010.05.17/outbox.cif.g08.bks.cpg/sg2_99_cif.got.tgz:197133.got - 2010.06.03 11:33:40.
