data_PCOD9042939
_publ_section_title
;
Structure prediction by ZEFSAII (Michael W. Deem and Ramdas Pophale) SiO2 
 PCOD9042939
Probable space group: P -1
;
_chemical_formula_sum "Si O2"
_cell_formula_units_Z 16
_cell_length_a 9.402990
_cell_length_b 10.404937
_cell_length_c 11.362887
_cell_angle_alpha 36.968264
_cell_angle_beta 118.870422
_cell_angle_gamma 123.331105
_cell_volume 556.456658
_symmetry_space_group_name_H-M "P -1"
_symmetry_group_IT_number 2
_symmetry_cell_setting 'triclinic'
loop_
_space_group_symop_operation_xyz
x,y,z
-x,-y,-z
loop_
_atom_site_type_symbol
_atom_site_label
_atom_site_fract_x
_atom_site_fract_y
_atom_site_fract_z
Si Si1 0.258364 0.942349 0.796541
Si Si2 0.652197 0.326681 0.444276
Si Si3 0.843997 0.451723 0.648039
Si Si4 0.141292 0.316272 0.140889
Si Si5 0.160425 0.055379 0.902625
Si Si6 0.237642 0.063440 0.172092
Si Si7 0.383648 0.570787 0.227773
Si Si8 0.186790 0.737955 0.683082
O O1 0.249849 0.948310 0.645635
O O2 0.056578 0.818463 0.832100
O O3 0.276203 0.118415 0.784477
O O4 0.382007 0.800680 0.993181
O O5 0.815728 0.462465 0.489683
O O6 0.634401 0.081522 0.671980
O O7 0.512791 0.444213 0.330786
O O8 0.688353 0.285493 0.353745
O O9 0.865666 0.210804 0.876189
O O10 0.661962 0.425866 0.656592
O O11 0.001708 0.662953 0.599452
O O12 0.204829 0.401953 0.230505
O O13 0.256055 0.192080 0.208561
O O14 0.167438 0.533784 0.913203
O O15 0.247969 0.184300 0.961884
O O16 0.967822 0.062379 0.811144
#
# Coordination Sequence:
#
# PCOD9042939 Si02
#       8
#     2   2   2   2   2   2   2   2
#     4   9  16  31  57  73  88 134 182 206 222 295
#     4  11  24  29  46  85 113 123 150 219 273 284
#     4  10  17  35  55  73  97 138 174 202 236 307
#     4  10  17  33  60  70  92 140 182 199 227 308
#     4   8  15  29  55  73  89 128 185 203 221 287
#     4   9  17  32  47  76 104 129 164 204 248 301
#     4  10  18  33  53  77  99 132 172 205 246 297
#     4  11  18  33  53  80  98 127 171 216 248 279
#
# _framework density 28.753364000000001
#
# number of rings (size 3 to 8) (size 9 to 14) (size 15 to 20)
#    0.000    2.250    5.000    1.500    0.000    2.500 
#    0.000    2.500    0.000    0.000    3.250    6.125 
#    0.000    0.000    0.000    0.000    0.000    0.000 
#
# Total GULP energy -89381.608687 kJ/mol
# GULP energy per Si atom -5586.350543 kJ/mol
# Density = 2.868792 g / cm^3
# Si number density = 28.753364 Si / 1000 Ang^3
#
#
#
# Elastic Constant Matrix: (Units=GPa)
#
#
# Indices 1 2 3 4 5 6 
#
# 1 135.6965 37.5568 54.4927 0.3985 13.4653 -38.2637
# 2 37.5568 94.8214 22.6551 17.9652 -13.2916 -53.8493
# 3 54.4927 22.6551 95.2996 -7.8904 0.6870 -13.7322
# 4 0.3985 17.9652 -7.8904 48.0636 -13.5636 -10.0711
# 5 13.4653 -13.2916 0.6870 -13.5636 41.1189 2.7801
# 6 -38.2637 -53.8493 -13.7322 -10.0711 2.7801 57.8330
#
#
#
# Elastic Compliance Matrix: (Units=1/GPa)
#
#
# Indices 1 2 3 4 5 6 
#
# 1 0.012128 -0.000126 -0.006012 -0.000993 -0.004681 0.006531
# 2 -0.000126 0.025130 -0.003140 -0.003823 0.005493 0.021640
# 3 -0.006012 -0.003140 0.014538 0.003588 0.002092 -0.002925
# 4 -0.000993 -0.003823 0.003588 0.025008 0.007235 0.000642
# 5 -0.004681 0.005493 0.002092 0.007235 0.029822 0.002341
# 6 0.006531 0.021640 -0.002925 0.000642 0.002341 0.041067
#
#
# Mechanical properties :
#
#
# Convention : Reuss Voigt Hill
#
# Bulk Modulus (GPa) = 30.08445 61.69185 45.88815
# Shear Modulus (GPa) = 28.19630 43.47728 35.83679
#
# Velocity S-wave (km/s) = 3.13489 3.89276 3.53420
# Velocity P-wave (km/s) = 4.85686 6.45809 5.71384
#
# Compressibility (1/GPa) = 0.03323976
#
# Stress axis : x y z
#
# Youngs Moduli (GPa) = 82.45642 39.79277 68.78627
#
# Poissons Ratio (x) = 0.00502 0.41354
# Poissons Ratio (y) = 0.01040 0.21598
# Poissons Ratio (z) = 0.49573 0.12494
#
# Static dielectric constant tensor:
#      x y z
#    x 2.187730 -0.009400 -0.034230 
#    y -0.009400 2.458240 -0.031440 
#    z -0.034230 -0.031440 2.243110 
# 
# From -- ./inp_files/252621.got.cif
#   From: 2010.05.17/outbox.cif.g08.bks.cpg/sg2_127_cif.got.tgz:252621.got - 2010.06.03 11:33:40.
