data_PCOD9042478
_publ_section_title
;
Structure prediction by ZEFSAII (Michael W. Deem and Ramdas Pophale) SiO2 
 PCOD9042478
Probable space group: P -1
;
_chemical_formula_sum "Si O2"
_cell_formula_units_Z 12
_cell_length_a 14.046339
_cell_length_b 5.508363
_cell_length_c 15.056735
_cell_angle_alpha 115.320024
_cell_angle_beta 30.170739
_cell_angle_gamma 122.594228
_cell_volume 491.285914
_symmetry_space_group_name_H-M "P -1"
_symmetry_group_IT_number 2
_symmetry_cell_setting 'triclinic'
loop_
_space_group_symop_operation_xyz
x,y,z
-x,-y,-z
loop_
_atom_site_type_symbol
_atom_site_label
_atom_site_fract_x
_atom_site_fract_y
_atom_site_fract_z
Si Si1 0.812114 0.988595 0.709250
Si Si2 0.866030 0.040048 0.876579
Si Si3 0.231900 0.032039 0.804691
Si Si4 0.395395 0.716920 0.774295
Si Si5 0.689281 0.797485 0.416975
Si Si6 0.607008 0.435953 0.991751
O O1 0.877886 0.962427 0.752939
O O2 0.740186 0.258984 0.820277
O O3 0.000000 0.000000 0.500000
O O4 0.598316 0.737344 0.814875
O O5 0.090609 0.225781 0.757891
O O6 0.759553 0.727359 0.958762
O O7 0.703593 0.188839 0.046911
O O8 0.353455 0.379165 0.767400
O O9 0.279225 0.978600 0.654958
O O10 0.281797 0.825054 0.802317
O O11 0.000000 0.000000 0.000000
O O12 0.625530 0.876866 0.577397
O O13 0.500000 0.500000 0.500000
O O14 0.500000 0.500000 0.000000
#
# Coordination Sequence:
#
# PCOD9042478 Si02
#       6
#     2   2   2   2   2   2
#     4  10  23  44  72 100 133 174 225 290 356 425
#     4  11  24  42  67  99 133 179 229 282 349 416
#     4  11  22  43  68  91 138 188 230 290 342 398
#     4  11  25  43  66  97 138 183 235 286 342 409
#     4  10  24  43  64  99 139 186 234 281 339 408
#     4   9  22  44  67  96 134 170 220 286 357 417
#
# _framework density 24.425695999999999
#
# number of rings (size 3 to 8) (size 9 to 14) (size 15 to 20)
#    0.000    1.667    1.667    1.000    4.667    8.000 
#    9.000    0.000    0.000    0.000    0.000    0.000 
#    0.000    0.000    0.000    0.000    0.000    0.000 
#
# Total GULP energy -66928.917957 kJ/mol
# GULP energy per Si atom -5577.409830 kJ/mol
# Density = 2.437010 g / cm^3
# Si number density = 24.425696 Si / 1000 Ang^3
#
#
#
# Elastic Constant Matrix: (Units=GPa)
#
#
# Indices 1 2 3 4 5 6 
#
# 1 82.6323 9.1574 41.4408 -24.3682 -4.1783 -6.1667
# 2 9.1574 94.0793 43.0375 -10.4068 -15.9845 5.7176
# 3 41.4408 43.0375 227.4366 5.8600 -1.3134 11.5287
# 4 -24.3682 -10.4068 5.8600 24.0032 5.5696 -5.2630
# 5 -4.1783 -15.9845 -1.3134 5.5696 53.7962 0.8534
# 6 -6.1667 5.7176 11.5287 -5.2630 0.8534 30.3984
#
#
#
# Elastic Compliance Matrix: (Units=1/GPa)
#
#
# Indices 1 2 3 4 5 6 
#
# 1 0.025338 0.003207 -0.006681 0.031669 -0.000721 0.012574
# 2 0.003207 0.013381 -0.003387 0.009359 0.003158 0.000950
# 3 -0.006681 -0.003387 0.006802 -0.011021 -0.000136 -0.005202
# 4 0.031669 0.009359 -0.011021 0.086845 -0.004400 0.024003
# 5 -0.000721 0.003158 -0.000136 -0.004400 0.019955 -0.002011
# 6 0.012574 0.000950 -0.005202 0.024003 -0.002011 0.041454
#
#
# Mechanical properties :
#
#
# Convention : Reuss Voigt Hill
#
# Bulk Modulus (GPa) = 31.44913 65.71330 48.58122
# Shear Modulus (GPa) = 22.92547 42.34037 32.63292
#
# Velocity S-wave (km/s) = 3.06695 4.16797 3.65911
# Velocity P-wave (km/s) = 5.04430 7.07986 6.14692
#
# Compressibility (1/GPa) = 0.03179738
#
# Stress axis : x y z
#
# Youngs Moduli (GPa) = 39.46592 74.73313 147.01446
#
# Poissons Ratio (x) = -0.23963 0.98222
# Poissons Ratio (y) = -0.12655 0.49799
# Poissons Ratio (z) = 0.26368 0.25315
#
# Static dielectric constant tensor:
#      x y z
#    x 2.049700 0.016840 0.127230 
#    y 0.016840 2.027810 0.021880 
#    z 0.127230 0.021880 2.033620 
# 
# From -- ./inp_files/46861.got.cif
#   From: 2010.05.17/outbox.cif.g08.bks.cpg/sg2_24_cif.got.tgz:46861.got - 2010.06.03 11:33:40.
