data_PCOD9042091
_publ_section_title
;
Structure prediction by ZEFSAII (Michael W. Deem and Ramdas Pophale) SiO2 
 PCOD9042091
Probable space group: P -1
;
_chemical_formula_sum "Si O2"
_cell_formula_units_Z 12
_cell_length_a 14.545363
_cell_length_b 9.584780
_cell_length_c 7.622103
_cell_angle_alpha 58.685928
_cell_angle_beta 104.352218
_cell_angle_gamma 144.317795
_cell_volume 496.092662
_symmetry_space_group_name_H-M "P -1"
_symmetry_group_IT_number 2
_symmetry_cell_setting 'triclinic'
loop_
_space_group_symop_operation_xyz
x,y,z
-x,-y,-z
loop_
_atom_site_type_symbol
_atom_site_label
_atom_site_fract_x
_atom_site_fract_y
_atom_site_fract_z
Si Si1 0.508290 0.839590 0.505197
Si Si2 0.198212 0.145598 0.828168
Si Si3 0.674541 0.786805 0.807474
Si Si4 0.035979 0.490750 0.325157
Si Si5 0.933763 0.975956 0.661650
Si Si6 0.248069 0.876737 0.856218
O O1 0.665153 0.512788 0.339604
O O2 0.644000 0.914700 0.618642
O O3 0.500000 0.000000 0.500000
O O4 0.583743 0.951002 0.270693
O O5 0.015370 0.964353 0.840197
O O6 0.246832 0.072169 0.760900
O O7 0.199716 0.054916 0.074208
O O8 0.736359 0.730279 0.747115
O O9 0.500000 0.500000 0.000000
O O10 0.000000 0.500000 0.500000
O O11 0.009274 0.262953 0.500958
O O12 0.899673 0.365486 0.199607
O O13 0.203174 0.742303 0.116036
O O14 0.000000 0.000000 0.500000
#
# Coordination Sequence:
#
# PCOD9042091 Si02
#       6
#     2   2   2   2   2   2
#     4  11  25  46  71 106 146 189 243 300 362 431
#     4  11  24  43  74 103 142 190 241 296 358 432
#     4  10  23  44  69 103 148 189 235 298 360 425
#     4  11  25  43  72 101 147 183 238 296 361 419
#     4  12  23  43  69 108 140 184 244 295 355 434
#     4  11  24  46  70 104 144 193 235 295 365 428
#
# _framework density 24.189026999999999
#
# number of rings (size 3 to 8) (size 9 to 14) (size 15 to 20)
#    0.000    1.000    3.333    2.000    2.333    4.000 
#    0.000    1.667    0.000    0.000    0.000    0.000 
#    0.000    0.000    0.000    0.000    0.000    0.000 
#
# Total GULP energy -66914.467809 kJ/mol
# GULP energy per Si atom -5576.205651 kJ/mol
# Density = 2.413397 g / cm^3
# Si number density = 24.189027 Si / 1000 Ang^3
#
#
#
# Elastic Constant Matrix: (Units=GPa)
#
#
# Indices 1 2 3 4 5 6 
#
# 1 159.3058 24.5823 26.6463 -3.3698 -36.6067 -12.2376
# 2 24.5823 44.5565 15.2791 1.7926 -10.7990 -21.5416
# 3 26.6463 15.2791 142.7338 2.2120 -45.7424 2.7347
# 4 -3.3698 1.7926 2.2120 44.5242 8.2534 -0.6267
# 5 -36.6067 -10.7990 -45.7424 8.2534 43.2562 16.8699
# 6 -12.2376 -21.5416 2.7347 -0.6267 16.8699 49.9107
#
#
#
# Elastic Compliance Matrix: (Units=1/GPa)
#
#
# Indices 1 2 3 4 5 6 
#
# 1 0.008651 -0.004704 0.002181 -0.001169 0.010014 -0.003428
# 2 -0.004704 0.032682 -0.005436 0.000272 -0.007822 0.015897
# 3 0.002181 -0.005436 0.013531 -0.003953 0.019082 -0.009052
# 4 -0.001169 0.000272 -0.003953 0.024743 -0.011474 0.004236
# 5 0.010014 -0.007822 0.019082 -0.011474 0.060852 -0.022679
# 6 -0.003428 0.015897 -0.009052 0.004236 -0.022679 0.034271
#
#
# Mechanical properties :
#
#
# Convention : Reuss Voigt Hill
#
# Bulk Modulus (GPa) = 25.67653 53.29018 39.48335
# Shear Modulus (GPa) = 24.55431 46.21077 35.38254
#
# Velocity S-wave (km/s) = 3.18952 4.37556 3.82874
# Velocity P-wave (km/s) = 4.91956 6.89970 5.99199
#
# Compressibility (1/GPa) = 0.03894608
#
# Stress axis : x y z
#
# Youngs Moduli (GPa) = 115.59024 30.59788 73.90655
#
# Poissons Ratio (x) = 0.14395 -0.16122
# Poissons Ratio (y) = 0.54378 0.40175
# Poissons Ratio (z) = -0.25215 0.16633
#
# Static dielectric constant tensor:
#      x y z
#    x 2.010450 0.001570 -0.064400 
#    y 0.001570 2.100380 0.001480 
#    z -0.064400 0.001480 1.815950 
# 
# From -- ./inp_files/242598.got.cif
#   From: 2010.05.17/outbox.cif.g08.bks.cpg/sg2_122_cif.got.tgz:242598.got - 2010.06.03 11:33:40.
