data_PCOD9042094
_publ_section_title
;
Structure prediction by ZEFSAII (Michael W. Deem and Ramdas Pophale) SiO2 
 PCOD9042094
Probable space group: P -1
;
_chemical_formula_sum "Si O2"
_cell_formula_units_Z 16
_cell_length_a 11.231386
_cell_length_b 13.710590
_cell_length_c 5.687392
_cell_angle_alpha 126.061874
_cell_angle_beta 91.211117
_cell_angle_gamma 111.018446
_cell_volume 628.785757
_symmetry_space_group_name_H-M "P -1"
_symmetry_group_IT_number 2
_symmetry_cell_setting 'triclinic'
loop_
_space_group_symop_operation_xyz
x,y,z
-x,-y,-z
loop_
_atom_site_type_symbol
_atom_site_label
_atom_site_fract_x
_atom_site_fract_y
_atom_site_fract_z
Si Si1 0.258701 0.147703 0.185582
Si Si2 0.245786 0.520308 0.221821
Si Si3 0.490490 0.763044 0.396005
Si Si4 0.080724 0.934234 0.546462
Si Si5 0.113086 0.319771 0.579844
Si Si6 0.863594 0.310805 0.361162
Si Si7 0.593874 0.628574 0.843537
Si Si8 0.267726 0.826363 0.326350
O O1 0.367624 0.138337 0.344816
O O2 0.207747 0.252577 0.427015
O O3 0.343359 0.227675 0.077652
O O4 0.132300 0.011026 0.906985
O O5 0.382442 0.661710 0.436294
O O6 0.135049 0.545293 0.387288
O O7 0.285520 0.405509 0.138125
O O8 0.193433 0.473720 0.889073
O O9 0.416950 0.840345 0.376505
O O10 0.514997 0.653175 0.088150
O O11 0.217282 0.940895 0.458718
O O12 0.977908 0.776785 0.350933
O O13 0.000000 0.000000 0.500000
O O14 0.004640 0.307494 0.365966
O O15 0.792977 0.233383 0.497363
O O16 0.790153 0.256773 0.034867
O O17 0.500000 0.500000 0.500000
#
# Coordination Sequence:
#
# PCOD9042094 Si02
#       8
#     2   2   2   2   2   2   2   2
#     4  12  25  42  70 100 137 182 235 290 346 417
#     4  11  21  41  69 104 140 179 228 289 354 418
#     4  11  24  43  66 102 140 176 231 284 358 412
#     4  11  25  47  72 100 133 184 239 288 345 415
#     4  11  23  44  69 102 139 182 233 288 348 418
#     4  10  23  44  69 104 140 183 230 289 352 416
#     4  12  22  39  66 101 139 179 228 282 349 421
#     4  10  24  46  72 100 140 183 233 291 348 418
#
# _framework density 25.445871
#
# number of rings (size 3 to 8) (size 9 to 14) (size 15 to 20)
#    0.000    1.000    2.500    4.125    1.750    3.500 
#    0.000    6.250    0.000    0.000    0.000    0.000 
#    0.000    0.000    0.000    0.000    0.000    0.000 
#
# Total GULP energy -89355.056190 kJ/mol
# GULP energy per Si atom -5584.691012 kJ/mol
# Density = 2.538796 g / cm^3
# Si number density = 25.445871 Si / 1000 Ang^3
#
#
#
# Elastic Constant Matrix: (Units=GPa)
#
#
# Indices 1 2 3 4 5 6 
#
# 1 189.9288 38.2595 55.8288 -4.4881 25.4970 -69.9700
# 2 38.2595 89.8898 7.7127 -8.9686 8.9966 -14.5390
# 3 55.8288 7.7127 128.9912 -1.7734 20.2808 -24.4930
# 4 -4.4881 -8.9686 -1.7734 28.0212 -11.9227 6.0053
# 5 25.4970 8.9966 20.2808 -11.9227 45.4246 0.3122
# 6 -69.9700 -14.5390 -24.4930 6.0053 0.3122 50.6053
#
#
#
# Elastic Compliance Matrix: (Units=1/GPa)
#
#
# Indices 1 2 3 4 5 6 
#
# 1 0.014211 -0.002616 -0.001046 -0.006503 -0.008831 0.019218
# 2 -0.002616 0.012547 0.000432 0.003555 -0.000275 -0.000223
# 3 -0.001046 0.000432 0.009499 -0.002013 -0.004292 0.003540
# 4 -0.006503 0.003555 -0.002013 0.045513 0.015890 -0.014444
# 5 -0.008831 -0.000275 -0.004292 0.015890 0.033226 -0.016457
# 6 0.019218 -0.000223 0.003540 -0.014444 -0.016457 0.049797
#
#
# Mechanical properties :
#
#
# Convention : Reuss Voigt Hill
#
# Bulk Modulus (GPa) = 33.56104 68.04576 50.80340
# Shear Modulus (GPa) = 27.59609 45.27746 36.43678
#
# Velocity S-wave (km/s) = 3.29675 4.22283 3.78819
# Velocity P-wave (km/s) = 5.26396 7.11167 6.25640
#
# Compressibility (1/GPa) = 0.02979645
#
# Stress axis : x y z
#
# Youngs Moduli (GPa) = 70.36739 79.69954 105.27614
#
# Poissons Ratio (x) = 0.20846 0.11015
# Poissons Ratio (y) = 0.18405 -0.04544
# Poissons Ratio (z) = 0.07363 -0.03440
#
# Static dielectric constant tensor:
#      x y z
#    x 2.089240 0.058350 0.019410 
#    y 0.058350 2.124940 -0.059340 
#    z 0.019410 -0.059340 2.036480 
# 
# From -- ./inp_files/78802.got.cif
#   From: 2010.05.17/outbox.cif.g08.bks.cpg/sg2_40_cif.got.tgz:78802.got - 2010.06.03 11:33:40.
