data_PCOD9042441
_publ_section_title
;
Structure prediction by ZEFSAII (Michael W. Deem and Ramdas Pophale) SiO2 
 PCOD9042441
Probable space group: P -1
;
_chemical_formula_sum "Si O2"
_cell_formula_units_Z 14
_cell_length_a 18.437979
_cell_length_b 4.993680
_cell_length_c 19.474160
_cell_angle_alpha 68.269269
_cell_angle_beta 20.552732
_cell_angle_gamma 59.637065
_cell_volume 510.745768
_symmetry_space_group_name_H-M "P -1"
_symmetry_group_IT_number 2
_symmetry_cell_setting 'triclinic'
loop_
_space_group_symop_operation_xyz
x,y,z
-x,-y,-z
loop_
_atom_site_type_symbol
_atom_site_label
_atom_site_fract_x
_atom_site_fract_y
_atom_site_fract_z
Si Si1 0.311373 0.735660 0.699771
Si Si2 0.929978 0.091250 0.890858
Si Si3 0.290583 0.215031 0.413053
Si Si4 0.591769 0.942174 0.289633
Si Si5 0.229119 0.183445 0.055907
Si Si6 0.761135 0.409797 0.822568
Si Si7 0.728955 0.292323 0.712938
O O1 0.500000 0.500000 0.500000
O O2 0.262710 0.457192 0.805172
O O3 0.107901 0.986779 0.806788
O O4 0.399304 0.916473 0.657395
O O5 0.863704 0.438195 0.884212
O O6 0.957890 0.833864 0.831110
O O7 0.703690 0.112792 0.127827
O O8 0.300820 0.543133 0.350625
O O9 0.027081 0.317159 0.614051
O O10 0.345325 0.070194 0.455800
O O11 0.513495 0.954353 0.194693
O O12 0.240149 0.935089 0.128471
O O13 0.734089 0.491139 0.757960
O O14 0.526567 0.684046 0.045227
O O15 0.000000 0.000000 0.500000
#
# Coordination Sequence:
#
# PCOD9042441 Si02
#       7
#     2   2   2   2   2   2   2
#     4  12  26  45  69 106 145 185 248 305 363 439
#     4  11  23  47  71 101 144 191 247 302 362 434
#     4  10  23  44  71 108 147 191 252 300 369 447
#     4  11  24  45  74  99 141 198 238 302 371 433
#     4  10  24  44  72 110 147 194 250 303 363 442
#     4  10  23  45  73 106 153 199 240 311 374 437
#     4  10  23  44  72 110 149 194 251 302 371 452
#
# _framework density 27.410895
#
# number of rings (size 3 to 8) (size 9 to 14) (size 15 to 20)
#    0.000    1.429    0.000    4.286    2.000    6.286 
#    2.571    0.000    0.000    0.000    0.000    0.000 
#    0.000    0.000    0.000    0.000    0.000    0.000 
#
# Total GULP energy -78221.121983 kJ/mol
# GULP energy per Si atom -5587.222999 kJ/mol
# Density = 2.734851 g / cm^3
# Si number density = 27.410895 Si / 1000 Ang^3
#
#
#
# Elastic Constant Matrix: (Units=GPa)
#
#
# Indices 1 2 3 4 5 6 
#
# 1 156.5565 29.8301 23.1582 0.9423 -30.6314 -18.4325
# 2 29.8301 130.1471 16.7299 -7.2214 0.6792 -10.8393
# 3 23.1582 16.7299 141.5013 14.9173 -21.8327 5.2297
# 4 0.9423 -7.2214 14.9173 37.0528 -5.7294 -7.4006
# 5 -30.6314 0.6792 -21.8327 -5.7294 50.4944 6.1677
# 6 -18.4325 -10.8393 5.2297 -7.4006 6.1677 52.7431
#
#
#
# Elastic Compliance Matrix: (Units=1/GPa)
#
#
# Indices 1 2 3 4 5 6 
#
# 1 0.007864 -0.001527 -0.000598 0.000839 0.004371 0.002100
# 2 -0.001527 0.008496 -0.001313 0.002351 -0.001568 0.001856
# 3 -0.000598 -0.001313 0.008246 -0.003513 0.003084 -0.002150
# 4 0.000839 0.002351 -0.003513 0.030139 0.001749 0.005149
# 5 0.004371 -0.001568 0.003084 0.001749 0.024215 -0.001687
# 6 0.002100 0.001856 -0.002150 0.005149 -0.001687 0.021208
#
#
# Mechanical properties :
#
#
# Convention : Reuss Voigt Hill
#
# Bulk Modulus (GPa) = 56.40259 63.07125 59.73692
# Shear Modulus (GPa) = 44.26589 51.95718 48.11154
#
# Velocity S-wave (km/s) = 4.02294 4.35845 4.19405
# Velocity P-wave (km/s) = 6.49616 6.95612 6.73007
#
# Compressibility (1/GPa) = 0.01772968
#
# Stress axis : x y z
#
# Youngs Moduli (GPa) = 127.15483 117.70806 121.27286
#
# Poissons Ratio (x) = 0.17974 0.07254
# Poissons Ratio (y) = 0.19417 0.15923
# Poissons Ratio (z) = 0.07606 0.15455
#
# Static dielectric constant tensor:
#      x y z
#    x 3.162670 -0.682190 -0.386570 
#    y -0.682190 2.672560 0.217050 
#    z -0.386570 0.217050 2.372500 
# 
# From -- ./inp_files/600745.got.cif
#   From: 2010.05.17/outbox.cif.g08.bks.cpg/sg2_301_cif.got.tgz:600745.got - 2010.06.03 11:33:40.
