data_PCOD9042076
_publ_section_title
;
Structure prediction by ZEFSAII (Michael W. Deem and Ramdas Pophale) SiO2 
 PCOD9042076
Probable space group: P -1
;
_chemical_formula_sum "Si O2"
_cell_formula_units_Z 15
_cell_length_a 8.745110
_cell_length_b 16.504646
_cell_length_c 17.509450
_cell_angle_alpha 30.338927
_cell_angle_beta 149.781677
_cell_angle_gamma 141.983406
_cell_volume 633.623833
_symmetry_space_group_name_H-M "P -1"
_symmetry_group_IT_number 2
_symmetry_cell_setting 'triclinic'
loop_
_space_group_symop_operation_xyz
x,y,z
-x,-y,-z
loop_
_atom_site_type_symbol
_atom_site_label
_atom_site_fract_x
_atom_site_fract_y
_atom_site_fract_z
Si Si1 0.936109 0.168626 0.614548
Si Si2 0.683545 0.265185 0.266782
Si Si3 0.500000 0.000000 0.000000
Si Si4 0.454880 0.350867 0.787922
Si Si5 0.369326 0.057732 0.574110
Si Si6 0.667023 0.974968 0.916988
Si Si7 0.889181 0.630415 0.013502
Si Si8 0.246365 0.377655 0.207500
O O1 0.163016 0.043137 0.794809
O O2 0.165773 0.313978 0.637354
O O3 0.784966 0.214195 0.434874
O O4 0.675550 0.105876 0.614771
O O5 0.863011 0.443777 0.179318
O O6 0.752535 0.125262 0.354761
O O7 0.318848 0.280231 0.093437
O O8 0.636132 0.035719 0.940364
O O9 0.507172 0.527285 0.704630
O O10 0.749654 0.308386 0.899882
O O11 0.423252 0.219944 0.949246
O O12 0.171386 0.194191 0.352965
O O13 0.458334 0.054933 0.702995
O O14 0.000000 0.000000 0.000000
O O15 0.699522 0.630167 0.852669
O O16 0.000000 0.500000 0.000000
#
# Coordination Sequence:
#
# PCOD9042076 Si02
#       8
#     2   2   1   2   2   2   2   2
#     4  11  24  43  72 113 146 199 253 315 379 444
#     4  11  25  44  75 108 152 205 256 306 384 461
#     4  10  24  42  72 108 156 178 242 322 366 444
#     4  10  23  44  72 101 155 190 250 321 379 452
#     4  12  24  44  76 107 146 203 257 306 378 461
#     4  11  23  46  72 113 148 196 249 310 390 450
#     4  10  23  46  70 109 152 202 248 317 387 445
#     4  10  23  44  69 102 146 197 249 316 380 443
#
# _framework density 23.673352999999999
#
# number of rings (size 3 to 8) (size 9 to 14) (size 15 to 20)
#    0.000    1.333    4.000    1.200    3.733    5.333 
#    0.000    7.333    0.000    0.000    0.000    0.000 
#    0.000    0.000    0.000    0.000    0.000    0.000 
#
# Total GULP energy -83575.979125 kJ/mol
# GULP energy per Si atom -5571.731942 kJ/mol
# Density = 2.361947 g / cm^3
# Si number density = 23.673353 Si / 1000 Ang^3
#
#
#
# Elastic Constant Matrix: (Units=GPa)
#
#
# Indices 1 2 3 4 5 6 
#
# 1 155.3123 24.8046 56.7998 -1.2629 -5.1592 26.4347
# 2 24.8046 45.1960 16.6402 -7.8332 14.4022 12.3758
# 3 56.7998 16.6402 134.2902 -20.2528 -1.8456 4.0125
# 4 -1.2629 -7.8332 -20.2528 36.8940 1.6850 4.3542
# 5 -5.1592 14.4022 -1.8456 1.6850 47.8089 11.2273
# 6 26.4347 12.3758 4.0125 4.3542 11.2273 45.7056
#
#
#
# Elastic Compliance Matrix: (Units=1/GPa)
#
#
# Indices 1 2 3 4 5 6 
#
# 1 0.009219 -0.003872 -0.003551 -0.002063 0.003166 -0.004553
# 2 -0.003872 0.029663 -0.001055 0.006476 -0.008637 -0.004195
# 3 -0.003551 -0.001055 0.009787 0.004909 -0.000105 0.001038
# 4 -0.002063 0.006476 0.004909 0.031615 -0.002290 -0.003440
# 5 0.003166 -0.008637 -0.000105 -0.002290 0.025219 -0.005460
# 6 -0.004553 -0.004195 0.001038 -0.003440 -0.005460 0.027226
#
#
# Mechanical properties :
#
#
# Convention : Reuss Voigt Hill
#
# Bulk Modulus (GPa) = 31.53225 59.03197 45.28211
# Shear Modulus (GPa) = 31.20019 41.85196 36.52608
#
# Velocity S-wave (km/s) = 3.63429 4.20919 3.93226
# Velocity P-wave (km/s) = 5.56412 6.97232 6.30764
#
# Compressibility (1/GPa) = 0.03171356
#
# Stress axis : x y z
#
# Youngs Moduli (GPa) = 108.47090 33.71247 102.17447
#
# Poissons Ratio (x) = 0.13053 0.36284
# Poissons Ratio (y) = 0.41999 0.10775
# Poissons Ratio (z) = 0.38519 0.03555
#
# Static dielectric constant tensor:
#      x y z
#    x 1.932780 -0.029680 0.081190 
#    y -0.029680 1.929920 0.004400 
#    z 0.081190 0.004400 1.869620 
# 
# From -- ./inp_files/561906.got.cif
#   From: 2010.05.17/outbox.cif.g08.bks.cpg/sg2_281_cif.got.tgz:561906.got - 2010.06.03 11:33:40.
