data_PCOD9042994
_publ_section_title
;
Structure prediction by ZEFSAII (Michael W. Deem and Ramdas Pophale) SiO2 
 PCOD9042994
Probable space group: P -1
;
_chemical_formula_sum "Si O2"
_cell_formula_units_Z 12
_cell_length_a 7.058179
_cell_length_b 15.102856
_cell_length_c 8.167296
_cell_angle_alpha 144.913642
_cell_angle_beta 80.025212
_cell_angle_gamma 99.815346
_cell_volume 492.243140
_symmetry_space_group_name_H-M "P -1"
_symmetry_group_IT_number 2
_symmetry_cell_setting 'triclinic'
loop_
_space_group_symop_operation_xyz
x,y,z
-x,-y,-z
loop_
_atom_site_type_symbol
_atom_site_label
_atom_site_fract_x
_atom_site_fract_y
_atom_site_fract_z
Si Si1 0.799437 0.441810 0.788632
Si Si2 0.896350 0.397913 0.221427
Si Si3 0.771974 0.099537 0.275370
Si Si4 0.457643 0.540910 0.828873
Si Si5 0.906211 0.050935 0.821584
Si Si6 0.588186 0.878248 0.424496
O O1 0.874169 0.270933 0.533188
O O2 0.684366 0.486617 0.035373
O O3 0.966453 0.564262 0.898003
O O4 0.633064 0.430606 0.655280
O O5 0.000000 0.500000 0.500000
O O6 0.685401 0.454445 0.294742
O O7 0.891526 0.220299 0.004396
O O8 0.555403 0.119126 0.394608
O O9 0.797176 0.044765 0.004094
O O10 0.879914 0.990761 0.220893
O O11 0.560068 0.710593 0.095330
O O12 0.799533 0.931119 0.533211
O O13 0.500000 0.000000 0.500000
#
# Coordination Sequence:
#
# PCOD9042994 Si02
#       6
#     2   2   2   2   2   2
#     4  10  23  45  67  96 128 172 210 267 321 380
#     4  12  24  42  67  97 131 167 216 266 318 381
#     4  10  24  45  66  94 132 172 213 263 319 383
#     4  10  24  44  67  94 129 170 217 261 321 379
#     4  11  24  44  66  97 129 171 215 261 323 378
#     4  11  23  42  66  95 129 166 215 266 314 379
#
# _framework density 24.378197
#
# number of rings (size 3 to 8) (size 9 to 14) (size 15 to 20)
#    0.000    1.333    3.333    1.000    2.333    8.000 
#    3.000    0.000    0.000    0.000    0.000    0.000 
#    0.000    0.000    0.000    0.000    0.000    0.000 
#
# Total GULP energy -67207.594168 kJ/mol
# GULP energy per Si atom -5600.632847 kJ/mol
# Density = 2.432271 g / cm^3
# Si number density = 24.378197 Si / 1000 Ang^3
#
#
#
# Elastic Constant Matrix: (Units=GPa)
#
#
# Indices 1 2 3 4 5 6 
#
# 1 99.1761 21.1183 18.8680 5.9558 24.5015 -23.8922
# 2 21.1183 101.3503 4.2299 12.2680 12.5771 -10.0446
# 3 18.8680 4.2299 48.7429 -5.2948 18.0723 -3.4433
# 4 5.9558 12.2680 -5.2948 33.0084 -6.1392 -1.1131
# 5 24.5015 12.5771 18.0723 -6.1392 40.8528 -0.7821
# 6 -23.8922 -10.0446 -3.4433 -1.1131 -0.7821 40.6725
#
#
#
# Elastic Compliance Matrix: (Units=1/GPa)
#
#
# Indices 1 2 3 4 5 6 
#
# 1 0.014906 -0.000707 -0.002602 -0.004064 -0.008027 0.008096
# 2 -0.000707 0.011257 0.000381 -0.004640 -0.003866 0.002196
# 3 -0.002602 0.000381 0.025281 0.002668 -0.009328 0.000599
# 4 -0.004064 -0.004640 0.002668 0.034564 0.007837 -0.002211
# 5 -0.008027 -0.003866 -0.009328 0.007837 0.035680 -0.005559
# 6 0.008096 0.002196 0.000599 -0.002211 -0.005559 0.029768
#
#
# Mechanical properties :
#
#
# Convention : Reuss Voigt Hill
#
# Bulk Modulus (GPa) = 21.93568 37.52242 29.72905
# Shear Modulus (GPa) = 28.98408 36.57693 32.78050
#
# Velocity S-wave (km/s) = 3.45183 3.87770 3.67095
# Velocity P-wave (km/s) = 4.99044 5.95600 5.49447
#
# Compressibility (1/GPa) = 0.04558782
#
# Stress axis : x y z
#
# Youngs Moduli (GPa) = 67.08641 88.83239 39.55598
#
# Poissons Ratio (x) = 0.06280 0.10293
# Poissons Ratio (y) = 0.04743 -0.01507
# Poissons Ratio (z) = 0.17457 -0.03385
#
# Static dielectric constant tensor:
#      x y z
#    x 1.934990 0.013530 -0.027840 
#    y 0.013530 2.019200 -0.041140 
#    z -0.027840 -0.041140 1.899580 
# 
# From -- ./inp_files/26235.got.cif
#   From: 2010.05.17/outbox.cif.g08.bks.cpg/sg2_14_cif.got.tgz:26235.got - 2010.06.03 11:33:40.
