data_PCOD9042483
_publ_section_title
;
Structure prediction by ZEFSAII (Michael W. Deem and Ramdas Pophale) SiO2 
 PCOD9042483
Probable space group: P -1
;
_chemical_formula_sum "Si O2"
_cell_formula_units_Z 16
_cell_length_a 18.389888
_cell_length_b 5.294656
_cell_length_c 8.200244
_cell_angle_alpha 114.073221
_cell_angle_beta 96.003980
_cell_angle_gamma 64.262620
_cell_volume 654.118060
_symmetry_space_group_name_H-M "P -1"
_symmetry_group_IT_number 2
_symmetry_cell_setting 'triclinic'
loop_
_space_group_symop_operation_xyz
x,y,z
-x,-y,-z
loop_
_atom_site_type_symbol
_atom_site_label
_atom_site_fract_x
_atom_site_fract_y
_atom_site_fract_z
Si Si1 0.755146 0.873785 0.625417
Si Si2 0.470934 0.358352 0.607194
Si Si3 0.177830 0.714310 0.098983
Si Si4 0.403875 0.805010 0.132266
Si Si5 0.300467 0.859656 0.656028
Si Si6 0.161360 0.751844 0.719952
Si Si7 0.991650 0.189201 0.879704
Si Si8 0.350173 0.273893 0.976303
O O1 0.803291 0.541078 0.468018
O O2 0.809828 0.980662 0.780697
O O3 0.669500 0.953286 0.711331
O O4 0.727164 0.106080 0.526411
O O5 0.500000 0.500000 0.500000
O O6 0.517193 0.368184 0.785281
O O7 0.374475 0.539690 0.631715
O O8 0.500000 0.000000 0.500000
O O9 0.262982 0.435231 0.087599
O O10 0.099130 0.731618 0.177755
O O11 0.168009 0.670901 0.892112
O O12 0.373611 0.546908 0.011803
O O13 0.410039 0.011504 0.040808
O O14 0.221045 0.914315 0.754015
O O15 0.335586 0.103381 0.772854
O O16 0.067240 0.976575 0.729422
O O17 0.000000 0.500000 0.000000
O O18 0.000000 0.000000 0.000000
#
# Coordination Sequence:
#
# PCOD9042483 Si02
#       8
#     2   2   2   2   2   2   2   2
#     4  11  24  41  70 101 136 186 233 280 350 410
#     4  12  26  44  69 100 140 181 232 289 351 407
#     4  10  23  46  70 102 139 187 226 287 347 412
#     4  11  25  45  67 102 135 184 230 285 347 418
#     4  12  25  43  71 100 138 183 233 287 347 413
#     4  11  24  45  71 103 141 180 240 282 346 415
#     4  10  23  44  72 100 140 184 227 284 348 408
#     4  11  24  43  71  98 139 177 233 287 345 408
#
# _framework density 24.460415999999999
#
# number of rings (size 3 to 8) (size 9 to 14) (size 15 to 20)
#    0.000    1.000    2.500    3.750    7.000    3.500 
#    0.000    0.625    0.000    0.000    0.000    0.000 
#    0.000    0.000    0.000    0.000    0.000    0.000 
#
# Total GULP energy -89604.145465 kJ/mol
# GULP energy per Si atom -5600.259092 kJ/mol
# Density = 2.440474 g / cm^3
# Si number density = 24.460416 Si / 1000 Ang^3
#
#
#
# Elastic Constant Matrix: (Units=GPa)
#
#
# Indices 1 2 3 4 5 6 
#
# 1 121.5612 32.8397 32.3503 10.3064 -15.9707 -12.8625
# 2 32.8397 114.5153 37.4765 12.2287 -7.9565 3.9488
# 3 32.3503 37.4765 90.0283 38.2362 0.2805 -0.9181
# 4 10.3064 12.2287 38.2362 45.8589 8.9042 -2.2589
# 5 -15.9707 -7.9565 0.2805 8.9042 40.5155 11.2538
# 6 -12.8625 3.9488 -0.9181 -2.2589 11.2538 37.6026
#
#
#
# Elastic Compliance Matrix: (Units=1/GPa)
#
#
# Indices 1 2 3 4 5 6 
#
# 1 0.010164 -0.001871 -0.002974 0.000281 0.002828 0.002771
# 2 -0.001871 0.010760 -0.003998 0.000376 0.001999 -0.002443
# 3 -0.002974 -0.003998 0.020538 -0.015821 0.001820 -0.001591
# 4 0.000281 0.000376 -0.015821 0.036823 -0.009076 0.004599
# 5 0.002828 0.001999 0.001820 -0.009076 0.030648 -0.008916
# 6 0.002771 -0.002443 -0.001591 0.004599 -0.008916 0.030704
#
#
# Mechanical properties :
#
#
# Convention : Reuss Voigt Hill
#
# Bulk Modulus (GPa) = 42.05519 59.04864 50.55192
# Shear Modulus (GPa) = 30.25769 39.69129 34.97449
#
# Velocity S-wave (km/s) = 3.52093 4.03261 3.78543
# Velocity P-wave (km/s) = 5.81031 6.77315 6.31012
#
# Compressibility (1/GPa) = 0.02377828
#
# Stress axis : x y z
#
# Youngs Moduli (GPa) = 98.38717 92.93435 48.69026
#
# Poissons Ratio (x) = 0.17385 0.14478
# Poissons Ratio (y) = 0.18405 0.19465
# Poissons Ratio (z) = 0.29256 0.37153
#
# Static dielectric constant tensor:
#      x y z
#    x 1.927800 -0.019540 -0.017630 
#    y -0.019540 1.895930 0.022220 
#    z -0.017630 0.022220 1.974510 
# 
# From -- ./inp_files/324129.got.cif
#   From: 2010.05.17/outbox.cif.g08.bks.cpg/sg2_163_cif.got.tgz:324129.got - 2010.06.03 11:33:40.
