data_PCOD9042361
_publ_section_title
;
Structure prediction by ZEFSAII (Michael W. Deem and Ramdas Pophale) SiO2 
 PCOD9042361
Probable space group: P -1
;
_chemical_formula_sum "Si O2"
_cell_formula_units_Z 16
_cell_length_a 13.751699
_cell_length_b 8.971345
_cell_length_c 11.564901
_cell_angle_alpha 125.614417
_cell_angle_beta 125.569901
_cell_angle_gamma 40.019760
_cell_volume 720.297207
_symmetry_space_group_name_H-M "P -1"
_symmetry_group_IT_number 2
_symmetry_cell_setting 'triclinic'
loop_
_space_group_symop_operation_xyz
x,y,z
-x,-y,-z
loop_
_atom_site_type_symbol
_atom_site_label
_atom_site_fract_x
_atom_site_fract_y
_atom_site_fract_z
Si Si1 0.618134 0.131862 0.131531
Si Si2 0.352232 0.237342 0.159767
Si Si3 0.874539 0.611024 0.360029
Si Si4 0.149383 0.979930 0.578156
Si Si5 0.388235 0.658801 0.129880
Si Si6 0.904055 0.164705 0.118223
Si Si7 0.191860 0.776889 0.276555
Si Si8 0.523741 0.922284 0.349406
O O1 0.512026 0.139580 0.160456
O O2 0.495670 0.373578 0.084591
O O3 0.738865 0.136992 0.286894
O O4 0.696936 0.898567 0.002053
O O5 0.231334 0.522966 0.194248
O O6 0.400620 0.147497 0.283315
O O7 0.895750 0.763312 0.359481
O O8 0.892469 0.395845 0.215306
O O9 0.699509 0.790936 0.371450
O O10 0.000000 0.500000 0.500000
O O11 0.233620 0.827880 0.450230
O O12 0.000000 0.000000 0.500000
O O13 0.291620 0.758827 0.230093
O O14 0.487847 0.743080 0.229117
O O15 0.265325 0.754183 0.984044
O O16 0.009956 0.998150 0.223834
O O17 0.000000 0.000000 0.000000
O O18 0.500000 0.000000 0.500000
#
# Coordination Sequence:
#
# PCOD9042361 Si02
#       8
#     2   2   2   2   2   2   2   2
#     4  10  23  44  71 100 135 186 234 290 357 421
#     4  10  23  44  71 100 139 184 238 289 361 419
#     4  12  26  47  73 100 148 191 242 300 364 429
#     4  12  27  44  68 100 139 184 239 291 360 427
#     4  10  24  42  75 101 145 183 244 293 359 428
#     4  10  23  45  75 103 145 192 238 293 369 429
#     4  10  23  46  68 104 141 191 228 301 355 429
#     4  12  27  44  74 112 145 191 244 305 358 435
#
# _framework density 22.213052999999999
#
# number of rings (size 3 to 8) (size 9 to 14) (size 15 to 20)
#    0.000    1.250    2.500    1.500   10.500    4.000 
#    0.000    1.250    0.000    0.000    0.000    0.000 
#    0.000    0.000    0.000    0.000    0.000    0.000 
#
# Total GULP energy -89570.267622 kJ/mol
# GULP energy per Si atom -5598.141726 kJ/mol
# Density = 2.216250 g / cm^3
# Si number density = 22.213053 Si / 1000 Ang^3
#
#
#
# Elastic Constant Matrix: (Units=GPa)
#
#
# Indices 1 2 3 4 5 6 
#
# 1 91.0820 23.2270 38.6887 1.6094 5.5091 6.4313
# 2 23.2270 107.0803 40.4445 0.8244 3.2702 8.7567
# 3 38.6887 40.4445 127.7317 3.0417 10.7833 -12.3325
# 4 1.6094 0.8244 3.0417 44.3078 -0.3247 3.8623
# 5 5.5091 3.2702 10.7833 -0.3247 37.5907 0.7093
# 6 6.4313 8.7567 -12.3325 3.8623 0.7093 22.5435
#
#
#
# Elastic Compliance Matrix: (Units=1/GPa)
#
#
# Indices 1 2 3 4 5 6 
#
# 1 0.013486 -0.000766 -0.004383 0.000344 -0.000536 -0.005990
# 2 -0.000766 0.011595 -0.004136 0.000681 0.000422 -0.006678
# 3 -0.004383 -0.004136 0.011635 -0.001413 -0.002528 0.009543
# 4 0.000344 0.000681 -0.001413 0.023091 0.000592 -0.005110
# 5 -0.000536 0.000422 -0.002528 0.000592 0.027419 -0.002358
# 6 -0.005990 -0.006678 0.009543 -0.005110 -0.002358 0.054832
#
#
# Mechanical properties :
#
#
# Convention : Reuss Voigt Hill
#
# Bulk Modulus (GPa) = 55.11266 58.95716 57.03491
# Shear Modulus (GPa) = 29.99827 35.79064 32.89446
#
# Velocity S-wave (km/s) = 3.67887 4.01838 3.85237
# Velocity P-wave (km/s) = 6.55059 6.93752 6.74683
#
# Compressibility (1/GPa) = 0.01814465
#
# Stress axis : x y z
#
# Youngs Moduli (GPa) = 74.15285 86.24319 85.95030
#
# Poissons Ratio (x) = 0.06607 0.37675
# Poissons Ratio (y) = 0.05681 0.35549
# Poissons Ratio (z) = 0.32504 0.35670
#
# Static dielectric constant tensor:
#      x y z
#    x 1.821750 -0.020720 0.006890 
#    y -0.020720 1.775110 0.010570 
#    z 0.006890 0.010570 1.780010 
# 
# From -- ./inp_files/333795.got.cif
#   From: 2010.05.17/outbox.cif.g08.bks.cpg/sg2_167_cif.got.tgz:333795.got - 2010.06.03 11:33:40.
