data_PCOD9042141
_publ_section_title
;
Structure prediction by ZEFSAII (Michael W. Deem and Ramdas Pophale) SiO2 
 PCOD9042141
Probable space group: P -1
;
_chemical_formula_sum "Si O2"
_cell_formula_units_Z 14
_cell_length_a 4.983028
_cell_length_b 14.082892
_cell_length_c 15.150288
_cell_angle_alpha 142.046622
_cell_angle_beta 105.227588
_cell_angle_gamma 95.648100
_cell_volume 540.875133
_symmetry_space_group_name_H-M "P -1"
_symmetry_group_IT_number 2
_symmetry_cell_setting 'triclinic'
loop_
_space_group_symop_operation_xyz
x,y,z
-x,-y,-z
loop_
_atom_site_type_symbol
_atom_site_label
_atom_site_fract_x
_atom_site_fract_y
_atom_site_fract_z
Si Si1 0.109676 0.748646 0.281077
Si Si2 0.673902 0.976573 0.362991
Si Si3 0.772012 0.518273 0.604606
Si Si4 0.596617 0.143207 0.301090
Si Si5 0.407569 0.625155 0.999484
Si Si6 0.947228 0.101722 0.151127
Si Si7 0.736009 0.510471 0.801206
O O1 0.343198 0.872472 0.315219
O O2 0.311326 0.676145 0.302192
O O3 0.802727 0.552434 0.087540
O O4 0.063037 0.869165 0.437634
O O5 0.647407 0.073799 0.346236
O O6 0.685217 0.805184 0.201414
O O7 0.500000 0.500000 0.500000
O O8 0.845115 0.360196 0.475091
O O9 0.042033 0.724375 0.763147
O O10 0.670016 0.498925 0.683785
O O11 0.252135 0.131754 0.258877
O O12 0.657275 0.040132 0.151093
O O13 0.530659 0.567136 0.883752
O O14 0.117743 0.652125 0.957630
O O15 0.000000 0.000000 0.000000
#
# Coordination Sequence:
#
# PCOD9042141 Si02
#       7
#     2   2   2   2   2   2   2
#     4   9  23  46  68 103 137 183 228 278 341 412
#     4  11  22  45  72 102 138 183 226 283 341 407
#     4  10  23  44  69  95 134 178 221 279 339 400
#     4  11  24  44  64  99 129 172 222 271 332 402
#     4  10  24  43  68  99 142 176 228 280 340 398
#     4  11  26  42  67  97 131 170 221 273 334 398
#     4  10  23  45  68  99 137 178 229 280 339 405
#
# _framework density 25.883977999999999
#
# number of rings (size 3 to 8) (size 9 to 14) (size 15 to 20)
#    0.857    0.857    1.429    1.286    4.000    7.429 
#    5.143    1.429    0.000    0.000    0.000    0.000 
#    0.000    0.000    0.000    0.000    0.000    0.000 
#
# Total GULP energy -78264.982265 kJ/mol
# GULP energy per Si atom -5590.355876 kJ/mol
# Density = 2.582507 g / cm^3
# Si number density = 25.883978 Si / 1000 Ang^3
#
#
#
# Elastic Constant Matrix: (Units=GPa)
#
#
# Indices 1 2 3 4 5 6 
#
# 1 87.3318 13.4217 9.5178 -6.3167 -9.2358 16.0445
# 2 13.4217 157.6397 46.0109 -9.0952 -14.6451 2.7640
# 3 9.5178 46.0109 143.6553 -11.2307 -19.3186 5.4253
# 4 -6.3167 -9.0952 -11.2307 30.8116 3.5687 -13.8775
# 5 -9.2358 -14.6451 -19.3186 3.5687 43.2858 -4.3707
# 6 16.0445 2.7640 5.4253 -13.8775 -4.3707 29.9028
#
#
#
# Elastic Compliance Matrix: (Units=1/GPa)
#
#
# Indices 1 2 3 4 5 6 
#
# 1 0.013014 -0.000828 -0.000170 -0.001042 0.001790 -0.007098
# 2 -0.000828 0.007190 -0.001985 0.001548 0.001349 0.001055
# 3 -0.000170 -0.001985 0.008138 0.002106 0.002769 0.000180
# 4 -0.001042 0.001548 0.002106 0.042346 -0.000266 0.019647
# 5 0.001790 0.001349 0.002769 -0.000266 0.025400 0.002002
# 6 -0.007098 0.001055 0.000180 0.019647 0.002002 0.046530
#
#
# Mechanical properties :
#
#
# Convention : Reuss Voigt Hill
#
# Bulk Modulus (GPa) = 44.69019 58.50307 51.59663
# Shear Modulus (GPa) = 32.04231 42.11182 37.07706
#
# Velocity S-wave (km/s) = 3.52223 4.03792 3.78886
# Velocity P-wave (km/s) = 5.81760 6.66264 6.25441
#
# Compressibility (1/GPa) = 0.02237627
#
# Stress axis : x y z
#
# Youngs Moduli (GPa) = 76.83911 139.08879 122.87387
#
# Poissons Ratio (x) = 0.11515 0.02086
# Poissons Ratio (y) = 0.06361 0.24395
# Poissons Ratio (z) = 0.01305 0.27614
#
# Static dielectric constant tensor:
#      x y z
#    x 2.101170 -0.094490 0.116440 
#    y -0.094490 2.092520 -0.005690 
#    z 0.116440 -0.005690 2.193490 
# 
# From -- ./inp_files/135023.got.cif
#   From: 2010.05.17/outbox.cif.g08.bks.cpg/sg2_68_cif.got.tgz:135023.got - 2010.06.03 11:33:40.
