data_PCOD9043586
_publ_section_title
;
Structure prediction by ZEFSAII (Michael W. Deem and Ramdas Pophale) SiO2 
 PCOD9043586
Probable space group: P -1
;
_chemical_formula_sum "Si O2"
_cell_formula_units_Z 15
_cell_length_a 11.363040
_cell_length_b 9.670305
_cell_length_c 14.450905
_cell_angle_alpha 48.794295
_cell_angle_beta 34.389630
_cell_angle_gamma 43.141026
_cell_volume 606.660832
_symmetry_space_group_name_H-M "P -1"
_symmetry_group_IT_number 2
_symmetry_cell_setting 'triclinic'
loop_
_space_group_symop_operation_xyz
x,y,z
-x,-y,-z
loop_
_atom_site_type_symbol
_atom_site_label
_atom_site_fract_x
_atom_site_fract_y
_atom_site_fract_z
Si Si1 0.494338 0.535193 0.861640
Si Si2 0.809290 0.334647 0.266237
Si Si3 0.699717 0.462783 0.553162
Si Si4 0.999064 0.692757 0.310526
Si Si5 0.966179 0.394711 0.932790
Si Si6 0.000000 0.000000 0.500000
Si Si7 0.713928 0.984871 0.225165
Si Si8 0.782453 0.948222 0.505885
O O1 0.598439 0.495072 0.708429
O O2 0.722913 0.411413 0.828681
O O3 0.378861 0.779123 0.843983
O O4 0.272810 0.488774 0.019874
O O5 0.532997 0.424810 0.405400
O O6 0.899273 0.465911 0.212019
O O7 0.901975 0.102563 0.344565
O O8 0.896856 0.353020 0.098896
O O9 0.812600 0.227553 0.554753
O O10 0.878137 0.565340 0.395803
O O11 0.870764 0.914174 0.246581
O O12 0.918278 0.744795 0.447077
O O13 0.128502 0.175696 0.881321
O O14 0.793725 0.943849 0.610673
O O15 0.476631 0.964999 0.401437
#
# Coordination Sequence:
#
# PCOD9043586 Si02
#       8
#     2   2   2   2   2   1   2   2
#     4  11  23  43  68  96 148 185 224 290 357 410
#     4  10  23  45  72  92 145 191 229 282 362 418
#     4  11  21  42  66 100 139 177 224 301 348 405
#     4  12  23  42  72 107 138 180 234 294 358 405
#     4  10  24  44  66 102 142 194 232 281 347 431
#     4  12  26  36  68 106 142 170 228 294 352 412
#     4  12  24  42  75 107 136 182 246 293 343 421
#     4  12  24  44  71 110 134 182 237 299 351 413
#
# _framework density 24.725511000000001
#
# number of rings (size 3 to 8) (size 9 to 14) (size 15 to 20)
#    0.000    0.800    4.000    4.400    1.867    1.600 
#    0.000    0.667    2.933    0.000    0.000    0.000 
#    0.000    0.000    0.000    0.000    0.000    0.000 
#
# Total GULP energy -83713.999757 kJ/mol
# GULP energy per Si atom -5580.933317 kJ/mol
# Density = 2.466923 g / cm^3
# Si number density = 24.725511 Si / 1000 Ang^3
#
#
#
# Elastic Constant Matrix: (Units=GPa)
#
#
# Indices 1 2 3 4 5 6 
#
# 1 86.2888 32.6414 41.3927 15.2418 -31.2866 16.9165
# 2 32.6414 140.2782 62.1627 19.8386 -25.0635 20.8455
# 3 41.3927 62.1627 119.9841 10.5877 -40.3382 4.0820
# 4 15.2418 19.8386 10.5877 44.5126 -3.6204 -4.0293
# 5 -31.2866 -25.0635 -40.3382 -3.6204 56.2654 9.1412
# 6 16.9165 20.8455 4.0820 -4.0293 9.1412 51.9387
#
#
#
# Elastic Compliance Matrix: (Units=1/GPa)
#
#
# Indices 1 2 3 4 5 6 
#
# 1 0.018956 0.000689 -0.002760 -0.006104 0.009847 -0.008440
# 2 0.000689 0.010694 -0.004387 -0.004200 0.002534 -0.004944
# 3 -0.002760 -0.004387 0.013606 0.000215 0.006195 0.000517
# 4 -0.006104 -0.004200 0.000215 0.026603 -0.004456 0.006505
# 5 0.009847 0.002534 0.006195 -0.004456 0.030218 -0.010375
# 6 -0.008440 -0.004944 0.000517 0.006505 -0.010375 0.026277
#
#
# Mechanical properties :
#
#
# Convention : Reuss Voigt Hill
#
# Bulk Modulus (GPa) = 32.96097 68.77164 50.86630
# Shear Modulus (GPa) = 33.47119 44.56695 39.01907
#
# Velocity S-wave (km/s) = 3.68327 4.25015 3.97683
# Velocity P-wave (km/s) = 5.60788 7.20829 6.45786
#
# Compressibility (1/GPa) = 0.03033891
#
# Stress axis : x y z
#
# Youngs Moduli (GPa) = 52.75497 93.51111 73.49736
#
# Poissons Ratio (x) = -0.06445 0.20286
# Poissons Ratio (y) = -0.03636 0.32246
# Poissons Ratio (z) = 0.14561 0.41027
#
# Static dielectric constant tensor:
#      x y z
#    x 2.008760 -0.001450 -0.034000 
#    y -0.001450 1.936960 -0.014210 
#    z -0.034000 -0.014210 1.924580 
# 
# From -- ./inp_files/260038.got.cif
#   From: 2010.05.17/outbox.cif.g08.bks.cpg/sg2_131_cif.got.tgz:260038.got - 2010.06.03 11:33:40.
