data_PCOD9043720
_publ_section_title
;
Structure prediction by ZEFSAII (Michael W. Deem and Ramdas Pophale) SiO2 
 PCOD9043720
Probable space group: P -1
;
_chemical_formula_sum "Si O2"
_cell_formula_units_Z 10
_cell_length_a 11.671523
_cell_length_b 5.261688
_cell_length_c 15.617460
_cell_angle_alpha 64.656079
_cell_angle_beta 27.115071
_cell_angle_gamma 73.691443
_cell_volume 383.198811
_symmetry_space_group_name_H-M "P -1"
_symmetry_group_IT_number 2
_symmetry_cell_setting 'triclinic'
loop_
_space_group_symop_operation_xyz
x,y,z
-x,-y,-z
loop_
_atom_site_type_symbol
_atom_site_label
_atom_site_fract_x
_atom_site_fract_y
_atom_site_fract_z
Si Si1 0.917632 0.249463 0.964078
Si Si2 0.224283 0.928934 0.096406
Si Si3 0.480904 0.478591 0.250252
Si Si4 0.418235 0.655786 0.612684
Si Si5 0.185233 0.899752 0.321314
O O1 0.944501 0.235679 0.845275
O O2 0.109166 0.533296 0.835192
O O3 0.605577 0.209307 0.186411
O O4 0.000000 0.000000 0.000000
O O5 0.106728 0.896532 0.274168
O O6 0.292396 0.263676 0.976190
O O7 0.520431 0.880615 0.907543
O O8 0.469544 0.463638 0.361072
O O9 0.246542 0.591953 0.350613
O O10 0.500000 0.500000 0.500000
O O11 0.500000 0.000000 0.500000
O O12 0.000000 0.000000 0.500000
#
# Coordination Sequence:
#
# PCOD9043720 Si02
#       5
#     2   2   2   2   2
#     4  12  23  46  76 109 158 212 260 324 404 487
#     4   9  22  43  77 111 151 206 265 318 407 472
#     4  10  23  45  74 105 153 208 260 315 403 472
#     4  12  28  45  73 119 161 205 268 332 402 483
#     4   9  20  46  76 114 154 199 270 334 393 469
#
# _framework density 26.096115000000001
#
# number of rings (size 3 to 8) (size 9 to 14) (size 15 to 20)
#    1.200    0.400    2.000    1.800    2.800    2.400 
#    3.600    1.000    0.000    1.200    0.000    0.000 
#    0.000    0.000    0.000    0.000    0.000    0.000 
#
# Total GULP energy -55819.101459 kJ/mol
# GULP energy per Si atom -5581.910146 kJ/mol
# Density = 2.603672 g / cm^3
# Si number density = 26.096115 Si / 1000 Ang^3
#
#
#
# Elastic Constant Matrix: (Units=GPa)
#
#
# Indices 1 2 3 4 5 6 
#
# 1 225.5830 68.2700 79.1749 4.5916 37.7367 -7.3931
# 2 68.2700 133.5328 65.1270 8.8496 9.6803 -18.6878
# 3 79.1749 65.1270 140.1887 16.6637 34.9685 -2.6166
# 4 4.5916 8.8496 16.6637 64.7180 6.9714 -3.8711
# 5 37.7367 9.6803 34.9685 6.9714 72.1758 5.0998
# 6 -7.3931 -18.6878 -2.6166 -3.8711 5.0998 42.1154
#
#
#
# Elastic Compliance Matrix: (Units=1/GPa)
#
#
# Indices 1 2 3 4 5 6 
#
# 1 0.006091 -0.001926 -0.002115 0.000613 -0.001987 0.000380
# 2 -0.001926 0.011054 -0.004281 -0.000168 0.001323 0.004125
# 3 -0.002115 -0.004281 0.011408 -0.001895 -0.003572 -0.001304
# 4 0.000613 -0.000168 -0.001895 0.016123 -0.001044 0.001523
# 5 -0.001987 0.001323 -0.003572 -0.001044 0.016697 -0.002102
# 6 0.000380 0.004125 -0.001304 0.001523 -0.002102 0.025955
#
#
# Mechanical properties :
#
#
# Convention : Reuss Voigt Hill
#
# Bulk Modulus (GPa) = 83.96422 102.71647 93.34034
# Shear Modulus (GPa) = 46.32212 54.91736 50.61974
#
# Velocity S-wave (km/s) = 4.21771 4.59238 4.40903
# Velocity P-wave (km/s) = 7.48089 8.21987 7.85907
#
# Compressibility (1/GPa) = 0.01190984
#
# Stress axis : x y z
#
# Youngs Moduli (GPa) = 164.18869 90.46870 87.65423
#
# Poissons Ratio (x) = 0.17420 0.18541
# Poissons Ratio (y) = 0.31615 0.37521
# Poissons Ratio (z) = 0.34730 0.38726
#
# Static dielectric constant tensor:
#      x y z
#    x 2.084320 0.067400 -0.094010 
#    y 0.067400 2.123760 0.092080 
#    z -0.094010 0.092080 2.251410 
# 
# From -- ./inp_files/490661.got.cif
#   From: 2010.05.17/outbox.cif.g08.bks.cpg/sg2_246_cif.got.tgz:490661.got - 2010.06.03 11:33:40.
