data_PCOD9043886
_publ_section_title
;
Structure prediction by ZEFSAII (Michael W. Deem and Ramdas Pophale) SiO2 
 PCOD9043886
Probable space group: P -1
;
_chemical_formula_sum "Si O2"
_cell_formula_units_Z 14
_cell_length_a 5.267693
_cell_length_b 18.762203
_cell_length_c 9.637279
_cell_angle_alpha 44.742995
_cell_angle_beta 109.158077
_cell_angle_gamma 113.519824
_cell_volume 613.301350
_symmetry_space_group_name_H-M "P -1"
_symmetry_group_IT_number 2
_symmetry_cell_setting 'triclinic'
loop_
_space_group_symop_operation_xyz
x,y,z
-x,-y,-z
loop_
_atom_site_type_symbol
_atom_site_label
_atom_site_fract_x
_atom_site_fract_y
_atom_site_fract_z
Si Si1 0.041202 0.770586 0.141231
Si Si2 0.943778 0.416152 0.982801
Si Si3 0.851914 0.079529 0.791108
Si Si4 0.174375 0.458804 0.474151
Si Si5 0.979153 0.897168 0.498133
Si Si6 0.342480 0.276824 0.124848
Si Si7 0.684250 0.074600 0.224170
O O1 0.941455 0.664152 0.355976
O O2 0.167181 0.848948 0.180858
O O3 0.783338 0.759497 0.000695
O O4 0.275550 0.816462 0.001999
O O5 0.883481 0.487468 0.749752
O O6 0.666084 0.329099 0.094697
O O7 0.000000 0.500000 0.000000
O O8 0.179333 0.359459 0.048148
O O9 0.012252 0.142353 0.601988
O O10 0.584809 0.006714 0.768359
O O11 0.000000 0.000000 0.000000
O O12 0.500000 0.500000 0.500000
O O13 0.000000 0.500000 0.500000
O O14 0.738698 0.820956 0.649595
O O15 0.254159 0.904538 0.630896
O O16 0.921231 0.012188 0.315936
#
# Coordination Sequence:
#
# PCOD9043886 Si02
#       7
#     2   2   2   2   2   2   2
#     4  11  24  44  70 104 140 188 236 296 366 419
#     4  12  26  49  72 105 142 183 247 305 351 428
#     4  12  25  42  69 108 144 187 240 302 354 433
#     4  12  25  49  74 104 140 188 239 296 363 423
#     4  10  24  44  70  98 143 192 233 286 363 431
#     4  11  26  47  72 105 142 195 234 291 372 426
#     4  10  23  46  65 102 147 182 239 287 359 441
#
# _framework density 22.827278
#
# number of rings (size 3 to 8) (size 9 to 14) (size 15 to 20)
#    0.000    0.857    4.286    1.286    4.000    3.429 
#    0.000    0.000    0.000    0.000    0.000    0.000 
#    0.000    0.000    0.000    0.000    0.000    0.000 
#
# Total GULP energy -78069.630370 kJ/mol
# GULP energy per Si atom -5576.402169 kJ/mol
# Density = 2.277532 g / cm^3
# Si number density = 22.827278 Si / 1000 Ang^3
#
#
#
# Elastic Constant Matrix: (Units=GPa)
#
#
# Indices 1 2 3 4 5 6 
#
# 1 97.2324 41.4309 41.1284 8.2183 -11.1750 2.1490
# 2 41.4309 99.4178 46.4061 23.0955 -12.1044 12.1043
# 3 41.1284 46.4061 122.4141 5.3513 -21.1634 -2.4727
# 4 8.2183 23.0955 5.3513 58.3613 0.3979 -16.3024
# 5 -11.1750 -12.1044 -21.1634 0.3979 30.6894 -3.1164
# 6 2.1490 12.1043 -2.4727 -16.3024 -3.1164 23.8703
#
#
#
# Elastic Compliance Matrix: (Units=1/GPa)
#
#
# Indices 1 2 3 4 5 6 
#
# 1 0.013365 -0.004485 -0.002528 0.000488 0.001484 0.001336
# 2 -0.004485 0.019494 -0.005655 -0.011569 0.000488 -0.017905
# 3 -0.002528 -0.005655 0.012193 0.003547 0.005980 0.007561
# 4 0.000488 -0.011569 0.003547 0.028493 0.000300 0.025688
# 5 0.001484 0.000488 0.005980 0.000300 0.037985 0.005402
# 6 0.001336 -0.017905 0.007561 0.025688 0.005402 0.069885
#
#
# Mechanical properties :
#
#
# Convention : Reuss Voigt Hill
#
# Bulk Modulus (GPa) = 50.71740 64.11057 57.41398
# Shear Modulus (GPa) = 23.43874 35.25749 29.34812
#
# Velocity S-wave (km/s) = 3.20783 3.93432 3.58950
# Velocity P-wave (km/s) = 5.99886 6.98459 6.51041
#
# Compressibility (1/GPa) = 0.01971710
#
# Stress axis : x y z
#
# Youngs Moduli (GPa) = 74.82397 51.29787 82.01153
#
# Poissons Ratio (x) = 0.23006 0.20732
# Poissons Ratio (y) = 0.33558 0.46375
# Poissons Ratio (z) = 0.18915 0.29008
#
# Static dielectric constant tensor:
#      x y z
#    x 1.910280 -0.003810 0.023560 
#    y -0.003810 1.781680 -0.038950 
#    z 0.023560 -0.038950 1.825640 
# 
# From -- ./inp_files/46787.got.cif
#   From: 2010.05.17/outbox.cif.g08.bks.cpg/sg2_24_cif.got.tgz:46787.got - 2010.06.03 11:33:40.
