data_PCOD9043772
_publ_section_title
;
Structure prediction by ZEFSAII (Michael W. Deem and Ramdas Pophale) SiO2 
 PCOD9043772
Probable space group: P -1
;
_chemical_formula_sum "Si O2"
_cell_formula_units_Z 12
_cell_length_a 9.985165
_cell_length_b 8.200056
_cell_length_c 10.292695
_cell_angle_alpha 61.659433
_cell_angle_beta 135.676304
_cell_angle_gamma 96.296570
_cell_volume 480.674060
_symmetry_space_group_name_H-M "P -1"
_symmetry_group_IT_number 2
_symmetry_cell_setting 'triclinic'
loop_
_space_group_symop_operation_xyz
x,y,z
-x,-y,-z
loop_
_atom_site_type_symbol
_atom_site_label
_atom_site_fract_x
_atom_site_fract_y
_atom_site_fract_z
Si Si1 0.289726 0.968684 0.894031
Si Si2 0.345528 0.753206 0.248315
Si Si3 0.551462 0.183463 0.416174
Si Si4 0.181795 0.491380 0.363499
Si Si5 0.775943 0.430444 0.091994
Si Si6 0.126563 0.708016 0.518329
O O1 0.098138 0.154977 0.639454
O O2 0.280271 0.758662 0.918790
O O3 0.500000 0.000000 0.000000
O O4 0.252604 0.956788 0.028461
O O5 0.379873 0.755330 0.423487
O O6 0.579851 0.655182 0.395587
O O7 0.368354 0.366239 0.154650
O O8 0.800986 0.373427 0.799682
O O9 0.746773 0.147450 0.472807
O O10 0.500000 0.000000 0.500000
O O11 0.114305 0.601088 0.415003
O O12 0.013782 0.399573 0.243390
O O13 0.754176 0.444119 0.228519
#
# Coordination Sequence:
#
# PCOD9043772 Si02
#       6
#     2   2   2   2   2   2
#     4  12  28  46  75 107 153 193 240 306 364 436
#     4  10  24  46  68 104 151 184 246 299 368 420
#     4  11  28  45  74 109 146 193 246 305 356 438
#     4  10  23  45  75 106 141 196 241 303 363 429
#     4  12  26  46  75 106 149 194 245 298 370 427
#     4  11  26  46  72 109 147 193 246 295 365 436
#
# _framework density 24.964942000000001
#
# number of rings (size 3 to 8) (size 9 to 14) (size 15 to 20)
#    0.000    1.000    0.000    5.500    9.333    4.000 
#    0.000    0.000    0.000    0.000    0.000    0.000 
#    0.000    0.000    0.000    0.000    0.000    0.000 
#
# Total GULP energy -67082.749493 kJ/mol
# GULP energy per Si atom -5590.229124 kJ/mol
# Density = 2.490812 g / cm^3
# Si number density = 24.964942 Si / 1000 Ang^3
#
#
#
# Elastic Constant Matrix: (Units=GPa)
#
#
# Indices 1 2 3 4 5 6 
#
# 1 129.2359 46.4628 63.2476 11.4258 1.3753 37.8830
# 2 46.4628 102.1106 51.9263 13.7467 12.1658 37.0628
# 3 63.2476 51.9263 119.8174 4.5357 -11.3523 22.6799
# 4 11.4258 13.7467 4.5357 32.3486 20.7551 7.8916
# 5 1.3753 12.1658 -11.3523 20.7551 54.4611 0.2595
# 6 37.8830 37.0628 22.6799 7.8916 0.2595 45.0186
#
#
#
# Elastic Compliance Matrix: (Units=1/GPa)
#
#
# Indices 1 2 3 4 5 6 
#
# 1 0.012739 0.000017 -0.005285 -0.001272 -0.000905 -0.007843
# 2 0.000017 0.017590 -0.005908 -0.000803 -0.004801 -0.011351
# 3 -0.005285 -0.005908 0.013703 -0.001237 0.004769 0.002597
# 4 -0.001272 -0.000803 -0.001237 0.043906 -0.016754 -0.005246
# 5 -0.000905 -0.004801 0.004769 -0.016754 0.026812 0.005094
# 6 -0.007843 -0.011351 0.002597 -0.005246 0.005094 0.037740
#
#
# Mechanical properties :
#
#
# Convention : Reuss Voigt Hill
#
# Bulk Modulus (GPa) = 46.12454 74.93748 60.53101
# Shear Modulus (GPa) = 27.46195 39.00080 33.23138
#
# Velocity S-wave (km/s) = 3.32025 3.95678 3.65241
# Velocity P-wave (km/s) = 5.76321 7.13842 6.48736
#
# Compressibility (1/GPa) = 0.02168043
#
# Stress axis : x y z
#
# Youngs Moduli (GPa) = 78.49699 56.84986 72.97558
#
# Poissons Ratio (x) = -0.00095 0.38567
# Poissons Ratio (y) = -0.00131 0.43114
# Poissons Ratio (z) = 0.41485 0.33587
#
# Static dielectric constant tensor:
#      x y z
#    x 2.072070 0.131720 -0.003160 
#    y 0.131720 2.576670 0.051320 
#    z -0.003160 0.051320 1.967710 
# 
# From -- ./inp_files/378503.got.cif
#   From: 2010.05.17/outbox.cif.g08.bks.cpg/sg2_190_cif.got.tgz:378503.got - 2010.06.03 11:33:40.
