data_PCOD9043376
_publ_section_title
;
Structure prediction by ZEFSAII (Michael W. Deem and Ramdas Pophale) SiO2 
 PCOD9043376
Probable space group: P -1
;
_chemical_formula_sum "Si O2"
_cell_formula_units_Z 14
_cell_length_a 8.255997
_cell_length_b 21.528251
_cell_length_c 9.687943
_cell_angle_alpha 150.409168
_cell_angle_beta 113.517057
_cell_angle_gamma 53.496666
_cell_volume 652.435903
_symmetry_space_group_name_H-M "P -1"
_symmetry_group_IT_number 2
_symmetry_cell_setting 'triclinic'
loop_
_space_group_symop_operation_xyz
x,y,z
-x,-y,-z
loop_
_atom_site_type_symbol
_atom_site_label
_atom_site_fract_x
_atom_site_fract_y
_atom_site_fract_z
Si Si1 0.644773 0.772334 0.187214
Si Si2 0.333669 0.272805 0.578704
Si Si3 0.828769 0.137509 0.447890
Si Si4 0.286507 0.564939 0.140183
Si Si5 0.301745 0.532917 0.410061
Si Si6 0.877828 0.847349 0.913114
Si Si7 0.800312 0.943214 0.388008
O O1 0.709937 0.758976 0.343719
O O2 0.736765 0.845359 0.265184
O O3 0.389041 0.884556 0.315237
O O4 0.719028 0.607508 0.845123
O O5 0.580772 0.212706 0.539541
O O6 0.276450 0.187268 0.286215
O O7 0.209565 0.453324 0.861346
O O8 0.847079 0.258665 0.600451
O O9 0.974800 0.100178 0.560085
O O10 0.897752 0.976393 0.097290
O O11 0.332071 0.541805 0.273627
O O12 0.500000 0.500000 0.000000
O O13 0.500000 0.500000 0.500000
O O14 0.099122 0.690364 0.688988
O O15 0.804857 0.904614 0.154675
#
# Coordination Sequence:
#
# PCOD9043376 Si02
#       7
#     2   2   2   2   2   2   2
#     4  10  24  46  68  97 140 180 228 271 347 403
#     4  10  23  45  70  96 137 179 224 282 333 407
#     4  11  23  43  72  98 136 182 227 271 340 410
#     4   9  23  43  69  93 135 184 217 265 344 404
#     4  11  26  44  67 104 140 175 227 288 333 403
#     4  12  26  41  73 103 135 174 232 285 339 383
#     4  11  25  43  73  99 133 187 223 280 336 406
#
# _framework density 21.458046
#
# number of rings (size 3 to 8) (size 9 to 14) (size 15 to 20)
#    0.000    1.429    1.429    1.714   10.000    4.571 
#    2.571    0.000    0.000    0.000    0.000    0.000 
#    0.000    0.000    0.000    0.000    0.000    0.000 
#
# Total GULP energy -78251.505284 kJ/mol
# GULP energy per Si atom -5589.393235 kJ/mol
# Density = 2.140921 g / cm^3
# Si number density = 21.458046 Si / 1000 Ang^3
#
#
#
# Elastic Constant Matrix: (Units=GPa)
#
#
# Indices 1 2 3 4 5 6 
#
# 1 63.1209 35.7464 35.8472 10.4099 8.6531 -12.9764
# 2 35.7464 103.0756 67.0739 18.6095 32.0492 -1.7576
# 3 35.8472 67.0739 147.1493 25.8466 22.9430 -2.2108
# 4 10.4099 18.6095 25.8466 51.2288 -6.4306 9.4633
# 5 8.6531 32.0492 22.9430 -6.4306 33.6521 4.6921
# 6 -12.9764 -1.7576 -2.2108 9.4633 4.6921 38.9558
#
#
#
# Elastic Compliance Matrix: (Units=1/GPa)
#
#
# Indices 1 2 3 4 5 6 
#
# 1 0.022396 -0.005390 -0.002223 -0.003035 -0.000794 0.007924
# 2 -0.005390 0.021183 -0.004298 -0.007154 -0.017612 0.002775
# 3 -0.002223 -0.004298 0.010531 -0.003917 -0.003406 0.001025
# 4 -0.003035 -0.007154 -0.003917 0.028845 0.017260 -0.010642
# 5 -0.000794 -0.017612 -0.003406 0.017260 0.053979 -0.011947
# 6 0.007924 0.002775 0.001025 -0.010642 -0.011947 0.032517
#
#
# Mechanical properties :
#
#
# Convention : Reuss Voigt Hill
#
# Bulk Modulus (GPa) = 33.01733 65.63119 49.32426
# Shear Modulus (GPa) = 24.58577 36.41256 30.49916
#
# Velocity S-wave (km/s) = 3.38858 4.12384 3.77416
# Velocity P-wave (km/s) = 5.54349 7.30253 6.48295
#
# Compressibility (1/GPa) = 0.03028712
#
# Stress axis : x y z
#
# Youngs Moduli (GPa) = 44.65070 47.20799 94.95710
#
# Poissons Ratio (x) = 0.25447 0.21108
# Poissons Ratio (y) = 0.24068 0.40814
# Poissons Ratio (z) = 0.09925 0.20291
#
# Static dielectric constant tensor:
#      x y z
#    x 1.789370 -0.023220 0.015260 
#    y -0.023220 1.804590 0.038180 
#    z 0.015260 0.038180 1.785570 
# 
# From -- ./inp_files/224352.got.cif
#   From: 2010.05.17/outbox.cif.g08.bks.cpg/sg2_113_cif.got.tgz:224352.got - 2010.06.03 11:33:40.
