data_PCOD9043087
_publ_section_title
;
Structure prediction by ZEFSAII (Michael W. Deem and Ramdas Pophale) SiO2 
 PCOD9043087
Probable space group: P -1
;
_chemical_formula_sum "Si O2"
_cell_formula_units_Z 12
_cell_length_a 10.852207
_cell_length_b 5.460203
_cell_length_c 13.240480
_cell_angle_alpha 90.762910
_cell_angle_beta 43.828500
_cell_angle_gamma 69.558381
_cell_volume 464.617179
_symmetry_space_group_name_H-M "P -1"
_symmetry_group_IT_number 2
_symmetry_cell_setting 'triclinic'
loop_
_space_group_symop_operation_xyz
x,y,z
-x,-y,-z
loop_
_atom_site_type_symbol
_atom_site_label
_atom_site_fract_x
_atom_site_fract_y
_atom_site_fract_z
Si Si1 0.170798 0.678005 0.861984
Si Si2 0.631100 0.087307 0.352800
Si Si3 0.731438 0.825328 0.821475
Si Si4 0.070472 0.571803 0.116081
Si Si5 0.919416 0.103007 0.435072
Si Si6 0.683697 0.782370 0.610976
O O1 0.038859 0.580794 0.875007
O O2 0.358000 0.630416 0.678108
O O3 0.237864 0.540067 0.933416
O O4 0.000000 0.000000 0.000000
O O5 0.869387 0.887085 0.243531
O O6 0.500000 0.000000 0.500000
O O7 0.553833 0.056097 0.286682
O O8 0.840911 0.554431 0.829006
O O9 0.719859 0.765258 0.709672
O O10 0.870248 0.973562 0.749963
O O11 0.500000 0.000000 0.000000
O O12 0.789288 0.451974 0.509213
O O13 0.783563 0.954741 0.503424
O O14 0.000000 0.000000 0.500000
#
# Coordination Sequence:
#
# PCOD9043087 Si02
#       6
#     2   2   2   2   2   2
#     4   9  22  42  67  93 139 183 229 291 359 416
#     4  11  25  42  73 104 135 186 240 293 354 434
#     4  11  25  43  72 107 137 191 244 296 356 433
#     4  10  23  45  68  94 146 181 233 293 364 418
#     4  10  23  48  71  99 153 188 231 296 364 423
#     4  11  26  48  74 108 146 190 238 299 364 431
#
# _framework density 25.827714
#
# number of rings (size 3 to 8) (size 9 to 14) (size 15 to 20)
#    0.000    1.667    0.000    3.000   11.667    2.000 
#    9.000    8.333    0.000    0.000    0.000    0.000 
#    0.000    0.000    0.000    0.000    0.000    0.000 
#
# Total GULP energy -66919.141176 kJ/mol
# GULP energy per Si atom -5576.595098 kJ/mol
# Density = 2.576893 g / cm^3
# Si number density = 25.827714 Si / 1000 Ang^3
#
#
#
# Elastic Constant Matrix: (Units=GPa)
#
#
# Indices 1 2 3 4 5 6 
#
# 1 127.3043 27.2635 27.2047 -15.1996 4.2451 -35.5549
# 2 27.2635 99.2724 51.4004 -32.9737 -1.4077 -7.8708
# 3 27.2047 51.4004 179.3518 -54.5697 -3.5944 -15.9000
# 4 -15.1996 -32.9737 -54.5697 45.0141 -5.2488 -3.1984
# 5 4.2451 -1.4077 -3.5944 -5.2488 44.8067 -4.7589
# 6 -35.5549 -7.8708 -15.9000 -3.1984 -4.7589 46.6195
#
#
#
# Elastic Compliance Matrix: (Units=1/GPa)
#
#
# Indices 1 2 3 4 5 6 
#
# 1 0.010903 -0.001250 0.000848 0.004468 0.000448 0.008746
# 2 -0.001250 0.014098 -0.000826 0.009251 0.001787 0.001963
# 3 0.000848 -0.000826 0.009967 0.012435 0.002685 0.005034
# 4 0.004468 0.009251 0.012435 0.047431 0.007830 0.013264
# 5 0.000448 0.001787 0.002685 0.007830 0.023947 0.004541
# 6 0.008746 0.001963 0.005034 0.013264 0.004541 0.031542
#
#
# Mechanical properties :
#
#
# Convention : Reuss Voigt Hill
#
# Bulk Modulus (GPa) = 30.75729 68.62951 49.69340
# Shear Modulus (GPa) = 33.07307 47.29206 40.18257
#
# Velocity S-wave (km/s) = 3.58233 4.28373 3.94863
# Velocity P-wave (km/s) = 5.38936 7.14821 6.33017
#
# Compressibility (1/GPa) = 0.03251262
#
# Stress axis : x y z
#
# Youngs Moduli (GPa) = 91.72118 70.93158 100.32754
#
# Poissons Ratio (x) = 0.08863 -0.08508
# Poissons Ratio (y) = 0.11461 0.08289
# Poissons Ratio (z) = -0.07778 0.05860
#
# Static dielectric constant tensor:
#      x y z
#    x 2.031100 0.067580 0.077140 
#    y 0.067580 2.376950 0.071670 
#    z 0.077140 0.071670 2.199150 
# 
# From -- ./inp_files/510871.got.cif
#   From: 2010.05.17/outbox.cif.g08.bks.cpg/sg2_256_cif.got.tgz:510871.got - 2010.06.03 11:33:40.
