data_PCOD9043099
_publ_section_title
;
Structure prediction by ZEFSAII (Michael W. Deem and Ramdas Pophale) SiO2 
 PCOD9043099
Probable space group: P -1
;
_chemical_formula_sum "Si O2"
_cell_formula_units_Z 14
_cell_length_a 5.142656
_cell_length_b 17.166546
_cell_length_c 14.565903
_cell_angle_alpha 29.423223
_cell_angle_beta 64.435910
_cell_angle_gamma 66.815151
_cell_volume 569.403991
_symmetry_space_group_name_H-M "P -1"
_symmetry_group_IT_number 2
_symmetry_cell_setting 'triclinic'
loop_
_space_group_symop_operation_xyz
x,y,z
-x,-y,-z
loop_
_atom_site_type_symbol
_atom_site_label
_atom_site_fract_x
_atom_site_fract_y
_atom_site_fract_z
Si Si1 0.381493 0.259824 0.356279
Si Si2 0.793787 0.443366 0.232122
Si Si3 0.888981 0.252522 0.149476
Si Si4 0.684923 0.932019 0.959281
Si Si5 0.204015 0.743332 0.056507
Si Si6 0.701131 0.569211 0.321438
Si Si7 0.345493 0.023287 0.283224
O O1 0.050183 0.306986 0.338423
O O2 0.577635 0.259266 0.236182
O O3 0.523596 0.387831 0.271541
O O4 0.455459 0.093988 0.566736
O O5 0.699960 0.484143 0.309865
O O6 0.940533 0.592134 0.007899
O O7 0.045555 0.079839 0.317259
O O8 0.887288 0.269872 0.022582
O O9 0.581212 0.752250 0.143704
O O10 0.020201 0.894173 0.972039
O O11 0.677316 0.029596 0.765398
O O12 0.500000 0.000000 0.000000
O O13 0.037749 0.593424 0.275788
O O14 0.514726 0.805844 0.926098
O O15 0.500000 0.500000 0.500000
#
# Coordination Sequence:
#
# PCOD9043099 Si02
#       7
#     2   2   2   2   2   2   2
#     4  12  28  40  73 105 138 186 234 281 332 420
#     4  11  26  45  66 103 146 175 232 287 343 402
#     4  10  23  45  68  96 140 186 224 282 347 401
#     4   9  21  40  65  91 130 167 225 280 343 393
#     4   8  21  38  66  92 136 169 224 278 348 389
#     4   9  21  42  69  94 133 178 224 283 345 410
#     4  11  23  42  68  97 138 178 232 286 341 409
#
# _framework density 24.587112999999999
#
# number of rings (size 3 to 8) (size 9 to 14) (size 15 to 20)
#    0.857    1.143    1.429    1.286   12.000    1.143 
#    0.000    2.857    0.000    0.000    0.000    0.000 
#    0.000    0.000    0.000    0.000    0.000    0.000 
#
# Total GULP energy -78054.250639 kJ/mol
# GULP energy per Si atom -5575.303617 kJ/mol
# Density = 2.453115 g / cm^3
# Si number density = 24.587113 Si / 1000 Ang^3
#
#
#
# Elastic Constant Matrix: (Units=GPa)
#
#
# Indices 1 2 3 4 5 6 
#
# 1 29.3829 5.3075 -2.2584 0.6181 2.2372 -15.7654
# 2 5.3075 155.3959 28.2679 16.9298 2.9382 -31.3956
# 3 -2.2584 28.2679 107.7506 15.8758 6.4968 -17.0048
# 4 0.6181 16.9298 15.8758 36.3955 -11.3938 -4.4677
# 5 2.2372 2.9382 6.4968 -11.3938 33.2705 -8.0254
# 6 -15.7654 -31.3956 -17.0048 -4.4677 -8.0254 34.6659
#
#
#
# Elastic Compliance Matrix: (Units=1/GPa)
#
#
# Indices 1 2 3 4 5 6 
#
# 1 0.048376 0.003056 0.004427 -0.000122 0.002187 0.027431
# 2 0.003056 0.008413 -0.000425 -0.002644 0.000286 0.008527
# 3 0.004427 -0.000425 0.011310 -0.004943 -0.002737 0.005906
# 4 -0.000122 -0.002644 -0.004943 0.035658 0.014141 0.002995
# 5 0.002187 0.000286 -0.002737 0.014141 0.037790 0.010482
# 6 0.027431 0.008527 0.005906 0.002995 0.010482 0.054754
#
#
# Mechanical properties :
#
#
# Convention : Reuss Voigt Hill
#
# Bulk Modulus (GPa) = 12.16306 39.46261 25.81283
# Shear Modulus (GPa) = 23.85611 38.28052 31.06831
#
# Velocity S-wave (km/s) = 3.11829 3.95008 3.55857
# Velocity P-wave (km/s) = 4.23352 6.07364 5.23507
#
# Compressibility (1/GPa) = 0.08221616
#
# Stress axis : x y z
#
# Youngs Moduli (GPa) = 20.67160 118.85709 88.41455
#
# Poissons Ratio (x) = -0.36327 -0.39143
# Poissons Ratio (y) = -0.06318 0.03760
# Poissons Ratio (z) = -0.09152 0.05054
#
# Static dielectric constant tensor:
#      x y z
#    x 2.248850 0.002050 0.007430 
#    y 0.002050 1.954570 -0.079090 
#    z 0.007430 -0.079090 1.969580 
# 
# From -- ./inp_files/484979.got.cif
#   From: 2010.05.17/outbox.cif.g08.bks.cpg/sg2_243_cif.got.tgz:484979.got - 2010.06.03 11:33:40.
