data_PCOD9043673
_publ_section_title
;
Structure prediction by ZEFSAII (Michael W. Deem and Ramdas Pophale) SiO2 
 PCOD9043673
Probable space group: P -1
;
_chemical_formula_sum "Si O2"
_cell_formula_units_Z 14
_cell_length_a 6.185035
_cell_length_b 21.805830
_cell_length_c 21.297994
_cell_angle_alpha 19.226830
_cell_angle_beta 47.921260
_cell_angle_gamma 57.125821
_cell_volume 652.787780
_symmetry_space_group_name_H-M "P -1"
_symmetry_group_IT_number 2
_symmetry_cell_setting 'triclinic'
loop_
_space_group_symop_operation_xyz
x,y,z
-x,-y,-z
loop_
_atom_site_type_symbol
_atom_site_label
_atom_site_fract_x
_atom_site_fract_y
_atom_site_fract_z
Si Si1 0.470217 0.780597 0.241382
Si Si2 0.797065 0.969533 0.442790
Si Si3 0.257291 0.434401 0.373778
Si Si4 0.530084 0.201098 0.451865
Si Si5 0.563242 0.777288 0.894924
Si Si6 0.665052 0.525822 0.539569
Si Si7 0.768523 0.642609 0.856689
O O1 0.667184 0.730079 0.308542
O O2 0.534015 0.657555 0.289053
O O3 0.109789 0.678951 0.432159
O O4 0.500000 0.000000 0.000000
O O5 0.691377 0.840355 0.525990
O O6 0.873552 0.853977 0.596696
O O7 0.500000 0.000000 0.500000
O O8 0.109132 0.161743 0.189087
O O9 0.404851 0.300500 0.435281
O O10 0.425760 0.484763 0.359929
O O11 0.306353 0.627458 0.134692
O O12 0.876903 0.356611 0.212294
O O13 0.502367 0.977650 0.694628
O O14 0.615689 0.669634 0.925581
O O15 0.000000 0.500000 0.500000
O O16 0.500000 0.500000 0.000000
#
# Coordination Sequence:
#
# PCOD9043673 Si02
#       7
#     2   2   2   2   2   2   2
#     4  10  23  45  73  98 130 173 218 262 337 422
#     4  11  20  39  63  80 117 180 227 267 324 376
#     4  11  26  39  63 102 130 165 214 279 337 397
#     4  11  24  41  61  92 132 173 228 275 332 384
#     4  11  24  41  60  91 131 171 227 277 327 388
#     4   9  22  45  69  97 132 169 212 265 338 410
#     4  11  23  38  61  89 124 179 228 273 328 394
#
# _framework density 21.446477999999999
#
# number of rings (size 3 to 8) (size 9 to 14) (size 15 to 20)
#    0.000    1.429    2.857    1.714    2.000   13.714 
#    0.000    0.000    0.000    0.000    0.000    0.000 
#    0.000    0.000    0.000    0.000    0.000    0.000 
#
# Total GULP energy -78035.918071 kJ/mol
# GULP energy per Si atom -5573.994148 kJ/mol
# Density = 2.139766 g / cm^3
# Si number density = 21.446478 Si / 1000 Ang^3
#
#
#
# Elastic Constant Matrix: (Units=GPa)
#
#
# Indices 1 2 3 4 5 6 
#
# 1 81.5973 34.1322 33.7837 5.4278 15.9810 16.4639
# 2 34.1322 137.9123 36.4277 3.7082 9.8769 28.1026
# 3 33.7837 36.4277 124.5181 19.3486 22.3595 -5.5027
# 4 5.4278 3.7082 19.3486 33.2325 -4.8232 4.9365
# 5 15.9810 9.8769 22.3595 -4.8232 49.9740 -2.9455
# 6 16.4639 28.1026 -5.5027 4.9365 -2.9455 40.8004
#
#
#
# Elastic Compliance Matrix: (Units=1/GPa)
#
#
# Indices 1 2 3 4 5 6 
#
# 1 0.016394 -0.001557 -0.003607 -0.000005 -0.003692 -0.006295
# 2 -0.001557 0.009767 -0.002960 0.001842 -0.000328 -0.006744
# 3 -0.003607 -0.002960 0.012020 -0.007515 -0.004027 0.005734
# 4 -0.000005 0.001842 -0.007515 0.036071 0.006115 -0.006203
# 5 -0.003692 -0.000328 -0.004027 0.006115 0.023774 0.002149
# 6 -0.006295 -0.006744 0.005734 -0.006203 0.002149 0.033374
#
#
# Mechanical properties :
#
#
# Convention : Reuss Voigt Hill
#
# Bulk Modulus (GPa) = 45.59648 61.41280 53.50464
# Shear Modulus (GPa) = 32.26683 40.78032 36.52358
#
# Velocity S-wave (km/s) = 3.88303 4.36534 4.13123
# Velocity P-wave (km/s) = 6.43511 7.35567 6.91073
#
# Compressibility (1/GPa) = 0.02193152
#
# Stress axis : x y z
#
# Youngs Moduli (GPa) = 60.99926 102.39046 83.19686
#
# Poissons Ratio (x) = 0.15946 0.30006
# Poissons Ratio (y) = 0.09500 0.24628
# Poissons Ratio (z) = 0.22000 0.30309
#
# Static dielectric constant tensor:
#      x y z
#    x 1.364250 0.117280 -0.140650 
#    y 0.117280 1.626750 -0.008210 
#    z -0.140650 -0.008210 1.802690 
# 
# From -- ./inp_files/97702.got.cif
#   From: 2010.05.17/outbox.cif.g08.bks.cpg/sg2_49_cif.got.tgz:97702.got - 2010.06.03 11:33:40.
