data_PCOD9043725
_publ_section_title
;
Structure prediction by ZEFSAII (Michael W. Deem and Ramdas Pophale) SiO2 
 PCOD9043725
Probable space group: P -1
;
_chemical_formula_sum "Si O2"
_cell_formula_units_Z 12
_cell_length_a 9.292090
_cell_length_b 11.124187
_cell_length_c 5.334041
_cell_angle_alpha 61.870710
_cell_angle_beta 75.566949
_cell_angle_gamma 70.954798
_cell_volume 456.603721
_symmetry_space_group_name_H-M "P -1"
_symmetry_group_IT_number 2
_symmetry_cell_setting 'triclinic'
loop_
_space_group_symop_operation_xyz
x,y,z
-x,-y,-z
loop_
_atom_site_type_symbol
_atom_site_label
_atom_site_fract_x
_atom_site_fract_y
_atom_site_fract_z
Si Si1 0.959586 0.357212 0.748755
Si Si2 0.806212 0.169451 0.715639
Si Si3 0.514716 0.783479 0.379204
Si Si4 0.660709 0.539513 0.882881
Si Si5 0.252518 0.964683 0.615768
Si Si6 0.249998 0.226455 0.075405
O O1 0.917592 0.268684 0.624480
O O2 0.799734 0.404950 0.921580
O O3 0.000000 0.500000 0.500000
O O4 0.092880 0.269469 0.950028
O O5 0.627240 0.251779 0.675836
O O6 0.838448 0.083454 0.529879
O O7 0.805153 0.073414 0.055412
O O8 0.635675 0.645572 0.555189
O O9 0.425297 0.872741 0.563671
O O10 0.614202 0.856835 0.083749
O O11 0.702471 0.633854 0.992634
O O12 0.500000 0.500000 0.000000
O O13 0.242730 0.126840 0.411348
#
# Coordination Sequence:
#
# PCOD9043725 Si02
#       6
#     2   2   2   2   2   2
#     4  12  27  48  72 111 153 195 253 308 377 448
#     4  10  26  48  75 109 148 201 243 313 371 446
#     4  10  23  45  74 106 147 193 248 306 371 440
#     4  12  27  46  76 106 154 202 252 302 375 456
#     4  10  25  47  78 109 149 189 263 297 382 442
#     4  12  26  44  75 109 147 198 244 320 368 441
#
# _framework density 26.280995999999998
#
# number of rings (size 3 to 8) (size 9 to 14) (size 15 to 20)
#    1.000    0.000    1.667    4.000    4.667    5.333 
#    0.000    0.000    0.000    0.000    0.000    0.000 
#    0.000    0.000    0.000    0.000    0.000    0.000 
#
# Total GULP energy -67286.706235 kJ/mol
# GULP energy per Si atom -5607.225520 kJ/mol
# Density = 2.622118 g / cm^3
# Si number density = 26.280996 Si / 1000 Ang^3
#
#
#
# Elastic Constant Matrix: (Units=GPa)
#
#
# Indices 1 2 3 4 5 6 
#
# 1 190.6714 60.4538 24.9626 7.6514 6.8826 6.4186
# 2 60.4538 75.2668 -2.5233 3.8414 0.9384 6.0583
# 3 24.9626 -2.5233 79.4081 0.4499 20.8798 1.8700
# 4 7.6514 3.8414 0.4499 32.1390 2.9373 -4.3695
# 5 6.8826 0.9384 20.8798 2.9373 40.5746 4.6601
# 6 6.4186 6.0583 1.8700 -4.3695 4.6601 64.4125
#
#
#
# Elastic Compliance Matrix: (Units=1/GPa)
#
#
# Indices 1 2 3 4 5 6 
#
# 1 0.007562 -0.006095 -0.002644 -0.001091 0.000321 -0.000201
# 2 -0.006095 0.018423 0.002685 -0.000903 -0.000568 -0.001224
# 3 -0.002644 0.002685 0.015520 0.000817 -0.007679 0.000171
# 4 -0.001091 -0.000903 0.000817 0.032077 -0.002829 0.002551
# 5 0.000321 -0.000568 -0.007679 -0.002829 0.028996 -0.002045
# 6 -0.000201 -0.001224 0.000171 0.002551 -0.002045 0.015976
#
#
# Mechanical properties :
#
#
# Convention : Reuss Voigt Hill
#
# Bulk Modulus (GPa) = 34.01787 56.79251 45.40519
# Shear Modulus (GPa) = 35.59688 44.92210 40.25949
#
# Velocity S-wave (km/s) = 3.68431 4.13885 3.91818
# Velocity P-wave (km/s) = 5.57412 6.67059 6.14685
#
# Compressibility (1/GPa) = 0.02939631
#
# Stress axis : x y z
#
# Youngs Moduli (GPa) = 132.23738 54.28025 64.43185
#
# Poissons Ratio (x) = 0.33082 0.17038
# Poissons Ratio (y) = 0.80594 -0.17297
# Poissons Ratio (z) = 0.34969 -0.14572
#
# Static dielectric constant tensor:
#      x y z
#    x 2.054730 0.022280 -0.063050 
#    y 0.022280 2.078200 0.021870 
#    z -0.063050 0.021870 2.131310 
# 
# From -- ./inp_files/26077.got.cif
#   From: 2010.05.17/outbox.cif.g08.bks.cpg/sg2_14_cif.got.tgz:26077.got - 2010.06.03 11:33:40.
