data_PCOD9043185
_publ_section_title
;
Structure prediction by ZEFSAII (Michael W. Deem and Ramdas Pophale) SiO2 
 PCOD9043185
Probable space group: P -1
;
_chemical_formula_sum "Si O2"
_cell_formula_units_Z 14
_cell_length_a 18.376959
_cell_length_b 7.861916
_cell_length_c 8.326832
_cell_angle_alpha 121.555377
_cell_angle_beta 36.346430
_cell_angle_gamma 117.995108
_cell_volume 604.837958
_symmetry_space_group_name_H-M "P -1"
_symmetry_group_IT_number 2
_symmetry_cell_setting 'triclinic'
loop_
_space_group_symop_operation_xyz
x,y,z
-x,-y,-z
loop_
_atom_site_type_symbol
_atom_site_label
_atom_site_fract_x
_atom_site_fract_y
_atom_site_fract_z
Si Si1 0.373392 0.496339 0.825373
Si Si2 0.521800 0.218785 0.996126
Si Si3 0.874460 0.480876 0.317729
Si Si4 0.278135 0.361072 0.617845
Si Si5 0.406980 0.133160 0.820685
Si Si6 0.867606 0.015894 0.164304
Si Si7 0.867641 0.883525 0.727454
O O1 0.500000 0.500000 0.500000
O O2 0.363230 0.672992 0.058350
O O3 0.272882 0.478562 0.853502
O O4 0.375459 0.301918 0.835278
O O5 0.415826 0.346948 0.310427
O O6 0.492316 0.209742 0.856793
O O7 0.500000 0.000000 0.000000
O O8 0.780467 0.536848 0.376221
O O9 0.874965 0.653993 0.538636
O O10 0.848061 0.250820 0.305971
O O11 0.000000 0.500000 0.000000
O O12 0.223979 0.133513 0.640929
O O13 0.500000 0.000000 0.500000
O O14 0.264277 0.049142 0.076774
O O15 0.861715 0.928099 0.950342
O O16 0.000000 0.000000 0.000000
O O17 0.000000 0.000000 0.500000
#
# Coordination Sequence:
#
# PCOD9043185 Si02
#       7
#     2   2   2   2   2   2   2
#     4  10  23  45  69 104 147 190 254 313 379 461
#     4  11  25  45  71 104 152 192 256 313 391 453
#     4  12  25  48  75 107 154 206 250 321 389 453
#     4  11  23  49  70 109 149 194 257 321 375 475
#     4  12  25  47  76 109 151 205 253 317 389 460
#     4  12  26  47  78 108 156 200 262 316 391 468
#     4  12  26  49  76 115 155 201 264 315 388 472
#
# _framework density 23.146694
#
# number of rings (size 3 to 8) (size 9 to 14) (size 15 to 20)
#    0.000    0.571    5.714    2.143    0.000    5.143 
#    0.000    0.000    0.000    0.000    0.000    0.000 
#    0.000    0.000    0.000    0.000    0.000    0.000 
#
# Total GULP energy -78111.619333 kJ/mol
# GULP energy per Si atom -5579.401381 kJ/mol
# Density = 2.309401 g / cm^3
# Si number density = 23.146694 Si / 1000 Ang^3
#
#
#
# Elastic Constant Matrix: (Units=GPa)
#
#
# Indices 1 2 3 4 5 6 
#
# 1 145.6115 71.2973 41.6057 44.6236 38.3746 10.3877
# 2 71.2973 132.0951 43.0582 22.6106 9.0483 3.8933
# 3 41.6057 43.0582 125.8404 21.7807 15.0546 17.9256
# 4 44.6236 22.6106 21.7807 45.1517 7.3757 5.3208
# 5 38.3746 9.0483 15.0546 7.3757 33.8501 11.3400
# 6 10.3877 3.8933 17.9256 5.3208 11.3400 40.2216
#
#
#
# Elastic Compliance Matrix: (Units=1/GPa)
#
#
# Indices 1 2 3 4 5 6 
#
# 1 0.018093 -0.006628 0.000076 -0.012109 -0.016907 0.002303
# 2 -0.006628 0.011414 -0.002570 0.001195 0.005313 0.000096
# 3 0.000076 -0.002570 0.010020 -0.002889 -0.002136 -0.003252
# 4 -0.012109 0.001195 -0.002889 0.033872 0.008142 -0.002477
# 5 -0.016907 0.005313 -0.002136 0.008142 0.049932 -0.010351
# 6 0.002303 0.000096 -0.003252 -0.002477 -0.010351 0.028953
#
#
# Mechanical properties :
#
#
# Convention : Reuss Voigt Hill
#
# Bulk Modulus (GPa) = 46.98536 79.49659 63.24098
# Shear Modulus (GPa) = 28.14954 40.35042 34.24998
#
# Velocity S-wave (km/s) = 3.49110 4.17975 3.85085
# Velocity P-wave (km/s) = 6.04925 7.59691 6.86682
#
# Compressibility (1/GPa) = 0.02128322
#
# Stress axis : x y z
#
# Youngs Moduli (GPa) = 55.26929 87.61146 99.80233
#
# Poissons Ratio (x) = 0.58065 -0.00759
# Poissons Ratio (y) = 0.36630 0.25653
# Poissons Ratio (z) = -0.00420 0.22520
#
# Static dielectric constant tensor:
#      x y z
#    x 8.558020 1.042500 -1.404750 
#    y 1.042500 2.089040 -0.229350 
#    z -1.404750 -0.229350 2.168870 
# 
# From -- ./inp_files/327912.got.cif
#   From: 2010.05.17/outbox.cif.g08.bks.cpg/sg2_164_cif.got.tgz:327912.got - 2010.06.03 11:33:40.
