data_PCOD9043482
_publ_section_title
;
Structure prediction by ZEFSAII (Michael W. Deem and Ramdas Pophale) SiO2 
 PCOD9043482
Probable space group: P -1
;
_chemical_formula_sum "Si O2"
_cell_formula_units_Z 14
_cell_length_a 12.859426
_cell_length_b 5.047314
_cell_length_c 14.180642
_cell_angle_alpha 133.942469
_cell_angle_beta 54.557999
_cell_angle_gamma 109.018502
_cell_volume 535.309231
_symmetry_space_group_name_H-M "P -1"
_symmetry_group_IT_number 2
_symmetry_cell_setting 'triclinic'
loop_
_space_group_symop_operation_xyz
x,y,z
-x,-y,-z
loop_
_atom_site_type_symbol
_atom_site_label
_atom_site_fract_x
_atom_site_fract_y
_atom_site_fract_z
Si Si1 0.297173 0.954849 0.938597
Si Si2 0.444074 0.818559 0.179308
Si Si3 0.639642 0.380698 0.442571
Si Si4 0.315531 0.798584 0.416182
Si Si5 0.874708 0.257402 0.168960
Si Si6 0.232288 0.830192 0.154127
Si Si7 0.037098 0.028132 0.598247
O O1 0.236521 0.384660 0.057518
O O2 0.292229 0.892182 0.036880
O O3 0.441285 0.929804 0.814463
O O4 0.212009 0.674533 0.863315
O O5 0.314488 0.977734 0.232090
O O6 0.411988 0.612459 0.240864
O O7 0.500000 0.500000 0.000000
O O8 0.500000 0.500000 0.500000
O O9 0.685369 0.785408 0.521920
O O10 0.757892 0.136401 0.265462
O O11 0.632816 0.221798 0.511053
O O12 0.166429 0.748343 0.479651
O O13 0.928249 0.580082 0.280483
O O14 0.000000 0.000000 0.000000
O O15 0.086773 0.023005 0.286901
O O16 0.000000 0.000000 0.500000
#
# Coordination Sequence:
#
# PCOD9043482 Si02
#       7
#     2   2   2   2   2   2   2
#     4  11  25  43  73 105 147 193 255 314 376 446
#     4  10  23  45  71 110 148 200 258 314 381 460
#     4  11  26  47  72 107 147 199 249 313 388 459
#     4  11  25  44  74 103 147 195 252 310 380 457
#     4  11  25  47  76 112 155 201 261 324 389 464
#     4  11  24  44  72 106 149 196 247 312 377 455
#     4  11  24  48  75 112 154 207 257 317 392 469
#
# _framework density 26.153108
#
# number of rings (size 3 to 8) (size 9 to 14) (size 15 to 20)
#    0.000    1.143    2.857    1.714    2.000    9.714 
#    0.000    3.571    0.000    0.000    0.000    0.000 
#    0.000    0.000    0.000    0.000    0.000    0.000 
#
# Total GULP energy -78230.798200 kJ/mol
# GULP energy per Si atom -5587.914157 kJ/mol
# Density = 2.609358 g / cm^3
# Si number density = 26.153108 Si / 1000 Ang^3
#
#
#
# Elastic Constant Matrix: (Units=GPa)
#
#
# Indices 1 2 3 4 5 6 
#
# 1 214.0764 35.8301 91.6109 -23.0121 -3.3330 15.5470
# 2 35.8301 97.8873 46.1781 -7.5992 11.3310 -13.8575
# 3 91.6109 46.1781 206.3529 -33.1543 -1.5937 -8.0339
# 4 -23.0121 -7.5992 -33.1543 49.9406 5.1454 15.4253
# 5 -3.3330 11.3310 -1.5937 5.1454 59.4659 -8.4940
# 6 15.5470 -13.8575 -8.0339 15.4253 -8.4940 33.1397
#
#
#
# Elastic Compliance Matrix: (Units=1/GPa)
#
#
# Indices 1 2 3 4 5 6 
#
# 1 0.006773 -0.001969 -0.002286 0.003266 -0.000474 -0.006197
# 2 -0.001969 0.012847 -0.002113 -0.002180 -0.001511 0.006411
# 3 -0.002286 -0.002113 0.006834 0.002968 0.000277 0.000535
# 4 0.003266 -0.002180 0.002968 0.028549 -0.004086 -0.016060
# 5 -0.000474 -0.001511 0.000277 -0.004086 0.018333 0.006259
# 6 -0.006197 0.006411 0.000535 -0.016060 0.006259 0.044973
#
#
# Mechanical properties :
#
#
# Convention : Reuss Voigt Hill
#
# Bulk Modulus (GPa) = 72.90616 96.17274 84.53945
# Shear Modulus (GPa) = 36.86844 51.48907 44.17875
#
# Velocity S-wave (km/s) = 3.75869 4.44188 4.11449
# Velocity P-wave (km/s) = 6.83917 7.94732 7.41397
#
# Compressibility (1/GPa) = 0.01371626
#
# Stress axis : x y z
#
# Youngs Moduli (GPa) = 147.64373 77.84130 146.33350
#
# Poissons Ratio (x) = 0.15330 0.33456
# Poissons Ratio (y) = 0.29078 0.30918
# Poissons Ratio (z) = 0.33756 0.16446
#
# Static dielectric constant tensor:
#      x y z
#    x 2.149830 0.039140 -0.114020 
#    y 0.039140 2.238050 0.068420 
#    z -0.114020 0.068420 2.358020 
# 
# From -- ./inp_files/364087.got.cif
#   From: 2010.05.17/outbox.cif.g08.bks.cpg/sg2_183_cif.got.tgz:364087.got - 2010.06.03 11:33:40.
