data_PCOD9043466
_publ_section_title
;
Structure prediction by ZEFSAII (Michael W. Deem and Ramdas Pophale) SiO2 
 PCOD9043466
Probable space group: P -1
;
_chemical_formula_sum "Si O2"
_cell_formula_units_Z 13
_cell_length_a 13.108941
_cell_length_b 13.926422
_cell_length_c 8.428056
_cell_angle_alpha 51.634353
_cell_angle_beta 106.975751
_cell_angle_gamma 148.590958
_cell_volume 511.308517
_symmetry_space_group_name_H-M "P -1"
_symmetry_group_IT_number 2
_symmetry_cell_setting 'triclinic'
loop_
_space_group_symop_operation_xyz
x,y,z
-x,-y,-z
loop_
_atom_site_type_symbol
_atom_site_label
_atom_site_fract_x
_atom_site_fract_y
_atom_site_fract_z
Si Si1 0.675502 0.568047 0.050601
Si Si2 0.416650 0.272762 0.531617
Si Si3 0.130555 0.185311 0.608610
Si Si4 0.980905 0.669585 0.984628
Si Si5 0.968086 0.639930 0.653111
Si Si6 0.500000 0.000000 0.000000
Si Si7 0.696567 0.184875 0.537554
O O1 0.527434 0.342668 0.346954
O O2 0.500000 0.500000 0.000000
O O3 0.782336 0.573531 0.979779
O O4 0.919531 0.886226 0.894956
O O5 0.246386 0.217523 0.492907
O O6 0.644588 0.550080 0.450401
O O7 0.243229 0.993523 0.815221
O O8 0.027961 0.209547 0.489549
O O9 0.012056 0.645317 0.849802
O O10 0.898346 0.492933 0.264218
O O11 0.171022 0.806042 0.451725
O O12 0.717098 0.323680 0.808302
O O13 0.408850 0.910959 0.238276
O O14 0.500000 0.000000 0.500000
#
# Coordination Sequence:
#
# PCOD9043466 Si02
#       7
#     2   2   2   2   2   1   2
#     4  11  23  41  72 108 149 194 247 302 374 453
#     4  10  23  45  71 105 149 195 244 310 376 448
#     4  10  24  43  69 108 147 192 249 306 374 447
#     4  11  26  45  77 108 145 200 248 308 380 449
#     4  12  27  47  75 109 149 195 250 315 374 448
#     4  12  30  52  74 112 146 200 256 318 372 452
#     4  12  29  52  76 108 151 200 255 313 381 444
#
# _framework density 25.424961
#
# number of rings (size 3 to 8) (size 9 to 14) (size 15 to 20)
#    0.000    0.923    1.538    3.231    8.615    3.692 
#    0.000    0.000    0.000    0.000    0.000    0.000 
#    0.000    0.000    0.000    0.000    0.000    0.000 
#
# Total GULP energy -72517.623821 kJ/mol
# GULP energy per Si atom -5578.278755 kJ/mol
# Density = 2.536709 g / cm^3
# Si number density = 25.424961 Si / 1000 Ang^3
#
#
#
# Elastic Constant Matrix: (Units=GPa)
#
#
# Indices 1 2 3 4 5 6 
#
# 1 97.4615 35.5946 47.4912 11.1310 -11.1603 -5.3824
# 2 35.5946 95.2800 46.6062 -9.3537 -23.8550 -18.7664
# 3 47.4912 46.6062 189.9944 2.8912 -25.4400 -18.9213
# 4 11.1310 -9.3537 2.8912 54.1873 -13.5483 -9.7513
# 5 -11.1603 -23.8550 -25.4400 -13.5483 35.4774 0.6713
# 6 -5.3824 -18.7664 -18.9213 -9.7513 0.6713 32.2236
#
#
#
# Elastic Compliance Matrix: (Units=1/GPa)
#
#
# Indices 1 2 3 4 5 6 
#
# 1 0.013842 -0.006202 -0.002827 -0.005553 -0.003878 -0.004560
# 2 -0.006202 0.020802 -0.000181 0.011410 0.015997 0.014092
# 3 -0.002827 -0.000181 0.007025 0.002097 0.004750 0.004083
# 4 -0.005553 0.011410 0.002097 0.028728 0.018111 0.015265
# 5 -0.003878 0.015997 0.004750 0.018111 0.047745 0.015944
# 6 -0.004560 0.014092 0.004083 0.015265 0.015944 0.045163
#
#
# Mechanical properties :
#
#
# Convention : Reuss Voigt Hill
#
# Bulk Modulus (GPa) = 43.01407 71.34665 57.18036
# Shear Modulus (GPa) = 26.38881 41.24725 33.81803
#
# Velocity S-wave (km/s) = 3.22516 4.03216 3.65103
# Velocity P-wave (km/s) = 5.55190 7.05694 6.34917
#
# Compressibility (1/GPa) = 0.02324821
#
# Stress axis : x y z
#
# Youngs Moduli (GPa) = 72.24588 48.07331 142.34572
#
# Poissons Ratio (x) = 0.29816 0.40246
# Poissons Ratio (y) = 0.44808 0.02571
# Poissons Ratio (z) = 0.20426 0.00868
#
# Static dielectric constant tensor:
#      x y z
#    x 2.119540 0.106170 0.043140 
#    y 0.106170 2.033010 0.002280 
#    z 0.043140 0.002280 1.968630 
# 
# From -- ./inp_files/45921.got.cif
#   From: 2010.05.17/outbox.cif.g08.bks.cpg/sg2_23_cif.got.tgz:45921.got - 2010.06.03 11:33:40.
