data_PCOD9043374
_publ_section_title
;
Structure prediction by ZEFSAII (Michael W. Deem and Ramdas Pophale) SiO2 
 PCOD9043374
Probable space group: P -1
;
_chemical_formula_sum "Si O2"
_cell_formula_units_Z 16
_cell_length_a 8.138045
_cell_length_b 11.920112
_cell_length_c 9.171318
_cell_angle_alpha 61.430801
_cell_angle_beta 76.503426
_cell_angle_gamma 63.401394
_cell_volume 698.445318
_symmetry_space_group_name_H-M "P -1"
_symmetry_group_IT_number 2
_symmetry_cell_setting 'triclinic'
loop_
_space_group_symop_operation_xyz
x,y,z
-x,-y,-z
loop_
_atom_site_type_symbol
_atom_site_label
_atom_site_fract_x
_atom_site_fract_y
_atom_site_fract_z
Si Si1 0.582724 0.845714 0.648955
Si Si2 0.368400 0.096198 0.088801
Si Si3 0.071841 0.203242 0.556721
Si Si4 0.856860 0.684416 0.231888
Si Si5 0.696181 0.452153 0.407302
Si Si6 0.871454 0.044392 0.814872
Si Si7 0.405926 0.630874 0.829179
Si Si8 0.146873 0.769813 0.053235
O O1 0.540018 0.866494 0.816058
O O2 0.800253 0.795249 0.603768
O O3 0.517158 0.723417 0.693513
O O4 0.500000 0.000000 0.500000
O O5 0.262016 0.000799 0.226996
O O6 0.245492 0.234272 0.941587
O O7 0.500000 0.000000 0.000000
O O8 0.171134 0.231108 0.662879
O O9 0.863661 0.313632 0.512301
O O10 0.033911 0.066094 0.681605
O O11 0.784194 0.564972 0.340614
O O12 0.074049 0.650003 0.182807
O O13 0.500000 0.500000 0.500000
O O14 0.660989 0.425912 0.262766
O O15 0.770118 0.177279 0.859629
O O16 0.962548 0.908356 0.981353
O O17 0.249109 0.733545 0.903328
O O18 0.500000 0.500000 0.000000
#
# Coordination Sequence:
#
# PCOD9043374 Si02
#       8
#     2   2   2   2   2   2   2   2
#     4  12  27  46  70 106 145 180 232 293 352 410
#     4  11  23  39  73  99 136 176 231 285 342 415
#     4  11  25  43  72  97 142 181 227 291 350 411
#     4  10  23  45  70  96 134 181 235 277 346 416
#     4  12  29  44  68  99 140 189 234 282 351 421
#     4   9  20  39  69  98 130 176 228 277 345 409
#     4  12  28  45  71 100 146 182 236 288 351 417
#     4   9  20  41  69 100 132 175 226 288 339 410
#
# _framework density 22.908024000000001
#
# number of rings (size 3 to 8) (size 9 to 14) (size 15 to 20)
#    0.000    1.250    0.000    4.875   12.250    1.000 
#    0.000    0.000    0.000    0.000    0.000    0.000 
#    0.000    0.000    0.000    0.000    0.000    0.000 
#
# Total GULP energy -89240.726195 kJ/mol
# GULP energy per Si atom -5577.545387 kJ/mol
# Density = 2.285588 g / cm^3
# Si number density = 22.908024 Si / 1000 Ang^3
#
#
#
# Elastic Constant Matrix: (Units=GPa)
#
#
# Indices 1 2 3 4 5 6 
#
# 1 72.0033 31.4517 19.7258 -4.8957 -12.5257 19.4843
# 2 31.4517 67.1160 23.3086 3.2634 -3.5408 3.1671
# 3 19.7258 23.3086 84.1278 -1.7730 -1.9300 -1.9071
# 4 -4.8957 3.2634 -1.7730 44.0988 -2.4110 -7.9349
# 5 -12.5257 -3.5408 -1.9300 -2.4110 52.8233 -2.3398
# 6 19.4843 3.1671 -1.9071 -7.9349 -2.3398 38.8182
#
#
#
# Elastic Compliance Matrix: (Units=1/GPa)
#
#
# Indices 1 2 3 4 5 6 
#
# 1 0.021962 -0.008686 -0.002843 0.001409 0.004147 -0.009916
# 2 -0.008686 0.020183 -0.003577 -0.002285 -0.000852 0.002019
# 3 -0.002843 -0.003577 0.013616 0.000944 -0.000260 0.002565
# 4 0.001409 -0.002285 0.000944 0.023934 0.001508 0.004509
# 5 0.004147 -0.000852 -0.000260 0.001508 0.019894 -0.000517
# 6 -0.009916 0.002019 0.002565 0.004509 -0.000517 0.031590
#
#
# Mechanical properties :
#
#
# Convention : Reuss Voigt Hill
#
# Bulk Modulus (GPa) = 39.14055 41.35770 40.24913
# Shear Modulus (GPa) = 29.42770 37.06547 33.24659
#
# Velocity S-wave (km/s) = 3.58802 4.02682 3.81374
# Velocity P-wave (km/s) = 5.85562 6.30185 6.08283
#
# Compressibility (1/GPa) = 0.02554895
#
# Stress axis : x y z
#
# Youngs Moduli (GPa) = 45.53348 49.54595 73.44055
#
# Poissons Ratio (x) = 0.43037 0.20878
# Poissons Ratio (y) = 0.39551 0.26272
# Poissons Ratio (z) = 0.12945 0.17724
#
# Static dielectric constant tensor:
#      x y z
#    x 1.969770 -0.028220 -0.036940 
#    y -0.028220 1.946550 -0.035230 
#    z -0.036940 -0.035230 1.894870 
# 
# From -- ./inp_files/184941.got.cif
#   From: 2010.05.17/outbox.cif.g08.bks.cpg/sg2_93_cif.got.tgz:184941.got - 2010.06.03 11:33:40.
