data_PCOD9043798
_publ_section_title
;
Structure prediction by ZEFSAII (Michael W. Deem and Ramdas Pophale) SiO2 
 PCOD9043798
Probable space group: P -1
;
_chemical_formula_sum "Si O2"
_cell_formula_units_Z 16
_cell_length_a 21.833603
_cell_length_b 10.835200
_cell_length_c 5.499948
_cell_angle_alpha 63.513503
_cell_angle_beta 72.031600
_cell_angle_gamma 33.158715
_cell_volume 631.352913
_symmetry_space_group_name_H-M "P -1"
_symmetry_group_IT_number 2
_symmetry_cell_setting 'triclinic'
loop_
_space_group_symop_operation_xyz
x,y,z
-x,-y,-z
loop_
_atom_site_type_symbol
_atom_site_label
_atom_site_fract_x
_atom_site_fract_y
_atom_site_fract_z
Si Si1 0.069607 0.863256 0.784129
Si Si2 0.157627 0.100524 0.185380
Si Si3 0.225856 0.389411 0.223371
Si Si4 0.345595 0.895233 0.438457
Si Si5 0.274986 0.653585 0.559493
Si Si6 0.934624 0.518774 0.367196
Si Si7 0.457497 0.454485 0.872863
Si Si8 0.396126 0.286311 0.362090
O O1 0.164759 0.814202 0.708071
O O2 0.143490 0.592292 0.936765
O O3 0.000000 0.000000 0.500000
O O4 0.000000 0.000000 0.000000
O O5 0.029278 0.304644 0.247021
O O6 0.226922 0.034213 0.390719
O O7 0.223240 0.847837 0.248805
O O8 0.153779 0.225643 0.881850
O O9 0.134331 0.486416 0.435447
O O10 0.300883 0.385899 0.222090
O O11 0.314164 0.109691 0.325028
O O12 0.411097 0.693976 0.748056
O O13 0.423133 0.750407 0.229514
O O14 0.372164 0.555346 0.675107
O O15 0.332229 0.420945 0.575146
O O16 0.000000 0.500000 0.500000
O O17 0.440606 0.359124 0.164459
O O18 0.500000 0.000000 0.500000
#
# Coordination Sequence:
#
# PCOD9043798 Si02
#       8
#     2   2   2   2   2   2   2   2
#     4  12  28  48  76 112 159 206 262 321 392 475
#     4  10  24  43  71 103 140 193 244 315 382 457
#     4  12  26  46  76 112 147 199 256 319 397 461
#     4  10  23  45  76 103 143 191 247 325 375 473
#     4  11  25  46  72 102 150 197 256 311 393 459
#     4  11  24  44  69 106 145 184 248 310 381 452
#     4  10  24  49  70 105 147 189 253 312 395 453
#     4  12  28  46  75 109 153 204 255 323 392 475
#
# _framework density 25.342400999999999
#
# number of rings (size 3 to 8) (size 9 to 14) (size 15 to 20)
#    0.000    1.000    2.500    2.250    7.000    2.000 
#    0.000    2.500    0.000    0.000    0.000    0.000 
#    0.000    0.000    0.000    0.000    0.000    0.000 
#
# Total GULP energy -89520.914906 kJ/mol
# GULP energy per Si atom -5595.057182 kJ/mol
# Density = 2.528472 g / cm^3
# Si number density = 25.342401 Si / 1000 Ang^3
#
#
#
# Elastic Constant Matrix: (Units=GPa)
#
#
# Indices 1 2 3 4 5 6 
#
# 1 113.1218 40.8455 20.3999 1.6482 -15.1408 -14.7736
# 2 40.8455 120.4870 40.9472 -7.0462 -16.7901 -8.3959
# 3 20.3999 40.9472 116.6356 -16.2815 -30.6537 -6.6707
# 4 1.6482 -7.0462 -16.2815 48.3099 0.6241 -11.6742
# 5 -15.1408 -16.7901 -30.6537 0.6241 36.4540 1.6917
# 6 -14.7736 -8.3959 -6.6707 -11.6742 1.6917 46.1450
#
#
#
# Elastic Compliance Matrix: (Units=1/GPa)
#
#
# Indices 1 2 3 4 5 6 
#
# 1 0.010686 -0.003066 0.000137 -0.000144 0.003016 0.002736
# 2 -0.003066 0.010524 -0.002649 0.000907 0.001297 0.000732
# 3 0.000137 -0.002649 0.012639 0.004262 0.009293 0.002126
# 4 -0.000144 0.000907 0.004262 0.023838 0.003226 0.006648
# 5 0.003016 0.001297 0.009293 0.003226 0.036948 0.002006
# 6 0.002736 0.000732 0.002126 0.006648 0.002006 0.024596
#
#
# Mechanical properties :
#
#
# Convention : Reuss Voigt Hill
#
# Bulk Modulus (GPa) = 44.07037 61.62552 52.84794
# Shear Modulus (GPa) = 36.24469 42.71857 39.48163
#
# Velocity S-wave (km/s) = 3.78590 4.11013 3.95134
# Velocity P-wave (km/s) = 6.04470 6.84793 6.45882
#
# Compressibility (1/GPa) = 0.02269098
#
# Stress axis : x y z
#
# Youngs Moduli (GPa) = 93.58301 95.01915 79.12195
#
# Poissons Ratio (x) = 0.29136 -0.01082
# Poissons Ratio (y) = 0.28696 0.20961
# Poissons Ratio (z) = -0.01280 0.25172
#
# Static dielectric constant tensor:
#      x y z
#    x 2.066500 0.103790 -0.024360 
#    y 0.103790 2.028090 -0.007490 
#    z -0.024360 -0.007490 2.053360 
# 
# From -- ./inp_files/123571.got.cif
#   From: 2010.05.17/outbox.cif.g08.bks.cpg/sg2_62_cif.got.tgz:123571.got - 2010.06.03 11:33:40.
