data_PCOD9043145
_publ_section_title
;
Structure prediction by ZEFSAII (Michael W. Deem and Ramdas Pophale) SiO2 
 PCOD9043145
Probable space group: P -1
;
_chemical_formula_sum "Si O2"
_cell_formula_units_Z 14
_cell_length_a 9.119675
_cell_length_b 19.526754
_cell_length_c 8.264270
_cell_angle_alpha 34.926181
_cell_angle_beta 125.225950
_cell_angle_gamma 128.646994
_cell_volume 651.113777
_symmetry_space_group_name_H-M "P -1"
_symmetry_group_IT_number 2
_symmetry_cell_setting 'triclinic'
loop_
_space_group_symop_operation_xyz
x,y,z
-x,-y,-z
loop_
_atom_site_type_symbol
_atom_site_label
_atom_site_fract_x
_atom_site_fract_y
_atom_site_fract_z
Si Si1 0.036096 0.985588 0.736063
Si Si2 0.532736 0.561615 0.082246
Si Si3 0.599978 0.797963 0.478573
Si Si4 0.600919 0.327927 0.731824
Si Si5 0.349111 0.067225 0.211701
Si Si6 0.183555 0.617354 0.924773
Si Si7 0.269454 0.864584 0.288658
O O1 0.198164 0.118857 0.621011
O O2 0.000000 0.000000 0.500000
O O3 0.837800 0.957437 0.753985
O O4 0.128071 0.874641 0.038325
O O5 0.602109 0.470451 0.419483
O O6 0.500000 0.500000 0.000000
O O7 0.641783 0.704601 0.819489
O O8 0.352187 0.575206 0.035287
O O9 0.452710 0.730785 0.369982
O O10 0.479467 0.873999 0.345796
O O11 0.445758 0.216924 0.950629
O O12 0.779860 0.349419 0.925327
O O13 0.500000 0.000000 0.500000
O O14 0.281578 0.986027 0.165981
O O15 0.188196 0.741059 0.586580
O O16 0.000000 0.500000 0.000000
#
# Coordination Sequence:
#
# PCOD9043145 Si02
#       7
#     2   2   2   2   2   2   2
#     4  12  27  39  68 102 132 181 225 276 335 411
#     4   9  22  44  67  96 133 179 221 272 336 394
#     4  10  23  45  69 100 142 179 219 281 337 401
#     4  11  23  43  74  95 138 180 222 275 341 392
#     4  12  25  44  69 102 138 176 227 280 342 401
#     4  11  25  42  70  99 132 177 226 283 330 400
#     4  11  24  44  67 101 141 175 225 277 344 397
#
# _framework density 21.501619000000002
#
# number of rings (size 3 to 8) (size 9 to 14) (size 15 to 20)
#    0.000    1.143    2.857    2.143    6.000    2.286 
#    0.000    6.429    0.000    0.000    0.000    0.000 
#    0.000    0.000    0.000    0.000    0.000    0.000 
#
# Total GULP energy -77948.089194 kJ/mol
# GULP energy per Si atom -5567.720657 kJ/mol
# Density = 2.145268 g / cm^3
# Si number density = 21.501619 Si / 1000 Ang^3
#
#
#
# Elastic Constant Matrix: (Units=GPa)
#
#
# Indices 1 2 3 4 5 6 
#
# 1 65.7480 14.6698 34.1138 -10.2573 -5.8505 13.3289
# 2 14.6698 89.1327 32.0057 0.5375 -15.1416 4.9247
# 3 34.1138 32.0057 196.2065 7.8986 -15.7530 21.1811
# 4 -10.2573 0.5375 7.8986 25.9005 -2.0073 -10.1881
# 5 -5.8505 -15.1416 -15.7530 -2.0073 23.4568 -4.6051
# 6 13.3289 4.9247 21.1811 -10.1881 -4.6051 30.9997
#
#
#
# Elastic Compliance Matrix: (Units=1/GPa)
#
#
# Indices 1 2 3 4 5 6 
#
# 1 0.019011 -0.001681 -0.002824 0.007244 0.001724 -0.003341
# 2 -0.001681 0.013192 -0.001366 0.000350 0.007360 0.000769
# 3 -0.002824 -0.001366 0.006601 -0.004708 0.001582 -0.004391
# 4 0.007244 0.000350 -0.004708 0.050333 0.006628 0.017573
# 5 0.001724 0.007360 0.001582 0.006628 0.050763 0.006728
# 6 -0.003341 0.000769 -0.004391 0.017573 0.006728 0.043348
#
#
# Mechanical properties :
#
#
# Convention : Reuss Voigt Hill
#
# Bulk Modulus (GPa) = 36.95143 56.96286 46.95714
# Shear Modulus (GPa) = 24.50866 34.09123 29.29995
#
# Velocity S-wave (km/s) = 3.37983 3.98618 3.69546
# Velocity P-wave (km/s) = 5.69682 6.90913 6.33205
#
# Compressibility (1/GPa) = 0.02706255
#
# Stress axis : x y z
#
# Youngs Moduli (GPa) = 52.60228 75.80324 151.49209
#
# Poissons Ratio (x) = 0.12744 0.42776
# Poissons Ratio (y) = 0.08843 0.20690
# Poissons Ratio (z) = 0.14853 0.10353
#
# Static dielectric constant tensor:
#      x y z
#    x 1.804440 0.108050 -0.048600 
#    y 0.108050 2.255700 0.001330 
#    z -0.048600 0.001330 1.899530 
# 
# From -- ./inp_files/170962.got.cif
#   From: 2010.05.17/outbox.cif.g08.bks.cpg/sg2_86_cif.got.tgz:170962.got - 2010.06.03 11:33:40.
