data_PCOD9043743
_publ_section_title
;
Structure prediction by ZEFSAII (Michael W. Deem and Ramdas Pophale) SiO2 
 PCOD9043743
Probable space group: P -1
;
_chemical_formula_sum "Si O2"
_cell_formula_units_Z 13
_cell_length_a 16.040717
_cell_length_b 5.067744
_cell_length_c 9.313550
_cell_angle_alpha 106.036061
_cell_angle_beta 37.780108
_cell_angle_gamma 106.925566
_cell_volume 442.356199
_symmetry_space_group_name_H-M "P -1"
_symmetry_group_IT_number 2
_symmetry_cell_setting 'triclinic'
loop_
_space_group_symop_operation_xyz
x,y,z
-x,-y,-z
loop_
_atom_site_type_symbol
_atom_site_label
_atom_site_fract_x
_atom_site_fract_y
_atom_site_fract_z
Si Si1 0.293828 0.498313 0.344872
Si Si2 0.207473 0.598024 0.849060
Si Si3 0.565215 0.922412 0.750490
Si Si4 0.070670 0.175278 0.769722
Si Si5 0.929023 0.666991 0.741075
Si Si6 0.500000 0.000000 0.500000
Si Si7 0.344412 0.204622 0.938516
O O1 0.314480 0.824346 0.387656
O O2 0.144641 0.341244 0.557979
O O3 0.386497 0.366315 0.318652
O O4 0.347597 0.409604 0.102240
O O5 0.169230 0.543097 0.058972
O O6 0.079702 0.742118 0.981072
O O7 0.171422 0.293677 0.778562
O O8 0.348079 0.791220 0.660438
O O9 0.455145 0.976542 0.785524
O O10 0.500000 0.000000 0.000000
O O11 0.037785 0.862826 0.714660
O O12 0.000000 0.500000 0.500000
O O13 0.818981 0.861356 0.859079
O O14 0.589964 0.734779 0.297077
#
# Coordination Sequence:
#
# PCOD9043743 Si02
#       7
#     2   2   2   2   2   1   2
#     4  11  25  45  80 115 162 217 283 350 419 512
#     4  11  27  50  81 116 171 217 283 343 430 515
#     4  10  23  45  74 112 160 213 269 343 424 505
#     4  11  26  52  79 121 160 225 282 346 426 510
#     4  12  28  49  85 121 160 218 283 359 422 505
#     4  12  26  48  76 116 164 218 266 354 420 510
#     4  11  25  45  72 116 158 205 277 340 420 491
#
# _framework density 29.388082000000001
#
# number of rings (size 3 to 8) (size 9 to 14) (size 15 to 20)
#    0.000    0.923    1.538    4.154    6.462    5.538 
#    0.000    0.000    0.000    0.000    0.000    0.000 
#    0.000    0.000    0.000    0.000    0.000    0.000 
#
# Total GULP energy -72501.023555 kJ/mol
# GULP energy per Si atom -5577.001812 kJ/mol
# Density = 2.932119 g / cm^3
# Si number density = 29.388082 Si / 1000 Ang^3
#
#
#
# Elastic Constant Matrix: (Units=GPa)
#
#
# Indices 1 2 3 4 5 6 
#
# 1 153.7953 66.8353 49.6342 -5.4062 -34.3900 43.5187
# 2 66.8353 191.5430 84.6535 -7.8426 1.5406 40.7290
# 3 49.6342 84.6535 234.9579 -3.6775 -34.5789 38.6876
# 4 -5.4062 -7.8426 -3.6775 52.4293 13.1343 -1.5825
# 5 -34.3900 1.5406 -34.5789 13.1343 53.1296 -4.8512
# 6 43.5187 40.7290 38.6876 -1.5825 -4.8512 43.0651
#
#
#
# Elastic Compliance Matrix: (Units=1/GPa)
#
#
# Indices 1 2 3 4 5 6 
#
# 1 0.011704 -0.002721 0.001217 -0.001386 0.007922 -0.009506
# 2 -0.002721 0.007987 -0.002398 0.001720 -0.004259 -0.003066
# 3 0.001217 -0.002398 0.006221 -0.001125 0.004814 -0.004050
# 4 -0.001386 0.001720 -0.001125 0.020825 -0.006756 0.000789
# 5 0.007922 -0.004259 0.004814 -0.006756 0.028388 -0.005353
# 6 -0.009506 -0.003066 -0.004050 0.000789 -0.005353 0.038791
#
#
# Mechanical properties :
#
#
# Convention : Reuss Voigt Hill
#
# Bulk Modulus (GPa) = 55.22191 109.17135 82.19663
# Shear Modulus (GPa) = 39.13754 55.00302 47.07028
#
# Velocity S-wave (km/s) = 3.65327 4.33090 4.00644
# Velocity P-wave (km/s) = 6.05199 7.88909 7.03080
#
# Compressibility (1/GPa) = 0.01810876
#
# Stress axis : x y z
#
# Youngs Moduli (GPa) = 85.43736 125.21062 160.75797
#
# Poissons Ratio (x) = 0.34072 -0.19570
# Poissons Ratio (y) = 0.23249 0.38544
# Poissons Ratio (z) = -0.10401 0.30021
#
# Static dielectric constant tensor:
#      x y z
#    x 2.167770 0.025430 -0.192870 
#    y 0.025430 2.232160 0.172140 
#    z -0.192870 0.172140 2.143200 
# 
# From -- ./inp_files/136009.got.cif
#   From: 2010.05.17/outbox.cif.g08.bks.cpg/sg2_69_cif.got.tgz:136009.got - 2010.06.03 11:33:40.
