data_PCOD9043733
_publ_section_title
;
Structure prediction by ZEFSAII (Michael W. Deem and Ramdas Pophale) SiO2 
 PCOD9043733
Probable space group: P -1
;
_chemical_formula_sum "Si O2"
_cell_formula_units_Z 12
_cell_length_a 9.120994
_cell_length_b 4.953652
_cell_length_c 11.417469
_cell_angle_alpha 121.357732
_cell_angle_beta 92.900165
_cell_angle_gamma 101.981825
_cell_volume 423.078228
_symmetry_space_group_name_H-M "P -1"
_symmetry_group_IT_number 2
_symmetry_cell_setting 'triclinic'
loop_
_space_group_symop_operation_xyz
x,y,z
-x,-y,-z
loop_
_atom_site_type_symbol
_atom_site_label
_atom_site_fract_x
_atom_site_fract_y
_atom_site_fract_z
Si Si1 0.843437 0.579208 0.860007
Si Si2 0.312010 0.870098 0.446125
Si Si3 0.888315 0.738436 0.567564
Si Si4 0.101452 0.042732 0.831837
Si Si5 0.438656 0.242965 0.130462
Si Si6 0.419635 0.029985 0.733518
O O1 0.734526 0.254148 0.719141
O O2 0.741672 0.836977 0.890451
O O3 0.003084 0.739332 0.838044
O O4 0.861712 0.632637 0.012604
O O5 0.245546 0.511193 0.422377
O O6 0.434551 0.015386 0.589847
O O7 0.196728 0.112111 0.503255
O O8 0.000000 0.500000 0.500000
O O9 0.988108 0.034779 0.717447
O O10 0.250436 0.972352 0.765494
O O11 0.508311 0.225146 0.256842
O O12 0.500000 0.000000 0.000000
O O13 0.499198 0.406539 0.848427
#
# Coordination Sequence:
#
# PCOD9043733 Si02
#       6
#     2   2   2   2   2   2
#     4  10  25  47  71 107 153 185 240 304 363 418
#     4  11  25  43  70 106 144 187 237 298 356 425
#     4  11  22  41  70 107 145 180 236 295 357 418
#     4  10  23  45  74 108 138 196 238 298 358 428
#     4  12  27  49  73 107 144 194 241 298 359 435
#     4  12  26  46  79 102 142 193 250 285 362 437
#
# _framework density 28.36355
#
# number of rings (size 3 to 8) (size 9 to 14) (size 15 to 20)
#    0.000    1.000    3.333    2.000    0.000    6.000 
#    0.000    0.000    0.000    0.000    0.000    0.000 
#    0.000    0.000    0.000    0.000    0.000    0.000 
#
# Total GULP energy -67032.130863 kJ/mol
# GULP energy per Si atom -5586.010905 kJ/mol
# Density = 2.829899 g / cm^3
# Si number density = 28.363550 Si / 1000 Ang^3
#
#
#
# Elastic Constant Matrix: (Units=GPa)
#
#
# Indices 1 2 3 4 5 6 
#
# 1 332.6261 93.6672 106.6328 -37.4458 -0.9073 -7.1365
# 2 93.6672 134.3609 35.9034 -11.6254 9.9143 -7.9216
# 3 106.6328 35.9034 212.5108 -14.5419 16.2758 -0.9683
# 4 -37.4458 -11.6254 -14.5419 51.5146 4.2099 15.9443
# 5 -0.9073 9.9143 16.2758 4.2099 67.8938 -11.3703
# 6 -7.1365 -7.9216 -0.9683 15.9443 -11.3703 50.4266
#
#
#
# Elastic Compliance Matrix: (Units=1/GPa)
#
#
# Indices 1 2 3 4 5 6 
#
# 1 0.004539 -0.002572 -0.001738 0.002291 0.000648 -0.000373
# 2 -0.002572 0.009433 -0.000202 0.000048 -0.001229 0.000822
# 3 -0.001738 -0.000202 0.005772 0.000671 -0.001541 -0.000727
# 4 0.002291 0.000048 0.000671 0.023963 -0.002946 -0.007896
# 5 0.000648 -0.001229 -0.001541 -0.002946 0.016215 0.004457
# 6 -0.000373 0.000822 -0.000727 -0.007896 0.004457 0.023395
#
#
# Mechanical properties :
#
#
# Convention : Reuss Voigt Hill
#
# Bulk Modulus (GPa) = 93.27182 127.98940 110.63061
# Shear Modulus (GPa) = 52.12981 63.51995 57.82488
#
# Velocity S-wave (km/s) = 4.29174 4.73746 4.52010
# Velocity P-wave (km/s) = 7.58383 8.66875 8.14438
#
# Compressibility (1/GPa) = 0.01072135
#
# Stress axis : x y z
#
# Youngs Moduli (GPa) = 220.29346 106.01313 173.23754
#
# Poissons Ratio (x) = 0.27264 0.30106
# Poissons Ratio (y) = 0.56654 0.03500
# Poissons Ratio (z) = 0.38283 0.02142
#
# Static dielectric constant tensor:
#      x y z
#    x 3.167370 -0.054910 0.098740 
#    y -0.054910 2.088550 -0.038510 
#    z 0.098740 -0.038510 2.362140 
# 
# From -- ./inp_files/408879.got.cif
#   From: 2010.05.17/outbox.cif.g08.bks.cpg/sg2_205_cif.got.tgz:408879.got - 2010.06.03 11:33:40.
