data_PCOD9043489
_publ_section_title
;
Structure prediction by ZEFSAII (Michael W. Deem and Ramdas Pophale) SiO2 
 PCOD9043489
Probable space group: P -1
;
_chemical_formula_sum "Si O2"
_cell_formula_units_Z 16
_cell_length_a 11.460542
_cell_length_b 16.141895
_cell_length_c 8.770547
_cell_angle_alpha 123.842924
_cell_angle_beta 53.414304
_cell_angle_gamma 147.929664
_cell_volume 686.609640
_symmetry_space_group_name_H-M "P -1"
_symmetry_group_IT_number 2
_symmetry_cell_setting 'triclinic'
loop_
_space_group_symop_operation_xyz
x,y,z
-x,-y,-z
loop_
_atom_site_type_symbol
_atom_site_label
_atom_site_fract_x
_atom_site_fract_y
_atom_site_fract_z
Si Si1 0.700627 0.627304 0.349547
Si Si2 0.129932 0.588827 0.719136
Si Si3 0.672001 0.451815 0.922556
Si Si4 0.694434 0.858846 0.938259
Si Si5 0.427623 0.861899 0.996682
Si Si6 0.088216 0.738846 0.367361
Si Si7 0.912942 0.070698 0.271050
Si Si8 0.427501 0.256594 0.624517
O O1 0.500000 0.500000 0.500000
O O2 0.672369 0.725158 0.410628
O O3 0.936527 0.719862 0.342474
O O4 0.682445 0.548344 0.131372
O O5 0.352002 0.688944 0.545653
O O6 0.921889 0.545141 0.774713
O O7 0.038523 0.430653 0.668844
O O8 0.220276 0.694943 0.905731
O O9 0.515418 0.374650 0.815182
O O10 0.546831 0.298572 0.960424
O O11 0.831948 0.829833 0.784398
O O12 0.635982 0.894912 0.877308
O O13 0.847616 0.004960 0.083811
O O14 0.335409 0.846036 0.216377
O O15 0.500000 0.000000 0.000000
O O16 0.110961 0.825563 0.578911
O O17 0.751845 0.917401 0.346555
#
# Coordination Sequence:
#
# PCOD9043489 Si02
#       8
#     2   2   2   2   2   2   2   2
#     4  12  24  41  68 103 134 175 226 281 345 403
#     4  12  24  46  69 102 137 179 232 281 343 407
#     4  11  23  47  70  99 138 179 234 281 339 407
#     4  10  23  45  71  94 135 186 222 287 340 405
#     4  12  26  44  67 101 138 180 229 282 346 404
#     4  12  24  43  67  98 136 181 225 284 338 409
#     4  10  25  46  67  99 136 177 235 276 344 404
#     4  11  26  44  69 102 136 183 226 285 338 406
#
# _framework density 23.302907000000001
#
# number of rings (size 3 to 8) (size 9 to 14) (size 15 to 20)
#    0.000    0.750    3.750    3.375    3.500    1.000 
#    6.750    0.000    0.000    0.000    0.000    0.000 
#    0.000    0.000    0.000    0.000    0.000    0.000 
#
# Total GULP energy -89535.169855 kJ/mol
# GULP energy per Si atom -5595.948116 kJ/mol
# Density = 2.324987 g / cm^3
# Si number density = 23.302907 Si / 1000 Ang^3
#
#
#
# Elastic Constant Matrix: (Units=GPa)
#
#
# Indices 1 2 3 4 5 6 
#
# 1 76.2781 18.8037 -10.3809 3.4556 -8.7113 -3.2670
# 2 18.8037 51.3133 0.6503 -0.8295 -11.7835 1.2202
# 3 -10.3809 0.6503 81.1756 10.4973 -22.6512 -2.4982
# 4 3.4556 -0.8295 10.4973 45.1643 0.1301 -5.6293
# 5 -8.7113 -11.7835 -22.6512 0.1301 25.7071 -2.7567
# 6 -3.2670 1.2202 -2.4982 -5.6293 -2.7567 24.2559
#
#
#
# Elastic Compliance Matrix: (Units=1/GPa)
#
#
# Indices 1 2 3 4 5 6 
#
# 1 0.015905 -0.004179 0.004634 -0.001986 0.007918 0.003269
# 2 -0.004179 0.023660 0.002496 0.000122 0.011612 -0.000148
# 3 0.004634 0.002496 0.019154 -0.004353 0.020014 0.003736
# 4 -0.001986 0.000122 -0.004353 0.023861 -0.004107 0.004349
# 5 0.007918 0.011612 0.020014 -0.004107 0.065531 0.009038
# 6 0.003269 -0.000148 0.003736 0.004349 0.009038 0.044096
#
#
# Mechanical properties :
#
#
# Convention : Reuss Voigt Hill
#
# Bulk Modulus (GPa) = 15.47451 25.21260 20.34356
# Shear Modulus (GPa) = 24.05645 32.33840 28.19743
#
# Velocity S-wave (km/s) = 3.21649 3.72928 3.48234
# Velocity P-wave (km/s) = 4.52210 5.42092 4.99178
#
# Compressibility (1/GPa) = 0.06462239
#
# Stress axis : x y z
#
# Youngs Moduli (GPa) = 62.87324 42.26597 52.20762
#
# Poissons Ratio (x) = 0.17661 -0.24195
# Poissons Ratio (y) = 0.26272 -0.13030
# Poissons Ratio (z) = -0.29138 -0.10549
#
# Static dielectric constant tensor:
#      x y z
#    x 1.870070 0.027670 0.017810 
#    y 0.027670 1.836490 0.005850 
#    z 0.017810 0.005850 1.925270 
# 
# From -- ./inp_files/205254.got.cif
#   From: 2010.05.17/outbox.cif.g08.bks.cpg/sg2_103_cif.got.tgz:205254.got - 2010.06.03 11:33:40.
