data_PCOD9043711
_publ_section_title
;
Structure prediction by ZEFSAII (Michael W. Deem and Ramdas Pophale) SiO2 
 PCOD9043711
Probable space group: P -1
;
_chemical_formula_sum "Si O2"
_cell_formula_units_Z 8
_cell_length_a 12.499882
_cell_length_b 5.648433
_cell_length_c 6.962117
_cell_angle_alpha 75.729208
_cell_angle_beta 43.741706
_cell_angle_gamma 80.758329
_cell_volume 329.267670
_symmetry_space_group_name_H-M "P -1"
_symmetry_group_IT_number 2
_symmetry_cell_setting 'triclinic'
loop_
_space_group_symop_operation_xyz
x,y,z
-x,-y,-z
loop_
_atom_site_type_symbol
_atom_site_label
_atom_site_fract_x
_atom_site_fract_y
_atom_site_fract_z
Si Si1 0.126321 0.710313 0.256876
Si Si2 0.832479 0.976946 0.503197
Si Si3 0.453005 0.284159 0.959598
Si Si4 0.629654 0.177089 0.393460
O O1 0.000000 0.500000 0.500000
O O2 0.013210 0.920268 0.276843
O O3 0.185259 0.799658 0.370495
O O4 0.267654 0.691985 0.929523
O O5 0.753273 0.031263 0.392475
O O6 0.731313 0.757060 0.775687
O O7 0.537195 0.332730 0.639082
O O8 0.500000 0.500000 0.000000
O O9 0.500000 0.000000 0.000000
O O10 0.500000 0.000000 0.500000
#
# Coordination Sequence:
#
# PCOD9043711 Si02
#       4
#     2   2   2   2
#     4  11  25  45  71 104 146 193 241 303 366 438
#     4  10  24  45  70 103 150 184 243 304 364 437
#     4  10  23  45  74 104 146 190 244 309 361 434
#     4  11  23  46  76 105 142 195 246 298 374 436
#
# _framework density 24.296343
#
# number of rings (size 3 to 8) (size 9 to 14) (size 15 to 20)
#    0.000    1.500    2.500    0.750    7.000    1.000 
#   18.000    6.250    0.000    0.000    0.000    0.000 
#    0.000    0.000    0.000    0.000    0.000    0.000 
#
# Total GULP energy -44706.671646 kJ/mol
# GULP energy per Si atom -5588.333956 kJ/mol
# Density = 2.424104 g / cm^3
# Si number density = 24.296343 Si / 1000 Ang^3
#
#
#
# Elastic Constant Matrix: (Units=GPa)
#
#
# Indices 1 2 3 4 5 6 
#
# 1 152.7081 51.3990 50.5767 3.5124 3.3556 22.1284
# 2 51.3990 126.3074 86.5050 4.6626 1.3018 44.9998
# 3 50.5767 86.5050 243.6410 7.6620 -4.5644 25.1576
# 4 3.5124 4.6626 7.6620 54.5273 -6.4224 -3.8020
# 5 3.3556 1.3018 -4.5644 -6.4224 49.6147 -1.0498
# 6 22.1284 44.9998 25.1576 -3.8020 -1.0498 65.5810
#
#
#
# Elastic Compliance Matrix: (Units=1/GPa)
#
#
# Indices 1 2 3 4 5 6 
#
# 1 0.007703 -0.002398 -0.000674 -0.000315 -0.000576 -0.000723
# 2 -0.002398 0.014213 -0.003745 -0.001166 -0.000867 -0.007588
# 3 -0.000674 -0.003745 0.005526 -0.000292 0.000629 0.000670
# 4 -0.000315 -0.001166 -0.000292 0.018948 0.002523 0.002157
# 5 -0.000576 -0.000867 0.000629 0.002523 0.020623 0.001024
# 6 -0.000723 -0.007588 0.000670 0.002157 0.001024 0.020583
#
#
# Mechanical properties :
#
#
# Convention : Reuss Voigt Hill
#
# Bulk Modulus (GPa) = 72.41781 99.95756 86.18768
# Shear Modulus (GPa) = 47.24403 56.22298 51.73351
#
# Velocity S-wave (km/s) = 4.41442 4.81568 4.61941
# Velocity P-wave (km/s) = 7.47353 8.49419 8.00015
#
# Compressibility (1/GPa) = 0.01380876
#
# Stress axis : x y z
#
# Youngs Moduli (GPa) = 129.81168 70.35681 180.97695
#
# Poissons Ratio (x) = 0.16873 0.12196
# Poissons Ratio (y) = 0.31132 0.67769
# Poissons Ratio (z) = 0.08748 0.26346
#
# Static dielectric constant tensor:
#      x y z
#    x 2.063280 -0.133000 -0.054060 
#    y -0.133000 2.081440 -0.022470 
#    z -0.054060 -0.022470 1.970100 
# 
# From -- ./inp_files/15073.got.cif
#   From: 2010.05.17/outbox.cif.g08.bks.cpg/sg2_8_cif.got.tgz:15073.got - 2010.06.03 11:33:40.
