data_PCOD9043627
_publ_section_title
;
Structure prediction by ZEFSAII (Michael W. Deem and Ramdas Pophale) SiO2 
 PCOD9043627
Probable space group: P -1
;
_chemical_formula_sum "Si O2"
_cell_formula_units_Z 14
_cell_length_a 14.124648
_cell_length_b 4.888472
_cell_length_c 8.197062
_cell_angle_alpha 67.160685
_cell_angle_beta 93.913834
_cell_angle_gamma 91.797661
_cell_volume 520.391161
_symmetry_space_group_name_H-M "P -1"
_symmetry_group_IT_number 2
_symmetry_cell_setting 'triclinic'
loop_
_space_group_symop_operation_xyz
x,y,z
-x,-y,-z
loop_
_atom_site_type_symbol
_atom_site_label
_atom_site_fract_x
_atom_site_fract_y
_atom_site_fract_z
Si Si1 0.199484 0.217764 0.947474
Si Si2 0.998521 0.701213 0.184092
Si Si3 0.241060 0.075951 0.641364
Si Si4 0.399361 0.328609 0.046585
Si Si5 0.363235 0.613561 0.598452
Si Si6 0.553850 0.323268 0.752365
Si Si7 0.888631 0.903760 0.693214
O O1 0.210648 0.003410 0.840844
O O2 0.298121 0.391334 0.939393
O O3 0.108817 0.405185 0.834249
O O4 0.177829 0.075747 0.155712
O O5 0.066030 0.425617 0.217462
O O6 0.031152 0.843224 0.326483
O O7 0.000000 0.000000 0.000000
O O8 0.273241 0.419650 0.578885
O O9 0.165854 0.050770 0.492408
O O10 0.332111 0.889093 0.638874
O O11 0.442322 0.395061 0.732976
O O12 0.415832 0.984674 0.095387
O O13 0.386908 0.412482 0.218070
O O14 0.417831 0.719585 0.420452
O O15 0.500000 0.500000 0.000000
#
# Coordination Sequence:
#
# PCOD9043627 Si02
#       7
#     2   2   2   2   2   2   2
#     4  11  26  45  72 102 143 188 232 297 362 417
#     4  10  23  45  73 104 139 184 238 293 358 432
#     4  12  26  43  69 106 143 182 242 294 358 440
#     4  12  26  44  69 105 144 190 243 296 361 435
#     4  11  24  44  68 102 140 188 246 300 355 431
#     4  11  24  45  70  94 141 195 242 302 363 415
#     4  11  24  46  73 103 141 185 237 295 359 431
#
# _framework density 26.902842
#
# number of rings (size 3 to 8) (size 9 to 14) (size 15 to 20)
#    0.000    0.857    0.000    7.286    0.000   13.714 
#    0.000    0.000    0.000    0.000    0.000    0.000 
#    0.000    0.000    0.000    0.000    0.000    0.000 
#
# Total GULP energy -78338.875766 kJ/mol
# GULP energy per Si atom -5595.633983 kJ/mol
# Density = 2.684161 g / cm^3
# Si number density = 26.902842 Si / 1000 Ang^3
#
#
#
# Elastic Constant Matrix: (Units=GPa)
#
#
# Indices 1 2 3 4 5 6 
#
# 1 142.9689 53.3086 73.6583 15.7402 24.3206 1.7547
# 2 53.3086 156.5047 38.8989 17.6397 15.1044 -13.5282
# 3 73.6583 38.8989 123.2907 26.9539 23.3090 -6.0038
# 4 15.7402 17.6397 26.9539 49.4407 7.3602 3.1578
# 5 24.3206 15.1044 23.3090 7.3602 46.2881 17.5092
# 6 1.7547 -13.5282 -6.0038 3.1578 17.5092 51.6522
#
#
#
# Elastic Compliance Matrix: (Units=1/GPa)
#
#
# Indices 1 2 3 4 5 6 
#
# 1 0.011075 -0.002344 -0.005746 0.000792 -0.001882 -0.001068
# 2 -0.002344 0.007891 -0.000141 -0.001869 -0.002092 0.002953
# 3 -0.005746 -0.000141 0.013717 -0.005176 -0.004361 0.003547
# 4 0.000792 -0.001869 -0.005176 0.023625 0.000015 -0.002568
# 5 -0.001882 -0.002092 -0.004361 0.000015 0.029646 -0.011041
# 6 -0.001068 0.002953 0.003547 -0.002568 -0.011041 0.024482
#
#
# Mechanical properties :
#
#
# Convention : Reuss Voigt Hill
#
# Bulk Modulus (GPa) = 61.65131 83.83288 72.74209
# Shear Modulus (GPa) = 37.79102 46.60279 42.19691
#
# Velocity S-wave (km/s) = 3.75203 4.16656 3.96472
# Velocity P-wave (km/s) = 6.46037 7.37401 6.93225
#
# Compressibility (1/GPa) = 0.01622026
#
# Stress axis : x y z
#
# Youngs Moduli (GPa) = 90.29068 126.72608 72.90015
#
# Poissons Ratio (x) = 0.29706 0.41892
# Poissons Ratio (y) = 0.21165 0.01029
# Poissons Ratio (z) = 0.51885 0.01789
#
# Static dielectric constant tensor:
#      x y z
#    x 2.175540 -0.004380 -0.071600 
#    y -0.004380 2.026240 0.099720 
#    z -0.071600 0.099720 2.366780 
# 
# From -- ./inp_files/288487.got.cif
#   From: 2010.05.17/outbox.cif.g08.bks.cpg/sg2_145_cif.got.tgz:288487.got - 2010.06.03 11:33:40.
