data_PCOD9043836
_publ_section_title
;
Structure prediction by ZEFSAII (Michael W. Deem and Ramdas Pophale) SiO2 
 PCOD9043836
Probable space group: P -1
;
_chemical_formula_sum "Si O2"
_cell_formula_units_Z 16
_cell_length_a 14.485672
_cell_length_b 11.955650
_cell_length_c 9.248020
_cell_angle_alpha 116.596835
_cell_angle_beta 94.511596
_cell_angle_gamma 41.506430
_cell_volume 855.471611
_symmetry_space_group_name_H-M "P -1"
_symmetry_group_IT_number 2
_symmetry_cell_setting 'triclinic'
loop_
_space_group_symop_operation_xyz
x,y,z
-x,-y,-z
loop_
_atom_site_type_symbol
_atom_site_label
_atom_site_fract_x
_atom_site_fract_y
_atom_site_fract_z
Si Si1 0.930861 0.700880 0.004323
Si Si2 0.530393 0.064444 0.908903
Si Si3 0.959854 0.661293 0.305797
Si Si4 0.247712 0.288275 0.506103
Si Si5 0.825533 0.241134 0.143330
Si Si6 0.248175 0.942622 0.028913
Si Si7 0.965541 0.269339 0.392308
Si Si8 0.722432 0.591133 0.155449
O O1 0.881113 0.765179 0.200798
O O2 0.914140 0.584749 0.855664
O O3 0.113876 0.523402 0.925882
O O4 0.861692 0.884413 0.008475
O O5 0.643908 0.869280 0.700660
O O6 0.616131 0.102462 0.978744
O O7 0.384610 0.267242 0.912484
O O8 0.500000 0.000000 0.000000
O O9 0.834252 0.740214 0.444954
O O10 0.027571 0.708282 0.423526
O O11 0.108020 0.526301 0.569291
O O12 0.336546 0.270796 0.630106
O O13 0.851658 0.285386 0.324419
O O14 0.765359 0.406327 0.112705
O O15 0.716802 0.237673 0.114287
O O16 0.000000 0.000000 0.000000
O O17 0.137252 0.062669 0.227219
#
# Coordination Sequence:
#
# PCOD9043836 Si02
#       8
#     2   2   2   2   2   2   2   2
#     4  10  20  32  58  88 117 146 185 247 295 327
#     4  12  27  35  56  90 123 150 188 236 300 352
#     4  10  18  29  56  87 120 142 188 239 294 340
#     4  10  19  36  55  81 117 154 189 231 293 349
#     4   9  18  37  65  82 109 152 206 237 276 336
#     4  11  20  39  59  85 114 154 198 237 284 337
#     4  10  17  33  62  86 103 150 201 242 273 339
#     4  10  21  39  57  87 117 157 187 232 288 350
#
# _framework density 18.703132
#
# number of rings (size 3 to 8) (size 9 to 14) (size 15 to 20)
#    0.000    1.750    6.250    1.500    7.000    0.500 
#    0.000    0.625    0.000    3.000    0.000    0.000 
#    0.000    0.000    0.000    0.000    0.000    0.000 
#
# Total GULP energy -89081.126599 kJ/mol
# GULP energy per Si atom -5567.570412 kJ/mol
# Density = 1.866056 g / cm^3
# Si number density = 18.703132 Si / 1000 Ang^3
#
#
#
# Elastic Constant Matrix: (Units=GPa)
#
#
# Indices 1 2 3 4 5 6 
#
# 1 106.1095 34.2317 49.4866 -8.3112 28.4031 -1.4764
# 2 34.2317 77.0625 33.5065 -11.4704 13.6524 -3.9150
# 3 49.4866 33.5065 104.2918 -20.2509 13.6300 6.4712
# 4 -8.3112 -11.4704 -20.2509 21.6203 0.5110 2.4464
# 5 28.4031 13.6524 13.6300 0.5110 29.8414 1.8299
# 6 -1.4764 -3.9150 6.4712 2.4464 1.8299 24.2083
#
#
#
# Elastic Compliance Matrix: (Units=1/GPa)
#
#
# Indices 1 2 3 4 5 6 
#
# 1 0.015934 -0.002537 -0.005483 -0.000415 -0.011674 0.002952
# 2 -0.002537 0.017062 -0.002923 0.005079 -0.004339 0.003201
# 3 -0.005483 -0.002923 0.015907 0.011959 -0.000532 -0.006228
# 4 -0.000415 0.005079 0.011959 0.061079 -0.007948 -0.007972
# 5 -0.011674 -0.004339 -0.000532 -0.007948 0.047234 -0.004039
# 6 0.002952 0.003201 -0.006228 -0.007972 -0.004039 0.044781
#
#
# Mechanical properties :
#
#
# Convention : Reuss Voigt Hill
#
# Bulk Modulus (GPa) = 37.01555 57.99037 47.50296
# Shear Modulus (GPa) = 21.46945 26.48327 23.97636
#
# Velocity S-wave (km/s) = 3.39175 3.76703 3.58431
# Velocity P-wave (km/s) = 5.93066 7.07063 6.52558
#
# Compressibility (1/GPa) = 0.02701567
#
# Stress axis : x y z
#
# Youngs Moduli (GPa) = 62.76080 58.61081 62.86377
#
# Poissons Ratio (x) = 0.14871 0.34470
# Poissons Ratio (y) = 0.15924 0.18374
# Poissons Ratio (z) = 0.34414 0.17131
#
# Static dielectric constant tensor:
#      x y z
#    x 1.715260 -0.024940 0.031920 
#    y -0.024940 1.676280 -0.029040 
#    z 0.031920 -0.029040 1.704720 
# 
# From -- ./inp_files/305749.got.cif
#   From: 2010.05.17/outbox.cif.g08.bks.cpg/sg2_153_cif.got.tgz:305749.got - 2010.06.03 11:33:40.
