data_PCOD9043133
_publ_section_title
;
Structure prediction by ZEFSAII (Michael W. Deem and Ramdas Pophale) SiO2 
 PCOD9043133
Probable space group: P -1
;
_chemical_formula_sum "Si O2"
_cell_formula_units_Z 12
_cell_length_a 18.905420
_cell_length_b 5.094760
_cell_length_c 7.768644
_cell_angle_alpha 63.698141
_cell_angle_beta 141.241596
_cell_angle_gamma 122.965034
_cell_volume 392.772518
_symmetry_space_group_name_H-M "P -1"
_symmetry_group_IT_number 2
_symmetry_cell_setting 'triclinic'
loop_
_space_group_symop_operation_xyz
x,y,z
-x,-y,-z
loop_
_atom_site_type_symbol
_atom_site_label
_atom_site_fract_x
_atom_site_fract_y
_atom_site_fract_z
Si Si1 0.430463 0.030296 0.632346
Si Si2 0.802517 0.574928 0.955987
Si Si3 0.127370 0.135966 0.309717
Si Si4 0.740807 0.342173 0.276080
Si Si5 0.959594 0.204731 0.230445
Si Si6 0.405565 0.272210 0.145296
O O1 0.382991 0.066593 0.338256
O O2 0.501857 0.384948 0.725398
O O3 0.342624 0.864266 0.669089
O O4 0.524937 0.855512 0.826583
O O5 0.726273 0.384307 0.024626
O O6 0.854361 0.937540 0.008638
O O7 0.906845 0.432043 0.160726
O O8 0.769291 0.620299 0.683436
O O9 0.163347 0.839730 0.507332
O O10 0.080756 0.331019 0.305995
O O11 0.000000 0.000000 0.000000
O O12 0.712958 0.667930 0.166698
O O13 0.000000 0.000000 0.500000
#
# Coordination Sequence:
#
# PCOD9043133 Si02
#       6
#     2   2   2   2   2   2
#     4  10  23  45  69 100 133 172 215 280 340 402
#     4  11  25  42  64  96 130 174 225 281 328 392
#     4  10  24  44  67  95 139 182 227 278 330 390
#     4  12  23  42  69 102 134 175 232 267 344 393
#     4  11  22  44  66  89 128 181 226 275 330 384
#     4  10  23  45  70  98 136 171 219 274 340 405
#
# _framework density 30.552033999999999
#
# number of rings (size 3 to 8) (size 9 to 14) (size 15 to 20)
#    0.000    1.333    1.667    3.000    2.333    2.667 
#    0.000    6.667    0.000    0.000    0.000    0.000 
#    0.000    0.000    0.000    0.000    0.000    0.000 
#
# Total GULP energy -67093.057406 kJ/mol
# GULP energy per Si atom -5591.088117 kJ/mol
# Density = 3.048250 g / cm^3
# Si number density = 30.552034 Si / 1000 Ang^3
#
#
#
# Elastic Constant Matrix: (Units=GPa)
#
#
# Indices 1 2 3 4 5 6 
#
# 1 289.2358 84.0883 57.2836 -34.8318 12.5971 -0.0660
# 2 84.0883 129.7851 28.2402 -38.1664 11.0108 -24.8207
# 3 57.2836 28.2402 124.6954 -47.0819 18.6124 -8.7589
# 4 -34.8318 -38.1664 -47.0819 24.6512 5.0193 -1.5916
# 5 12.5971 11.0108 18.6124 5.0193 72.2888 -18.0210
# 6 -0.0660 -24.8207 -8.7589 -1.5916 -18.0210 59.0473
#
#
#
# Elastic Compliance Matrix: (Units=1/GPa)
#
#
# Indices 1 2 3 4 5 6 
#
# 1 0.004449 -0.000839 0.001268 0.007710 -0.001621 -0.000446
# 2 -0.000839 -0.014186 -0.033683 -0.091127 0.015112 -0.008805
# 3 0.001268 -0.033683 -0.034498 -0.121002 0.017940 -0.017061
# 4 0.007710 -0.091127 -0.121002 -0.335035 0.054855 -0.048535
# 5 -0.001621 0.015112 0.017940 0.054855 0.006495 0.012473
# 6 -0.000446 -0.008805 -0.017061 -0.048535 0.012473 0.013202
#
#
# Mechanical properties :
#
#
# Convention : Reuss Voigt Hill
#
# Bulk Modulus (GPa) = -9.02982 98.10452 44.53735
# Shear Modulus (GPa) = -15.15248 56.13775 20.49264
#
# Velocity S-wave (km/s) = -2.22942 4.29120 2.59269
# Velocity P-wave (km/s) = 3.09662 7.53212 4.85509
#
# Compressibility (1/GPa) = -0.11074415
#
# Stress axis : x y z
#
# Youngs Moduli (GPa) = 224.75809 -70.49142 -28.98701
#
# Poissons Ratio (x) = -0.05915 0.03675
# Poissons Ratio (y) = 0.18859 -0.97638
# Poissons Ratio (z) = -0.28495 -2.37438
#
# Static dielectric constant tensor:
#      x y z
#    x 2.374840 0.027260 -0.057130 
#    y 0.027260 0.984580 -0.987260 
#    z -0.057130 -0.987260 1.603750 
# 
# From -- ./inp_files/321599.got.cif
#   From: 2010.05.17/outbox.cif.g08.bks.cpg/sg2_161_cif.got.tgz:321599.got - 2010.06.03 11:33:40.
