data_PCOD9043284
_publ_section_title
;
Structure prediction by ZEFSAII (Michael W. Deem and Ramdas Pophale) SiO2 
 PCOD9043284
Probable space group: P -1
;
_chemical_formula_sum "Si O2"
_cell_formula_units_Z 8
_cell_length_a 5.213737
_cell_length_b 11.668765
_cell_length_c 10.323950
_cell_angle_alpha 140.226730
_cell_angle_beta 120.029546
_cell_angle_gamma 78.263008
_cell_volume 328.736026
_symmetry_space_group_name_H-M "P -1"
_symmetry_group_IT_number 2
_symmetry_cell_setting 'triclinic'
loop_
_space_group_symop_operation_xyz
x,y,z
-x,-y,-z
loop_
_atom_site_type_symbol
_atom_site_label
_atom_site_fract_x
_atom_site_fract_y
_atom_site_fract_z
Si Si1 0.870244 0.603454 0.667177
Si Si2 0.780562 0.942527 0.267242
Si Si3 0.222145 0.469527 0.140281
Si Si4 0.248300 0.133379 0.321286
O O1 0.500000 0.500000 0.500000
O O2 0.974316 0.578191 0.816219
O O3 0.000000 0.500000 0.500000
O O4 0.895419 0.807704 0.794530
O O5 0.480678 0.011196 0.260858
O O6 0.687532 0.717862 0.027343
O O7 0.000000 0.000000 0.500000
O O8 0.986278 0.045720 0.286156
O O9 0.516418 0.660906 0.391733
O O10 0.000000 0.500000 0.000000
#
# Coordination Sequence:
#
# PCOD9043284 Si02
#       4
#     2   2   2   2
#     4  10  23  45  70 101 137 182 227 282 345 408
#     4  12  26  43  71 105 137 180 233 284 342 407
#     4  11  25  45  74 103 138 187 227 284 350 404
#     4  11  25  47  69  99 145 176 231 288 336 411
#
# _framework density 24.335633000000001
#
# number of rings (size 3 to 8) (size 9 to 14) (size 15 to 20)
#    0.000    1.000    2.500    3.750    0.000    9.000 
#    0.000    0.000    0.000    0.000    0.000    0.000 
#    0.000    0.000    0.000    0.000    0.000    0.000 
#
# Total GULP energy -44850.066381 kJ/mol
# GULP energy per Si atom -5606.258298 kJ/mol
# Density = 2.428024 g / cm^3
# Si number density = 24.335633 Si / 1000 Ang^3
#
#
#
# Elastic Constant Matrix: (Units=GPa)
#
#
# Indices 1 2 3 4 5 6 
#
# 1 152.7500 57.5704 36.5971 -4.1002 -12.4913 5.0222
# 2 57.5704 203.7066 50.5727 -14.2674 -11.6992 11.5745
# 3 36.5971 50.5727 113.0495 25.6027 -8.7935 -4.5748
# 4 -4.1002 -14.2674 25.6027 71.4595 -1.6824 -11.8863
# 5 -12.4913 -11.6992 -8.7935 -1.6824 45.0669 7.3657
# 6 5.0222 11.5745 -4.5748 -11.8863 7.3657 47.3063
#
#
#
# Elastic Compliance Matrix: (Units=1/GPa)
#
#
# Indices 1 2 3 4 5 6 
#
# 1 0.007748 -0.001542 -0.001895 0.000739 0.001516 -0.000679
# 2 -0.001542 0.006289 -0.002735 0.001954 0.000957 -0.001298
# 3 -0.001895 -0.002735 0.011852 -0.004767 0.000785 0.000697
# 4 0.000739 0.001954 -0.004767 0.016662 -0.000117 0.003187
# 5 0.001516 0.000957 0.000785 -0.000117 0.023666 -0.004033
# 6 -0.000679 -0.001298 0.000697 0.003187 -0.004033 0.023025
#
#
# Mechanical properties :
#
#
# Convention : Reuss Voigt Hill
#
# Bulk Modulus (GPa) = 73.83003 84.33183 79.08093
# Shear Modulus (GPa) = 47.12545 54.41760 50.77152
#
# Velocity S-wave (km/s) = 4.40532 4.73390 4.57256
# Velocity P-wave (km/s) = 7.50199 8.03795 7.77459
#
# Compressibility (1/GPa) = 0.01354462
#
# Stress axis : x y z
#
# Youngs Moduli (GPa) = 129.06648 159.00136 84.37732
#
# Poissons Ratio (x) = 0.24514 0.15992
# Poissons Ratio (y) = 0.19899 0.23077
# Poissons Ratio (z) = 0.24462 0.43486
#
# Static dielectric constant tensor:
#      x y z
#    x 1.861360 -0.015890 -0.006710 
#    y -0.015890 1.945100 -0.046770 
#    z -0.006710 -0.046770 2.063770 
# 
# From -- ./inp_files/3815.got.cif
#   From: 2010.05.17/outbox.cif.g08.bks.cpg/sg2_2_cif.got.tgz:3815.got - 2010.06.03 11:33:40.
