data_PCOD9043234
_publ_section_title
;
Structure prediction by ZEFSAII (Michael W. Deem and Ramdas Pophale) SiO2 
 PCOD9043234
Probable space group: P -1
;
_chemical_formula_sum "Si O2"
_cell_formula_units_Z 16
_cell_length_a 9.187473
_cell_length_b 12.191945
_cell_length_c 14.563720
_cell_angle_alpha 67.423434
_cell_angle_beta 100.205605
_cell_angle_gamma 147.688618
_cell_volume 768.468079
_symmetry_space_group_name_H-M "P -1"
_symmetry_group_IT_number 2
_symmetry_cell_setting 'triclinic'
loop_
_space_group_symop_operation_xyz
x,y,z
-x,-y,-z
loop_
_atom_site_type_symbol
_atom_site_label
_atom_site_fract_x
_atom_site_fract_y
_atom_site_fract_z
Si Si1 0.230996 0.560105 0.795564
Si Si2 0.345999 0.208236 0.396372
Si Si3 0.784131 0.675405 0.535025
Si Si4 0.732272 0.383267 0.552551
Si Si5 0.399039 0.809585 0.218233
Si Si6 0.747731 0.674718 0.044241
Si Si7 0.328207 0.752393 0.928092
Si Si8 0.651857 0.821405 0.096612
O O1 0.456547 0.680681 0.704311
O O2 0.153566 0.386192 0.895419
O O3 0.360568 0.733746 0.832289
O O4 0.936525 0.405952 0.771006
O O5 0.274676 0.296958 0.384017
O O6 0.519721 0.278040 0.481880
O O7 0.053211 0.933532 0.442916
O O8 0.500000 0.500000 0.500000
O O9 0.835435 0.570086 0.562372
O O10 0.573782 0.190423 0.670150
O O11 0.000000 0.500000 0.500000
O O12 0.510765 0.771854 0.188462
O O13 0.572132 0.042310 0.124185
O O14 0.631496 0.669800 0.118734
O O15 0.500000 0.500000 0.000000
O O16 0.013192 0.922336 0.948384
O O17 0.515234 0.802061 0.002867
O O18 0.000000 0.500000 0.000000
#
# Coordination Sequence:
#
# PCOD9043234 Si02
#       8
#     2   2   2   2   2   2   2   2
#     4  12  24  41  71  97 130 178 218 272 342 392
#     4  10  23  45  69  97 134 174 222 274 329 397
#     4   9  22  46  67  89 134 176 216 276 327 378
#     4  11  24  43  67 100 137 170 222 277 327 396
#     4  12  26  43  68  98 133 181 221 270 340 393
#     4  11  24  44  65  97 133 171 218 277 325 391
#     4  12  24  42  68  97 133 175 222 272 332 399
#     4  11  24  44  65  93 134 171 216 276 324 394
#
# _framework density 20.820643
#
# number of rings (size 3 to 8) (size 9 to 14) (size 15 to 20)
#    0.000    1.000    5.000    1.125    3.500    1.500 
#    6.750    0.000    0.000    0.000    0.000    0.000 
#    0.000    0.000    0.000    0.000    0.000    0.000 
#
# Total GULP energy -89394.850878 kJ/mol
# GULP energy per Si atom -5587.178180 kJ/mol
# Density = 2.077325 g / cm^3
# Si number density = 20.820643 Si / 1000 Ang^3
#
#
#
# Elastic Constant Matrix: (Units=GPa)
#
#
# Indices 1 2 3 4 5 6 
#
# 1 111.4018 23.8070 14.1248 -6.7707 -26.3520 -7.7606
# 2 23.8070 101.7611 16.0934 -8.7972 -15.7058 2.6167
# 3 14.1248 16.0934 68.1832 2.8328 -27.8542 1.0875
# 4 -6.7707 -8.7972 2.8328 26.9357 4.3064 -1.4826
# 5 -26.3520 -15.7058 -27.8542 4.3064 43.3926 -1.9599
# 6 -7.7606 2.6167 1.0875 -1.4826 -1.9599 26.7272
#
#
#
# Elastic Compliance Matrix: (Units=1/GPa)
#
#
# Indices 1 2 3 4 5 6 
#
# 1 0.011183 -0.001681 0.000685 0.001341 0.006668 0.003947
# 2 -0.001681 0.011022 -0.001755 0.003058 0.001484 -0.001217
# 3 0.000685 -0.001755 0.020653 -0.004720 0.013519 0.000260
# 4 0.001341 0.003058 -0.004720 0.039869 -0.004969 0.002129
# 5 0.006668 0.001484 0.013519 -0.004969 0.036969 0.003676
# 6 0.003947 -0.001217 0.000260 0.002129 0.003676 0.039057
#
#
# Mechanical properties :
#
#
# Convention : Reuss Voigt Hill
#
# Bulk Modulus (GPa) = 26.76849 43.26626 35.01738
# Shear Modulus (GPa) = 28.29543 34.56583 31.43063
#
# Velocity S-wave (km/s) = 3.69047 4.07894 3.88956
# Velocity P-wave (km/s) = 5.57172 6.55814 6.08495
#
# Compressibility (1/GPa) = 0.03735735
#
# Stress axis : x y z
#
# Youngs Moduli (GPa) = 89.42475 90.72448 48.41860
#
# Poissons Ratio (x) = 0.15251 -0.03319
# Poissons Ratio (y) = 0.15032 0.08497
# Poissons Ratio (z) = -0.06130 0.15921
#
# Static dielectric constant tensor:
#      x y z
#    x 1.760120 -0.034390 0.002150 
#    y -0.034390 1.671230 0.023790 
#    z 0.002150 0.023790 1.739060 
# 
# From -- ./inp_files/90200.got.cif
#   From: 2010.05.17/outbox.cif.g08.bks.cpg/sg2_46_cif.got.tgz:90200.got - 2010.06.03 11:33:40.
