data_PCOD9043033
_publ_section_title
;
Structure prediction by ZEFSAII (Michael W. Deem and Ramdas Pophale) SiO2 
 PCOD9043033
Probable space group: P -1
;
_chemical_formula_sum "Si O2"
_cell_formula_units_Z 16
_cell_length_a 10.035234
_cell_length_b 13.742528
_cell_length_c 10.331034
_cell_angle_alpha 54.867919
_cell_angle_beta 68.985209
_cell_angle_gamma 113.573326
_cell_volume 661.001153
_symmetry_space_group_name_H-M "P -1"
_symmetry_group_IT_number 2
_symmetry_cell_setting 'triclinic'
loop_
_space_group_symop_operation_xyz
x,y,z
-x,-y,-z
loop_
_atom_site_type_symbol
_atom_site_label
_atom_site_fract_x
_atom_site_fract_y
_atom_site_fract_z
Si Si1 0.049868 0.905117 0.613257
Si Si2 0.151201 0.393828 0.726655
Si Si3 0.082512 0.833821 0.251520
Si Si4 0.852120 0.851135 0.967226
Si Si5 0.635710 0.395980 0.758007
Si Si6 0.156170 0.458678 0.974201
Si Si7 0.622887 0.172726 0.421845
Si Si8 0.441212 0.041300 0.191331
O O1 0.266402 0.992470 0.392750
O O2 0.061487 0.936267 0.740394
O O3 0.839934 0.668050 0.864430
O O4 0.000000 0.000000 0.500000
O O5 0.926245 0.231927 0.835818
O O6 0.221876 0.301920 0.791976
O O7 0.322134 0.581640 0.430070
O O8 0.130480 0.430047 0.849041
O O9 0.839599 0.620654 0.559677
O O10 0.295355 0.937451 0.188708
O O11 0.081090 0.975713 0.134822
O O12 0.626335 0.726356 0.049910
O O13 0.643019 0.272598 0.917322
O O14 0.374420 0.691248 0.736601
O O15 0.904204 0.338179 0.203462
O O16 0.527437 0.067448 0.673614
O O17 0.500000 0.000000 0.500000
#
# Coordination Sequence:
#
# PCOD9043033 Si02
#       8
#     2   2   2   2   2   2   2   2
#     4  10  17  33  60  80 118 153 178 231 289 321
#     4   9  19  35  54  82 118 149 190 221 279 338
#     4   9  19  31  53  80 113 155 181 218 282 333
#     4  10  17  34  50  79 118 158 189 228 259 333
#     4   9  19  30  52  81 114 152 183 221 270 337
#     4   9  21  40  61  84 114 144 187 243 278 336
#     4  10  22  43  66  81 102 148 195 246 288 327
#     4  10  20  38  56  81 117 143 192 238 282 330
#
# _framework density 24.205707
#
# number of rings (size 3 to 8) (size 9 to 14) (size 15 to 20)
#    0.750    1.750    2.500    0.750    0.000    3.000 
#    4.500   10.000    0.000    0.000    0.000    0.000 
#    0.000    0.000    0.000    0.000    0.000    0.000 
#
# Total GULP energy -89118.324532 kJ/mol
# GULP energy per Si atom -5569.895283 kJ/mol
# Density = 2.415061 g / cm^3
# Si number density = 24.205707 Si / 1000 Ang^3
#
#
#
# Elastic Constant Matrix: (Units=GPa)
#
#
# Indices 1 2 3 4 5 6 
#
# 1 42.6286 10.3911 41.9561 -11.7155 20.2041 -11.1013
# 2 10.3911 74.7840 38.4815 -18.7652 2.0278 0.5349
# 3 41.9561 38.4815 197.4060 -24.0717 39.9803 -22.3446
# 4 -11.7155 -18.7652 -24.0717 49.5702 -9.4720 8.7109
# 5 20.2041 2.0278 39.9803 -9.4720 54.2742 -2.0747
# 6 -11.1013 0.5349 -22.3446 8.7109 -2.0747 24.9129
#
#
#
# Elastic Compliance Matrix: (Units=1/GPa)
#
#
# Indices 1 2 3 4 5 6 
#
# 1 0.035700 -0.002424 -0.003635 0.001919 -0.009758 0.011216
# 2 -0.002424 0.016967 -0.003531 0.005959 0.003665 -0.006390
# 3 -0.003635 -0.003531 0.007965 -0.000055 -0.004190 0.005270
# 4 0.001919 0.005959 -0.000055 0.024815 0.003138 -0.007737
# 5 -0.009758 0.003665 -0.004190 0.003138 0.025281 -0.007177
# 6 0.011216 -0.006390 0.005270 -0.007737 -0.007177 0.052110
#
#
# Mechanical properties :
#
#
# Convention : Reuss Voigt Hill
#
# Bulk Modulus (GPa) = 24.12465 55.16398 39.64431
# Shear Modulus (GPa) = 25.53148 40.68413 33.10781
#
# Velocity S-wave (km/s) = 3.25125 4.10416 3.70235
# Velocity P-wave (km/s) = 4.90737 6.73038 5.88983
#
# Compressibility (1/GPa) = 0.04145138
#
# Stress axis : x y z
#
# Youngs Moduli (GPa) = 28.01106 58.93700 125.54504
#
# Poissons Ratio (x) = 0.14286 0.45640
# Poissons Ratio (y) = 0.06790 0.44335
# Poissons Ratio (z) = 0.10183 0.20813
#
# Static dielectric constant tensor:
#      x y z
#    x 2.065280 -0.024760 0.035380 
#    y -0.024760 1.973700 0.016970 
#    z 0.035380 0.016970 2.011150 
# 
# From -- ./inp_files/431051.got.cif
#   From: 2010.05.17/outbox.cif.g08.bks.cpg/sg2_216_cif.got.tgz:431051.got - 2010.06.03 11:33:40.
