data_PCOD9043004
_publ_section_title
;
Structure prediction by ZEFSAII (Michael W. Deem and Ramdas Pophale) SiO2 
 PCOD9043004
Probable space group: P -1
;
_chemical_formula_sum "Si O2"
_cell_formula_units_Z 16
_cell_length_a 16.235540
_cell_length_b 19.130224
_cell_length_c 13.315542
_cell_angle_alpha 41.764107
_cell_angle_beta 153.473219
_cell_angle_gamma 154.215020
_cell_volume 764.521313
_symmetry_space_group_name_H-M "P -1"
_symmetry_group_IT_number 2
_symmetry_cell_setting 'triclinic'
loop_
_space_group_symop_operation_xyz
x,y,z
-x,-y,-z
loop_
_atom_site_type_symbol
_atom_site_label
_atom_site_fract_x
_atom_site_fract_y
_atom_site_fract_z
Si Si1 0.164407 0.842952 0.767975
Si Si2 0.553952 0.328769 0.502102
Si Si3 0.663537 0.182393 0.323425
Si Si4 0.720760 0.853231 0.924706
Si Si5 0.828588 0.046209 0.556763
Si Si6 0.619926 0.669230 0.473526
Si Si7 0.205197 0.642822 0.927993
Si Si8 0.663772 0.477110 0.256904
O O1 0.121378 0.883453 0.573122
O O2 0.109587 0.695765 0.841198
O O3 0.959853 0.809493 0.661089
O O4 0.500000 0.000000 0.000000
O O5 0.419312 0.316824 0.469024
O O6 0.570936 0.420542 0.332501
O O7 0.895530 0.449047 0.768744
O O8 0.359392 0.143400 0.454636
O O9 0.404698 0.103257 0.199445
O O10 0.659144 0.058329 0.423704
O O11 0.662577 0.246345 0.148189
O O12 0.983306 0.349875 0.542581
O O13 0.455534 0.679477 0.761844
O O14 0.857764 0.836341 0.175000
O O15 0.000000 0.000000 0.000000
O O16 0.500000 0.500000 0.500000
O O17 0.437966 0.671595 0.205582
O O18 0.500000 0.500000 0.000000
#
# Coordination Sequence:
#
# PCOD9043004 Si02
#       8
#     2   2   2   2   2   2   2   2
#     4  11  25  44  68 101 136 181 220 282 344 402
#     4  11  24  43  69 105 137 177 231 288 333 403
#     4  10  24  44  72  98 132 188 223 274 351 399
#     4  12  24  45  67 103 138 172 233 285 334 402
#     4  11  24  44  69  98 142 174 232 279 339 401
#     4  12  25  42  73 102 137 183 227 276 346 401
#     4  10  23  45  67  97 140 174 230 274 333 417
#     4  11  23  46  72  98 138 181 226 286 336 403
#
# _framework density 20.928128000000001
#
# number of rings (size 3 to 8) (size 9 to 14) (size 15 to 20)
#    0.000    1.000    3.750    2.250    1.750    5.500 
#    0.000    0.000    0.000    0.000    0.000    0.000 
#    0.000    0.000    0.000    0.000    0.000    0.000 
#
# Total GULP energy -89500.426585 kJ/mol
# GULP energy per Si atom -5593.776662 kJ/mol
# Density = 2.088049 g / cm^3
# Si number density = 20.928128 Si / 1000 Ang^3
#
#
#
# Elastic Constant Matrix: (Units=GPa)
#
#
# Indices 1 2 3 4 5 6 
#
# 1 156.0650 38.6330 66.9689 5.9174 22.3556 -2.7777
# 2 38.6330 69.3688 27.9452 2.2313 4.9142 -8.8540
# 3 66.9689 27.9452 131.6948 -12.1946 -4.4388 13.4241
# 4 5.9174 2.2313 -12.1946 27.9157 -5.0146 -0.2702
# 5 22.3556 4.9142 -4.4388 -5.0146 34.8632 6.4126
# 6 -2.7777 -8.8540 13.4241 -0.2702 6.4126 22.7313
#
#
#
# Elastic Compliance Matrix: (Units=1/GPa)
#
#
# Indices 1 2 3 4 5 6 
#
# 1 0.012266 -0.001452 -0.007939 -0.007918 -0.011419 0.008749
# 2 -0.001452 0.019310 -0.005137 -0.004306 -0.005235 0.011803
# 3 -0.007939 -0.005137 0.015746 0.011026 0.012275 -0.015602
# 4 -0.007918 -0.004306 0.011026 0.045415 0.016038 -0.013140
# 5 -0.011419 -0.005235 0.012275 0.016038 0.044872 -0.023152
# 6 0.008749 0.011803 -0.015602 -0.013140 -0.023152 0.065247
#
#
# Mechanical properties :
#
#
# Convention : Reuss Voigt Hill
#
# Bulk Modulus (GPa) = 54.75303 69.35810 62.05557
# Shear Modulus (GPa) = 21.00836 32.00747 26.50791
#
# Velocity S-wave (km/s) = 3.17177 3.91500 3.56282
# Velocity P-wave (km/s) = 6.29545 7.32457 6.82942
#
# Compressibility (1/GPa) = 0.01826383
#
# Stress axis : x y z
#
# Youngs Moduli (GPa) = 81.52937 51.78655 63.51018
#
# Poissons Ratio (x) = 0.07521 0.50420
# Poissons Ratio (y) = 0.11841 0.32627
# Poissons Ratio (z) = 0.64726 0.26604
#
# Static dielectric constant tensor:
#      x y z
#    x 1.749150 0.010690 -0.011090 
#    y 0.010690 1.781120 0.008880 
#    z -0.011090 0.008880 1.732520 
# 
# From -- ./inp_files/99839.got.cif
#   From: 2010.05.17/outbox.cif.g08.bks.cpg/sg2_50_cif.got.tgz:99839.got - 2010.06.03 11:33:40.
