data_PCOD9043074
_publ_section_title
;
Structure prediction by ZEFSAII (Michael W. Deem and Ramdas Pophale) SiO2 
 PCOD9043074
Probable space group: P -1
;
_chemical_formula_sum "Si O2"
_cell_formula_units_Z 15
_cell_length_a 12.841641
_cell_length_b 5.230876
_cell_length_c 11.429968
_cell_angle_alpha 85.797787
_cell_angle_beta 131.872445
_cell_angle_gamma 109.704913
_cell_volume 525.472505
_symmetry_space_group_name_H-M "P -1"
_symmetry_group_IT_number 2
_symmetry_cell_setting 'triclinic'
loop_
_space_group_symop_operation_xyz
x,y,z
-x,-y,-z
loop_
_atom_site_type_symbol
_atom_site_label
_atom_site_fract_x
_atom_site_fract_y
_atom_site_fract_z
Si Si1 0.165267 0.056737 0.173950
Si Si2 0.173149 0.908269 0.605495
Si Si3 0.957324 0.496116 0.282156
Si Si4 0.448567 0.790520 0.858489
Si Si5 0.500000 0.500000 0.500000
Si Si6 0.644023 0.281663 0.760547
Si Si7 0.670211 0.535349 0.000817
Si Si8 0.781082 0.675142 0.561274
O O1 0.284374 0.379003 0.227974
O O2 0.166005 0.068777 0.314450
O O3 0.239142 0.855281 0.181207
O O4 0.000000 0.000000 0.000000
O O5 0.138370 0.806941 0.717649
O O6 0.318483 0.837333 0.687147
O O7 0.026169 0.711905 0.430883
O O8 0.207556 0.207069 0.564941
O O9 0.847424 0.595637 0.120262
O O10 0.094347 0.455947 0.321729
O O11 0.359111 0.514667 0.881321
O O12 0.586107 0.738995 0.902693
O O13 0.500000 0.000000 0.000000
O O14 0.499115 0.215298 0.574103
O O15 0.614703 0.475426 0.481443
O O16 0.605449 0.282493 0.867985
#
# Coordination Sequence:
#
# PCOD9043074 Si02
#       8
#     2   2   2   2   1   2   2   2
#     4  11  26  45  71 104 139 189 250 299 370 431
#     4  10  24  41  74 102 140 182 236 300 372 436
#     4  10  23  45  68 108 139 179 245 294 373 440
#     4  10  24  42  67 104 137 180 234 294 368 446
#     4  10  28  46  66 106 142 190 262 286 370 430
#     4  11  26  45  71 102 144 191 243 310 357 440
#     4  10  24  42  68  99 140 184 231 303 362 433
#     4  11  25  43  73  96 145 192 237 313 354 438
#
# _framework density 28.545741
#
# number of rings (size 3 to 8) (size 9 to 14) (size 15 to 20)
#    0.000    1.600    0.000    1.600   11.200    7.467 
#    0.000    0.000    0.000    0.000    0.000    0.000 
#    0.000    0.000    0.000    0.000    0.000    0.000 
#
# Total GULP energy -83729.348449 kJ/mol
# GULP energy per Si atom -5581.956563 kJ/mol
# Density = 2.848077 g / cm^3
# Si number density = 28.545741 Si / 1000 Ang^3
#
#
#
# Elastic Constant Matrix: (Units=GPa)
#
#
# Indices 1 2 3 4 5 6 
#
# 1 176.1943 55.5349 32.7474 -26.4671 17.8990 -33.4682
# 2 55.5349 99.2984 16.6536 -15.5642 7.5802 -25.4272
# 3 32.7474 16.6536 106.9622 -22.8114 10.3098 -28.3987
# 4 -26.4671 -15.5642 -22.8114 36.4684 -16.8709 12.6496
# 5 17.8990 7.5802 10.3098 -16.8709 68.0945 -19.8878
# 6 -33.4682 -25.4272 -28.3987 12.6496 -19.8878 76.6306
#
#
#
# Elastic Compliance Matrix: (Units=1/GPa)
#
#
# Indices 1 2 3 4 5 6 
#
# 1 0.007596 -0.003275 -0.000785 0.002980 -0.000381 0.001349
# 2 -0.003275 0.012922 0.000208 0.002726 0.000857 0.002707
# 3 -0.000785 0.000208 0.011633 0.006070 0.000879 0.003263
# 4 0.002980 0.002726 0.006070 0.037939 0.007429 0.000121
# 5 -0.000381 0.000857 0.000879 0.007429 0.017495 0.003758
# 6 0.001349 0.002707 0.003263 0.000121 0.003758 0.016702
#
#
# Mechanical properties :
#
#
# Convention : Reuss Voigt Hill
#
# Bulk Modulus (GPa) = 40.90353 65.81408 53.35880
# Shear Modulus (GPa) = 41.61736 54.73997 48.17866
#
# Velocity S-wave (km/s) = 3.82241 4.38382 4.11271
# Velocity P-wave (km/s) = 5.81733 6.98065 6.42537
#
# Compressibility (1/GPa) = 0.02444777
#
# Stress axis : x y z
#
# Youngs Moduli (GPa) = 131.64122 77.38468 85.95903
#
# Poissons Ratio (x) = 0.25344 0.06751
# Poissons Ratio (y) = 0.43114 -0.01790
# Poissons Ratio (z) = 0.10338 -0.01611
#
# Static dielectric constant tensor:
#      x y z
#    x 2.270600 0.140080 -0.011460 
#    y 0.140080 2.413750 -0.029610 
#    z -0.011460 -0.029610 1.649520 
# 
# From -- ./inp_files/109786.got.cif
#   From: 2010.05.17/outbox.cif.g08.bks.cpg/sg2_55_cif.got.tgz:109786.got - 2010.06.03 11:33:40.
