data_PCOD9043301
_publ_section_title
;
Structure prediction by ZEFSAII (Michael W. Deem and Ramdas Pophale) SiO2 
 PCOD9043301
Probable space group: P -1
;
_chemical_formula_sum "Si O2"
_cell_formula_units_Z 15
_cell_length_a 14.773723
_cell_length_b 15.324932
_cell_length_c 8.874266
_cell_angle_alpha 47.367715
_cell_angle_beta 132.622729
_cell_angle_gamma 151.345877
_cell_volume 689.013212
_symmetry_space_group_name_H-M "P -1"
_symmetry_group_IT_number 2
_symmetry_cell_setting 'triclinic'
loop_
_space_group_symop_operation_xyz
x,y,z
-x,-y,-z
loop_
_atom_site_type_symbol
_atom_site_label
_atom_site_fract_x
_atom_site_fract_y
_atom_site_fract_z
Si Si1 0.918546 0.137582 0.197608
Si Si2 0.533939 0.734583 0.345567
Si Si3 0.236371 0.954850 0.194904
Si Si4 0.888788 0.525944 0.768534
Si Si5 0.758485 0.727601 0.789940
Si Si6 0.607678 0.362478 0.033414
Si Si7 0.000000 0.000000 0.000000
Si Si8 0.881804 0.352789 0.403615
O O1 0.049647 0.317346 0.241256
O O2 0.065859 0.151268 0.275896
O O3 0.736329 0.956571 0.301152
O O4 0.825966 0.125539 0.954284
O O5 0.343593 0.659718 0.278703
O O6 0.576437 0.651593 0.590122
O O7 0.482256 0.667549 0.193012
O O8 0.246689 0.847025 0.435379
O O9 0.434798 0.176541 0.150837
O O10 0.076436 0.927130 0.108014
O O11 0.975304 0.598160 0.614646
O O12 0.000000 0.500000 0.000000
O O13 0.705131 0.553862 0.982175
O O14 0.821216 0.858187 0.843493
O O15 0.758571 0.367845 0.175204
O O16 0.000000 0.500000 0.500000
#
# Coordination Sequence:
#
# PCOD9043301 Si02
#       8
#     2   2   2   2   2   2   1   2
#     4  10  23  45  70 102 145 178 238 302 341 432
#     4  11  24  42  73 108 134 189 238 296 361 417
#     4  10  24  44  69 102 140 189 232 285 365 418
#     4  12  24  44  70 101 143 183 239 295 350 419
#     4  11  22  44  72 104 148 185 234 294 367 413
#     4  11  23  45  70  99 140 185 243 295 343 429
#     4  10  24  42  66 102 152 178 230 292 348 430
#     4  12  25  45  70  97 144 188 231 295 359 419
#
# _framework density 21.770264999999998
#
# number of rings (size 3 to 8) (size 9 to 14) (size 15 to 20)
#    0.000    1.067    2.667    3.600    1.867    3.200 
#    2.400    0.000    0.000    0.000    0.000    0.000 
#    0.000    0.000    0.000    0.000    0.000    0.000 
#
# Total GULP energy -83563.305719 kJ/mol
# GULP energy per Si atom -5570.887048 kJ/mol
# Density = 2.172072 g / cm^3
# Si number density = 21.770265 Si / 1000 Ang^3
#
#
#
# Elastic Constant Matrix: (Units=GPa)
#
#
# Indices 1 2 3 4 5 6 
#
# 1 75.2650 41.1658 39.9156 -2.0805 -3.9494 0.8118
# 2 41.1658 108.3967 40.6987 -5.8753 -8.8594 9.3198
# 3 39.9156 40.6987 85.2648 -13.6352 5.9342 2.7606
# 4 -2.0805 -5.8753 -13.6352 26.9524 8.2391 -3.2651
# 5 -3.9494 -8.8594 5.9342 8.2391 30.3777 11.5879
# 6 0.8118 9.3198 2.7606 -3.2651 11.5879 44.7589
#
#
#
# Elastic Compliance Matrix: (Units=1/GPa)
#
#
# Indices 1 2 3 4 5 6 
#
# 1 0.020322 -0.004355 -0.008574 -0.005204 0.004656 -0.000518
# 2 -0.004355 0.013632 -0.005219 -0.002620 0.006815 -0.004393
# 3 -0.008574 -0.005219 0.020981 0.012873 -0.011723 0.003922
# 4 -0.005204 -0.002620 0.012873 0.050131 -0.020958 0.008929
# 5 0.004656 0.006815 -0.011723 -0.020958 0.049229 -0.015055
# 6 -0.000518 -0.004393 0.003922 0.008929 -0.015055 0.027573
#
#
# Mechanical properties :
#
#
# Convention : Reuss Voigt Hill
#
# Bulk Modulus (GPa) = 53.65544 56.94298 55.29921
# Shear Modulus (GPa) = 22.28410 30.22757 26.25584
#
# Velocity S-wave (km/s) = 3.20285 3.73027 3.47658
# Velocity P-wave (km/s) = 6.19495 6.69077 6.44762
#
# Compressibility (1/GPa) = 0.01863744
#
# Stress axis : x y z
#
# Youngs Moduli (GPa) = 49.20869 73.35884 47.66315
#
# Poissons Ratio (x) = 0.31951 0.40866
# Poissons Ratio (y) = 0.21432 0.24875
# Poissons Ratio (z) = 0.42191 0.38285
#
# Static dielectric constant tensor:
#      x y z
#    x 1.796440 0.028680 -0.010300 
#    y 0.028680 1.834270 0.019220 
#    z -0.010300 0.019220 1.849740 
# 
# From -- ./inp_files/314734.got.cif
#   From: 2010.05.17/outbox.cif.g08.bks.cpg/sg2_158_cif.got.tgz:314734.got - 2010.06.03 11:33:40.
