data_PCOD9043134
_publ_section_title
;
Structure prediction by ZEFSAII (Michael W. Deem and Ramdas Pophale) SiO2 
 PCOD9043134
Probable space group: P -1
;
_chemical_formula_sum "Si O2"
_cell_formula_units_Z 12
_cell_length_a 12.111935
_cell_length_b 11.404168
_cell_length_c 9.194681
_cell_angle_alpha 100.148793
_cell_angle_beta 105.411405
_cell_angle_gamma 22.934427
_cell_volume 469.099184
_symmetry_space_group_name_H-M "P -1"
_symmetry_group_IT_number 2
_symmetry_cell_setting 'triclinic'
loop_
_space_group_symop_operation_xyz
x,y,z
-x,-y,-z
loop_
_atom_site_type_symbol
_atom_site_label
_atom_site_fract_x
_atom_site_fract_y
_atom_site_fract_z
Si Si1 0.342688 0.280479 0.926224
Si Si2 0.133834 0.851007 0.175037
Si Si3 0.237354 0.295002 0.196108
Si Si4 0.902420 0.324714 0.299436
Si Si5 0.472473 0.818913 0.506420
Si Si6 0.236675 0.845961 0.651909
O O1 0.263224 0.476690 0.859857
O O2 0.103019 0.406876 0.833143
O O3 0.633774 0.950162 0.881744
O O4 0.315443 0.312402 0.096337
O O5 0.041910 0.063263 0.264258
O O6 0.949058 0.933244 0.224441
O O7 0.477147 0.495719 0.251652
O O8 0.000000 0.000000 0.000000
O O9 0.378758 0.213803 0.369525
O O10 0.692343 0.544633 0.411248
O O11 0.184944 0.135740 0.387689
O O12 0.362024 0.829858 0.590394
O O13 0.000000 0.000000 0.500000
#
# Coordination Sequence:
#
# PCOD9043134 Si02
#       6
#     2   2   2   2   2   2
#     4  10  23  45  69  98 141 177 223 297 343 419
#     4  12  28  48  72 106 140 189 241 292 356 417
#     4  10  23  45  69 100 134 183 232 275 361 417
#     4  12  26  43  70 104 140 177 237 293 348 411
#     4  12  26  43  72 104 136 188 233 284 352 425
#     4  12  26  49  73 101 147 189 232 295 352 424
#
# _framework density 25.580943999999999
#
# number of rings (size 3 to 8) (size 9 to 14) (size 15 to 20)
#    0.000    0.667    1.667    5.000    2.333    4.000 
#    6.000    0.000    0.000    0.000    0.000    0.000 
#    0.000    0.000    0.000    0.000    0.000    0.000 
#
# Total GULP energy -67135.754974 kJ/mol
# GULP energy per Si atom -5594.646248 kJ/mol
# Density = 2.552272 g / cm^3
# Si number density = 25.580944 Si / 1000 Ang^3
#
#
#
# Elastic Constant Matrix: (Units=GPa)
#
#
# Indices 1 2 3 4 5 6 
#
# 1 51.8422 9.0246 17.6131 -1.2970 -10.8918 -0.0836
# 2 9.0246 141.2376 28.5891 -13.3915 -5.7170 -11.0336
# 3 17.6131 28.5891 114.7980 -8.6433 -19.9198 -4.1591
# 4 -1.2970 -13.3915 -8.6433 37.4021 1.7832 -14.5328
# 5 -10.8918 -5.7170 -19.9198 1.7832 33.2273 -6.0621
# 6 -0.0836 -11.0336 -4.1591 -14.5328 -6.0621 40.9069
#
#
#
# Elastic Compliance Matrix: (Units=1/GPa)
#
#
# Indices 1 2 3 4 5 6 
#
# 1 0.021318 -0.000677 -0.002102 -0.000081 0.005700 0.000463
# 2 -0.000677 0.008074 -0.001347 0.003894 0.000797 0.003541
# 3 -0.002102 -0.001347 0.010659 0.002603 0.005785 0.002498
# 4 -0.000081 0.003894 0.002603 0.033956 0.002901 0.013808
# 5 0.005700 0.000797 0.005785 0.002901 0.036744 0.007291
# 6 0.000463 0.003541 0.002498 0.013808 0.007291 0.031642
#
#
# Mechanical properties :
#
#
# Convention : Reuss Voigt Hill
#
# Bulk Modulus (GPa) = 31.44881 46.48127 38.96504
# Shear Modulus (GPa) = 31.00840 39.15064 35.07952
#
# Velocity S-wave (km/s) = 3.48540 3.91635 3.70714
# Velocity P-wave (km/s) = 5.34021 6.21773 5.79560
#
# Compressibility (1/GPa) = 0.03179770
#
# Stress axis : x y z
#
# Youngs Moduli (GPa) = 46.90940 123.84931 93.81404
#
# Poissons Ratio (x) = 0.08389 0.19722
# Poissons Ratio (y) = 0.03177 0.12639
# Poissons Ratio (z) = 0.09862 0.16685
#
# Static dielectric constant tensor:
#      x y z
#    x 2.148430 -0.005080 -0.048370 
#    y -0.005080 1.994790 -0.055610 
#    z -0.048370 -0.055610 1.990680 
# 
# From -- ./inp_files/311686.got.cif
#   From: 2010.05.17/outbox.cif.g08.bks.cpg/sg2_156_cif.got.tgz:311686.got - 2010.06.03 11:33:40.
