data_PCOD9043166
_publ_section_title
;
Structure prediction by ZEFSAII (Michael W. Deem and Ramdas Pophale) SiO2 
 PCOD9043166
Probable space group: P -1
;
_chemical_formula_sum "Si O2"
_cell_formula_units_Z 12
_cell_length_a 8.357829
_cell_length_b 10.750590
_cell_length_c 10.282863
_cell_angle_alpha 65.357904
_cell_angle_beta 135.863503
_cell_angle_gamma 137.410715
_cell_volume 423.066304
_symmetry_space_group_name_H-M "P -1"
_symmetry_group_IT_number 2
_symmetry_cell_setting 'triclinic'
loop_
_space_group_symop_operation_xyz
x,y,z
-x,-y,-z
loop_
_atom_site_type_symbol
_atom_site_label
_atom_site_fract_x
_atom_site_fract_y
_atom_site_fract_z
Si Si1 0.248797 0.222640 0.539191
Si Si2 0.128458 0.094631 0.889590
Si Si3 0.740753 0.212168 0.212566
Si Si4 0.095370 0.642740 0.213240
Si Si5 0.569960 0.208720 0.398820
Si Si6 0.481473 0.488927 0.807931
O O1 0.571686 0.273255 0.682276
O O2 0.352956 0.363687 0.657337
O O3 0.026483 0.234555 0.320298
O O4 0.000000 0.000000 0.500000
O O5 0.318450 0.317518 0.893406
O O6 0.393093 0.092930 0.998346
O O7 0.787739 0.956806 0.682909
O O8 0.000000 0.000000 0.000000
O O9 0.646675 0.155747 0.335582
O O10 0.899132 0.424348 0.209667
O O11 0.194431 0.734500 0.373699
O O12 0.862617 0.634990 0.989928
O O13 0.600891 0.384186 0.308356
#
# Coordination Sequence:
#
# PCOD9043166 Si02
#       6
#     2   2   2   2   2   2
#     4  12  26  46  68 103 142 189 236 284 348 424
#     4   9  22  44  67 106 142 177 228 289 348 417
#     4  10  23  45  69 102 140 181 230 289 352 403
#     4  11  24  45  72 102 139 185 233 288 345 420
#     4  11  23  47  75 103 144 181 227 303 348 408
#     4  11  25  45  75 105 136 186 240 280 358 418
#
# _framework density 28.364346000000001
#
# number of rings (size 3 to 8) (size 9 to 14) (size 15 to 20)
#    0.000    1.333    1.667    2.500    2.333    6.000 
#    3.000    5.000    0.000    0.000    0.000    0.000 
#    0.000    0.000    0.000    0.000    0.000    0.000 
#
# Total GULP energy -67086.152584 kJ/mol
# GULP energy per Si atom -5590.512715 kJ/mol
# Density = 2.829979 g / cm^3
# Si number density = 28.364346 Si / 1000 Ang^3
#
#
#
# Elastic Constant Matrix: (Units=GPa)
#
#
# Indices 1 2 3 4 5 6 
#
# 1 76.1080 30.4163 59.2508 1.5058 35.4680 3.7963
# 2 30.4163 157.9264 58.3933 16.7678 12.9264 7.4120
# 3 59.2508 58.3933 232.7350 33.0846 52.4939 6.5313
# 4 1.5058 16.7678 33.0846 58.3557 8.7308 17.2612
# 5 35.4680 12.9264 52.4939 8.7308 59.6454 11.3160
# 6 3.7963 7.4120 6.5313 17.2612 11.3160 44.0598
#
#
#
# Elastic Compliance Matrix: (Units=1/GPa)
#
#
# Indices 1 2 3 4 5 6 
#
# 1 0.020945 -0.002494 -0.002953 0.003230 -0.009848 0.000316
# 2 -0.002494 0.007357 -0.001313 -0.001313 0.001362 -0.000664
# 3 -0.002953 -0.001313 0.006610 -0.003255 -0.003623 0.001701
# 4 0.003230 -0.001313 -0.003255 0.021696 -0.000437 -0.007963
# 5 -0.009848 0.001362 -0.003623 -0.000437 0.026625 -0.005511
# 6 0.000316 -0.000664 0.001701 -0.007963 -0.005511 0.027063
#
#
# Mechanical properties :
#
#
# Convention : Reuss Voigt Hill
#
# Bulk Modulus (GPa) = 46.74705 84.76557 65.75631
# Shear Modulus (GPa) = 38.18338 53.65945 45.92142
#
# Velocity S-wave (km/s) = 3.67301 4.35419 4.02802
# Velocity P-wave (km/s) = 5.87407 7.43156 6.69824
#
# Compressibility (1/GPa) = 0.02139172
#
# Stress axis : x y z
#
# Youngs Moduli (GPa) = 47.74482 135.92786 151.27905
#
# Poissons Ratio (x) = 0.33896 0.44679
# Poissons Ratio (y) = 0.11906 0.19863
# Poissons Ratio (z) = 0.14101 0.17847
#
# Static dielectric constant tensor:
#      x y z
#    x 2.466110 0.064190 0.046600 
#    y 0.064190 2.177010 -0.033670 
#    z 0.046600 -0.033670 2.366280 
# 
# From -- ./inp_files/392431.got.cif
#   From: 2010.05.17/outbox.cif.g08.bks.cpg/sg2_197_cif.got.tgz:392431.got - 2010.06.03 11:33:40.
