data_PCOD9043476
_publ_section_title
;
Structure prediction by ZEFSAII (Michael W. Deem and Ramdas Pophale) SiO2 
 PCOD9043476
Probable space group: P -1
;
_chemical_formula_sum "Si O2"
_cell_formula_units_Z 14
_cell_length_a 9.323865
_cell_length_b 5.296502
_cell_length_c 15.446095
_cell_angle_alpha 92.865150
_cell_angle_beta 71.192349
_cell_angle_gamma 125.526000
_cell_volume 578.235322
_symmetry_space_group_name_H-M "P -1"
_symmetry_group_IT_number 2
_symmetry_cell_setting 'triclinic'
loop_
_space_group_symop_operation_xyz
x,y,z
-x,-y,-z
loop_
_atom_site_type_symbol
_atom_site_label
_atom_site_fract_x
_atom_site_fract_y
_atom_site_fract_z
Si Si1 0.458452 0.568662 0.605616
Si Si2 0.758570 0.119276 0.332052
Si Si3 0.108885 0.704466 0.199020
Si Si4 0.718819 0.766101 0.704263
Si Si5 0.992775 0.747599 0.556712
Si Si6 0.566131 0.345912 0.887400
Si Si7 0.176543 0.081561 0.024367
O O1 0.500000 0.500000 0.500000
O O2 0.335924 0.702027 0.630126
O O3 0.631715 0.814571 0.638896
O O4 0.374645 0.247693 0.671856
O O5 0.937065 0.340056 0.238461
O O6 0.839331 0.099774 0.406152
O O7 0.315144 0.782132 0.163028
O O8 0.109851 0.901615 0.281977
O O9 0.091837 0.833962 0.114900
O O10 0.804829 0.593644 0.647267
O O11 0.590839 0.570121 0.808265
O O12 0.000000 0.500000 0.500000
O O13 0.000000 0.000000 0.500000
O O14 0.691123 0.572795 0.948780
O O15 0.344398 0.092142 0.944350
O O16 0.000000 0.000000 0.000000
#
# Coordination Sequence:
#
# PCOD9043476 Si02
#       7
#     2   2   2   2   2   2   2
#     4  12  28  47  69 107 155 196 255 322 381 441
#     4  12  26  44  71 107 144 194 253 311 376 456
#     4  11  24  46  73 106 147 196 254 312 384 468
#     4  11  25  44  70 102 148 198 247 316 384 448
#     4  12  24  43  72 101 139 196 253 304 370 447
#     4  10  23  45  71 107 149 188 256 307 387 467
#     4  10  24  45  75 109 148 195 246 317 388 468
#
# _framework density 24.211594999999999
#
# number of rings (size 3 to 8) (size 9 to 14) (size 15 to 20)
#    0.000    0.857    1.429    5.143    6.000    0.571 
#    0.000    0.000    0.000    0.000    0.000    0.000 
#    0.000    0.000    0.000    0.000    0.000    0.000 
#
# Total GULP energy -78284.793381 kJ/mol
# GULP energy per Si atom -5591.770956 kJ/mol
# Density = 2.415649 g / cm^3
# Si number density = 24.211595 Si / 1000 Ang^3
#
#
#
# Elastic Constant Matrix: (Units=GPa)
#
#
# Indices 1 2 3 4 5 6 
#
# 1 186.6977 45.2047 69.7630 -3.1566 3.7870 -2.3981
# 2 45.2047 95.0143 44.4586 -25.2664 -2.1085 -10.1565
# 3 69.7630 44.4586 105.0723 -13.6057 7.2449 5.4287
# 4 -3.1566 -25.2664 -13.6057 31.4350 -5.3399 -5.2591
# 5 3.7870 -2.1085 7.2449 -5.3399 44.6308 8.3717
# 6 -2.3981 -10.1565 5.4287 -5.2591 8.3717 43.2883
#
#
#
# Elastic Compliance Matrix: (Units=1/GPa)
#
#
# Indices 1 2 3 4 5 6 
#
# 1 0.007516 -0.002343 -0.004374 -0.003074 -0.000430 0.000125
# 2 -0.002343 0.018260 -0.004864 0.013739 0.002374 0.005975
# 3 -0.004374 -0.004864 0.014910 0.001369 -0.001594 -0.002779
# 4 -0.003074 0.013739 0.001369 0.045185 0.004694 0.007463
# 5 -0.000430 0.002374 -0.001594 0.004694 0.024001 -0.003338
# 6 0.000125 0.005975 -0.002779 0.007463 -0.003338 0.026410
#
#
# Mechanical properties :
#
#
# Convention : Reuss Voigt Hill
#
# Bulk Modulus (GPa) = 57.06157 78.40411 67.73284
# Shear Modulus (GPa) = 30.25044 39.02802 34.63923
#
# Velocity S-wave (km/s) = 3.53855 4.01927 3.78655
# Velocity P-wave (km/s) = 6.34934 7.34796 6.86683
#
# Compressibility (1/GPa) = 0.01752493
#
# Stress axis : x y z
#
# Youngs Moduli (GPa) = 133.04432 54.76355 67.06809
#
# Poissons Ratio (x) = 0.12830 0.29335
# Poissons Ratio (y) = 0.31171 0.32623
# Poissons Ratio (z) = 0.58193 0.26638
#
# Static dielectric constant tensor:
#      x y z
#    x 1.937360 0.027770 -0.064080 
#    y 0.027770 2.072040 -0.001560 
#    z -0.064080 -0.001560 1.981560 
# 
# From -- ./inp_files/488399.got.cif
#   From: 2010.05.17/outbox.cif.g08.bks.cpg/sg2_245_cif.got.tgz:488399.got - 2010.06.03 11:33:40.
