data_PCOD9043570
_publ_section_title
;
Structure prediction by ZEFSAII (Michael W. Deem and Ramdas Pophale) SiO2 
 PCOD9043570
Probable space group: P -1
;
_chemical_formula_sum "Si O2"
_cell_formula_units_Z 12
_cell_length_a 7.397902
_cell_length_b 7.907720
_cell_length_c 13.148914
_cell_angle_alpha 131.237966
_cell_angle_beta 77.058943
_cell_angle_gamma 79.041894
_cell_volume 500.323060
_symmetry_space_group_name_H-M "P -1"
_symmetry_group_IT_number 2
_symmetry_cell_setting 'triclinic'
loop_
_space_group_symop_operation_xyz
x,y,z
-x,-y,-z
loop_
_atom_site_type_symbol
_atom_site_label
_atom_site_fract_x
_atom_site_fract_y
_atom_site_fract_z
Si Si1 0.567013 0.020427 0.383874
Si Si2 0.786140 0.002264 0.813024
Si Si3 0.071689 0.872252 0.549057
Si Si4 0.866551 0.258479 0.181133
Si Si5 0.578934 0.691973 0.680509
Si Si6 0.804502 0.500937 0.083459
O O1 0.434599 0.258913 0.420964
O O2 0.607372 0.774731 0.215110
O O3 0.500000 0.000000 0.500000
O O4 0.791283 0.015766 0.366286
O O5 0.607139 0.920006 0.819735
O O6 0.754933 0.276409 0.961876
O O7 0.859369 0.954253 0.668972
O O8 0.228151 0.572084 0.414336
O O9 0.000000 0.000000 0.500000
O O10 0.638318 0.294805 0.250951
O O11 0.853118 0.464104 0.183374
O O12 0.007652 0.213126 0.242872
O O13 0.000000 0.000000 0.000000
O O14 0.000000 0.500000 0.000000
#
# Coordination Sequence:
#
# PCOD9043570 Si02
#       6
#     2   2   2   2   2   2
#     4  12  25  44  74 109 152 197 253 314 378 449
#     4  11  25  45  74 107 151 201 252 307 382 454
#     4  12  26  46  73 110 154 201 255 313 379 454
#     4  10  23  45  72 106 148 198 243 315 381 435
#     4  12  26  47  75 111 153 197 257 315 379 455
#     4  11  23  45  73 105 149 197 246 309 378 447
#
# _framework density 23.984503
#
# number of rings (size 3 to 8) (size 9 to 14) (size 15 to 20)
#    0.000    0.667    3.333    4.000    4.667    3.333 
#    0.000    1.667    0.000    0.000    0.000    0.000 
#    0.000    0.000    0.000    0.000    0.000    0.000 
#
# Total GULP energy -67106.980825 kJ/mol
# GULP energy per Si atom -5592.248402 kJ/mol
# Density = 2.392991 g / cm^3
# Si number density = 23.984503 Si / 1000 Ang^3
#
#
#
# Elastic Constant Matrix: (Units=GPa)
#
#
# Indices 1 2 3 4 5 6 
#
# 1 114.0885 52.5778 38.0618 7.0854 5.4544 11.4611
# 2 52.5778 182.9340 59.3849 -7.8211 -3.9908 -15.4296
# 3 38.0618 59.3849 119.1674 19.2811 -7.9394 2.6843
# 4 7.0854 -7.8211 19.2811 50.9005 3.8496 -5.6724
# 5 5.4544 -3.9908 -7.9394 3.8496 31.6655 5.4760
# 6 11.4611 -15.4296 2.6843 -5.6724 5.4760 52.0282
#
#
#
# Elastic Compliance Matrix: (Units=1/GPa)
#
#
# Indices 1 2 3 4 5 6 
#
# 1 0.011313 -0.003004 -0.001938 -0.001506 -0.002072 -0.003229
# 2 -0.003004 0.007974 -0.003690 0.003482 -0.000456 0.003645
# 3 -0.001938 -0.003690 0.012039 -0.005411 0.003942 -0.002293
# 4 -0.001506 0.003482 -0.005411 0.023281 -0.004290 0.004633
# 5 -0.002072 -0.000456 0.003942 -0.004290 0.034070 -0.003936
# 6 -0.003229 0.003645 -0.002293 0.004633 -0.003936 0.022050
#
#
# Mechanical properties :
#
#
# Convention : Reuss Voigt Hill
#
# Bulk Modulus (GPa) = 71.11448 79.58209 75.34829
# Shear Modulus (GPa) = 37.68460 44.66322 41.17391
#
# Velocity S-wave (km/s) = 3.96814 4.31997 4.14779
# Velocity P-wave (km/s) = 7.12106 7.62466 7.37716
#
# Compressibility (1/GPa) = 0.01406183
#
# Stress axis : x y z
#
# Youngs Moduli (GPa) = 88.39247 125.40499 83.06192
#
# Poissons Ratio (x) = 0.37677 0.16097
# Poissons Ratio (y) = 0.26557 0.30650
# Poissons Ratio (z) = 0.17130 0.46275
#
# Static dielectric constant tensor:
#      x y z
#    x 1.919650 -0.036430 0.026060 
#    y -0.036430 2.081790 0.092970 
#    z 0.026060 0.092970 2.033150 
# 
# From -- ./inp_files/480905.got.cif
#   From: 2010.05.17/outbox.cif.g08.bks.cpg/sg2_241_cif.got.tgz:480905.got - 2010.06.03 11:33:40.
