data_PCOD9043846
_publ_section_title
;
Structure prediction by ZEFSAII (Michael W. Deem and Ramdas Pophale) SiO2 
 PCOD9043846
Probable space group: P -1
;
_chemical_formula_sum "Si O2"
_cell_formula_units_Z 14
_cell_length_a 4.667266
_cell_length_b 15.077016
_cell_length_c 12.237297
_cell_angle_alpha 137.445197
_cell_angle_beta 106.763511
_cell_angle_gamma 96.468209
_cell_volume 482.249354
_symmetry_space_group_name_H-M "P -1"
_symmetry_group_IT_number 2
_symmetry_cell_setting 'triclinic'
loop_
_space_group_symop_operation_xyz
x,y,z
-x,-y,-z
loop_
_atom_site_type_symbol
_atom_site_label
_atom_site_fract_x
_atom_site_fract_y
_atom_site_fract_z
Si Si1 0.609164 0.854996 0.830654
Si Si2 0.250835 0.654380 0.047893
Si Si3 0.815954 0.076973 0.695620
Si Si4 0.356285 0.680766 0.309863
Si Si5 0.570719 0.581167 0.443251
Si Si6 0.796080 0.358193 0.211782
Si Si7 0.292101 0.929878 0.666577
O O1 0.629025 0.715568 0.650922
O O2 0.417901 0.784134 0.860932
O O3 0.647789 0.111231 0.241809
O O4 0.000000 0.000000 0.000000
O O5 0.379871 0.679379 0.961183
O O6 0.997078 0.477218 0.868765
O O7 0.050405 0.745002 0.141687
O O8 0.503657 0.707144 0.227508
O O9 0.667720 0.060836 0.787239
O O10 0.036519 0.991283 0.655042
O O11 0.500000 0.000000 0.500000
O O12 0.599354 0.654982 0.395301
O O13 0.276299 0.799403 0.467721
O O14 0.807796 0.507540 0.398408
O O15 0.198488 0.431586 0.290011
#
# Coordination Sequence:
#
# PCOD9043846 Si02
#       7
#     2   2   2   2   2   2   2
#     4  11  27  52  85 119 165 222 285 347 409 497
#     4  10  23  45  77 117 160 205 271 332 408 500
#     4  12  26  50  78 115 159 211 260 333 424 499
#     4   9  21  45  75 117 156 206 269 343 402 486
#     4  10  24  49  81 115 163 217 275 344 421 489
#     4  11  25  50  78 118 163 221 273 341 417 493
#     4  11  27  50  77 114 161 211 269 335 416 489
#
# _framework density 29.030626000000002
#
# number of rings (size 3 to 8) (size 9 to 14) (size 15 to 20)
#    0.000    1.429    1.429    1.286    0.000   14.286 
#    2.571    6.429    0.000    0.000    0.000    0.000 
#    0.000    0.000    0.000    0.000    0.000    0.000 
#
# Total GULP energy -78319.429254 kJ/mol
# GULP energy per Si atom -5594.244947 kJ/mol
# Density = 2.896455 g / cm^3
# Si number density = 29.030626 Si / 1000 Ang^3
#
#
#
# Elastic Constant Matrix: (Units=GPa)
#
#
# Indices 1 2 3 4 5 6 
#
# 1 148.4150 62.1693 32.6348 -14.5039 1.0301 -28.5972
# 2 62.1693 236.6699 86.3864 -41.6863 -11.7397 -13.7062
# 3 32.6348 86.3864 147.3528 6.0511 -4.1342 -6.2428
# 4 -14.5039 -41.6863 6.0511 76.4795 -3.4810 -10.1716
# 5 1.0301 -11.7397 -4.1342 -3.4810 43.8528 4.5358
# 6 -28.5972 -13.7062 -6.2428 -10.1716 4.5358 62.6923
#
#
#
# Elastic Compliance Matrix: (Units=1/GPa)
#
#
# Indices 1 2 3 4 5 6 
#
# 1 0.008406 -0.001474 -0.000922 0.001313 -0.000958 0.003703
# 2 -0.001474 0.006811 -0.003739 0.003935 0.001719 0.000959
# 3 -0.000922 -0.003739 0.009268 -0.003064 -0.000267 -0.000793
# 4 0.001313 0.003935 -0.003064 0.016275 0.001645 0.003676
# 5 -0.000958 0.001719 -0.000267 0.001645 0.023549 -0.001524
# 6 0.003703 0.000959 -0.000793 0.003676 -0.001524 0.018477
#
#
# Mechanical properties :
#
#
# Convention : Reuss Voigt Hill
#
# Bulk Modulus (GPa) = 81.86407 99.42432 90.64420
# Shear Modulus (GPa) = 50.43991 60.02139 55.23065
#
# Velocity S-wave (km/s) = 4.17282 4.55193 4.36649
# Velocity P-wave (km/s) = 7.17475 7.87078 7.53081
#
# Compressibility (1/GPa) = 0.01221537
#
# Stress axis : x y z
#
# Youngs Moduli (GPa) = 118.95948 146.81947 107.90300
#
# Poissons Ratio (x) = 0.21634 0.09946
# Poissons Ratio (y) = 0.17529 0.40350
# Poissons Ratio (z) = 0.10966 0.54902
#
# Static dielectric constant tensor:
#      x y z
#    x 2.300520 0.017100 0.148920 
#    y 0.017100 2.461740 0.097670 
#    z 0.148920 0.097670 2.403190 
# 
# From -- ./inp_files/369175.got.cif
#   From: 2010.05.17/outbox.cif.g08.bks.cpg/sg2_185_cif.got.tgz:369175.got - 2010.06.03 11:33:40.
