data_PCOD9043421
_publ_section_title
;
Structure prediction by ZEFSAII (Michael W. Deem and Ramdas Pophale) SiO2 
 PCOD9043421
Probable space group: P -1
;
_chemical_formula_sum "Si O2"
_cell_formula_units_Z 14
_cell_length_a 9.736476
_cell_length_b 8.859752
_cell_length_c 10.578778
_cell_angle_alpha 69.199876
_cell_angle_beta 68.765346
_cell_angle_gamma 116.873293
_cell_volume 592.895069
_symmetry_space_group_name_H-M "P -1"
_symmetry_group_IT_number 2
_symmetry_cell_setting 'triclinic'
loop_
_space_group_symop_operation_xyz
x,y,z
-x,-y,-z
loop_
_atom_site_type_symbol
_atom_site_label
_atom_site_fract_x
_atom_site_fract_y
_atom_site_fract_z
Si Si1 0.748076 0.462275 0.653407
Si Si2 0.314066 0.859546 0.917398
Si Si3 0.991058 0.038217 0.638913
Si Si4 0.396518 0.595217 0.541079
Si Si5 0.392524 0.148708 0.031978
Si Si6 0.037298 0.512118 0.725500
Si Si7 0.266966 0.961739 0.627532
O O1 0.882043 0.705243 0.484824
O O2 0.627111 0.327650 0.608328
O O3 0.894721 0.439103 0.674144
O O4 0.579562 0.380784 0.838260
O O5 0.504122 0.904125 0.893231
O O6 0.308591 0.904978 0.761749
O O7 0.122009 0.606608 0.075498
O O8 0.294138 0.987729 0.991272
O O9 0.104001 0.980584 0.692480
O O10 0.000000 0.000000 0.500000
O O11 0.777058 0.895096 0.815392
O O12 0.500000 0.500000 0.500000
O O13 0.172420 0.451043 0.706719
O O14 0.534611 0.790567 0.536207
O O15 0.183443 0.771722 0.613233
#
# Coordination Sequence:
#
# PCOD9043421 Si02
#       7
#     2   2   2   2   2   2   2
#     4  11  23  47  71 102 134 193 241 279 351 425
#     4  10  23  45  71 101 136 187 242 284 357 416
#     4  12  26  45  70 105 148 188 234 290 360 416
#     4  12  25  42  68 104 141 182 240 292 350 419
#     4  10  24  45  73 102 140 186 240 295 340 428
#     4  11  25  44  70  99 142 191 229 293 356 423
#     4  12  25  44  67 106 145 179 236 291 360 413
#
# _framework density 23.612946999999998
#
# number of rings (size 3 to 8) (size 9 to 14) (size 15 to 20)
#    0.000    0.857    4.286    2.143    2.000    3.429 
#    0.000    0.000    0.000    0.000    0.000    0.000 
#    0.000    0.000    0.000    0.000    0.000    0.000 
#
# Total GULP energy -78136.420460 kJ/mol
# GULP energy per Si atom -5581.172890 kJ/mol
# Density = 2.355920 g / cm^3
# Si number density = 23.612947 Si / 1000 Ang^3
#
#
#
# Elastic Constant Matrix: (Units=GPa)
#
#
# Indices 1 2 3 4 5 6 
#
# 1 117.0859 22.6931 33.8132 5.3490 -31.9413 4.5023
# 2 22.6931 77.1690 21.4001 -8.1483 -16.6942 10.6407
# 3 33.8132 21.4001 97.3947 5.9448 -32.8645 2.3510
# 4 5.3490 -8.1483 5.9448 27.0567 0.6030 0.8148
# 5 -31.9413 -16.6942 -32.8645 0.6030 48.9143 3.4379
# 6 4.5023 10.6407 2.3510 0.8148 3.4379 32.6251
#
#
#
# Elastic Compliance Matrix: (Units=1/GPa)
#
#
# Indices 1 2 3 4 5 6 
#
# 1 0.011011 -0.001672 -0.001281 -0.002487 0.005891 -0.001440
# 2 -0.001672 0.016080 -0.002050 0.005711 0.003325 -0.005359
# 3 -0.001281 -0.002050 0.014128 -0.003620 0.008066 -0.000932
# 4 -0.002487 0.005711 -0.003620 0.040081 -0.002461 -0.002000
# 5 0.005891 0.003325 0.008066 -0.002461 0.031277 -0.005713
# 6 -0.001440 -0.005359 -0.000932 -0.002000 -0.005713 0.033317
#
#
# Mechanical properties :
#
#
# Convention : Reuss Voigt Hill
#
# Bulk Modulus (GPa) = 32.03850 49.71802 40.87826
# Shear Modulus (GPa) = 30.06533 35.96876 33.01704
#
# Velocity S-wave (km/s) = 3.57214 3.90714 3.74339
# Velocity P-wave (km/s) = 5.53274 6.43859 6.00278
#
# Compressibility (1/GPa) = 0.03121245
#
# Stress axis : x y z
#
# Youngs Moduli (GPa) = 90.82024 62.18872 70.78159
#
# Poissons Ratio (x) = 0.10400 0.09067
# Poissons Ratio (y) = 0.15188 0.14509
# Poissons Ratio (z) = 0.11634 0.12748
#
# Static dielectric constant tensor:
#      x y z
#    x 1.870860 0.000080 -0.020080 
#    y 0.000080 2.013690 -0.033100 
#    z -0.020080 -0.033100 1.951210 
# 
# From -- ./inp_files/333701.got.cif
#   From: 2010.05.17/outbox.cif.g08.bks.cpg/sg2_167_cif.got.tgz:333701.got - 2010.06.03 11:33:40.
