data_PCOD9043955
_publ_section_title
;
Structure prediction by ZEFSAII (Michael W. Deem and Ramdas Pophale) SiO2 
 PCOD9043955
Probable space group: P -1
;
_chemical_formula_sum "Si O2"
_cell_formula_units_Z 14
_cell_length_a 9.206829
_cell_length_b 9.025246
_cell_length_c 15.627490
_cell_angle_alpha 112.515803
_cell_angle_beta 99.129394
_cell_angle_gamma 132.748259
_cell_volume 693.187120
_symmetry_space_group_name_H-M "P -1"
_symmetry_group_IT_number 2
_symmetry_cell_setting 'triclinic'
loop_
_space_group_symop_operation_xyz
x,y,z
-x,-y,-z
loop_
_atom_site_type_symbol
_atom_site_label
_atom_site_fract_x
_atom_site_fract_y
_atom_site_fract_z
Si Si1 0.929612 0.757465 0.173007
Si Si2 0.931420 0.096787 0.960499
Si Si3 0.657099 0.383341 0.224078
Si Si4 0.536769 0.190287 0.603391
Si Si5 0.268312 0.351098 0.390561
Si Si6 0.015573 0.335618 0.506672
Si Si7 0.014782 0.541746 0.838999
O O1 0.748563 0.587664 0.202241
O O2 0.869355 0.728178 0.060948
O O3 0.028140 0.661546 0.159317
O O4 0.123125 0.069948 0.279481
O O5 0.639918 0.847727 0.844960
O O6 0.943075 0.266211 0.057172
O O7 0.000000 0.000000 0.000000
O O8 0.807511 0.521626 0.359647
O O9 0.755166 0.302467 0.170247
O O10 0.631371 0.434369 0.621216
O O11 0.757975 0.341812 0.721179
O O12 0.500000 0.000000 0.500000
O O13 0.260731 0.969597 0.564393
O O14 0.500000 0.500000 0.500000
O O15 0.104269 0.304000 0.431370
O O16 0.000000 0.500000 0.500000
#
# Coordination Sequence:
#
# PCOD9043955 Si02
#       7
#     2   2   2   2   2   2   2
#     4  10  25  44  65  98 135 178 227 279 336 400
#     4  12  25  44  73  99 131 182 234 283 342 397
#     4  10  24  44  69  98 139 177 228 277 345 405
#     4  12  22  44  68 103 142 171 230 286 339 411
#     4  12  24  40  66  97 140 181 225 277 336 408
#     4  12  25  41  72 105 135 183 222 280 351 409
#     4  10  23  46  67  97 137 179 222 286 335 405
#
# _framework density 20.196567999999999
#
# number of rings (size 3 to 8) (size 9 to 14) (size 15 to 20)
#    0.857    0.000    2.857    4.286    2.000    5.143 
#    0.000    0.000    0.000    0.000    0.000    0.000 
#    0.000    0.000    0.000    0.000    0.000    0.000 
#
# Total GULP energy -77990.039779 kJ/mol
# GULP energy per Si atom -5570.717127 kJ/mol
# Density = 2.015060 g / cm^3
# Si number density = 20.196568 Si / 1000 Ang^3
#
#
#
# Elastic Constant Matrix: (Units=GPa)
#
#
# Indices 1 2 3 4 5 6 
#
# 1 98.0960 41.3936 37.8753 9.1286 -11.4505 -4.7219
# 2 41.3936 119.1544 34.0597 -10.1250 -8.4132 -6.8377
# 3 37.8753 34.0597 76.2468 -7.0937 0.6253 -4.0482
# 4 9.1286 -10.1250 -7.0937 32.1204 -8.2953 5.4685
# 5 -11.4505 -8.4132 0.6253 -8.2953 42.1567 4.1338
# 6 -4.7219 -6.8377 -4.0482 5.4685 4.1338 44.0670
#
#
#
# Elastic Compliance Matrix: (Units=1/GPa)
#
#
# Indices 1 2 3 4 5 6 
#
# 1 0.015175 -0.003789 -0.006417 -0.006574 0.002062 0.001071
# 2 -0.003789 0.010997 -0.002617 0.004440 0.002047 0.000317
# 3 -0.006417 -0.002617 0.017912 0.004501 -0.001660 0.000149
# 4 -0.006574 0.004440 0.004501 0.038053 0.007010 -0.004982
# 5 0.002062 0.002047 -0.001660 0.007010 0.026384 -0.002959
# 6 0.001071 0.000317 0.000149 -0.004982 -0.002959 0.023766
#
#
# Mechanical properties :
#
#
# Convention : Reuss Voigt Hill
#
# Bulk Modulus (GPa) = 54.23705 57.79494 56.01599
# Shear Modulus (GPa) = 30.47322 35.68007 33.07664
#
# Velocity S-wave (km/s) = 3.88858 4.20770 4.05129
# Velocity P-wave (km/s) = 6.86107 7.23081 7.04837
#
# Compressibility (1/GPa) = 0.01843758
#
# Stress axis : x y z
#
# Youngs Moduli (GPa) = 65.89981 90.93594 55.82758
#
# Poissons Ratio (x) = 0.34454 0.35825
# Poissons Ratio (y) = 0.24968 0.14611
# Poissons Ratio (z) = 0.42289 0.23799
#
# Static dielectric constant tensor:
#      x y z
#    x 1.621880 0.046110 -0.016910 
#    y 0.046110 1.679470 -0.018640 
#    z -0.016910 -0.018640 1.702500 
# 
# From -- ./inp_files/493438.got.cif
#   From: 2010.05.17/outbox.cif.g08.bks.cpg/sg2_247_cif.got.tgz:493438.got - 2010.06.03 11:33:40.
