data_PCOD9043025
_publ_section_title
;
Structure prediction by ZEFSAII (Michael W. Deem and Ramdas Pophale) SiO2 
 PCOD9043025
Probable space group: P -1
;
_chemical_formula_sum "Si O2"
_cell_formula_units_Z 14
_cell_length_a 14.224069
_cell_length_b 14.668253
_cell_length_c 9.177589
_cell_angle_alpha 125.571463
_cell_angle_beta 138.528974
_cell_angle_gamma 30.861709
_cell_volume 639.743521
_symmetry_space_group_name_H-M "P -1"
_symmetry_group_IT_number 2
_symmetry_cell_setting 'triclinic'
loop_
_space_group_symop_operation_xyz
x,y,z
-x,-y,-z
loop_
_atom_site_type_symbol
_atom_site_label
_atom_site_fract_x
_atom_site_fract_y
_atom_site_fract_z
Si Si1 0.037127 0.832771 0.811686
Si Si2 0.194913 0.504693 0.573989
Si Si3 0.093697 0.381194 0.142922
Si Si4 0.641375 0.303964 0.431822
Si Si5 0.459923 0.787173 0.515236
Si Si6 0.396778 0.764984 0.995991
Si Si7 0.029658 0.165392 0.928101
O O1 0.214937 0.963383 0.325361
O O2 0.066955 0.796197 0.985455
O O3 0.060039 0.700151 0.632779
O O4 0.228940 0.795351 0.932856
O O5 0.049217 0.490576 0.330994
O O6 0.386368 0.398139 0.568580
O O7 0.353058 0.381471 0.781466
O O8 0.371019 0.211378 0.294725
O O9 0.010538 0.307504 0.000175
O O10 0.000000 0.500000 0.000000
O O11 0.500000 0.500000 0.500000
O O12 0.567623 0.242841 0.384135
O O13 0.607191 0.296049 0.218166
O O14 0.896390 0.176008 0.662122
O O15 0.284117 0.957283 0.032272
#
# Coordination Sequence:
#
# PCOD9043025 Si02
#       7
#     2   2   2   2   2   2   2
#     4  12  23  43  73 104 139 182 232 290 341 408
#     4  10  24  44  70  99 140 182 231 279 348 406
#     4  10  25  47  70  98 146 181 226 290 343 419
#     4  12  24  41  70 101 138 184 233 286 348 397
#     4  10  23  45  68 100 137 182 228 284 341 403
#     4  12  24  42  70 107 142 172 242 287 340 415
#     4  12  24  43  71  99 143 186 224 287 352 407
#
# _framework density 21.883769999999998
#
# number of rings (size 3 to 8) (size 9 to 14) (size 15 to 20)
#    0.857    0.000    2.857    4.714    2.000    2.857 
#    0.000    4.286    0.000    0.000    0.000    0.000 
#    0.000    0.000    0.000    0.000    0.000    0.000 
#
# Total GULP energy -78249.905422 kJ/mol
# GULP energy per Si atom -5589.278959 kJ/mol
# Density = 2.183396 g / cm^3
# Si number density = 21.883770 Si / 1000 Ang^3
#
#
#
# Elastic Constant Matrix: (Units=GPa)
#
#
# Indices 1 2 3 4 5 6 
#
# 1 89.0205 23.8135 53.8618 4.0727 -20.2684 17.2740
# 2 23.8135 77.4087 21.0993 22.9943 -13.6977 5.8073
# 3 53.8618 21.0993 123.1777 12.7366 -31.4830 2.4844
# 4 4.0727 22.9943 12.7366 36.9474 4.5872 -1.4704
# 5 -20.2684 -13.6977 -31.4830 4.5872 31.8917 0.3619
# 6 17.2740 5.8073 2.4844 -1.4704 0.3619 26.3844
#
#
#
# Elastic Compliance Matrix: (Units=1/GPa)
#
#
# Indices 1 2 3 4 5 6 
#
# 1 0.019139 -0.002690 -0.006622 0.000840 0.004479 -0.011330
# 2 -0.002690 0.019552 0.002138 -0.014105 0.010869 -0.003679
# 3 -0.006622 0.002138 0.014357 -0.006944 0.011860 0.001963
# 4 0.000840 -0.014105 -0.006944 0.040643 -0.018290 0.005724
# 5 0.004479 0.010869 0.011860 -0.018290 0.053303 -0.008192
# 6 -0.011330 -0.003679 0.001963 0.005724 -0.008192 0.046375
#
#
# Mechanical properties :
#
#
# Convention : Reuss Voigt Hill
#
# Bulk Modulus (GPa) = 25.83899 54.12846 39.98373
# Shear Modulus (GPa) = 22.66354 31.76685 27.21519
#
# Velocity S-wave (km/s) = 3.22162 3.81414 3.53033
# Velocity P-wave (km/s) = 5.06670 6.64719 5.91001
#
# Compressibility (1/GPa) = 0.03870120
#
# Stress axis : x y z
#
# Youngs Moduli (GPa) = 52.24843 51.14456 69.65096
#
# Poissons Ratio (x) = 0.13758 0.46121
# Poissons Ratio (y) = 0.14054 -0.14890
# Poissons Ratio (z) = 0.34598 -0.10933
#
# Static dielectric constant tensor:
#      x y z
#    x 1.802540 -0.026240 0.002940 
#    y -0.026240 1.811290 -0.021270 
#    z 0.002940 -0.021270 1.814500 
# 
# From -- ./inp_files/314155.got.cif
#   From: 2010.05.17/outbox.cif.g08.bks.cpg/sg2_158_cif.got.tgz:314155.got - 2010.06.03 11:33:40.
