data_PCOD9043231
_publ_section_title
;
Structure prediction by ZEFSAII (Michael W. Deem and Ramdas Pophale) SiO2 
 PCOD9043231
Probable space group: P -1
;
_chemical_formula_sum "Si O2"
_cell_formula_units_Z 16
_cell_length_a 11.094910
_cell_length_b 13.090369
_cell_length_c 8.732480
_cell_angle_alpha 78.719416
_cell_angle_beta 95.028937
_cell_angle_gamma 147.879690
_cell_volume 653.869045
_symmetry_space_group_name_H-M "P -1"
_symmetry_group_IT_number 2
_symmetry_cell_setting 'triclinic'
loop_
_space_group_symop_operation_xyz
x,y,z
-x,-y,-z
loop_
_atom_site_type_symbol
_atom_site_label
_atom_site_fract_x
_atom_site_fract_y
_atom_site_fract_z
Si Si1 0.748098 0.176673 0.904198
Si Si2 0.293249 0.332963 0.647686
Si Si3 0.029729 0.766163 0.841684
Si Si4 0.571943 0.355760 0.277670
Si Si5 0.133237 0.977115 0.514316
Si Si6 0.247184 0.834566 0.451163
Si Si7 0.094163 0.595973 0.750988
Si Si8 0.501700 0.611759 0.054180
O O1 0.732271 0.156419 0.728022
O O2 0.884332 0.385645 0.871755
O O3 0.882665 0.176957 0.991986
O O4 0.500000 0.000000 0.000000
O O5 0.500000 0.500000 0.500000
O O6 0.282013 0.437099 0.706512
O O7 0.349705 0.293744 0.803662
O O8 0.082471 0.138700 0.574641
O O9 0.756869 0.553916 0.870806
O O10 0.090682 0.911114 0.704796
O O11 0.143346 0.741000 0.800785
O O12 0.722424 0.362362 0.265606
O O13 0.375878 0.202096 0.428800
O O14 0.450661 0.281270 0.119096
O O15 0.157756 0.880968 0.471039
O O16 0.068309 0.625634 0.571151
O O17 0.500000 0.000000 0.500000
O O18 0.500000 0.500000 0.000000
#
# Coordination Sequence:
#
# PCOD9043231 Si02
#       8
#     2   2   2   2   2   2   2   2
#     4  12  25  38  64 101 137 185 231 281 345 421
#     4  11  24  47  70  98 137 183 240 291 342 403
#     4  11  24  45  66 102 143 178 224 295 347 414
#     4  11  24  44  74 100 134 187 229 288 359 417
#     4  11  24  43  73  99 137 186 233 283 350 422
#     4  11  23  44  65  98 143 178 226 282 352 428
#     4  11  23  43  69  98 142 182 226 282 364 421
#     4  10  23  45  69  94 136 182 232 289 348 399
#
# _framework density 24.469732
#
# number of rings (size 3 to 8) (size 9 to 14) (size 15 to 20)
#    0.000    1.000    3.750    3.000    1.750    2.000 
#    0.000    1.250    0.000    0.000    0.000    0.000 
#    0.000    0.000    0.000    0.000    0.000    0.000 
#
# Total GULP energy -89338.437515 kJ/mol
# GULP energy per Si atom -5583.652345 kJ/mol
# Density = 2.441404 g / cm^3
# Si number density = 24.469732 Si / 1000 Ang^3
#
#
#
# Elastic Constant Matrix: (Units=GPa)
#
#
# Indices 1 2 3 4 5 6 
#
# 1 81.4963 0.8578 9.3753 -3.0485 0.1339 3.2139
# 2 0.8578 87.6528 38.8692 2.5716 13.9529 6.3517
# 3 9.3753 38.8692 180.0680 -4.4265 23.1579 0.1686
# 4 -3.0485 2.5716 -4.4265 52.7507 3.3528 -2.9502
# 5 0.1339 13.9529 23.1579 3.3528 36.1656 -1.2710
# 6 3.2139 6.3517 0.1686 -2.9502 -1.2710 28.0996
#
#
#
# Elastic Compliance Matrix: (Units=1/GPa)
#
#
# Indices 1 2 3 4 5 6 
#
# 1 0.012426 0.000246 -0.000713 0.000554 0.000215 -0.001405
# 2 0.000246 0.013325 -0.002440 -0.000793 -0.003621 -0.003273
# 3 -0.000713 -0.002440 0.006565 0.000870 -0.003322 0.000535
# 4 0.000554 -0.000793 0.000870 0.019341 -0.001974 0.002052
# 5 0.000215 -0.003621 -0.003322 -0.001974 0.031428 0.002028
# 6 -0.001405 -0.003273 0.000535 0.002052 0.002028 0.036792
#
#
# Mechanical properties :
#
#
# Convention : Reuss Voigt Hill
#
# Bulk Modulus (GPa) = 37.73241 49.71353 43.72297
# Shear Modulus (GPa) = 37.16785 43.41083 40.28934
#
# Velocity S-wave (km/s) = 3.90158 4.21653 4.06211
# Velocity P-wave (km/s) = 5.97912 6.63822 6.31727
#
# Compressibility (1/GPa) = 0.02650241
#
# Stress axis : x y z
#
# Youngs Moduli (GPa) = 80.47866 75.04690 152.31551
#
# Poissons Ratio (x) = -0.01844 0.10855
# Poissons Ratio (y) = -0.01978 0.37163
# Poissons Ratio (z) = 0.05736 0.18310
#
# Static dielectric constant tensor:
#      x y z
#    x 1.998780 -0.012720 0.033710 
#    y -0.012720 2.082830 0.041200 
#    z 0.033710 0.041200 2.051660 
# 
# From -- ./inp_files/272556.got.cif
#   From: 2010.05.17/outbox.cif.g08.bks.cpg/sg2_137_cif.got.tgz:272556.got - 2010.06.03 11:33:40.
