data_PCOD9043408
_publ_section_title
;
Structure prediction by ZEFSAII (Michael W. Deem and Ramdas Pophale) SiO2 
 PCOD9043408
Probable space group: P -1
;
_chemical_formula_sum "Si O2"
_cell_formula_units_Z 16
_cell_length_a 19.624580
_cell_length_b 8.776322
_cell_length_c 5.236202
_cell_angle_alpha 116.205689
_cell_angle_beta 56.718563
_cell_angle_gamma 117.580270
_cell_volume 646.496468
_symmetry_space_group_name_H-M "P -1"
_symmetry_group_IT_number 2
_symmetry_cell_setting 'triclinic'
loop_
_space_group_symop_operation_xyz
x,y,z
-x,-y,-z
loop_
_atom_site_type_symbol
_atom_site_label
_atom_site_fract_x
_atom_site_fract_y
_atom_site_fract_z
Si Si1 0.868932 0.887039 0.598542
Si Si2 0.420091 0.030635 0.341191
Si Si3 0.143641 0.479527 0.838388
Si Si4 0.514428 0.396093 0.642351
Si Si5 0.325166 0.704129 0.631992
Si Si6 0.108048 0.661569 0.558287
Si Si7 0.982957 0.835720 0.727418
Si Si8 0.260952 0.971153 0.310275
O O1 0.879248 0.732037 0.274535
O O2 0.781347 0.922441 0.722198
O O3 0.892615 0.808750 0.756683
O O4 0.940867 0.079026 0.575771
O O5 0.456227 0.190469 0.585816
O O6 0.344757 0.077658 0.371429
O O7 0.374467 0.839468 0.415507
O O8 0.500000 0.000000 0.000000
O O9 0.241955 0.555320 0.601401
O O10 0.097499 0.557372 0.767982
O O11 0.137064 0.560773 0.188868
O O12 0.500000 0.500000 0.500000
O O13 0.610182 0.385343 0.439924
O O14 0.500000 0.500000 0.000000
O O15 0.294534 0.830614 0.980991
O O16 0.019489 0.691931 0.679641
O O17 0.181942 0.853668 0.561323
O O18 0.000000 0.000000 0.000000
#
# Coordination Sequence:
#
# PCOD9043408 Si02
#       8
#     2   2   2   2   2   2   2   2
#     4  10  25  43  69 106 139 183 238 297 351 417
#     4  12  24  46  75 100 138 193 248 287 361 440
#     4  11  25  45  70 105 142 182 234 297 355 416
#     4  12  29  45  69 107 143 177 235 305 356 410
#     4  11  25  46  71  99 142 190 240 286 363 435
#     4  10  24  45  70 101 142 184 232 286 359 419
#     4  10  24  44  71 100 142 190 237 284 346 434
#     4  10  23  45  71 100 135 192 237 291 349 439
#
# _framework density 24.748781000000001
#
# number of rings (size 3 to 8) (size 9 to 14) (size 15 to 20)
#    0.000    1.250    2.500    1.125   12.250    1.000 
#    0.000    0.000    0.000    0.000    0.000    0.000 
#    0.000    0.000    0.000    0.000    0.000    0.000 
#
# Total GULP energy -89532.702456 kJ/mol
# GULP energy per Si atom -5595.793903 kJ/mol
# Density = 2.469245 g / cm^3
# Si number density = 24.748781 Si / 1000 Ang^3
#
#
#
# Elastic Constant Matrix: (Units=GPa)
#
#
# Indices 1 2 3 4 5 6 
#
# 1 223.2083 50.7081 48.4612 10.2776 -19.5169 -25.2475
# 2 50.7081 110.1518 20.0045 1.5375 -6.7281 6.9742
# 3 48.4612 20.0045 95.4654 19.3908 -4.7287 0.2916
# 4 10.2776 1.5375 19.3908 44.4228 -0.8887 -3.7268
# 5 -19.5169 -6.7281 -4.7287 -0.8887 45.5975 4.3266
# 6 -25.2475 6.9742 0.2916 -3.7268 4.3266 53.3411
#
#
#
# Elastic Compliance Matrix: (Units=1/GPa)
#
#
# Indices 1 2 3 4 5 6 
#
# 1 0.006069 -0.002430 -0.002511 0.000068 0.001689 0.003072
# 2 -0.002430 0.010581 -0.001033 0.000446 0.000665 -0.002551
# 3 -0.002511 -0.001033 0.013034 -0.005195 0.000166 -0.001501
# 4 0.000068 0.000446 -0.005195 0.024892 -0.000125 0.001751
# 5 0.001689 0.000665 0.000166 -0.000125 0.022876 -0.001153
# 6 0.003072 -0.002551 -0.001501 0.001751 -0.001153 0.020759
#
#
# Mechanical properties :
#
#
# Convention : Reuss Voigt Hill
#
# Bulk Modulus (GPa) = 56.38693 74.13035 65.25864
# Shear Modulus (GPa) = 43.07626 49.31572 46.19599
#
# Velocity S-wave (km/s) = 4.17650 4.46876 4.32510
# Velocity P-wave (km/s) = 6.78902 7.52626 7.16712
#
# Compressibility (1/GPa) = 0.01773461
#
# Stress axis : x y z
#
# Youngs Moduli (GPa) = 164.75861 94.51169 76.71996
#
# Poissons Ratio (x) = 0.22969 0.19266
# Poissons Ratio (y) = 0.40041 0.07929
# Poissons Ratio (z) = 0.41375 0.09767
#
# Static dielectric constant tensor:
#      x y z
#    x 1.964130 -0.036120 0.032040 
#    y -0.036120 2.150700 -0.105420 
#    z 0.032040 -0.105420 2.001210 
# 
# From -- ./inp_files/107500.got.cif
#   From: 2010.05.17/outbox.cif.g08.bks.cpg/sg2_54_cif.got.tgz:107500.got - 2010.06.03 11:33:40.
