data_PCOD9043625
_publ_section_title
;
Structure prediction by ZEFSAII (Michael W. Deem and Ramdas Pophale) SiO2 
 PCOD9043625
Probable space group: P -1
;
_chemical_formula_sum "Si O2"
_cell_formula_units_Z 12
_cell_length_a 12.422222
_cell_length_b 8.961742
_cell_length_c 12.712256
_cell_angle_alpha 138.080290
_cell_angle_beta 146.593562
_cell_angle_gamma 35.396076
_cell_volume 442.249617
_symmetry_space_group_name_H-M "P -1"
_symmetry_group_IT_number 2
_symmetry_cell_setting 'triclinic'
loop_
_space_group_symop_operation_xyz
x,y,z
-x,-y,-z
loop_
_atom_site_type_symbol
_atom_site_label
_atom_site_fract_x
_atom_site_fract_y
_atom_site_fract_z
Si Si1 0.516458 0.756748 0.123714
Si Si2 0.745740 0.461128 0.711241
Si Si3 0.741581 0.772452 0.522093
Si Si4 0.354530 0.381587 0.071623
Si Si5 0.843312 0.299625 0.489860
Si Si6 0.991805 0.062277 0.871290
O O1 0.605651 0.762304 0.081818
O O2 0.251656 0.979978 0.043707
O O3 0.500000 0.500000 0.000000
O O4 0.667960 0.785869 0.348987
O O5 0.500000 0.500000 0.500000
O O6 0.734050 0.638395 0.894024
O O7 0.843282 0.461727 0.678106
O O8 0.896613 0.173207 0.734729
O O9 0.932878 0.844365 0.730851
O O10 0.849894 0.475678 0.494923
O O11 0.500000 0.000000 0.500000
O O12 0.602090 0.328451 0.278119
O O13 0.180991 0.689076 0.068127
O O14 0.000000 0.000000 0.500000
#
# Coordination Sequence:
#
# PCOD9043625 Si02
#       6
#     2   2   2   2   2   2
#     4  12  24  42  68 109 145 177 236 306 351 417
#     4   8  17  38  70  96 136 189 229 272 361 424
#     4  12  24  44  73 111 139 184 245 295 351 423
#     4   9  20  42  67 103 135 187 237 283 352 423
#     4  11  20  39  72 105 142 188 237 285 359 434
#     4  10  23  45  73 104 137 190 236 295 359 407
#
# _framework density 27.133996
#
# number of rings (size 3 to 8) (size 9 to 14) (size 15 to 20)
#    1.000    0.667    3.333    1.000    0.000    3.333 
#    0.000    1.667    3.667   23.000    0.000    0.000 
#    0.000    0.000    0.000    0.000    0.000    0.000 
#
# Total GULP energy -67080.517230 kJ/mol
# GULP energy per Si atom -5590.043102 kJ/mol
# Density = 2.707224 g / cm^3
# Si number density = 27.133996 Si / 1000 Ang^3
#
#
#
# Elastic Constant Matrix: (Units=GPa)
#
#
# Indices 1 2 3 4 5 6 
#
# 1 98.6971 55.8126 64.1323 -2.0025 -16.1059 -2.2003
# 2 55.8126 183.2995 59.4654 -11.7928 -1.7048 6.4983
# 3 64.1323 59.4654 168.9323 -10.7632 -52.4197 -4.5429
# 4 -2.0025 -11.7928 -10.7632 48.2329 -2.3357 -6.1170
# 5 -16.1059 -1.7048 -52.4197 -2.3357 57.1779 15.9690
# 6 -2.2003 6.4983 -4.5429 -6.1170 15.9690 38.7868
#
#
#
# Elastic Compliance Matrix: (Units=1/GPa)
#
#
# Indices 1 2 3 4 5 6 
#
# 1 0.014897 -0.003088 -0.004797 -0.001126 -0.000580 0.000862
# 2 -0.003088 0.007102 -0.001994 0.000989 -0.002309 -0.000492
# 3 -0.004797 -0.001994 0.011607 0.002088 0.009974 -0.002356
# 4 -0.001126 0.000989 0.002088 0.021825 0.001754 0.002735
# 5 -0.000580 -0.002309 0.009974 0.001754 0.029344 -0.010283
# 6 0.000862 -0.000492 -0.002356 0.002735 -0.010283 0.030302
#
#
# Mechanical properties :
#
#
# Convention : Reuss Voigt Hill
#
# Bulk Modulus (GPa) = 72.21424 89.97217 81.09321
# Shear Modulus (GPa) = 35.85427 46.94077 41.39752
#
# Velocity S-wave (km/s) = 3.63902 4.16379 3.91022
# Velocity P-wave (km/s) = 6.65795 7.50644 7.09489
#
# Compressibility (1/GPa) = 0.01384768
#
# Stress axis : x y z
#
# Youngs Moduli (GPa) = 67.12745 140.79620 86.15356
#
# Poissons Ratio (x) = 0.43480 0.41328
# Poissons Ratio (y) = 0.20730 0.17182
# Poissons Ratio (z) = 0.32201 0.28080
#
# Static dielectric constant tensor:
#      x y z
#    x -1.301080 0.777130 1.482800 
#    y 0.777130 1.999380 -0.323040 
#    z 1.482800 -0.323040 1.318170 
# 
# From -- ./inp_files/538759.got.cif
#   From: 2010.05.17/outbox.cif.g08.bks.cpg/sg2_270_cif.got.tgz:538759.got - 2010.06.03 11:33:40.
