data_PCOD9043800
_publ_section_title
;
Structure prediction by ZEFSAII (Michael W. Deem and Ramdas Pophale) SiO2 
 PCOD9043800
Probable space group: P -1
;
_chemical_formula_sum "Si O2"
_cell_formula_units_Z 16
_cell_length_a 20.205923
_cell_length_b 5.236516
_cell_length_c 6.681866
_cell_angle_alpha 84.239260
_cell_angle_beta 82.784742
_cell_angle_gamma 92.690971
_cell_volume 696.586950
_symmetry_space_group_name_H-M "P -1"
_symmetry_group_IT_number 2
_symmetry_cell_setting 'triclinic'
loop_
_space_group_symop_operation_xyz
x,y,z
-x,-y,-z
loop_
_atom_site_type_symbol
_atom_site_label
_atom_site_fract_x
_atom_site_fract_y
_atom_site_fract_z
Si Si1 0.138767 0.773521 0.816992
Si Si2 0.437858 0.285158 0.522996
Si Si3 0.729001 0.666269 0.734891
Si Si4 0.648121 0.455766 0.164344
Si Si5 0.485022 0.843810 0.822736
Si Si6 0.999847 0.733329 0.639454
Si Si7 0.139224 0.249549 0.082342
Si Si8 0.270662 0.819902 0.527552
O O1 0.065827 0.741709 0.749494
O O2 0.194862 0.848656 0.625815
O O3 0.155782 0.497063 0.917787
O O4 0.140256 0.989226 0.972847
O O5 0.500000 0.500000 0.500000
O O6 0.374075 0.380202 0.649696
O O7 0.445128 0.237045 0.289260
O O8 0.455318 0.034618 0.657400
O O9 0.805169 0.740051 0.767494
O O10 0.726398 0.417896 0.610048
O O11 0.704806 0.919066 0.614068
O O12 0.690381 0.594738 0.962177
O O13 0.575752 0.364825 0.107689
O O14 0.688884 0.239614 0.278975
O O15 0.500000 0.000000 0.000000
O O16 0.000000 0.500000 0.500000
O O17 0.933480 0.715619 0.800343
O O18 0.000000 0.000000 0.500000
#
# Coordination Sequence:
#
# PCOD9043800 Si02
#       8
#     2   2   2   2   2   2   2   2
#     4  12  24  45  73 101 150 197 248 317 373 430
#     4   9  22  44  68 101 141 180 229 295 360 433
#     4  12  28  47  75 108 147 202 249 307 376 448
#     4  11  27  47  72 106 149 187 250 299 370 452
#     4  10  23  45  76 104 143 184 238 298 374 430
#     4  12  24  42  68 107 146 194 259 306 371 448
#     4  12  24  45  72 103 147 193 258 306 378 442
#     4  12  28  48  73 107 150 198 249 308 376 442
#
# _framework density 22.969132999999999
#
# number of rings (size 3 to 8) (size 9 to 14) (size 15 to 20)
#    0.000    0.750    1.250    5.250    3.500    6.000 
#    0.000    0.000    0.000    0.000    0.000    0.000 
#    0.000    0.000    0.000    0.000    0.000    0.000 
#
# Total GULP energy -89539.419644 kJ/mol
# GULP energy per Si atom -5596.213728 kJ/mol
# Density = 2.291685 g / cm^3
# Si number density = 22.969133 Si / 1000 Ang^3
#
#
#
# Elastic Constant Matrix: (Units=GPa)
#
#
# Indices 1 2 3 4 5 6 
#
# 1 123.3697 18.7656 57.9671 7.5486 -21.4837 11.4762
# 2 18.7656 107.9631 37.9173 8.9240 -0.4328 15.4426
# 3 57.9671 37.9173 132.3971 5.5356 -20.2696 9.8845
# 4 7.5486 8.9240 5.5356 63.9924 -3.5718 6.4599
# 5 -21.4837 -0.4328 -20.2696 -3.5718 49.7866 4.5713
# 6 11.4762 15.4426 9.8845 6.4599 4.5713 27.6738
#
#
#
# Elastic Compliance Matrix: (Units=1/GPa)
#
#
# Indices 1 2 3 4 5 6 
#
# 1 0.010924 0.000068 -0.003997 -0.000399 0.003390 -0.003607
# 2 0.000068 0.011026 -0.002893 -0.000844 -0.000669 -0.004840
# 3 -0.003997 -0.002893 0.010608 0.000208 0.002676 -0.001008
# 4 -0.000399 -0.000844 0.000208 0.016199 0.001384 -0.003448
# 5 0.003390 -0.000669 0.002676 0.001384 0.023297 -0.006160
# 6 -0.003607 -0.004840 -0.001008 -0.003448 -0.006160 0.042514
#
#
# Mechanical properties :
#
#
# Convention : Reuss Voigt Hill
#
# Bulk Modulus (GPa) = 52.87566 65.89219 59.38392
# Shear Modulus (GPa) = 37.16992 44.89588 41.03290
#
# Velocity S-wave (km/s) = 4.02712 4.42590 4.23121
# Velocity P-wave (km/s) = 6.68535 7.40727 7.05555
#
# Compressibility (1/GPa) = 0.01891229
#
# Stress axis : x y z
#
# Youngs Moduli (GPa) = 91.54353 90.69344 94.26897
#
# Poissons Ratio (x) = -0.00613 0.37681
# Poissons Ratio (y) = -0.00619 0.27274
# Poissons Ratio (z) = 0.36592 0.26239
#
# Static dielectric constant tensor:
#      x y z
#    x 1.957010 -0.002680 0.006630 
#    y -0.002680 1.885390 -0.006620 
#    z 0.006630 -0.006620 1.844640 
# 
# From -- ./inp_files/114509.got.cif
#   From: 2010.05.17/outbox.cif.g08.bks.cpg/sg2_58_cif.got.tgz:114509.got - 2010.06.03 11:33:40.
