data_PCOD9043138
_publ_section_title
;
Structure prediction by ZEFSAII (Michael W. Deem and Ramdas Pophale) SiO2 
 PCOD9043138
Probable space group: P -1
;
_chemical_formula_sum "Si O2"
_cell_formula_units_Z 15
_cell_length_a 9.892340
_cell_length_b 9.790822
_cell_length_c 10.795624
_cell_angle_alpha 48.384990
_cell_angle_beta 117.224241
_cell_angle_gamma 91.932290
_cell_volume 635.163474
_symmetry_space_group_name_H-M "P -1"
_symmetry_group_IT_number 2
_symmetry_cell_setting 'triclinic'
loop_
_space_group_symop_operation_xyz
x,y,z
-x,-y,-z
loop_
_atom_site_type_symbol
_atom_site_label
_atom_site_fract_x
_atom_site_fract_y
_atom_site_fract_z
Si Si1 0.463092 0.347928 0.482610
Si Si2 0.114375 0.675597 0.686238
Si Si3 0.582495 0.147599 0.406337
Si Si4 0.622038 0.025915 0.933853
Si Si5 0.957962 0.640259 0.276844
Si Si6 0.500000 0.500000 0.000000
Si Si7 0.960597 0.936904 0.695745
Si Si8 0.161743 0.715451 0.130106
O O1 0.500000 0.500000 0.500000
O O2 0.570264 0.282812 0.442428
O O3 0.505378 0.145385 0.698792
O O4 0.274059 0.484846 0.282955
O O5 0.046592 0.507357 0.745018
O O6 0.312226 0.583254 0.808982
O O7 0.078679 0.781586 0.740257
O O8 0.022350 0.852916 0.441239
O O9 0.500000 0.000000 0.500000
O O10 0.770342 0.004107 0.538411
O O11 0.485008 0.297394 0.166981
O O12 0.719484 0.168344 0.919461
O O13 0.500000 0.000000 0.000000
O O14 0.775789 0.816108 0.102564
O O15 0.000000 0.500000 0.500000
O O16 0.095274 0.719867 0.239807
O O17 0.003223 0.834249 0.907548
#
# Coordination Sequence:
#
# PCOD9043138 Si02
#       8
#     2   2   2   2   2   1   2   2
#     4  10  24  45  67 103 139 185 234 292 362 427
#     4  10  24  43  69 102 137 182 235 292 357 430
#     4  11  25  44  72 103 143 187 240 301 366 442
#     4  11  25  45  69 103 143 189 230 289 357 437
#     4  12  26  43  70 104 140 186 236 292 359 428
#     4  10  24  44  68 104 142 192 238 302 362 434
#     4  10  23  45  69 100 138 177 234 294 356 423
#     4  11  24  44  73 100 141 182 237 292 356 426
#
# _framework density 23.615964999999999
#
# number of rings (size 3 to 8) (size 9 to 14) (size 15 to 20)
#    0.000    1.333    0.000    3.600    5.600   11.200 
#    2.400    0.000    0.000    0.000    0.000    0.000 
#    0.000    0.000    0.000    0.000    0.000    0.000 
#
# Total GULP energy -83536.597324 kJ/mol
# GULP energy per Si atom -5569.106488 kJ/mol
# Density = 2.356221 g / cm^3
# Si number density = 23.615965 Si / 1000 Ang^3
#
#
#
# Elastic Constant Matrix: (Units=GPa)
#
#
# Indices 1 2 3 4 5 6 
#
# 1 126.2494 17.5172 42.2227 -10.9024 -24.2036 -8.4598
# 2 17.5172 56.5726 25.8652 -17.9879 0.0946 -3.0943
# 3 42.2227 25.8652 218.1272 -22.2464 -16.3629 -9.5321
# 4 -10.9024 -17.9879 -22.2464 26.9047 1.6049 -2.4420
# 5 -24.2036 0.0946 -16.3629 1.6049 28.2943 1.6507
# 6 -8.4598 -3.0943 -9.5321 -2.4420 1.6507 24.0908
#
#
#
# Elastic Compliance Matrix: (Units=1/GPa)
#
#
# Indices 1 2 3 4 5 6 
#
# 1 0.010399 -0.002109 -0.000844 0.001862 0.008152 0.002677
# 2 -0.002109 0.023658 -0.001006 0.014670 -0.003508 0.003628
# 3 -0.000844 -0.001006 0.005476 0.003564 0.002132 0.001956
# 4 0.001862 0.014670 0.003564 0.051500 0.000150 0.009159
# 5 0.008152 -0.003508 0.002132 0.000150 0.043536 0.000288
# 6 0.002677 0.003628 0.001956 0.009159 0.000288 0.044598
#
#
# Mechanical properties :
#
#
# Convention : Reuss Voigt Hill
#
# Bulk Modulus (GPa) = 31.63060 63.57324 47.60192
# Shear Modulus (GPa) = 25.30072 36.88090 31.09081
#
# Velocity S-wave (km/s) = 3.27668 3.95611 3.63232
# Velocity P-wave (km/s) = 5.26672 6.91707 6.14753
#
# Compressibility (1/GPa) = 0.03161495
#
# Stress axis : x y z
#
# Youngs Moduli (GPa) = 96.16340 42.26934 182.61417
#
# Poissons Ratio (x) = 0.08914 0.15419
# Poissons Ratio (y) = 0.20280 0.18364
# Poissons Ratio (z) = 0.08120 0.04251
#
# Static dielectric constant tensor:
#      x y z
#    x 1.974990 0.058520 -0.032800 
#    y 0.058520 1.964210 -0.002340 
#    z -0.032800 -0.002340 1.906530 
# 
# From -- ./inp_files/388883.got.cif
#   From: 2010.05.17/outbox.cif.g08.bks.cpg/sg2_195_cif.got.tgz:388883.got - 2010.06.03 11:33:40.
