data_PCOD9043933
_publ_section_title
;
Structure prediction by ZEFSAII (Michael W. Deem and Ramdas Pophale) SiO2 
 PCOD9043933
Probable space group: P -1
;
_chemical_formula_sum "Si O2"
_cell_formula_units_Z 14
_cell_length_a 21.404987
_cell_length_b 9.138472
_cell_length_c 9.394842
_cell_angle_alpha 114.272553
_cell_angle_beta 152.550449
_cell_angle_gamma 54.000456
_cell_volume 654.552720
_symmetry_space_group_name_H-M "P -1"
_symmetry_group_IT_number 2
_symmetry_cell_setting 'triclinic'
loop_
_space_group_symop_operation_xyz
x,y,z
-x,-y,-z
loop_
_atom_site_type_symbol
_atom_site_label
_atom_site_fract_x
_atom_site_fract_y
_atom_site_fract_z
Si Si1 0.099527 0.807934 0.534841
Si Si2 0.531795 0.842093 0.613552
Si Si3 0.338174 0.113892 0.808152
Si Si4 0.332936 0.687328 0.193252
Si Si5 0.837363 0.117514 0.626089
Si Si6 0.773504 0.430682 0.817813
Si Si7 0.960238 0.514931 0.758484
O O1 0.120431 0.855243 0.436289
O O2 0.021977 0.680766 0.329538
O O3 0.270722 0.687431 0.911346
O O4 0.000000 0.000000 0.500000
O O5 0.370351 0.852598 0.342672
O O6 0.636863 0.644133 0.663411
O O7 0.500000 0.000000 0.500000
O O8 0.622837 0.846718 0.939028
O O9 0.217336 0.311424 0.564870
O O10 0.255384 0.991782 0.601182
O O11 0.500000 0.000000 0.000000
O O12 0.500000 0.500000 0.500000
O O13 0.206781 0.690768 0.049538
O O14 0.737298 0.324171 0.579784
O O15 0.000000 0.000000 0.000000
O O16 0.924658 0.438949 0.077968
O O17 0.000000 0.500000 0.000000
#
# Coordination Sequence:
#
# PCOD9043933 Si02
#       7
#     2   2   2   2   2   2   2
#     4  12  27  43  74 107 142 188 241 299 359 437
#     4  11  26  46  73 109 143 190 242 301 362 425
#     4  12  28  47  77 107 147 189 245 300 364 432
#     4  10  23  46  67 101 144 187 234 293 363 420
#     4  12  24  48  70 110 145 190 238 300 369 428
#     4  11  24  46  75  97 150 188 237 297 362 426
#     4  12  26  48  73 110 142 192 247 299 365 432
#
# _framework density 21.388652
#
# number of rings (size 3 to 8) (size 9 to 14) (size 15 to 20)
#    0.000    0.571    2.857    4.286    6.000    2.286 
#    0.000    4.286    0.000    0.000    0.000    0.000 
#    0.000    0.000    0.000    0.000    0.000    0.000 
#
# Total GULP energy -78321.235913 kJ/mol
# GULP energy per Si atom -5594.373994 kJ/mol
# Density = 2.133997 g / cm^3
# Si number density = 21.388652 Si / 1000 Ang^3
#
#
#
# Elastic Constant Matrix: (Units=GPa)
#
#
# Indices 1 2 3 4 5 6 
#
# 1 155.1692 75.3130 65.9498 -1.1994 -16.3788 24.1279
# 2 75.3130 171.6913 53.8340 23.2454 -9.0698 4.4955
# 3 65.9498 53.8340 122.1722 14.1089 -26.8184 20.0360
# 4 -1.1994 23.2454 14.1089 48.6608 8.6421 3.5617
# 5 -16.3788 -9.0698 -26.8184 8.6421 46.4379 9.6108
# 6 24.1279 4.4955 20.0360 3.5617 9.6108 50.9452
#
#
#
# Elastic Compliance Matrix: (Units=1/GPa)
#
#
# Indices 1 2 3 4 5 6 
#
# 1 0.010480 -0.003766 -0.003515 0.003150 0.001105 -0.003677
# 2 -0.003766 0.008430 -0.001665 -0.003719 -0.000371 0.002025
# 3 -0.003515 -0.001665 0.013981 -0.004468 0.008366 -0.004952
# 4 0.003150 -0.003719 -0.004468 0.024908 -0.006862 0.000147
# 5 0.001105 -0.000371 0.008366 -0.006862 0.029807 -0.008924
# 6 -0.003677 0.002025 -0.004952 0.000147 -0.008924 0.024813
#
#
# Mechanical properties :
#
#
# Convention : Reuss Voigt Hill
#
# Bulk Modulus (GPa) = 66.68337 93.24737 79.96537
# Shear Modulus (GPa) = 36.95202 46.13785 41.54493
#
# Velocity S-wave (km/s) = 4.16101 4.64952 4.41203
# Velocity P-wave (km/s) = 7.37089 8.51559 7.96383
#
# Compressibility (1/GPa) = 0.01499624
#
# Stress axis : x y z
#
# Youngs Moduli (GPa) = 95.42439 118.62920 71.52477
#
# Poissons Ratio (x) = 0.44680 0.25144
# Poissons Ratio (y) = 0.35940 0.11910
# Poissons Ratio (z) = 0.33546 0.19754
#
# Static dielectric constant tensor:
#      x y z
#    x 1.779700 -0.011680 0.038220 
#    y -0.011680 1.760620 -0.000200 
#    z 0.038220 -0.000200 1.776920 
# 
# From -- ./inp_files/342883.got.cif
#   From: 2010.05.17/outbox.cif.g08.bks.cpg/sg2_172_cif.got.tgz:342883.got - 2010.06.03 11:33:40.
