data_PCOD9043569
_publ_section_title
;
Structure prediction by ZEFSAII (Michael W. Deem and Ramdas Pophale) SiO2 
 PCOD9043569
Probable space group: P -1
;
_chemical_formula_sum "Si O2"
_cell_formula_units_Z 15
_cell_length_a 10.804363
_cell_length_b 20.014929
_cell_length_c 16.481087
_cell_angle_alpha 19.841089
_cell_angle_beta 44.909100
_cell_angle_gamma 32.537250
_cell_volume 576.219422
_symmetry_space_group_name_H-M "P -1"
_symmetry_group_IT_number 2
_symmetry_cell_setting 'triclinic'
loop_
_space_group_symop_operation_xyz
x,y,z
-x,-y,-z
loop_
_atom_site_type_symbol
_atom_site_label
_atom_site_fract_x
_atom_site_fract_y
_atom_site_fract_z
Si Si1 0.787896 0.290068 0.818884
Si Si2 0.679435 0.532317 0.097710
Si Si3 0.665911 0.585072 0.386004
Si Si4 0.000000 0.000000 0.500000
Si Si5 0.443497 0.342173 0.165753
Si Si6 0.250266 0.125702 0.865202
Si Si7 0.902443 0.711819 0.592684
Si Si8 0.320221 0.126087 0.176365
O O1 0.604778 0.311782 0.933171
O O2 0.602025 0.517902 0.572586
O O3 0.963752 0.300293 0.773065
O O4 0.000000 0.000000 0.000000
O O5 0.910047 0.199690 0.397669
O O6 0.729203 0.456613 0.064482
O O7 0.682420 0.748749 0.881579
O O8 0.745294 0.725906 0.231790
O O9 0.922661 0.322405 0.515582
O O10 0.423103 0.804406 0.188412
O O11 0.239187 0.969289 0.406508
O O12 0.274719 0.325020 0.313972
O O13 0.696566 0.020199 0.382081
O O14 0.500000 0.500000 0.000000
O O15 0.416065 0.064546 0.780502
O O16 0.111852 0.426564 0.877711
#
# Coordination Sequence:
#
# PCOD9043569 Si02
#       8
#     2   2   2   1   2   2   2   2
#     4  12  24  45  71 112 145 192 245 300 377 446
#     4  12  27  46  72 109 148 190 249 309 366 445
#     4  10  23  45  72 106 144 197 239 311 372 434
#     4  12  26  42  76 102 142 194 246 300 374 436
#     4  11  26  46  69 104 142 199 243 300 373 438
#     4  10  23  46  74 106 150 190 250 303 374 449
#     4  10  24  46  70  99 147 191 245 307 364 438
#     4  11  24  48  72 108 144 192 247 309 370 440
#
# _framework density 26.031749999999999
#
# number of rings (size 3 to 8) (size 9 to 14) (size 15 to 20)
#    0.000    1.067    2.667    2.400    3.733    1.600 
#    2.400    0.000    0.000    0.000    0.000    0.000 
#    0.000    0.000    0.000    0.000    0.000    0.000 
#
# Total GULP energy -83713.692309 kJ/mol
# GULP energy per Si atom -5580.912821 kJ/mol
# Density = 2.597250 g / cm^3
# Si number density = 26.031750 Si / 1000 Ang^3
#
#
#
# Elastic Constant Matrix: (Units=GPa)
#
#
# Indices 1 2 3 4 5 6 
#
# 1 117.9257 22.0260 35.2086 8.6388 -20.9401 0.5696
# 2 22.0260 104.8924 13.2375 4.6226 -1.9478 -14.6321
# 3 35.2086 13.2375 72.8362 -1.9857 -14.2724 -7.8475
# 4 8.6388 4.6226 -1.9857 43.0204 5.0958 -3.6592
# 5 -20.9401 -1.9478 -14.2724 5.0958 46.6454 1.9975
# 6 0.5696 -14.6321 -7.8475 -3.6592 1.9975 23.1202
#
#
#
# Elastic Compliance Matrix: (Units=1/GPa)
#
#
# Indices 1 2 3 4 5 6 
#
# 1 0.011266 -0.002119 -0.004798 -0.003078 0.004012 -0.004081
# 2 -0.002119 0.010983 -0.000404 -0.000076 -0.000905 0.006932
# 3 -0.004798 -0.000404 0.017326 0.001987 0.002664 0.005828
# 4 -0.003078 -0.000076 0.001987 0.024822 -0.003701 0.004950
# 5 0.004012 -0.000905 0.002664 -0.003701 0.024527 -0.002472
# 6 -0.004081 0.006932 0.005828 0.004950 -0.002472 0.050715
#
#
# Mechanical properties :
#
#
# Convention : Reuss Voigt Hill
#
# Bulk Modulus (GPa) = 40.10900 48.51094 44.30997
# Shear Modulus (GPa) = 30.75144 37.56933 34.16038
#
# Velocity S-wave (km/s) = 3.44074 3.80308 3.62644
# Velocity P-wave (km/s) = 5.58803 6.16120 5.88160
#
# Compressibility (1/GPa) = 0.02493206
#
# Stress axis : x y z
#
# Youngs Moduli (GPa) = 88.76282 91.04830 57.71537
#
# Poissons Ratio (x) = 0.19296 0.27693
# Poissons Ratio (y) = 0.18812 0.02333
# Poissons Ratio (z) = 0.42590 0.03680
#
# Static dielectric constant tensor:
#      x y z
#    x 2.017390 0.032870 -0.054340 
#    y 0.032870 1.975550 -0.001540 
#    z -0.054340 -0.001540 1.684580 
# 
# From -- ./inp_files/570684.got.cif
#   From: 2010.05.17/outbox.cif.g08.bks.cpg/sg2_286_cif.got.tgz:570684.got - 2010.06.03 11:33:40.
