data_PCOD9043953
_publ_section_title
;
Structure prediction by ZEFSAII (Michael W. Deem and Ramdas Pophale) SiO2 
 PCOD9043953
Probable space group: P -1
;
_chemical_formula_sum "Si O2"
_cell_formula_units_Z 14
_cell_length_a 8.614033
_cell_length_b 11.371542
_cell_length_c 12.467602
_cell_angle_alpha 133.933855
_cell_angle_beta 126.068721
_cell_angle_gamma 43.410431
_cell_volume 595.474016
_symmetry_space_group_name_H-M "P -1"
_symmetry_group_IT_number 2
_symmetry_cell_setting 'triclinic'
loop_
_space_group_symop_operation_xyz
x,y,z
-x,-y,-z
loop_
_atom_site_type_symbol
_atom_site_label
_atom_site_fract_x
_atom_site_fract_y
_atom_site_fract_z
Si Si1 0.698888 0.313985 0.336128
Si Si2 0.867611 0.616014 0.126563
Si Si3 0.757168 0.045207 0.382583
Si Si4 0.529289 0.505272 0.855747
Si Si5 0.969257 0.182278 0.161155
Si Si6 0.543213 0.798511 0.430240
Si Si7 0.944668 0.513364 0.643438
O O1 0.682124 0.187787 0.340500
O O2 0.493402 0.431122 0.240339
O O3 0.913931 0.172936 0.256571
O O4 0.766228 0.457003 0.502663
O O5 0.004309 0.534294 0.240805
O O6 0.787275 0.841417 0.232953
O O7 0.666433 0.575977 0.019776
O O8 0.000000 0.500000 0.000000
O O9 0.574438 0.148250 0.468243
O O10 0.000000 0.000000 0.500000
O O11 0.267975 0.639621 0.871246
O O12 0.587274 0.287399 0.741214
O O13 0.130116 0.264013 0.265044
O O14 0.000000 0.000000 0.000000
O O15 0.815382 0.631678 0.417409
O O16 0.500000 0.000000 0.500000
#
# Coordination Sequence:
#
# PCOD9043953 Si02
#       7
#     2   2   2   2   2   2   2
#     4  10  23  46  67  96 138 170 236 271 337 404
#     4  12  26  44  67  99 142 178 225 286 346 399
#     4  12  24  44  70 101 130 183 235 277 339 412
#     4   9  25  44  63 103 136 173 228 277 346 391
#     4   9  22  43  69  99 138 175 220 282 346 401
#     4  11  22  44  69 101 134 178 231 286 329 408
#     4  11  23  46  69 100 133 182 228 276 337 413
#
# _framework density 23.510679
#
# number of rings (size 3 to 8) (size 9 to 14) (size 15 to 20)
#    0.857    0.571    2.857    1.286    2.000    4.571 
#    2.571    0.000    0.000    0.000    0.000    0.000 
#    0.000    0.000    0.000    0.000    0.000    0.000 
#
# Total GULP energy -78231.487723 kJ/mol
# GULP energy per Si atom -5587.963409 kJ/mol
# Density = 2.345717 g / cm^3
# Si number density = 23.510679 Si / 1000 Ang^3
#
#
#
# Elastic Constant Matrix: (Units=GPa)
#
#
# Indices 1 2 3 4 5 6 
#
# 1 83.9413 47.3114 57.4558 4.6664 -1.9302 27.5454
# 2 47.3114 95.2773 70.8082 15.7956 -1.4258 33.6573
# 3 57.4558 70.8082 215.4103 29.1692 13.8978 22.1798
# 4 4.6664 15.7956 29.1692 59.3342 8.2687 8.2463
# 5 -1.9302 -1.4258 13.8978 8.2687 48.7533 -5.9893
# 6 27.5454 33.6573 22.1798 8.2463 -5.9893 50.6749
#
#
#
# Elastic Compliance Matrix: (Units=1/GPa)
#
#
# Indices 1 2 3 4 5 6 
#
# 1 0.018737 -0.005522 -0.002927 0.002155 0.000368 -0.005543
# 2 -0.005522 0.019078 -0.003820 -0.001821 0.000803 -0.007606
# 3 -0.002927 -0.003820 0.006947 -0.002102 -0.001700 0.001229
# 4 0.002155 -0.001821 -0.002102 0.018947 -0.002885 -0.002466
# 5 0.000368 0.000803 -0.001700 -0.002885 0.021901 0.003069
# 6 -0.005543 -0.007606 0.001229 -0.002466 0.003069 0.028024
#
#
# Mechanical properties :
#
#
# Convention : Reuss Voigt Hill
#
# Bulk Modulus (GPa) = 49.45150 82.86441 66.15796
# Shear Modulus (GPa) = 34.50351 46.35605 40.42978
#
# Velocity S-wave (km/s) = 3.83504 4.44520 4.15135
# Velocity P-wave (km/s) = 6.37882 7.85292 7.15394
#
# Compressibility (1/GPa) = 0.02022183
#
# Stress axis : x y z
#
# Youngs Moduli (GPa) = 53.37113 52.41713 143.95631
#
# Poissons Ratio (x) = 0.28946 0.42138
# Poissons Ratio (y) = 0.29473 0.54994
# Poissons Ratio (z) = 0.15623 0.20024
#
# Static dielectric constant tensor:
#      x y z
#    x 2.020330 -0.044160 0.052940 
#    y -0.044160 1.936370 -0.037610 
#    z 0.052940 -0.037610 1.925880 
# 
# From -- ./inp_files/391695.got.cif
#   From: 2010.05.17/outbox.cif.g08.bks.cpg/sg2_196_cif.got.tgz:391695.got - 2010.06.03 11:33:40.
