data_PCOD9043882
_publ_section_title
;
Structure prediction by ZEFSAII (Michael W. Deem and Ramdas Pophale) SiO2 
 PCOD9043882
Probable space group: P -1
;
_chemical_formula_sum "Si O2"
_cell_formula_units_Z 16
_cell_length_a 13.747769
_cell_length_b 9.907504
_cell_length_c 6.188655
_cell_angle_alpha 111.785937
_cell_angle_beta 56.661849
_cell_angle_gamma 86.830987
_cell_volume 616.327229
_symmetry_space_group_name_H-M "P -1"
_symmetry_group_IT_number 2
_symmetry_cell_setting 'triclinic'
loop_
_space_group_symop_operation_xyz
x,y,z
-x,-y,-z
loop_
_atom_site_type_symbol
_atom_site_label
_atom_site_fract_x
_atom_site_fract_y
_atom_site_fract_z
Si Si1 0.782060 0.829046 0.412090
Si Si2 0.225563 0.011466 0.877862
Si Si3 0.977198 0.574132 0.822312
Si Si4 0.991685 0.840278 0.495063
Si Si5 0.764827 0.433444 0.504688
Si Si6 0.636885 0.786750 0.941149
Si Si7 0.577605 0.328363 0.886770
Si Si8 0.263205 0.707027 0.940528
O O1 0.663303 0.827595 0.687295
O O2 0.890650 0.806106 0.442616
O O3 0.763299 0.983889 0.391600
O O4 0.838754 0.688967 0.092753
O O5 0.320174 0.095312 0.899286
O O6 0.084292 0.119297 0.166783
O O7 0.244276 0.859753 0.908428
O O8 0.000000 0.500000 0.500000
O O9 0.089549 0.640490 0.727366
O O10 0.000000 0.500000 0.000000
O O11 0.131680 0.726031 0.231561
O O12 0.000000 0.000000 0.500000
O O13 0.723580 0.606123 0.750146
O O14 0.707731 0.318674 0.621261
O O15 0.714077 0.439844 0.328000
O O16 0.500788 0.780020 0.141594
O O17 0.500000 0.500000 0.000000
O O18 0.615362 0.315688 0.081693
#
# Coordination Sequence:
#
# PCOD9043882 Si02
#       8
#     2   2   2   2   2   2   2   2
#     4  11  22  39  69  98 143 186 236 297 374 441
#     4  10  24  42  67  99 143 188 227 300 371 450
#     4  12  26  42  70 111 152 192 247 304 375 447
#     4   9  21  39  61  98 144 181 228 286 367 444
#     4  11  24  41  70 102 138 186 242 299 369 424
#     4  10  23  46  64  97 137 184 245 296 362 428
#     4  10  26  46  70  96 138 190 242 311 366 432
#     4  11  24  42  67 103 140 181 246 298 369 448
#
# _framework density 25.960234
#
# number of rings (size 3 to 8) (size 9 to 14) (size 15 to 20)
#    0.000    1.500    2.500    0.750    5.250   10.500 
#    0.000    1.250    0.000    0.000    0.000    0.000 
#    0.000    0.000    0.000    0.000    0.000    0.000 
#
# Total GULP energy -89234.831164 kJ/mol
# GULP energy per Si atom -5577.176948 kJ/mol
# Density = 2.590115 g / cm^3
# Si number density = 25.960234 Si / 1000 Ang^3
#
#
#
# Elastic Constant Matrix: (Units=GPa)
#
#
# Indices 1 2 3 4 5 6 
#
# 1 113.4346 31.9249 21.3506 -14.6934 -8.2806 5.8881
# 2 31.9249 104.8371 38.2099 -29.1250 -11.9321 0.5935
# 3 21.3506 38.2099 62.1445 -20.2898 -2.5174 -0.5101
# 4 -14.6934 -29.1250 -20.2898 50.4989 12.6785 -4.6997
# 5 -8.2806 -11.9321 -2.5174 12.6785 27.7423 -15.8639
# 6 5.8881 0.5935 -0.5101 -4.6997 -15.8639 52.4192
#
#
#
# Elastic Compliance Matrix: (Units=1/GPa)
#
#
# Indices 1 2 3 4 5 6 
#
# 1 0.009951 -0.002012 -0.001950 0.000566 0.001283 -0.000675
# 2 -0.002012 0.014078 -0.006452 0.004113 0.003872 0.001544
# 3 -0.001950 -0.006452 0.022431 0.005723 -0.004053 -0.000203
# 4 0.000566 0.004113 0.005723 0.027179 -0.010402 -0.000766
# 5 0.001283 0.003872 -0.004053 -0.010402 0.050568 0.014144
# 6 -0.000675 0.001544 -0.000203 -0.000766 0.014144 0.023345
#
#
# Mechanical properties :
#
#
# Convention : Reuss Voigt Hill
#
# Bulk Modulus (GPa) = 39.01553 51.48743 45.25148
# Shear Modulus (GPa) = 28.26072 38.72748 33.49410
#
# Velocity S-wave (km/s) = 3.30300 3.86657 3.59584
# Velocity P-wave (km/s) = 5.44132 6.30952 5.89144
#
# Compressibility (1/GPa) = 0.02563082
#
# Stress axis : x y z
#
# Youngs Moduli (GPa) = 100.49126 71.03528 44.58101
#
# Poissons Ratio (x) = 0.14295 0.08694
# Poissons Ratio (y) = 0.20222 0.28763
# Poissons Ratio (z) = 0.19598 0.45831
#
# Static dielectric constant tensor:
#      x y z
#    x 2.012130 -0.012020 0.083550 
#    y -0.012020 2.172980 0.084880 
#    z 0.083550 0.084880 2.282450 
# 
# From -- ./inp_files/71648.got.cif
#   From: 2010.05.17/outbox.cif.g08.bks.cpg/sg2_36_cif.got.tgz:71648.got - 2010.06.03 11:33:40.
