data_PCOD9043270
_publ_section_title
;
Structure prediction by ZEFSAII (Michael W. Deem and Ramdas Pophale) SiO2 
 PCOD9043270
Probable space group: P -1
;
_chemical_formula_sum "Si O2"
_cell_formula_units_Z 14
_cell_length_a 12.286957
_cell_length_b 11.370757
_cell_length_c 7.601487
_cell_angle_alpha 79.554511
_cell_angle_beta 113.070711
_cell_angle_gamma 46.604800
_cell_volume 524.539371
_symmetry_space_group_name_H-M "P -1"
_symmetry_group_IT_number 2
_symmetry_cell_setting 'triclinic'
loop_
_space_group_symop_operation_xyz
x,y,z
-x,-y,-z
loop_
_atom_site_type_symbol
_atom_site_label
_atom_site_fract_x
_atom_site_fract_y
_atom_site_fract_z
Si Si1 0.763013 0.167195 0.379117
Si Si2 0.129752 0.515075 0.090547
Si Si3 0.334577 0.240527 0.624966
Si Si4 0.440153 0.596331 0.243998
Si Si5 0.997549 0.878477 0.920376
Si Si6 0.971418 0.361901 0.401673
Si Si7 0.303519 0.947369 0.923453
O O1 0.636467 0.391864 0.299578
O O2 0.625833 0.198426 0.155268
O O3 0.000000 0.000000 0.500000
O O4 0.812235 0.046943 0.614616
O O5 0.317201 0.319999 0.401648
O O6 0.009776 0.733301 0.040723
O O7 0.000000 0.500000 0.000000
O O8 0.146939 0.538406 0.889440
O O9 0.205459 0.225144 0.537262
O O10 0.185057 0.436062 0.619651
O O11 0.569924 0.046990 0.917061
O O12 0.500000 0.500000 0.500000
O O13 0.232508 0.696719 0.026119
O O14 0.361312 0.799462 0.147052
O O15 0.000000 0.000000 0.000000
O O16 0.065622 0.178228 0.637572
#
# Coordination Sequence:
#
# PCOD9043270 Si02
#       7
#     2   2   2   2   2   2   2
#     4  12  27  44  67 102 143 190 243 302 372 441
#     4  10  23  46  73 103 145 193 240 299 373 445
#     4  10  24  43  70 102 139 187 246 300 365 443
#     4  12  27  43  67 105 140 190 242 304 373 445
#     4  12  25  45  73 103 148 188 242 307 375 443
#     4  10  23  45  70 100 139 190 241 303 368 437
#     4  12  25  41  72  97 142 184 245 302 370 439
#
# _framework density 26.690080999999999
#
# number of rings (size 3 to 8) (size 9 to 14) (size 15 to 20)
#    0.000    0.857    4.286    1.714    6.000    0.000 
#    0.000    0.000    0.000    7.714    0.000    0.000 
#    0.000    0.000    0.000    0.000    0.000    0.000 
#
# Total GULP energy -78057.445073 kJ/mol
# GULP energy per Si atom -5575.531791 kJ/mol
# Density = 2.662933 g / cm^3
# Si number density = 26.690081 Si / 1000 Ang^3
#
#
#
# Elastic Constant Matrix: (Units=GPa)
#
#
# Indices 1 2 3 4 5 6 
#
# 1 73.5349 36.8376 29.8824 6.3406 9.2937 6.6678
# 2 36.8376 86.4998 11.4802 3.4193 -5.9442 1.9856
# 3 29.8824 11.4802 165.7433 37.8403 -26.8328 -11.3722
# 4 6.3406 3.4193 37.8403 55.8798 4.8346 -1.6199
# 5 9.2937 -5.9442 -26.8328 4.8346 50.8631 3.8456
# 6 6.6678 1.9856 -11.3722 -1.6199 3.8456 45.9926
#
#
#
# Elastic Compliance Matrix: (Units=1/GPa)
#
#
# Indices 1 2 3 4 5 6 
#
# 1 0.021215 -0.008884 -0.005166 0.002198 -0.007602 -0.003256
# 2 -0.008884 0.015473 0.001590 -0.001375 0.004356 0.000601
# 3 -0.005166 0.001590 0.009565 -0.006496 0.006622 0.002263
# 4 0.002198 -0.001375 -0.006496 0.022640 -0.006099 -0.000558
# 5 -0.007602 0.004356 0.006622 -0.006099 0.025617 0.000195
# 6 -0.003256 0.000601 0.002263 -0.000558 0.000195 0.022712
#
#
# Mechanical properties :
#
#
# Convention : Reuss Voigt Hill
#
# Bulk Modulus (GPa) = 46.87205 53.57539 50.22372
# Shear Modulus (GPa) = 33.50020 47.05228 40.27624
#
# Velocity S-wave (km/s) = 3.54666 4.20326 3.88884
# Velocity P-wave (km/s) = 5.86272 6.60857 6.24679
#
# Compressibility (1/GPa) = 0.02133468
#
# Stress axis : x y z
#
# Youngs Moduli (GPa) = 47.13616 64.62903 104.54893
#
# Poissons Ratio (x) = 0.57416 0.54006
# Poissons Ratio (y) = 0.41875 -0.16626
# Poissons Ratio (z) = 0.24349 -0.10278
#
# Static dielectric constant tensor:
#      x y z
#    x 2.219840 -0.074940 0.023850 
#    y -0.074940 2.155370 0.066250 
#    z 0.023850 0.066250 2.044470 
# 
# From -- ./inp_files/305145.got.cif
#   From: 2010.05.17/outbox.cif.g08.bks.cpg/sg2_153_cif.got.tgz:305145.got - 2010.06.03 11:33:40.
