data_PCOD9043390
_publ_section_title
;
Structure prediction by ZEFSAII (Michael W. Deem and Ramdas Pophale) SiO2 
 PCOD9043390
Probable space group: P -1
;
_chemical_formula_sum "Si O2"
_cell_formula_units_Z 15
_cell_length_a 6.215916
_cell_length_b 8.073995
_cell_length_c 24.877320
_cell_angle_alpha 34.564313
_cell_angle_beta 119.088964
_cell_angle_gamma 118.518891
_cell_volume 611.452780
_symmetry_space_group_name_H-M "P -1"
_symmetry_group_IT_number 2
_symmetry_cell_setting 'triclinic'
loop_
_space_group_symop_operation_xyz
x,y,z
-x,-y,-z
loop_
_atom_site_type_symbol
_atom_site_label
_atom_site_fract_x
_atom_site_fract_y
_atom_site_fract_z
Si Si1 0.549194 0.912859 0.752821
Si Si2 0.831408 0.549880 0.586969
Si Si3 0.000000 0.500000 0.500000
Si Si4 0.556101 0.024103 0.563109
Si Si5 0.779921 0.328146 0.310145
Si Si6 0.709475 0.960910 0.109428
Si Si7 0.203418 0.664800 0.088269
Si Si8 0.687388 0.344564 0.100571
O O1 0.306108 0.889636 0.691058
O O2 0.684352 0.638285 0.825442
O O3 0.460985 0.849451 0.819531
O O4 0.712350 0.225629 0.678883
O O5 0.609118 0.734441 0.499690
O O6 0.986868 0.531573 0.556759
O O7 0.992211 0.705314 0.614626
O O8 0.168633 0.828885 0.429238
O O9 0.500000 0.000000 0.500000
O O10 0.455026 0.726468 0.662313
O O11 0.818056 0.656710 0.203480
O O12 0.407304 0.866541 0.095919
O O13 0.796128 0.135631 0.126963
O O14 0.786119 0.163936 0.013106
O O15 0.914373 0.572332 0.092763
O O16 0.500000 0.500000 0.000000
#
# Coordination Sequence:
#
# PCOD9043390 Si02
#       8
#     2   2   1   2   2   2   2   2
#     4  11  26  45  67 107 134 181 236 282 345 412
#     4  12  27  47  75 104 142 182 237 293 352 423
#     4  12  26  48  80  98 142 186 228 296 360 414
#     4  12  27  48  71 105 142 185 229 288 362 421
#     4  11  25  47  70 101 137 180 230 286 346 417
#     4  10  23  45  70  98 139 183 227 285 345 408
#     4  10  23  47  66  96 146 179 224 288 342 408
#     4  12  25  41  71 101 138 187 230 281 345 406
#
# _framework density 24.531741
#
# number of rings (size 3 to 8) (size 9 to 14) (size 15 to 20)
#    0.000    0.800    4.000    2.000    3.733    2.667 
#    2.400    0.000    0.000    0.000    0.000    0.000 
#    0.000    0.000    0.000    0.000    0.000    0.000 
#
# Total GULP energy -83752.208962 kJ/mol
# GULP energy per Si atom -5583.480597 kJ/mol
# Density = 2.447591 g / cm^3
# Si number density = 24.531741 Si / 1000 Ang^3
#
#
#
# Elastic Constant Matrix: (Units=GPa)
#
#
# Indices 1 2 3 4 5 6 
#
# 1 45.2648 13.1819 40.8407 4.7382 -13.1283 16.0814
# 2 13.1819 101.0094 14.8567 11.8053 -6.6486 1.5386
# 3 40.8407 14.8567 130.4996 4.3590 -29.0774 7.2646
# 4 4.7382 11.8053 4.3590 43.1305 2.2955 -15.7463
# 5 -13.1283 -6.6486 -29.0774 2.2955 39.9838 5.7879
# 6 16.0814 1.5386 7.2646 -15.7463 5.7879 29.9452
#
#
#
# Elastic Compliance Matrix: (Units=1/GPa)
#
#
# Indices 1 2 3 4 5 6 
#
# 1 0.051681 -0.001403 -0.009529 -0.019354 0.016525 -0.038741
# 2 -0.001403 0.010662 -0.000177 -0.003542 0.001667 -0.001936
# 3 -0.009529 -0.000177 0.011740 0.000123 0.005178 0.001342
# 4 -0.019354 -0.003542 0.000123 0.039425 -0.014037 0.033990
# 5 0.016525 0.001667 0.005178 -0.014037 0.038921 -0.025120
# 6 -0.038741 -0.001936 0.001342 0.033990 -0.025120 0.076702
#
#
# Mechanical properties :
#
#
# Convention : Reuss Voigt Hill
#
# Bulk Modulus (GPa) = 19.28092 46.05913 32.67002
# Shear Modulus (GPa) = 18.61240 36.47153 27.54197
#
# Velocity S-wave (km/s) = 2.75745 3.85997 3.35432
# Velocity P-wave (km/s) = 4.24437 6.21948 5.32431
#
# Compressibility (1/GPa) = 0.05186474
#
# Stress axis : x y z
#
# Youngs Moduli (GPa) = 19.34949 93.78744 85.17792
#
# Poissons Ratio (x) = 0.13160 0.81166
# Poissons Ratio (y) = 0.02715 0.01510
# Poissons Ratio (z) = 0.18438 0.01662
#
# Static dielectric constant tensor:
#      x y z
#    x 2.064780 0.015930 0.056500 
#    y 0.015930 1.944530 -0.015050 
#    z 0.056500 -0.015050 1.977610 
# 
# From -- ./inp_files/52672.got.cif
#   From: 2010.05.17/outbox.cif.g08.bks.cpg/sg2_27_cif.got.tgz:52672.got - 2010.06.03 11:33:40.
