data_PCOD9043823
_publ_section_title
;
Structure prediction by ZEFSAII (Michael W. Deem and Ramdas Pophale) SiO2 
 PCOD9043823
Probable space group: P -1
;
_chemical_formula_sum "Si O2"
_cell_formula_units_Z 16
_cell_length_a 6.482396
_cell_length_b 7.845835
_cell_length_c 15.504647
_cell_angle_alpha 95.374985
_cell_angle_beta 118.095088
_cell_angle_gamma 90.178771
_cell_volume 691.583704
_symmetry_space_group_name_H-M "P -1"
_symmetry_group_IT_number 2
_symmetry_cell_setting 'triclinic'
loop_
_space_group_symop_operation_xyz
x,y,z
-x,-y,-z
loop_
_atom_site_type_symbol
_atom_site_label
_atom_site_fract_x
_atom_site_fract_y
_atom_site_fract_z
Si Si1 0.861146 0.650223 0.846397
Si Si2 0.760198 0.383893 0.455112
Si Si3 0.682554 0.209946 0.961284
Si Si4 0.757786 0.260622 0.789055
Si Si5 0.514529 0.297515 0.573311
Si Si6 0.976435 0.892951 0.577431
Si Si7 0.551401 0.831207 0.918630
Si Si8 0.037687 0.955795 0.783331
O O1 0.856317 0.455340 0.805597
O O2 0.639535 0.695730 0.862487
O O3 0.887446 0.788959 0.781322
O O4 0.082679 0.689515 0.955120
O O5 0.709446 0.309934 0.537510
O O6 0.552679 0.509750 0.405608
O O7 0.000000 0.500000 0.500000
O O8 0.809038 0.233901 0.391691
O O9 0.627267 0.254454 0.854706
O O10 0.715682 0.005002 0.960760
O O11 0.488170 0.242275 0.996730
O O12 0.594096 0.212659 0.672940
O O13 0.954957 0.122297 0.823956
O O14 0.279116 0.205825 0.483600
O O15 0.997088 0.987173 0.676140
O O16 0.000000 0.000000 0.500000
O O17 0.302092 0.904223 0.847276
#
# Coordination Sequence:
#
# PCOD9043823 Si02
#       8
#     2   2   2   2   2   2   2   2
#     4  11  25  47  71 100 137 186 226 285 358 410
#     4   9  21  43  68  93 136 181 226 282 339 410
#     4  10  23  46  69 103 138 177 229 289 345 419
#     4  12  26  44  71 103 141 177 235 287 342 417
#     4  10  24  44  68 101 137 184 229 286 347 409
#     4  11  25  43  68 100 141 182 231 285 349 410
#     4  10  23  45  76  95 137 188 223 282 359 409
#     4  11  27  45  67 105 141 178 234 290 337 419
#
# _framework density 23.135304999999999
#
# number of rings (size 3 to 8) (size 9 to 14) (size 15 to 20)
#    0.000    1.500    1.250    1.500   12.250    2.500 
#    4.500    0.000    0.000    0.000    0.000    0.000 
#    0.000    0.000    0.000    0.000    0.000    0.000 
#
# Total GULP energy -89471.913023 kJ/mol
# GULP energy per Si atom -5591.994564 kJ/mol
# Density = 2.308265 g / cm^3
# Si number density = 23.135305 Si / 1000 Ang^3
#
#
#
# Elastic Constant Matrix: (Units=GPa)
#
#
# Indices 1 2 3 4 5 6 
#
# 1 109.1870 30.8693 35.1872 -2.3185 -14.5685 5.5662
# 2 30.8693 86.6280 -2.9686 9.7565 -7.2635 1.4960
# 3 35.1872 -2.9686 89.4496 -17.4701 -11.2786 13.0008
# 4 -2.3185 9.7565 -17.4701 33.5811 5.4364 -11.1153
# 5 -14.5685 -7.2635 -11.2786 5.4364 29.3968 -5.0338
# 6 5.5662 1.4960 13.0008 -11.1153 -5.0338 26.8773
#
#
#
# Elastic Compliance Matrix: (Units=1/GPa)
#
#
# Indices 1 2 3 4 5 6 
#
# 1 0.012293 -0.004159 -0.004750 -0.000886 0.003451 0.000263
# 2 -0.004159 0.013843 0.001857 -0.004475 0.002525 -0.002185
# 3 -0.004750 0.001857 0.014974 0.005323 0.002224 -0.003745
# 4 -0.000886 -0.004475 0.005323 0.038838 -0.004444 0.013087
# 5 0.003451 0.002525 0.002224 -0.004444 0.038620 0.003464
# 6 0.000263 -0.002185 -0.003745 0.013087 0.003464 0.045146
#
#
# Mechanical properties :
#
#
# Convention : Reuss Voigt Hill
#
# Bulk Modulus (GPa) = 37.02710 45.71559 41.37134
# Shear Modulus (GPa) = 26.76388 32.78282 29.77335
#
# Velocity S-wave (km/s) = 3.40493 3.76840 3.59126
# Velocity P-wave (km/s) = 5.61225 6.22394 5.92599
#
# Compressibility (1/GPa) = 0.02700725
#
# Stress axis : x y z
#
# Youngs Moduli (GPa) = 81.34428 72.24028 66.78254
#
# Poissons Ratio (x) = 0.30044 0.31722
# Poissons Ratio (y) = 0.33830 -0.12405
# Poissons Ratio (z) = 0.38639 -0.13418
#
# Static dielectric constant tensor:
#      x y z
#    x 1.878570 0.001480 0.011660 
#    y 0.001480 1.908020 -0.009690 
#    z 0.011660 -0.009690 1.864040 
# 
# From -- ./inp_files/480684.got.cif
#   From: 2010.05.17/outbox.cif.g08.bks.cpg/sg2_241_cif.got.tgz:480684.got - 2010.06.03 11:33:40.
