data_PCOD9043762
_publ_section_title
;
Structure prediction by ZEFSAII (Michael W. Deem and Ramdas Pophale) SiO2 
 PCOD9043762
Probable space group: P -1
;
_chemical_formula_sum "Si O2"
_cell_formula_units_Z 16
_cell_length_a 8.180741
_cell_length_b 10.525925
_cell_length_c 18.494774
_cell_angle_alpha 155.906833
_cell_angle_beta 101.232366
_cell_angle_gamma 75.191261
_cell_volume 625.528456
_symmetry_space_group_name_H-M "P -1"
_symmetry_group_IT_number 2
_symmetry_cell_setting 'triclinic'
loop_
_space_group_symop_operation_xyz
x,y,z
-x,-y,-z
loop_
_atom_site_type_symbol
_atom_site_label
_atom_site_fract_x
_atom_site_fract_y
_atom_site_fract_z
Si Si1 0.263056 0.403348 0.558645
Si Si2 0.062387 0.379235 0.267452
Si Si3 0.420532 0.264867 0.922174
Si Si4 0.185545 0.635033 0.877182
Si Si5 0.754669 0.255638 0.722710
Si Si6 0.502345 0.371876 0.200349
Si Si7 0.658000 0.634499 0.613901
Si Si8 0.099100 0.314105 0.843723
O O1 0.415425 0.570317 0.685430
O O2 0.242067 0.348867 0.444096
O O3 0.088981 0.606111 0.679711
O O4 0.305100 0.063044 0.424897
O O5 0.211922 0.512536 0.388975
O O6 0.954943 0.511484 0.256416
O O7 0.137829 0.014467 0.065555
O O8 0.273102 0.122797 0.793964
O O9 0.572850 0.989411 0.814639
O O10 0.500000 0.500000 0.000000
O O11 0.327456 0.463849 0.083785
O O12 0.363972 0.538873 0.801137
O O13 0.168121 0.533705 0.904951
O O14 0.677849 0.402248 0.716430
O O15 0.955429 0.175751 0.716555
O O16 0.500000 0.000000 0.000000
O O17 0.500000 0.500000 0.500000
O O18 0.000000 0.500000 0.000000
#
# Coordination Sequence:
#
# PCOD9043762 Si02
#       8
#     2   2   2   2   2   2   2   2
#     4  11  26  45  66 102 145 191 235 305 359 423
#     4  10  24  44  70  98 144 185 236 287 373 411
#     4  11  22  45  69  98 137 189 235 292 365 421
#     4  10  23  45  75 102 139 189 239 302 352 434
#     4  11  24  43  70  99 141 186 238 297 357 431
#     4  11  26  46  74 104 143 189 244 293 365 437
#     4  12  27  41  70 104 144 188 243 303 357 427
#     4  10  24  40  72 106 135 181 243 293 357 425
#
# _framework density 25.578372999999999
#
# number of rings (size 3 to 8) (size 9 to 14) (size 15 to 20)
#    0.000    1.250    1.250    3.000   12.250    1.000 
#    0.000    2.500    0.000    0.000    0.000    0.000 
#    0.000    0.000    0.000    0.000    0.000    0.000 
#
# Total GULP energy -89508.426251 kJ/mol
# GULP energy per Si atom -5594.276641 kJ/mol
# Density = 2.552016 g / cm^3
# Si number density = 25.578373 Si / 1000 Ang^3
#
#
#
# Elastic Constant Matrix: (Units=GPa)
#
#
# Indices 1 2 3 4 5 6 
#
# 1 122.9568 53.9443 19.0405 -19.7285 5.7885 -34.5134
# 2 53.9443 133.8919 22.2618 -30.0586 10.6082 -20.6398
# 3 19.0405 22.2618 76.3965 -21.6717 19.3327 -17.2568
# 4 -19.7285 -30.0586 -21.6717 30.7225 -4.3671 8.7351
# 5 5.7885 10.6082 19.3327 -4.3671 43.7296 -12.1995
# 6 -34.5134 -20.6398 -17.2568 8.7351 -12.1995 62.5530
#
#
#
# Elastic Compliance Matrix: (Units=1/GPa)
#
#
# Indices 1 2 3 4 5 6 
#
# 1 0.011375 -0.003259 -0.000278 0.002660 0.001057 0.004959
# 2 -0.003259 0.010785 0.000554 0.008518 -0.001456 0.000440
# 3 -0.000278 0.000554 0.018502 0.011864 -0.006475 0.002214
# 4 0.002660 0.008518 0.011864 0.050595 -0.002618 -0.000024
# 5 0.001057 -0.001456 -0.006475 -0.002618 0.026771 0.003903
# 6 0.004959 0.000440 0.002214 -0.000024 0.003903 0.020243
#
#
# Mechanical properties :
#
#
# Convention : Reuss Voigt Hill
#
# Bulk Modulus (GPa) = 28.82250 58.19315 43.50783
# Shear Modulus (GPa) = 32.09204 43.26761 37.67983
#
# Velocity S-wave (km/s) = 3.54595 4.11733 3.84228
# Velocity P-wave (km/s) = 5.29696 6.73822 6.06058
#
# Compressibility (1/GPa) = 0.03469512
#
# Stress axis : x y z
#
# Youngs Moduli (GPa) = 87.91530 92.72142 54.04893
#
# Poissons Ratio (x) = 0.30215 0.01503
# Poissons Ratio (y) = 0.28649 -0.02992
# Poissons Ratio (z) = 0.02445 -0.05133
#
# Static dielectric constant tensor:
#      x y z
#    x 1.935730 0.097890 0.171840 
#    y 0.097890 1.923800 -0.159090 
#    z 0.171840 -0.159090 1.887420 
# 
# From -- ./inp_files/405202.got.cif
#   From: 2010.05.17/outbox.cif.g08.bks.cpg/sg2_203_cif.got.tgz:405202.got - 2010.06.03 11:33:40.
