data_PCOD9043342
_publ_section_title
;
Structure prediction by ZEFSAII (Michael W. Deem and Ramdas Pophale) SiO2 
 PCOD9043342
Probable space group: P -1
;
_chemical_formula_sum "Si O2"
_cell_formula_units_Z 16
_cell_length_a 13.003966
_cell_length_b 14.712359
_cell_length_c 14.401923
_cell_angle_alpha 151.445932
_cell_angle_beta 149.130407
_cell_angle_gamma 30.464257
_cell_volume 606.684160
_symmetry_space_group_name_H-M "P -1"
_symmetry_group_IT_number 2
_symmetry_cell_setting 'triclinic'
loop_
_space_group_symop_operation_xyz
x,y,z
-x,-y,-z
loop_
_atom_site_type_symbol
_atom_site_label
_atom_site_fract_x
_atom_site_fract_y
_atom_site_fract_z
Si Si1 0.447820 0.088477 0.263998
Si Si2 0.328773 0.742933 0.780855
Si Si3 0.800008 0.429182 0.301655
Si Si4 0.839699 0.119120 0.712421
Si Si5 0.233661 0.145968 0.326987
Si Si6 0.991566 0.281381 0.811889
Si Si7 0.441931 0.699917 0.167718
Si Si8 0.643964 0.190416 0.340701
O O1 0.661991 0.061912 0.467524
O O2 0.234179 0.191780 0.259057
O O3 0.455342 0.219026 0.296102
O O4 0.451339 0.868726 0.037476
O O5 0.314143 0.575134 0.691601
O O6 0.427320 0.690501 0.705963
O O7 0.071655 0.910848 0.713971
O O8 0.000000 0.500000 0.500000
O O9 0.000492 0.182305 0.224273
O O10 0.635295 0.431913 0.091301
O O11 0.750203 0.227537 0.838304
O O12 0.881004 0.282153 0.825669
O O13 0.364104 0.276729 0.589310
O O14 0.403700 0.901751 0.254976
O O15 0.833922 0.245462 0.581568
O O16 0.225900 0.066953 0.802279
O O17 0.000000 0.500000 0.000000
#
# Coordination Sequence:
#
# PCOD9043342 Si02
#       8
#     2   2   2   2   2   2   2   2
#     4  11  23  43  76 100 148 196 240 311 374 441
#     4  11  23  45  75 105 150 194 248 308 374 448
#     4  11  25  45  71 108 148 195 249 314 368 451
#     4  10  23  45  70 106 150 188 251 310 367 453
#     4  11  25  46  70 105 151 195 249 311 376 438
#     4   9  19  40  71 103 143 194 246 302 371 449
#     4  12  25  43  72 105 146 200 248 309 380 439
#     4   9  21  43  67 106 148 188 245 312 367 443
#
# _framework density 26.372865999999998
#
# number of rings (size 3 to 8) (size 9 to 14) (size 15 to 20)
#    0.000    1.500    2.500    2.250    1.750    3.000 
#    4.500    0.625    0.000    0.000    0.000    0.000 
#    0.000    0.000    0.000    0.000    0.000    0.000 
#
# Total GULP energy -89485.920228 kJ/mol
# GULP energy per Si atom -5592.870014 kJ/mol
# Density = 2.631284 g / cm^3
# Si number density = 26.372866 Si / 1000 Ang^3
#
#
#
# Elastic Constant Matrix: (Units=GPa)
#
#
# Indices 1 2 3 4 5 6 
#
# 1 197.4126 57.1922 45.4751 -6.2841 -0.6835 43.2874
# 2 57.1922 126.4338 73.2649 8.0105 13.8035 29.9669
# 3 45.4751 73.2649 153.9825 26.0943 4.3968 28.8195
# 4 -6.2841 8.0105 26.0943 48.7082 4.8480 4.5808
# 5 -0.6835 13.8035 4.3968 4.8480 43.8924 1.4669
# 6 43.2874 29.9669 28.8195 4.5808 1.4669 52.1998
#
#
#
# Elastic Compliance Matrix: (Units=1/GPa)
#
#
# Indices 1 2 3 4 5 6 
#
# 1 0.006771 -0.001849 -0.000634 0.001861 0.000692 -0.004386
# 2 -0.001849 0.012662 -0.004989 0.000981 -0.003520 -0.002969
# 3 -0.000634 -0.004989 0.010154 -0.004639 0.001116 -0.001841
# 4 0.001861 0.000981 -0.004639 0.023474 -0.002356 -0.001539
# 5 0.000692 -0.003520 0.001116 -0.002356 0.024037 0.000363
# 6 -0.004386 -0.002969 -0.001841 -0.001539 0.000363 0.025639
#
#
# Mechanical properties :
#
#
# Convention : Reuss Voigt Hill
#
# Bulk Modulus (GPa) = 68.29203 92.18816 80.24010
# Shear Modulus (GPa) = 40.79564 49.08652 44.94108
#
# Velocity S-wave (km/s) = 3.93731 4.31890 4.13251
# Velocity P-wave (km/s) = 6.82795 7.73965 7.29805
#
# Compressibility (1/GPa) = 0.01464300
#
# Stress axis : x y z
#
# Youngs Moduli (GPa) = 147.69708 78.97372 98.48438
#
# Poissons Ratio (x) = 0.14604 0.06243
# Poissons Ratio (y) = 0.27313 0.49132
# Poissons Ratio (z) = 0.09363 0.39399
#
# Static dielectric constant tensor:
#      x y z
#    x 1.770760 0.547930 0.192700 
#    y 0.547930 0.980510 -0.507190 
#    z 0.192700 -0.507190 1.796340 
# 
# From -- ./inp_files/534648.got.cif
#   From: 2010.05.17/outbox.cif.g08.bks.cpg/sg2_268_cif.got.tgz:534648.got - 2010.06.03 11:33:40.
