data_PCOD9043584
_publ_section_title
;
Structure prediction by ZEFSAII (Michael W. Deem and Ramdas Pophale) SiO2 
 PCOD9043584
Probable space group: P -1
;
_chemical_formula_sum "Si O2"
_cell_formula_units_Z 16
_cell_length_a 11.778871
_cell_length_b 5.145810
_cell_length_c 12.057174
_cell_angle_alpha 86.891843
_cell_angle_beta 125.381804
_cell_angle_gamma 85.626483
_cell_volume 589.734731
_symmetry_space_group_name_H-M "P -1"
_symmetry_group_IT_number 2
_symmetry_cell_setting 'triclinic'
loop_
_space_group_symop_operation_xyz
x,y,z
-x,-y,-z
loop_
_atom_site_type_symbol
_atom_site_label
_atom_site_fract_x
_atom_site_fract_y
_atom_site_fract_z
Si Si1 0.574334 0.009715 0.765089
Si Si2 0.139758 0.068489 0.335735
Si Si3 0.181333 0.674032 0.537961
Si Si4 0.907348 0.491475 0.278586
Si Si5 0.389413 0.328401 0.497754
Si Si6 0.244184 0.454910 0.012638
Si Si7 0.544768 0.246500 0.958202
Si Si8 0.128096 0.794289 0.120128
O O1 0.477766 0.065011 0.603290
O O2 0.491825 0.197931 0.806354
O O3 0.720821 0.113524 0.820045
O O4 0.622620 0.728223 0.854758
O O5 0.262153 0.231884 0.357821
O O6 0.996516 0.258751 0.264602
O O7 0.183398 0.968649 0.487039
O O8 0.123288 0.826942 0.249811
O O9 0.184367 0.616255 0.672011
O O10 0.302873 0.505036 0.539750
O O11 0.027024 0.623084 0.407944
O O12 0.821734 0.664826 0.130377
O O13 0.500000 0.500000 0.500000
O O14 0.295492 0.712592 0.980064
O O15 0.141916 0.536948 0.055842
O O16 0.500000 0.500000 0.000000
O O17 0.500000 0.000000 0.000000
O O18 0.000000 0.000000 0.000000
#
# Coordination Sequence:
#
# PCOD9043584 Si02
#       8
#     2   2   2   2   2   2   2   2
#     4  11  27  45  73 113 153 204 266 324 402 477
#     4  11  24  47  79 106 150 202 263 337 396 482
#     4  10  24  43  76 110 150 200 260 328 395 485
#     4  10  23  45  72 114 153 197 259 324 407 481
#     4  11  27  51  74 109 150 208 270 331 401 487
#     4  11  25  45  75 114 159 204 259 335 398 490
#     4  11  24  46  72 110 157 208 259 317 395 477
#     4  11  25  45  70 111 149 203 258 327 401 473
#
# _framework density 27.130839999999999
#
# number of rings (size 3 to 8) (size 9 to 14) (size 15 to 20)
#    0.000    1.250    2.500    1.125    3.500    9.500 
#    0.000    0.625    0.000    0.000    0.000    0.000 
#    0.000    0.000    0.000    0.000    0.000    0.000 
#
# Total GULP energy -89430.108934 kJ/mol
# GULP energy per Si atom -5589.381808 kJ/mol
# Density = 2.706909 g / cm^3
# Si number density = 27.130840 Si / 1000 Ang^3
#
#
#
# Elastic Constant Matrix: (Units=GPa)
#
#
# Indices 1 2 3 4 5 6 
#
# 1 150.0294 39.7929 54.0751 -0.8075 -11.8892 7.2705
# 2 39.7929 104.9305 44.0048 -13.0983 -11.0551 -4.0148
# 3 54.0751 44.0048 163.5309 -10.6046 -14.4483 -10.4213
# 4 -0.8075 -13.0983 -10.6046 36.6866 -16.4939 -4.0111
# 5 -11.8892 -11.0551 -14.4483 -16.4939 44.4725 4.0260
# 6 7.2705 -4.0148 -10.4213 -4.0111 4.0260 56.7368
#
#
#
# Elastic Compliance Matrix: (Units=1/GPa)
#
#
# Indices 1 2 3 4 5 6 
#
# 1 0.008213 -0.002338 -0.002225 -0.001220 0.000598 -0.001755
# 2 -0.002338 0.012314 -0.001767 0.005686 0.003883 0.000973
# 3 -0.002225 -0.001767 0.007828 0.002848 0.002418 0.001628
# 4 -0.001220 0.005686 0.002848 0.037406 0.015649 0.002616
# 5 0.000598 0.003883 0.002418 0.015649 0.030236 -0.000397
# 6 -0.001755 0.000973 0.001628 0.002616 -0.000397 0.018431
#
#
# Mechanical properties :
#
#
# Convention : Reuss Voigt Hill
#
# Bulk Modulus (GPa) = 63.70987 77.13736 70.42361
# Shear Modulus (GPa) = 37.78703 46.28705 42.03704
#
# Velocity S-wave (km/s) = 3.73603 4.13494 3.94054
# Velocity P-wave (km/s) = 6.49184 7.16172 6.83499
#
# Compressibility (1/GPa) = 0.01569616
#
# Stress axis : x y z
#
# Youngs Moduli (GPa) = 121.75340 81.20964 127.74274
#
# Poissons Ratio (x) = 0.18988 0.28421
# Poissons Ratio (y) = 0.28468 0.22567
# Poissons Ratio (z) = 0.27089 0.14346
#
# Static dielectric constant tensor:
#      x y z
#    x 2.149950 -0.002690 -0.036310 
#    y -0.002690 2.221120 0.010560 
#    z -0.036310 0.010560 2.236450 
# 
# From -- ./inp_files/410342.got.cif
#   From: 2010.05.17/outbox.cif.g08.bks.cpg/sg2_206_cif.got.tgz:410342.got - 2010.06.03 11:33:40.
