data_PCOD9043736
_publ_section_title
;
Structure prediction by ZEFSAII (Michael W. Deem and Ramdas Pophale) SiO2 
 PCOD9043736
Probable space group: P -1
;
_chemical_formula_sum "Si O2"
_cell_formula_units_Z 14
_cell_length_a 13.773263
_cell_length_b 23.036487
_cell_length_c 14.766243
_cell_angle_alpha 158.688306
_cell_angle_beta 29.178995
_cell_angle_gamma 162.077700
_cell_volume 520.266603
_symmetry_space_group_name_H-M "P -1"
_symmetry_group_IT_number 2
_symmetry_cell_setting 'triclinic'
loop_
_space_group_symop_operation_xyz
x,y,z
-x,-y,-z
loop_
_atom_site_type_symbol
_atom_site_label
_atom_site_fract_x
_atom_site_fract_y
_atom_site_fract_z
Si Si1 0.231380 0.603688 0.662219
Si Si2 0.335190 0.535481 0.075348
Si Si3 0.459590 0.946038 0.125771
Si Si4 0.791768 0.885130 0.368528
Si Si5 0.000000 0.500000 0.500000
Si Si6 0.000000 0.500000 0.000000
Si Si7 0.320204 0.286109 0.126215
Si Si8 0.218939 0.348310 0.577645
O O1 0.286789 0.453219 0.415987
O O2 0.898700 0.471275 0.772192
O O3 0.217153 0.621806 0.592870
O O4 0.470458 0.861911 0.899523
O O5 0.458673 0.657694 0.253511
O O6 0.183085 0.264319 0.816459
O O7 0.602389 0.690480 0.007368
O O8 0.276469 0.720315 0.017927
O O9 0.243136 0.972895 0.342204
O O10 0.808454 0.213217 0.263406
O O11 0.064017 0.096277 0.381501
O O12 0.063061 0.714179 0.314300
O O13 0.637890 0.442046 0.154396
O O14 0.000000 0.000000 0.000000
O O15 0.500000 0.500000 0.500000
#
# Coordination Sequence:
#
# PCOD9043736 Si02
#       8
#     2   2   2   2   1   1   2   2
#     4  12  28  49  79 113 154 209 258 323 397 465
#     4  11  24  47  74 108 152 200 250 320 385 464
#     4  11  24  48  75 115 155 205 262 322 393 467
#     4  10  23  45  74 108 150 200 256 316 388 451
#     4  12  26  46  76 118 152 202 268 320 378 476
#     4  10  24  44  78 104 146 206 256 306 394 458
#     4  12  29  47  73 116 153 198 263 322 391 471
#     4  11  24  44  70 106 146 199 252 316 374 463
#
# _framework density 26.909282999999999
#
# number of rings (size 3 to 8) (size 9 to 14) (size 15 to 20)
#    0.000    0.857    1.429    4.714    4.000    7.429 
#    0.000    0.000    0.000    0.000    0.000    0.000 
#    0.000    0.000    0.000    0.000    0.000    0.000 
#
# Total GULP energy -78004.988479 kJ/mol
# GULP energy per Si atom -5571.784891 kJ/mol
# Density = 2.684804 g / cm^3
# Si number density = 26.909283 Si / 1000 Ang^3
#
#
#
# Elastic Constant Matrix: (Units=GPa)
#
#
# Indices 1 2 3 4 5 6 
#
# 1 93.1811 23.1900 47.2798 7.1378 9.2947 -15.1661
# 2 23.1900 118.7152 15.5628 22.7530 -12.6543 -31.4742
# 3 47.2798 15.5628 141.9329 -0.6851 0.7233 -8.9876
# 4 7.1378 22.7530 -0.6851 51.6386 5.2559 -4.0347
# 5 9.2947 -12.6543 0.7233 5.2559 39.5678 6.9654
# 6 -15.1661 -31.4742 -8.9876 -4.0347 6.9654 47.8951
#
#
#
# Elastic Compliance Matrix: (Units=1/GPa)
#
#
# Indices 1 2 3 4 5 6 
#
# 1 0.014381 -0.001745 -0.004379 -0.000588 -0.004335 0.003166
# 2 -0.001745 0.011775 -0.000362 -0.004851 0.003741 0.006165
# 3 -0.004379 -0.000362 0.008542 0.000807 0.000658 -0.000049
# 4 -0.000588 -0.004851 0.000807 0.021964 -0.004212 -0.000760
# 5 -0.004335 0.003741 0.000658 -0.004212 0.028618 -0.003307
# 6 0.003166 0.006165 -0.000049 -0.000760 -0.003307 0.026340
#
#
# Mechanical properties :
#
#
# Convention : Reuss Voigt Hill
#
# Bulk Modulus (GPa) = 46.03091 58.43272 52.23181
# Shear Modulus (GPa) = 37.92660 45.67340 41.80000
#
# Velocity S-wave (km/s) = 3.75830 4.12431 3.94555
# Velocity P-wave (km/s) = 5.99802 6.66647 6.34106
#
# Compressibility (1/GPa) = 0.02172453
#
# Stress axis : x y z
#
# Youngs Moduli (GPa) = 69.53607 84.92754 117.07505
#
# Poissons Ratio (x) = 0.14820 0.51272
# Poissons Ratio (y) = 0.12134 0.04237
# Poissons Ratio (z) = 0.30453 0.03074
#
# Static dielectric constant tensor:
#      x y z
#    x 1.496680 -1.100940 0.747990 
#    y -1.100940 -0.352250 1.435880 
#    z 0.747990 1.435880 1.152170 
# 
# From -- ./inp_files/427100.got.cif
#   From: 2010.05.17/outbox.cif.g08.bks.cpg/sg2_214_cif.got.tgz:427100.got - 2010.06.03 11:33:40.
