data_PCOD9043011
_publ_section_title
;
Structure prediction by ZEFSAII (Michael W. Deem and Ramdas Pophale) SiO2 
 PCOD9043011
Probable space group: P -1
;
_chemical_formula_sum "Si O2"
_cell_formula_units_Z 14
_cell_length_a 17.507747
_cell_length_b 8.717943
_cell_length_c 16.091754
_cell_angle_alpha 118.592256
_cell_angle_beta 153.346276
_cell_angle_gamma 44.375858
_cell_volume 662.472864
_symmetry_space_group_name_H-M "P -1"
_symmetry_group_IT_number 2
_symmetry_cell_setting 'triclinic'
loop_
_space_group_symop_operation_xyz
x,y,z
-x,-y,-z
loop_
_atom_site_type_symbol
_atom_site_label
_atom_site_fract_x
_atom_site_fract_y
_atom_site_fract_z
Si Si1 0.348317 0.116741 0.469932
Si Si2 0.606320 0.415384 0.933863
Si Si3 0.125639 0.739511 0.013307
Si Si4 0.734926 0.991733 0.055980
Si Si5 0.312072 0.262074 0.832891
Si Si6 0.764509 0.657768 0.872144
Si Si7 0.117159 0.613992 0.470339
O O1 0.277208 0.355952 0.503764
O O2 0.091488 0.211062 0.227534
O O3 0.500000 0.000000 0.500000
O O4 0.519282 0.887839 0.642365
O O5 0.311230 0.600520 0.697331
O O6 0.686996 0.345447 0.898391
O O7 0.681296 0.548431 0.074689
O O8 0.736935 0.166108 0.049616
O O9 0.245700 0.523682 0.142712
O O10 0.000000 0.000000 0.000000
O O11 0.923473 0.851586 0.280662
O O12 0.801840 0.775221 0.009528
O O13 0.451226 0.172374 0.857265
O O14 0.046714 0.370690 0.617806
O O15 0.500000 0.000000 0.000000
O O16 0.000000 0.500000 0.000000
#
# Coordination Sequence:
#
# PCOD9043011 Si02
#       7
#     2   2   2   2   2   2   2
#     4  12  22  42  70  96 131 178 220 274 341 395
#     4  12  24  43  68 102 137 176 230 277 336 401
#     4  12  25  41  66 101 141 173 225 283 332 407
#     4  11  23  42  70  99 133 180 226 279 336 400
#     4  10  23  45  67  98 140 178 227 281 333 397
#     4  12  23  43  70  98 134 179 222 277 341 400
#     4  11  23  45  69  98 137 181 223 280 338 394
#
# _framework density 21.132940999999999
#
# number of rings (size 3 to 8) (size 9 to 14) (size 15 to 20)
#    0.000    0.571    5.714    3.000    0.000    4.571 
#    0.000    0.000    0.000    0.000    0.000    0.000 
#    0.000    0.000    0.000    0.000    0.000    0.000 
#
# Total GULP energy -78321.055834 kJ/mol
# GULP energy per Si atom -5594.361131 kJ/mol
# Density = 2.108484 g / cm^3
# Si number density = 21.132941 Si / 1000 Ang^3
#
#
#
# Elastic Constant Matrix: (Units=GPa)
#
#
# Indices 1 2 3 4 5 6 
#
# 1 119.7290 49.7999 18.3341 -20.9174 22.0679 23.1179
# 2 49.7999 102.0288 -3.2601 -11.4918 7.5360 14.3801
# 3 18.3341 -3.2601 99.5580 -11.9805 7.1655 21.6125
# 4 -20.9174 -11.4918 -11.9805 32.2200 8.6333 -2.7226
# 5 22.0679 7.5360 7.1655 8.6333 46.7812 -16.3724
# 6 23.1179 14.3801 21.6125 -2.7226 -16.3724 49.9738
#
#
#
# Elastic Compliance Matrix: (Units=1/GPa)
#
#
# Indices 1 2 3 4 5 6 
#
# 1 0.016677 -0.004074 0.001722 0.012750 -0.013706 -0.011083
# 2 -0.004074 0.012899 0.002489 0.003216 -0.002356 -0.003500
# 3 0.001722 0.002489 0.013485 0.008403 -0.008177 -0.009566
# 4 0.012750 0.003216 0.008403 0.048204 -0.021976 -0.015031
# 5 -0.013706 -0.002356 -0.008177 -0.021976 0.041570 0.022977
# 6 -0.011083 -0.003500 -0.009566 -0.015031 0.022977 0.036990
#
#
# Mechanical properties :
#
#
# Convention : Reuss Voigt Hill
#
# Bulk Modulus (GPa) = 23.07644 50.11817 36.59731
# Shear Modulus (GPa) = 27.17438 42.89112 35.03275
#
# Velocity S-wave (km/s) = 3.58980 4.50998 4.07594
# Velocity P-wave (km/s) = 5.30336 7.13352 6.28541
#
# Compressibility (1/GPa) = 0.04333424
#
# Stress axis : x y z
#
# Youngs Moduli (GPa) = 59.96350 77.52577 74.15556
#
# Poissons Ratio (x) = 0.31588 -0.12770
# Poissons Ratio (y) = 0.24432 -0.18458
# Poissons Ratio (z) = -0.10326 -0.19297
#
# Static dielectric constant tensor:
#      x y z
#    x 1.809050 -0.022480 -0.002540 
#    y -0.022480 1.728090 -0.018630 
#    z -0.002540 -0.018630 1.757480 
# 
# From -- ./inp_files/221392.got.cif
#   From: 2010.05.17/outbox.cif.g08.bks.cpg/sg2_111_cif.got.tgz:221392.got - 2010.06.03 11:33:40.
