data_PCOD9043888
_publ_section_title
;
Structure prediction by ZEFSAII (Michael W. Deem and Ramdas Pophale) SiO2 
 PCOD9043888
Probable space group: P -1
;
_chemical_formula_sum "Si O2"
_cell_formula_units_Z 13
_cell_length_a 8.931446
_cell_length_b 11.673821
_cell_length_c 20.489592
_cell_angle_alpha 29.331802
_cell_angle_beta 148.122926
_cell_angle_gamma 141.389275
_cell_volume 545.648305
_symmetry_space_group_name_H-M "P -1"
_symmetry_group_IT_number 2
_symmetry_cell_setting 'triclinic'
loop_
_space_group_symop_operation_xyz
x,y,z
-x,-y,-z
loop_
_atom_site_type_symbol
_atom_site_label
_atom_site_fract_x
_atom_site_fract_y
_atom_site_fract_z
Si Si1 0.148339 0.299344 0.188485
Si Si2 0.620581 0.706507 0.583924
Si Si3 0.000000 0.500000 0.500000
Si Si4 0.327880 0.750554 0.686087
Si Si5 0.194748 0.069195 0.837065
Si Si6 0.138730 0.638865 0.249523
Si Si7 0.763722 0.881881 0.887423
O O1 0.199695 0.342874 0.261471
O O2 0.446769 0.277649 0.273694
O O3 0.934695 0.057414 0.214391
O O4 0.000000 0.500000 0.000000
O O5 0.667317 0.516647 0.641020
O O6 0.283667 0.680903 0.487498
O O7 0.732207 0.980807 0.471676
O O8 0.788600 0.655865 0.306532
O O9 0.492861 0.735087 0.823580
O O10 0.054851 0.546581 0.682437
O O11 0.991761 0.966317 0.872561
O O12 0.500000 0.000000 0.000000
O O13 0.305036 0.872891 0.229131
O O14 0.917929 0.741881 0.067551
#
# Coordination Sequence:
#
# PCOD9043888 Si02
#       7
#     2   2   1   2   2   2   2
#     4  11  24  43  71  99 140 178 241 294 355 430
#     4  12  25  46  67 108 135 188 235 293 370 416
#     4  12  24  44  74  98 150 180 236 310 340 436
#     4  11  24  45  68 102 141 180 238 292 351 432
#     4  11  24  44  71 105 139 186 237 293 361 422
#     4  11  25  44  72  94 147 186 234 293 354 435
#     4  10  23  46  65 103 136 186 240 284 356 422
#
# _framework density 23.824870000000001
#
# number of rings (size 3 to 8) (size 9 to 14) (size 15 to 20)
#    0.000    0.923    3.077    5.077    4.308    0.615 
#    5.538    0.000    0.000    0.000    0.000    0.000 
#    0.000    0.000    0.000    0.000    0.000    0.000 
#
# Total GULP energy -72592.301293 kJ/mol
# GULP energy per Si atom -5584.023176 kJ/mol
# Density = 2.377064 g / cm^3
# Si number density = 23.824870 Si / 1000 Ang^3
#
#
#
# Elastic Constant Matrix: (Units=GPa)
#
#
# Indices 1 2 3 4 5 6 
#
# 1 41.3528 17.6773 11.2970 -6.3566 8.4334 -3.8673
# 2 17.6773 76.2633 -2.0540 -9.1698 7.7776 4.6411
# 3 11.2970 -2.0540 110.8593 -17.8716 5.6249 8.1143
# 4 -6.3566 -9.1698 -17.8716 38.4228 -2.8071 -6.0152
# 5 8.4334 7.7776 5.6249 -2.8071 27.3927 -14.1793
# 6 -3.8673 4.6411 8.1143 -6.0152 -14.1793 31.4341
#
#
#
# Elastic Compliance Matrix: (Units=1/GPa)
#
#
# Indices 1 2 3 4 5 6 
#
# 1 0.029264 -0.006346 -0.002770 0.002280 -0.004515 0.003652
# 2 -0.006346 0.015855 0.002033 0.002359 -0.005711 -0.005771
# 3 -0.002770 0.002033 0.010476 0.003969 -0.003662 -0.004238
# 4 0.002280 0.002359 0.003969 0.030169 0.004341 0.006639
# 5 -0.004515 -0.005711 -0.003662 0.004341 0.054511 0.026653
# 6 0.003652 -0.005771 -0.004238 0.006639 0.026653 0.047501
#
#
# Mechanical properties :
#
#
# Convention : Reuss Voigt Hill
#
# Bulk Modulus (GPa) = 24.13705 31.36845 27.75275
# Shear Modulus (GPa) = 23.17469 32.88693 28.03081
#
# Velocity S-wave (km/s) = 3.12221 3.71935 3.43379
# Velocity P-wave (km/s) = 4.81151 5.62491 5.23404
#
# Compressibility (1/GPa) = 0.04143009
#
# Stress axis : x y z
#
# Youngs Moduli (GPa) = 34.17121 63.07002 95.45423
#
# Poissons Ratio (x) = 0.40021 0.26444
# Poissons Ratio (y) = 0.21683 -0.19405
# Poissons Ratio (z) = 0.09467 -0.12822
#
# Static dielectric constant tensor:
#      x y z
#    x 1.905150 -0.024680 -0.001750 
#    y -0.024680 1.936480 -0.018890 
#    z -0.001750 -0.018890 1.885080 
# 
# From -- ./inp_files/272013.got.cif
#   From: 2010.05.17/outbox.cif.g08.bks.cpg/sg2_137_cif.got.tgz:272013.got - 2010.06.03 11:33:40.
