data_PCOD9043230
_publ_section_title
;
Structure prediction by ZEFSAII (Michael W. Deem and Ramdas Pophale) SiO2 
 PCOD9043230
Probable space group: P -1
;
_chemical_formula_sum "Si O2"
_cell_formula_units_Z 14
_cell_length_a 15.679195
_cell_length_b 7.526655
_cell_length_c 9.122012
_cell_angle_alpha 105.657702
_cell_angle_beta 117.191365
_cell_angle_gamma 114.719179
_cell_volume 714.341355
_symmetry_space_group_name_H-M "P -1"
_symmetry_group_IT_number 2
_symmetry_cell_setting 'triclinic'
loop_
_space_group_symop_operation_xyz
x,y,z
-x,-y,-z
loop_
_atom_site_type_symbol
_atom_site_label
_atom_site_fract_x
_atom_site_fract_y
_atom_site_fract_z
Si Si1 0.237635 0.336796 0.094734
Si Si2 0.281508 0.964925 0.001134
Si Si3 0.995392 0.488329 0.316672
Si Si4 0.019462 0.928657 0.341347
Si Si5 0.616750 0.082059 0.206963
Si Si6 0.812668 0.599893 0.599993
Si Si7 0.555352 0.131169 0.725735
O O1 0.223515 0.379689 0.262064
O O2 0.281966 0.180330 0.083945
O O3 0.337618 0.589503 0.152020
O O4 0.105210 0.193499 0.878439
O O5 0.304611 0.956206 0.844103
O O6 0.146966 0.721573 0.881505
O O7 0.382679 0.970806 0.170283
O O8 0.038299 0.734986 0.340116
O O9 0.079700 0.423761 0.313405
O O10 0.000000 0.500000 0.500000
O O11 0.131349 0.165034 0.398358
O O12 0.000000 0.000000 0.500000
O O13 0.700070 0.358816 0.377499
O O14 0.555664 0.929833 0.272571
O O15 0.500000 0.000000 0.000000
O O16 0.500000 0.000000 0.500000
#
# Coordination Sequence:
#
# PCOD9043230 Si02
#       7
#     2   2   2   2   2   2   2
#     4  12  26  44  68 104 139 174 228 284 337 401
#     4  11  23  44  70  97 136 178 226 282 336 400
#     4  12  22  41  70 100 138 175 219 281 344 402
#     4  12  24  41  69 101 136 179 221 276 342 405
#     4  10  23  45  69  94 135 182 225 276 328 403
#     4  12  25  44  68 104 139 172 228 280 341 403
#     4  11  24  47  70  95 138 183 226 279 337 394
#
# _framework density 19.598474
#
# number of rings (size 3 to 8) (size 9 to 14) (size 15 to 20)
#    0.000    0.571    7.143    0.429    2.000    2.857 
#    0.000    0.000    0.000    0.000    0.000    0.000 
#    0.000    0.000    0.000    0.000    0.000    0.000 
#
# Total GULP energy -78285.380682 kJ/mol
# GULP energy per Si atom -5591.812906 kJ/mol
# Density = 1.955387 g / cm^3
# Si number density = 19.598474 Si / 1000 Ang^3
#
#
#
# Elastic Constant Matrix: (Units=GPa)
#
#
# Indices 1 2 3 4 5 6 
#
# 1 112.5041 75.5830 47.9108 6.8665 -26.1327 0.6410
# 2 75.5830 143.1770 33.7703 1.6783 -18.2013 7.0266
# 3 47.9108 33.7703 120.6862 5.0249 -11.0546 9.3121
# 4 6.8665 1.6783 5.0249 25.9443 3.4017 5.5906
# 5 -26.1327 -18.2013 -11.0546 3.4017 40.4392 2.6618
# 6 0.6410 7.0266 9.3121 5.5906 2.6618 43.5587
#
#
#
# Elastic Compliance Matrix: (Units=1/GPa)
#
#
# Indices 1 2 3 4 5 6 
#
# 1 0.017624 -0.007443 -0.004217 -0.004738 0.007152 0.002014
# 2 -0.007443 0.011011 -0.000039 0.001654 0.000120 -0.001878
# 3 -0.004217 -0.000039 0.010167 -0.000434 0.000209 -0.002062
# 4 -0.004738 0.001654 -0.000434 0.041609 -0.005600 -0.005103
# 5 0.007152 0.000120 0.000209 -0.005600 0.030017 -0.001285
# 6 0.002014 -0.001878 -0.002062 -0.005103 -0.001285 0.024405
#
#
# Mechanical properties :
#
#
# Convention : Reuss Voigt Hill
#
# Bulk Modulus (GPa) = 64.91918 76.76616 70.84267
# Shear Modulus (GPa) = 30.60632 36.59532 33.60082
#
# Velocity S-wave (km/s) = 3.95608 4.32586 4.14510
# Velocity P-wave (km/s) = 7.35282 8.01282 7.68990
#
# Compressibility (1/GPa) = 0.01540377
#
# Stress axis : x y z
#
# Youngs Moduli (GPa) = 56.74197 90.82012 98.35536
#
# Poissons Ratio (x) = 0.67598 0.41473
# Poissons Ratio (y) = 0.42233 0.00386
# Poissons Ratio (z) = 0.23926 0.00357
#
# Static dielectric constant tensor:
#      x y z
#    x 1.653290 0.012830 0.016710 
#    y 0.012830 1.669970 -0.002140 
#    z 0.016710 -0.002140 1.669120 
# 
# From -- ./inp_files/325157.got.cif
#   From: 2010.05.17/outbox.cif.g08.bks.cpg/sg2_163_cif.got.tgz:325157.got - 2010.06.03 11:33:40.
