data_PCOD9043511
_publ_section_title
;
Structure prediction by ZEFSAII (Michael W. Deem and Ramdas Pophale) SiO2 
 PCOD9043511
Probable space group: P -1
;
_chemical_formula_sum "Si O2"
_cell_formula_units_Z 15
_cell_length_a 14.381205
_cell_length_b 14.721770
_cell_length_c 10.950408
_cell_angle_alpha 108.288044
_cell_angle_beta 62.408406
_cell_angle_gamma 159.975166
_cell_volume 644.875853
_symmetry_space_group_name_H-M "P -1"
_symmetry_group_IT_number 2
_symmetry_cell_setting 'triclinic'
loop_
_space_group_symop_operation_xyz
x,y,z
-x,-y,-z
loop_
_atom_site_type_symbol
_atom_site_label
_atom_site_fract_x
_atom_site_fract_y
_atom_site_fract_z
Si Si1 0.817267 0.992350 0.723290
Si Si2 0.301425 0.046286 0.660456
Si Si3 0.431022 0.486638 0.699243
Si Si4 0.859201 0.667324 0.544514
Si Si5 0.500000 0.000000 0.500000
Si Si6 0.323197 0.702101 0.000575
Si Si7 0.400007 0.914182 0.817566
Si Si8 0.188129 0.260260 0.013705
O O1 0.116391 0.199075 0.691375
O O2 0.973167 0.207062 0.633075
O O3 0.630794 0.752757 0.656204
O O4 0.581568 0.840667 0.896182
O O5 0.630131 0.386889 0.611588
O O6 0.374900 0.998468 0.605992
O O7 0.131366 0.921159 0.583151
O O8 0.047855 0.868466 0.835011
O O9 0.645016 0.577020 0.616368
O O10 0.307714 0.401915 0.873162
O O11 0.510829 0.985843 0.642653
O O12 0.370491 0.800969 0.885436
O O13 0.960998 0.357128 0.081573
O O14 0.383434 0.822667 0.131144
O O15 0.500000 0.500000 0.000000
O O16 0.000000 0.000000 0.000000
#
# Coordination Sequence:
#
# PCOD9043511 Si02
#       8
#     2   2   2   2   1   2   2   2
#     4  12  25  40  72 104 140 179 235 294 345 432
#     4  12  27  46  74 102 144 190 231 293 360 429
#     4  12  24  42  70 106 139 179 240 291 345 421
#     4  12  25  48  68 102 146 188 225 288 368 419
#     4  12  30  48  74 114 144 186 252 310 356 424
#     4  10  23  45  71  98 137 194 232 288 368 426
#     4  10  24  47  70  97 140 183 244 297 351 428
#     4  12  23  47  72  99 139 189 236 284 360 428
#
# _framework density 23.260292
#
# number of rings (size 3 to 8) (size 9 to 14) (size 15 to 20)
#    0.000    0.533    2.667    4.800    3.733    6.400 
#    0.000    0.000    0.000    0.000    0.000    0.000 
#    0.000    0.000    0.000    0.000    0.000    0.000 
#
# Total GULP energy -83698.336525 kJ/mol
# GULP energy per Si atom -5579.889102 kJ/mol
# Density = 2.320735 g / cm^3
# Si number density = 23.260292 Si / 1000 Ang^3
#
#
#
# Elastic Constant Matrix: (Units=GPa)
#
#
# Indices 1 2 3 4 5 6 
#
# 1 52.2125 6.8641 13.3894 15.6139 8.1352 -46.8352
# 2 6.8641 81.0558 2.9419 2.5917 9.6038 -3.6263
# 3 13.3894 2.9419 88.9295 27.2449 32.3520 -57.3744
# 4 15.6139 2.5917 27.2449 20.7593 -7.7714 15.1156
# 5 8.1352 9.6038 32.3520 -7.7714 24.3427 43.4053
# 6 -46.8352 -3.6263 -57.3744 15.1156 43.4053 -26.2309
#
#
#
# Elastic Compliance Matrix: (Units=1/GPa)
#
#
# Indices 1 2 3 4 5 6 
#
# 1 0.017983 -0.002356 -0.007162 0.000731 0.008267 -0.002016
# 2 -0.002356 0.012746 -0.000016 0.000168 -0.002218 -0.001093
# 3 -0.007162 -0.000016 0.008720 -0.001498 0.000778 -0.005858
# 4 0.000731 0.000168 -0.001498 0.038188 -0.007300 0.011874
# 5 0.008267 -0.002218 0.000778 -0.007300 0.018260 0.009852
# 6 -0.002016 -0.001093 -0.005858 0.011874 0.009852 0.001587
#
#
# Mechanical properties :
#
#
# Convention : Reuss Voigt Hill
#
# Bulk Modulus (GPa) = 49.06768 29.84319 39.45543
# Shear Modulus (GPa) = 40.53612 17.04104 28.78858
#
# Velocity S-wave (km/s) = 4.17912 2.70964 3.52187
# Velocity P-wave (km/s) = 6.66540 4.75894 5.79116
#
# Compressibility (1/GPa) = 0.02038001
#
# Stress axis : x y z
#
# Youngs Moduli (GPa) = 55.60683 78.45715 114.67824
#
# Poissons Ratio (x) = 0.18485 0.82135
# Poissons Ratio (y) = 0.13101 0.00188
# Poissons Ratio (z) = 0.39827 0.00128
#
# Static dielectric constant tensor:
#      x y z
#    x 1.881770 -0.005660 0.063320 
#    y -0.005660 1.914900 -0.049620 
#    z 0.063320 -0.049620 1.913840 
# 
# From -- ./inp_files/454849.got.cif
#   From: 2010.05.17/outbox.cif.g08.bks.cpg/sg2_228_cif.got.tgz:454849.got - 2010.06.03 11:33:40.
