data_PCOD9043544
_publ_section_title
;
Structure prediction by ZEFSAII (Michael W. Deem and Ramdas Pophale) SiO2 
 PCOD9043544
Probable space group: P -1
;
_chemical_formula_sum "Si O2"
_cell_formula_units_Z 16
_cell_length_a 21.245867
_cell_length_b 6.827050
_cell_length_c 5.891280
_cell_angle_alpha 107.069542
_cell_angle_beta 60.736105
_cell_angle_gamma 96.786839
_cell_volume 712.289137
_symmetry_space_group_name_H-M "P -1"
_symmetry_group_IT_number 2
_symmetry_cell_setting 'triclinic'
loop_
_space_group_symop_operation_xyz
x,y,z
-x,-y,-z
loop_
_atom_site_type_symbol
_atom_site_label
_atom_site_fract_x
_atom_site_fract_y
_atom_site_fract_z
Si Si1 0.557107 0.920313 0.555830
Si Si2 0.342877 0.192742 0.033098
Si Si3 0.753593 0.471325 0.458040
Si Si4 0.492848 0.276466 0.029140
Si Si5 0.009301 0.388195 0.197912
Si Si6 0.139285 0.785982 0.519743
Si Si7 0.766732 0.101743 0.995676
Si Si8 0.829919 0.801702 0.144125
O O1 0.630158 0.839676 0.284559
O O2 0.518183 0.737975 0.689820
O O3 0.500000 0.000000 0.500000
O O4 0.556889 0.120239 0.785480
O O5 0.302460 0.405771 0.240353
O O6 0.416260 0.196062 0.046876
O O7 0.293319 0.996950 0.092546
O O8 0.820209 0.394060 0.471703
O O9 0.778196 0.636706 0.286597
O O10 0.732404 0.267423 0.288664
O O11 0.500000 0.500000 0.000000
O O12 0.000000 0.500000 0.500000
O O13 0.944683 0.229764 0.281498
O O14 0.089936 0.295867 0.038349
O O15 0.000000 0.500000 0.000000
O O16 0.169242 0.783773 0.209600
O O17 0.164995 0.003073 0.635671
O O18 0.801633 0.903546 0.995413
#
# Coordination Sequence:
#
# PCOD9043544 Si02
#       8
#     2   2   2   2   2   2   2   2
#     4   9  22  45  66  99 139 172 228 283 340 420
#     4  11  25  43  71 104 142 187 229 291 364 426
#     4  11  25  45  67 102 142 185 241 298 361 440
#     4  10  23  45  72 102 139 181 234 286 344 428
#     4  12  27  45  77 105 145 203 255 309 387 440
#     4  11  25  47  70 103 141 193 247 305 364 435
#     4  11  27  43  70 103 142 189 239 304 361 436
#     4  11  25  47  70 100 148 184 249 306 362 437
#
# _framework density 22.462786999999999
#
# number of rings (size 3 to 8) (size 9 to 14) (size 15 to 20)
#    0.000    1.250    2.500    1.125   10.500    2.500 
#    4.500    0.000    0.000    0.000    0.000    0.000 
#    0.000    0.000    0.000    0.000    0.000    0.000 
#
# Total GULP energy -89255.961880 kJ/mol
# GULP energy per Si atom -5578.497618 kJ/mol
# Density = 2.241166 g / cm^3
# Si number density = 22.462787 Si / 1000 Ang^3
#
#
#
# Elastic Constant Matrix: (Units=GPa)
#
#
# Indices 1 2 3 4 5 6 
#
# 1 78.7022 38.3498 24.6507 1.4995 -5.1909 1.1092
# 2 38.3498 136.9055 48.9935 -15.7590 1.6584 -7.4265
# 3 24.6507 48.9935 129.3672 -0.9736 -23.5994 -5.6218
# 4 1.4995 -15.7590 -0.9736 46.9068 -7.5685 -1.9390
# 5 -5.1909 1.6584 -23.5994 -7.5685 29.0574 1.7876
# 6 1.1092 -7.4265 -5.6218 -1.9390 1.7876 22.8980
#
#
#
# Elastic Compliance Matrix: (Units=1/GPa)
#
#
# Indices 1 2 3 4 5 6 
#
# 1 0.015321 -0.004266 -0.001108 -0.001769 0.001785 -0.002687
# 2 -0.004266 0.010372 -0.003625 0.003083 -0.003694 0.003230
# 3 -0.001108 -0.003625 0.011006 0.000541 0.009032 0.000921
# 4 -0.001769 0.003083 0.000541 0.023487 0.005896 0.002747
# 5 0.001785 -0.003694 0.009032 0.005896 0.043938 -0.001998
# 6 -0.002687 0.003230 0.000921 0.002747 -0.001998 0.045464
#
#
# Mechanical properties :
#
#
# Convention : Reuss Voigt Hill
#
# Bulk Modulus (GPa) = 53.47830 63.21810 58.34820
# Shear Modulus (GPa) = 28.76518 35.30449 32.03483
#
# Velocity S-wave (km/s) = 3.58239 3.96875 3.78051
# Velocity P-wave (km/s) = 6.40082 7.01469 6.71478
#
# Compressibility (1/GPa) = 0.01869917
#
# Stress axis : x y z
#
# Youngs Moduli (GPa) = 65.26826 96.41750 90.86176
#
# Poissons Ratio (x) = 0.41134 0.10070
# Poissons Ratio (y) = 0.27845 0.32940
# Poissons Ratio (z) = 0.07233 0.34954
#
# Static dielectric constant tensor:
#      x y z
#    x 1.880630 0.019590 0.044020 
#    y 0.019590 1.827850 -0.048100 
#    z 0.044020 -0.048100 1.995820 
# 
# From -- ./inp_files/121720.got.cif
#   From: 2010.05.17/outbox.cif.g08.bks.cpg/sg2_61_cif.got.tgz:121720.got - 2010.06.03 11:33:40.
