data_PCOD9043610
_publ_section_title
;
Structure prediction by ZEFSAII (Michael W. Deem and Ramdas Pophale) SiO2 
 PCOD9043610
Probable space group: P -1
;
_chemical_formula_sum "Si O2"
_cell_formula_units_Z 15
_cell_length_a 12.310566
_cell_length_b 7.224733
_cell_length_c 8.267435
_cell_angle_alpha 93.706626
_cell_angle_beta 50.840956
_cell_angle_gamma 94.834272
_cell_volume 568.066233
_symmetry_space_group_name_H-M "P -1"
_symmetry_group_IT_number 2
_symmetry_cell_setting 'triclinic'
loop_
_space_group_symop_operation_xyz
x,y,z
-x,-y,-z
loop_
_atom_site_type_symbol
_atom_site_label
_atom_site_fract_x
_atom_site_fract_y
_atom_site_fract_z
Si Si1 0.542438 0.722320 0.305140
Si Si2 0.219921 0.818740 0.118950
Si Si3 0.856675 0.827157 0.003149
Si Si4 0.755185 0.696785 0.616978
Si Si5 0.961492 0.645016 0.174544
Si Si6 0.979053 0.284765 0.453616
Si Si7 0.500000 0.500000 0.000000
Si Si8 0.502009 0.156007 0.297490
O O1 0.710528 0.704900 0.155975
O O2 0.482616 0.720913 0.546531
O O3 0.519258 0.938973 0.297060
O O4 0.483399 0.592019 0.208692
O O5 0.104160 0.679403 0.140367
O O6 0.168835 0.803941 0.350900
O O7 0.381777 0.774977 0.941869
O O8 0.194215 0.997136 0.040734
O O9 0.918188 0.829447 0.127718
O O10 0.975912 0.748913 0.772324
O O11 0.828148 0.578871 0.403870
O O12 0.893112 0.800907 0.570024
O O13 0.660427 0.596469 0.836942
O O14 0.648815 0.824068 0.635689
O O15 0.000000 0.500000 0.000000
O O16 0.000000 0.500000 0.500000
#
# Coordination Sequence:
#
# PCOD9043610 Si02
#       8
#     2   2   2   2   2   2   1   2
#     4  10  23  45  73 101 141 179 230 290 345 408
#     4  10  24  41  69 102 129 178 234 282 347 415
#     4  11  20  45  70  93 135 182 231 286 343 416
#     4  11  25  43  68  97 139 181 230 284 348 414
#     4  11  24  43  67  99 135 180 232 290 345 415
#     4  11  24  45  65  98 140 179 224 290 352 407
#     4  12  26  42  66 108 140 180 228 282 356 400
#     4  10  23  47  73 100 136 185 234 279 341 423
#
# _framework density 26.405373999999998
#
# number of rings (size 3 to 8) (size 9 to 14) (size 15 to 20)
#    0.000    1.333    2.667    2.400    3.733    2.133 
#    0.000    0.000    0.000    0.000    0.000    0.000 
#    0.000    0.000    0.000    0.000    0.000    0.000 
#
# Total GULP energy -83613.090862 kJ/mol
# GULP energy per Si atom -5574.206057 kJ/mol
# Density = 2.634527 g / cm^3
# Si number density = 26.405374 Si / 1000 Ang^3
#
#
#
# Elastic Constant Matrix: (Units=GPa)
#
#
# Indices 1 2 3 4 5 6 
#
# 1 89.9680 -6.3486 34.2666 14.6389 -7.1681 2.5195
# 2 -6.3486 57.6566 20.9057 11.9869 0.6832 -7.0551
# 3 34.2666 20.9057 220.5298 -15.9912 -16.7942 2.6360
# 4 14.6389 11.9869 -15.9912 30.8333 2.3666 -0.2727
# 5 -7.1681 0.6832 -16.7942 2.3666 49.7775 1.8917
# 6 2.5195 -7.0551 2.6360 -0.2727 1.8917 34.3511
#
#
#
# Elastic Compliance Matrix: (Units=1/GPa)
#
#
# Indices 1 2 3 4 5 6 
#
# 1 0.014659 0.005108 -0.003443 -0.010837 0.001392 0.000076
# 2 0.005108 0.022661 -0.003990 -0.013229 -0.000464 0.004506
# 3 -0.003443 -0.003990 0.006011 0.006192 0.001333 -0.001053
# 4 -0.010837 -0.013229 0.006192 0.046022 -0.001404 -0.001955
# 5 0.001392 -0.000464 0.001333 -0.001404 0.020868 -0.001460
# 6 0.000076 0.004506 -0.001053 -0.001955 -0.001460 0.030177
#
#
# Mechanical properties :
#
#
# Convention : Reuss Voigt Hill
#
# Bulk Modulus (GPa) = 25.85276 51.75576 38.80426
# Shear Modulus (GPa) = 31.65741 44.28109 37.96925
#
# Velocity S-wave (km/s) = 3.46627 4.09953 3.79613
# Velocity P-wave (km/s) = 5.08252 6.48469 5.82594
#
# Compressibility (1/GPa) = 0.03868059
#
# Stress axis : x y z
#
# Youngs Moduli (GPa) = 68.21787 44.12938 166.36739
#
# Poissons Ratio (x) = -0.22542 0.57276
# Poissons Ratio (y) = -0.34847 0.66387
# Poissons Ratio (z) = 0.23486 0.17609
#
# Static dielectric constant tensor:
#      x y z
#    x 6.029750 -3.837310 -1.214970 
#    y -3.837310 5.858080 1.190890 
#    z -1.214970 1.190890 2.572950 
# 
# From -- ./inp_files/199640.got.cif
#   From: 2010.05.17/outbox.cif.g08.bks.cpg/sg2_100_cif.got.tgz:199640.got - 2010.06.03 11:33:40.
