data_PCOD9043380
_publ_section_title
;
Structure prediction by ZEFSAII (Michael W. Deem and Ramdas Pophale) SiO2 
 PCOD9043380
Probable space group: P -1
;
_chemical_formula_sum "Si O2"
_cell_formula_units_Z 16
_cell_length_a 6.754505
_cell_length_b 11.050572
_cell_length_c 12.168614
_cell_angle_alpha 117.599654
_cell_angle_beta 64.546982
_cell_angle_gamma 105.805337
_cell_volume 723.742950
_symmetry_space_group_name_H-M "P -1"
_symmetry_group_IT_number 2
_symmetry_cell_setting 'triclinic'
loop_
_space_group_symop_operation_xyz
x,y,z
-x,-y,-z
loop_
_atom_site_type_symbol
_atom_site_label
_atom_site_fract_x
_atom_site_fract_y
_atom_site_fract_z
Si Si1 0.764219 0.023092 0.429112
Si Si2 0.497415 0.490949 0.188832
Si Si3 0.617900 0.109747 0.287046
Si Si4 0.994605 0.225361 0.634124
Si Si5 0.561796 0.622498 0.452312
Si Si6 0.741327 0.232588 0.078749
Si Si7 0.236702 0.358482 0.003329
Si Si8 0.386818 0.841850 0.155283
O O1 0.790568 0.054107 0.306958
O O2 0.877960 0.149148 0.525164
O O3 0.500000 0.000000 0.500000
O O4 0.870150 0.887529 0.384388
O O5 0.462928 0.589234 0.340626
O O6 0.579755 0.354165 0.164977
O O7 0.684873 0.557465 0.089046
O O8 0.297298 0.446653 0.135911
O O9 0.526397 0.241417 0.419605
O O10 0.714682 0.149780 0.162537
O O11 0.423189 0.989022 0.265695
O O12 0.174367 0.348327 0.613009
O O13 0.801829 0.252248 0.775738
O O14 0.500000 0.500000 0.500000
O O15 0.679009 0.143465 0.948550
O O16 0.985924 0.302994 0.037218
O O17 0.391306 0.233069 0.920027
#
# Coordination Sequence:
#
# PCOD9043380 Si02
#       8
#     2   2   2   2   2   2   2   2
#     4  11  22  44  69 100 140 177 227 286 338 415
#     4  10  23  45  70  96 140 180 235 282 331 409
#     4  12  25  44  68 103 144 176 226 284 350 412
#     4  11  24  43  72 101 134 182 228 282 350 397
#     4  12  25  45  70 101 144 181 220 285 347 415
#     4  11  24  46  67 100 139 184 225 286 348 401
#     4  10  24  45  73 100 130 186 238 283 333 407
#     4  11  25  44  72 103 136 179 233 289 339 407
#
# _framework density 22.107296999999999
#
# number of rings (size 3 to 8) (size 9 to 14) (size 15 to 20)
#    0.000    1.000    3.750    2.250    5.250    3.500 
#    4.500    1.250    0.000    0.000    0.000    0.000 
#    0.000    0.000    0.000    0.000    0.000    0.000 
#
# Total GULP energy -89590.444325 kJ/mol
# GULP energy per Si atom -5599.402770 kJ/mol
# Density = 2.205698 g / cm^3
# Si number density = 22.107297 Si / 1000 Ang^3
#
#
#
# Elastic Constant Matrix: (Units=GPa)
#
#
# Indices 1 2 3 4 5 6 
#
# 1 80.6957 33.4360 34.3594 2.9020 22.1004 -9.5477
# 2 33.4360 102.7342 42.7293 -6.5022 25.3006 -0.4209
# 3 34.3594 42.7293 121.0879 6.1175 43.9530 -0.6135
# 4 2.9020 -6.5022 6.1175 43.3022 -12.7127 10.6330
# 5 22.1004 25.3006 43.9530 -12.7127 34.7788 -2.7614
# 6 -9.5477 -0.4209 -0.6135 10.6330 -2.7614 17.8759
#
#
#
# Elastic Compliance Matrix: (Units=1/GPa)
#
#
# Indices 1 2 3 4 5 6 
#
# 1 0.019048 -0.004046 0.001339 -0.009281 -0.013165 0.013611
# 2 -0.004046 0.012993 -0.002448 0.002623 -0.003145 -0.003985
# 3 0.001339 -0.002448 0.019582 -0.012556 -0.028052 0.004465
# 4 -0.009281 0.002623 -0.012556 0.041761 0.033133 -0.025048
# 5 -0.013165 -0.003145 -0.028052 0.033133 0.085817 -0.014520
# 6 0.013611 -0.003985 0.004465 -0.025048 -0.014520 0.075927
#
#
# Mechanical properties :
#
#
# Convention : Reuss Voigt Hill
#
# Bulk Modulus (GPa) = 24.20524 58.39636 41.30080
# Shear Modulus (GPa) = 17.90776 32.12425 25.01601
#
# Velocity S-wave (km/s) = 2.84921 3.81610 3.36753
# Velocity P-wave (km/s) = 4.66869 6.77415 5.81747
#
# Compressibility (1/GPa) = 0.04131337
#
# Stress axis : x y z
#
# Youngs Moduli (GPa) = 52.49847 76.96439 51.06767
#
# Poissons Ratio (x) = 0.31139 -0.06839
# Poissons Ratio (y) = 0.21240 0.12503
# Poissons Ratio (z) = -0.07031 0.18843
#
# Static dielectric constant tensor:
#      x y z
#    x 1.787570 -0.010270 -0.002660 
#    y -0.010270 1.814210 0.022660 
#    z -0.002660 0.022660 1.829210 
# 
# From -- ./inp_files/364979.got.cif
#   From: 2010.05.17/outbox.cif.g08.bks.cpg/sg2_183_cif.got.tgz:364979.got - 2010.06.03 11:33:40.
