data_PCOD9043259
_publ_section_title
;
Structure prediction by ZEFSAII (Michael W. Deem and Ramdas Pophale) SiO2 
 PCOD9043259
Probable space group: P -1
;
_chemical_formula_sum "Si O2"
_cell_formula_units_Z 16
_cell_length_a 10.475949
_cell_length_b 12.481834
_cell_length_c 7.988462
_cell_angle_alpha 124.991449
_cell_angle_beta 104.167865
_cell_angle_gamma 50.588618
_cell_volume 649.302819
_symmetry_space_group_name_H-M "P -1"
_symmetry_group_IT_number 2
_symmetry_cell_setting 'triclinic'
loop_
_space_group_symop_operation_xyz
x,y,z
-x,-y,-z
loop_
_atom_site_type_symbol
_atom_site_label
_atom_site_fract_x
_atom_site_fract_y
_atom_site_fract_z
Si Si1 0.091261 0.858737 0.720498
Si Si2 0.060648 0.437090 0.152819
Si Si3 0.167393 0.202414 0.460885
Si Si4 0.300292 0.725906 0.315275
Si Si5 0.014022 0.797734 0.063036
Si Si6 0.364996 0.232311 0.274706
Si Si7 0.688964 0.986969 0.352760
Si Si8 0.387523 0.520383 0.638079
O O1 0.189129 0.789085 0.509288
O O2 0.217811 0.708241 0.753093
O O3 0.920475 0.883161 0.666675
O O4 0.060494 0.030188 0.901581
O O5 0.262028 0.301895 0.128907
O O6 0.986624 0.605350 0.378618
O O7 0.977827 0.356664 0.130980
O O8 0.000000 0.500000 0.000000
O O9 0.261374 0.196965 0.324831
O O10 0.297888 0.122238 0.587319
O O11 0.337209 0.856511 0.427991
O O12 0.479118 0.545751 0.230698
O O13 0.185612 0.736337 0.146932
O O14 0.874798 0.867299 0.228163
O O15 0.556517 0.068928 0.229073
O O16 0.354777 0.387319 0.478341
O O17 0.500000 0.500000 0.500000
#
# Coordination Sequence:
#
# PCOD9043259 Si02
#       8
#     2   2   2   2   2   2   2   2
#     4  10  17  33  60  87 117 156 212 246 293 362
#     4  12  25  41  61  91 131 165 199 257 317 366
#     4  12  21  41  65  92 125 168 204 254 307 372
#     4   9  16  32  59  90 116 151 214 253 288 351
#     4  11  20  37  60  93 122 161 205 254 310 357
#     4  11  25  39  63  96 124 160 213 254 308 368
#     4  10  19  38  64  92 122 159 211 259 294 361
#     4   9  19  33  59  91 114 152 211 262 286 348
#
# _framework density 24.641814
#
# number of rings (size 3 to 8) (size 9 to 14) (size 15 to 20)
#    0.000    1.500    5.000    2.250    1.750    0.500 
#    0.000    0.625    0.000    3.000    0.000    0.000 
#    0.000    0.000    0.000    0.000    0.000    0.000 
#
# Total GULP energy -89436.923509 kJ/mol
# GULP energy per Si atom -5589.807719 kJ/mol
# Density = 2.458573 g / cm^3
# Si number density = 24.641814 Si / 1000 Ang^3
#
#
#
# Elastic Constant Matrix: (Units=GPa)
#
#
# Indices 1 2 3 4 5 6 
#
# 1 62.3271 43.0631 9.9300 -5.1268 12.0284 0.7910
# 2 43.0631 184.7425 46.7124 -22.9589 22.4333 -17.9255
# 3 9.9300 46.7124 71.6793 -17.8610 17.6879 -7.5475
# 4 -5.1268 -22.9589 -17.8610 49.8607 -2.8332 14.3398
# 5 12.0284 22.4333 17.6879 -2.8332 37.0108 -4.6177
# 6 0.7910 -17.9255 -7.5475 14.3398 -4.6177 54.9640
#
#
#
# Elastic Compliance Matrix: (Units=1/GPa)
#
#
# Indices 1 2 3 4 5 6 
#
# 1 0.019944 -0.004533 0.001284 0.000791 -0.004559 -0.002178
# 2 -0.004533 0.007878 -0.003709 0.001278 -0.001221 0.001689
# 3 0.001284 -0.003709 0.019110 0.005017 -0.006981 -0.000499
# 4 0.000791 0.001278 0.005017 0.023930 -0.002263 -0.005339
# 5 -0.004559 -0.001221 -0.006981 -0.002263 0.032659 0.002043
# 6 -0.002178 0.001689 -0.000499 -0.005339 0.002043 0.020272
#
#
# Mechanical properties :
#
#
# Convention : Reuss Voigt Hill
#
# Bulk Modulus (GPa) = 30.28731 57.57331 43.93031
# Shear Modulus (GPa) = 33.62148 42.97000 38.29574
#
# Velocity S-wave (km/s) = 3.69780 4.18039 3.94648
# Velocity P-wave (km/s) = 5.52714 6.83489 6.21551
#
# Compressibility (1/GPa) = 0.03301712
#
# Stress axis : x y z
#
# Youngs Moduli (GPa) = 50.13944 126.93065 52.32832
#
# Poissons Ratio (x) = 0.57539 -0.06718
# Poissons Ratio (y) = 0.22729 0.19406
# Poissons Ratio (z) = -0.06437 0.47074
#
# Static dielectric constant tensor:
#      x y z
#    x 1.909410 -0.002920 -0.010460 
#    y -0.002920 1.993840 -0.037530 
#    z -0.010460 -0.037530 1.986540 
# 
# From -- ./inp_files/260306.got.cif
#   From: 2010.05.17/outbox.cif.g08.bks.cpg/sg2_131_cif.got.tgz:260306.got - 2010.06.03 11:33:40.
