data_PCOD9043622
_publ_section_title
;
Structure prediction by ZEFSAII (Michael W. Deem and Ramdas Pophale) SiO2 
 PCOD9043622
Probable space group: P -1
;
_chemical_formula_sum "Si O2"
_cell_formula_units_Z 12
_cell_length_a 8.356693
_cell_length_b 7.494778
_cell_length_c 19.730027
_cell_angle_alpha 140.920272
_cell_angle_beta 48.557169
_cell_angle_gamma 142.338522
_cell_volume 472.355301
_symmetry_space_group_name_H-M "P -1"
_symmetry_group_IT_number 2
_symmetry_cell_setting 'triclinic'
loop_
_space_group_symop_operation_xyz
x,y,z
-x,-y,-z
loop_
_atom_site_type_symbol
_atom_site_label
_atom_site_fract_x
_atom_site_fract_y
_atom_site_fract_z
Si Si1 0.786373 0.591786 0.958336
Si Si2 0.730474 0.807606 0.482107
Si Si3 0.558929 0.715828 0.801510
Si Si4 0.180665 0.625702 0.773332
Si Si5 0.261104 0.657407 0.430598
Si Si6 0.894271 0.869349 0.149069
O O1 0.170329 0.408096 0.973801
O O2 0.897197 0.425482 0.831748
O O3 0.500000 0.500000 0.000000
O O4 0.000000 0.000000 0.000000
O O5 0.500000 0.500000 0.500000
O O6 0.763432 0.631743 0.354676
O O7 0.721502 0.142279 0.581824
O O8 0.000000 0.000000 0.500000
O O9 0.394663 0.817408 0.832348
O O10 0.697280 0.630837 0.681328
O O11 0.803339 0.932630 0.850740
O O12 0.319851 0.359394 0.800109
O O13 0.167506 0.869659 0.792299
O O14 0.000000 0.500000 0.500000
O O15 0.500000 0.000000 0.500000
#
# Coordination Sequence:
#
# PCOD9043622 Si02
#       6
#     2   2   2   2   2   2
#     4  10  23  45  73 103 144 188 233 303 363 422
#     4  12  26  44  71 104 141 188 243 296 355 436
#     4  12  26  44  75 104 143 193 238 293 365 430
#     4  11  26  47  76 103 145 194 240 293 371 429
#     4  12  24  45  66  98 146 181 236 297 352 422
#     4  11  25  46  69 108 146 181 245 301 351 432
#
# _framework density 25.404605
#
# number of rings (size 3 to 8) (size 9 to 14) (size 15 to 20)
#    0.000    0.667    1.667    6.000    0.000    8.000 
#    0.000    0.000    0.000    0.000    0.000    0.000 
#    0.000    0.000    0.000    0.000    0.000    0.000 
#
# Total GULP energy -66947.089932 kJ/mol
# GULP energy per Si atom -5578.924161 kJ/mol
# Density = 2.534678 g / cm^3
# Si number density = 25.404605 Si / 1000 Ang^3
#
#
#
# Elastic Constant Matrix: (Units=GPa)
#
#
# Indices 1 2 3 4 5 6 
#
# 1 187.5892 65.6852 19.0223 9.1291 -20.0745 33.5633
# 2 65.6852 172.5369 30.4205 -34.8236 -19.6575 25.4191
# 3 19.0223 30.4205 135.2959 -23.7302 -9.9872 -6.4666
# 4 9.1291 -34.8236 -23.7302 45.7344 -3.9549 -9.7211
# 5 -20.0745 -19.6575 -9.9872 -3.9549 44.3023 12.7670
# 6 33.5633 25.4191 -6.4666 -9.7211 12.7670 50.1069
#
#
#
# Elastic Compliance Matrix: (Units=1/GPa)
#
#
# Indices 1 2 3 4 5 6 
#
# 1 0.008176 -0.002608 -0.001563 -0.005466 0.003527 -0.006314
# 2 -0.002608 0.009141 -0.000246 0.007164 0.004209 -0.002605
# 3 -0.001563 -0.000246 0.008828 0.005445 0.000743 0.003178
# 4 -0.005466 0.007164 0.005445 0.032844 0.003038 0.006328
# 5 0.003527 0.004209 0.000743 0.003038 0.029760 -0.011395
# 6 -0.006314 -0.002605 0.003178 0.006328 -0.011395 0.030049
#
#
# Mechanical properties :
#
#
# Convention : Reuss Voigt Hill
#
# Bulk Modulus (GPa) = 57.76870 80.63088 69.19979
# Shear Modulus (GPa) = 37.48026 53.38166 45.43096
#
# Velocity S-wave (km/s) = 3.84517 4.58892 4.23341
# Velocity P-wave (km/s) = 6.51941 7.73855 7.15499
#
# Compressibility (1/GPa) = 0.01731041
#
# Stress axis : x y z
#
# Youngs Moduli (GPa) = 122.31454 109.39356 113.27453
#
# Poissons Ratio (x) = 0.28531 0.17708
# Poissons Ratio (y) = 0.31901 0.02786
# Poissons Ratio (z) = 0.19121 0.02691
#
# Static dielectric constant tensor:
#      x y z
#    x 2.077160 -0.038790 0.014960 
#    y -0.038790 2.023820 0.077790 
#    z 0.014960 0.077790 2.088670 
# 
# From -- ./inp_files/606075.got.cif
#   From: 2010.05.17/outbox.cif.g08.bks.cpg/sg2_304_cif.got.tgz:606075.got - 2010.06.03 11:33:40.
