data_PCOD9043172
_publ_section_title
;
Structure prediction by ZEFSAII (Michael W. Deem and Ramdas Pophale) SiO2 
 PCOD9043172
Probable space group: P -1
;
_chemical_formula_sum "Si O2"
_cell_formula_units_Z 14
_cell_length_a 10.933350
_cell_length_b 19.463363
_cell_length_c 5.038562
_cell_angle_alpha 120.264367
_cell_angle_beta 111.945437
_cell_angle_gamma 32.946441
_cell_volume 500.877344
_symmetry_space_group_name_H-M "P -1"
_symmetry_group_IT_number 2
_symmetry_cell_setting 'triclinic'
loop_
_space_group_symop_operation_xyz
x,y,z
-x,-y,-z
loop_
_atom_site_type_symbol
_atom_site_label
_atom_site_fract_x
_atom_site_fract_y
_atom_site_fract_z
Si Si1 0.717243 0.282751 0.598812
Si Si2 0.187117 0.417833 0.762089
Si Si3 0.775744 0.077029 0.109875
Si Si4 0.171550 0.098436 0.803708
Si Si5 0.583924 0.835899 0.377610
Si Si6 0.443364 0.438628 0.174843
Si Si7 0.988197 0.667574 0.969513
O O1 0.685507 0.202397 0.416211
O O2 0.543064 0.402981 0.475568
O O3 0.983295 0.169705 0.566165
O O4 0.641873 0.352043 0.957020
O O5 0.305002 0.276094 0.527755
O O6 0.377951 0.377643 0.982618
O O7 0.000000 0.500000 0.000000
O O8 0.082183 0.534065 0.695792
O O9 0.832693 0.976294 0.157008
O O10 0.594086 0.129264 0.865196
O O11 0.000000 0.000000 0.000000
O O12 0.088065 0.225839 0.085148
O O13 0.424160 0.979659 0.660573
O O14 0.782760 0.761157 0.192469
O O15 0.207566 0.588100 0.164081
#
# Coordination Sequence:
#
# PCOD9043172 Si02
#       7
#     2   2   2   2   2   2   2
#     4  12  24  43  73 102 139 187 243 294 348 419
#     4   8  17  40  66  92 134 182 236 282 343 419
#     4  12  24  42  67 106 138 185 236 292 355 425
#     4  12  26  40  68 105 144 183 234 297 360 422
#     4  11  21  44  72 100 140 182 239 291 353 427
#     4  10  23  45  69 103 138 183 243 288 350 418
#     4   9  23  47  66 103 142 187 233 291 361 421
#
# _framework density 27.950953999999999
#
# number of rings (size 3 to 8) (size 9 to 14) (size 15 to 20)
#    0.857    0.571    2.857    2.571    0.000    1.714 
#    5.143    1.429    0.000    0.000    0.000    0.000 
#    0.000    0.000    0.000    0.000    0.000    0.000 
#
# Total GULP energy -78360.484197 kJ/mol
# GULP energy per Si atom -5597.177443 kJ/mol
# Density = 2.788734 g / cm^3
# Si number density = 27.950954 Si / 1000 Ang^3
#
#
#
# Elastic Constant Matrix: (Units=GPa)
#
#
# Indices 1 2 3 4 5 6 
#
# 1 113.4267 50.0180 21.1408 23.4630 -8.8348 -4.3237
# 2 50.0180 210.2326 37.9535 21.2869 10.2900 28.7990
# 3 21.1408 37.9535 94.2363 23.8225 3.2164 8.3323
# 4 23.4630 21.2869 23.8225 44.7914 5.0571 11.5913
# 5 -8.8348 10.2900 3.2164 5.0571 44.3416 17.4740
# 6 -4.3237 28.7990 8.3323 11.5913 17.4740 83.5877
#
#
#
# Elastic Compliance Matrix: (Units=1/GPa)
#
#
# Indices 1 2 3 4 5 6 
#
# 1 0.011354 -0.002442 -0.000470 -0.005274 0.002828 0.001616
# 2 -0.002442 0.005935 -0.001625 -0.000100 -0.001033 -0.001779
# 3 -0.000470 -0.001625 0.012839 -0.005826 -0.000009 0.000066
# 4 -0.005274 -0.000100 -0.005826 0.029359 -0.002707 -0.003163
# 5 0.002828 -0.001033 -0.000009 -0.002707 0.025412 -0.004434
# 6 0.001616 -0.001779 0.000066 -0.003163 -0.004434 0.014019
#
#
# Mechanical properties :
#
#
# Convention : Reuss Voigt Hill
#
# Bulk Modulus (GPa) = 47.49461 70.68002 59.08732
# Shear Modulus (GPa) = 43.47493 55.12968 49.30231
#
# Velocity S-wave (km/s) = 3.94814 4.44596 4.20442
# Velocity P-wave (km/s) = 6.14920 7.19009 6.68992
#
# Compressibility (1/GPa) = 0.02105502
#
# Stress axis : x y z
#
# Youngs Moduli (GPa) = 88.07800 168.47886 77.88996
#
# Poissons Ratio (x) = 0.41145 0.03657
# Poissons Ratio (y) = 0.21510 0.12655
# Poissons Ratio (z) = 0.04135 0.27372
#
# Static dielectric constant tensor:
#      x y z
#    x 2.232330 0.080500 0.101050 
#    y 0.080500 2.185000 0.008820 
#    z 0.101050 0.008820 2.229160 
# 
# From -- ./inp_files/83453.got.cif
#   From: 2010.05.17/outbox.cif.g08.bks.cpg/sg2_42_cif.got.tgz:83453.got - 2010.06.03 11:33:40.
