data_PCOD9043265
_publ_section_title
;
Structure prediction by ZEFSAII (Michael W. Deem and Ramdas Pophale) SiO2 
 PCOD9043265
Probable space group: P -1
;
_chemical_formula_sum "Si O2"
_cell_formula_units_Z 15
_cell_length_a 18.625818
_cell_length_b 7.062116
_cell_length_c 7.362975
_cell_angle_alpha 64.212133
_cell_angle_beta 100.929113
_cell_angle_gamma 58.130431
_cell_volume 619.334674
_symmetry_space_group_name_H-M "P -1"
_symmetry_group_IT_number 2
_symmetry_cell_setting 'triclinic'
loop_
_space_group_symop_operation_xyz
x,y,z
-x,-y,-z
loop_
_atom_site_type_symbol
_atom_site_label
_atom_site_fract_x
_atom_site_fract_y
_atom_site_fract_z
Si Si1 0.826309 0.608762 0.911494
Si Si2 0.000000 0.000000 0.000000
Si Si3 0.617320 0.983731 0.817749
Si Si4 0.534764 0.516167 0.735175
Si Si5 0.807934 0.969991 0.454248
Si Si6 0.094158 0.251620 0.779996
Si Si7 0.033731 0.043909 0.316915
Si Si8 0.599898 0.582901 0.117688
O O1 0.869989 0.658447 0.082035
O O2 0.930319 0.276541 0.047115
O O3 0.725109 0.704206 0.899547
O O4 0.791650 0.793961 0.636235
O O5 0.061215 0.107630 0.928583
O O6 0.914939 0.206407 0.698011
O O7 0.588882 0.856260 0.997368
O O8 0.624181 0.206309 0.811142
O O9 0.528672 0.198340 0.538822
O O10 0.570843 0.565189 0.908406
O O11 0.460941 0.465938 0.770918
O O12 0.821158 0.939150 0.257533
O O13 0.908195 0.866956 0.637147
O O14 0.716999 0.303371 0.321777
O O15 0.000000 0.500000 0.500000
O O16 0.000000 0.000000 0.500000
#
# Coordination Sequence:
#
# PCOD9043265 Si02
#       8
#     2   1   2   2   2   2   2   2
#     4  12  24  43  66  98 135 181 223 279 337 402
#     4  12  24  38  64  92 122 182 224 264 326 394
#     4  11  23  43  71  99 134 177 221 279 346 405
#     4  10  23  45  70 100 133 169 225 285 340 406
#     4  12  23  41  67  97 137 178 221 282 333 404
#     4  12  24  42  64  92 132 178 227 276 329 389
#     4  12  23  41  64  93 136 177 222 272 330 397
#     4  11  23  43  71 100 134 174 224 277 348 406
#
# _framework density 24.219536999999999
#
# number of rings (size 3 to 8) (size 9 to 14) (size 15 to 20)
#    0.000    0.533    5.333    3.600    0.000    0.000 
#    0.000    1.333    2.933    0.000    0.000    0.000 
#    0.000    0.000    0.000    0.000    0.000    0.000 
#
# Total GULP energy -83595.014077 kJ/mol
# GULP energy per Si atom -5573.000938 kJ/mol
# Density = 2.416441 g / cm^3
# Si number density = 24.219537 Si / 1000 Ang^3
#
#
#
# Elastic Constant Matrix: (Units=GPa)
#
#
# Indices 1 2 3 4 5 6 
#
# 1 75.1616 12.5080 19.4624 -4.6663 -15.7971 -16.3925
# 2 12.5080 79.0012 22.0352 14.0630 7.9673 4.4235
# 3 19.4624 22.0352 113.4825 -4.9764 -13.9485 -11.2767
# 4 -4.6663 14.0630 -4.9764 57.4213 -1.2048 2.2990
# 5 -15.7971 7.9673 -13.9485 -1.2048 35.1322 2.9094
# 6 -16.3925 4.4235 -11.2767 2.2990 2.9094 36.0996
#
#
#
# Elastic Compliance Matrix: (Units=1/GPa)
#
#
# Indices 1 2 3 4 5 6 
#
# 1 0.017666 -0.004396 -0.000296 0.002354 0.008270 0.007652
# 2 -0.004396 0.016213 -0.003889 -0.004638 -0.006997 -0.004338
# 3 -0.000296 -0.003889 0.010596 0.001820 0.004757 0.003153
# 4 0.002354 -0.004638 0.001820 0.018943 0.003422 0.000723
# 5 0.008270 -0.006997 0.004757 0.003422 0.035525 0.003018
# 6 0.007652 -0.004338 0.003153 0.000723 0.003018 0.032403
#
#
# Mechanical properties :
#
#
# Convention : Reuss Voigt Hill
#
# Bulk Modulus (GPa) = 36.61262 41.73961 39.17611
# Shear Modulus (GPa) = 31.72369 39.97327 35.84848
#
# Velocity S-wave (km/s) = 3.62310 4.06699 3.85144
# Velocity P-wave (km/s) = 5.71421 6.27097 5.99906
#
# Compressibility (1/GPa) = 0.02731299
#
# Stress axis : x y z
#
# Youngs Moduli (GPa) = 56.60616 61.67952 94.37909
#
# Poissons Ratio (x) = 0.27113 0.02795
# Poissons Ratio (y) = 0.24883 0.36701
# Poissons Ratio (z) = 0.01676 0.23985
#
# Static dielectric constant tensor:
#      x y z
#    x 1.908210 -0.046880 -0.014990 
#    y -0.046880 2.263210 0.001620 
#    z -0.014990 0.001620 1.913750 
# 
# From -- ./inp_files/327110.got.cif
#   From: 2010.05.17/outbox.cif.g08.bks.cpg/sg2_164_cif.got.tgz:327110.got - 2010.06.03 11:33:40.
