data_PCOD9043991
_publ_section_title
;
Structure prediction by ZEFSAII (Michael W. Deem and Ramdas Pophale) SiO2 
 PCOD9043991
Probable space group: P -1
;
_chemical_formula_sum "Si O2"
_cell_formula_units_Z 14
_cell_length_a 10.792388
_cell_length_b 7.708699
_cell_length_c 14.801996
_cell_angle_alpha 49.073800
_cell_angle_beta 41.715253
_cell_angle_gamma 47.510446
_cell_volume 574.983437
_symmetry_space_group_name_H-M "P -1"
_symmetry_group_IT_number 2
_symmetry_cell_setting 'triclinic'
loop_
_space_group_symop_operation_xyz
x,y,z
-x,-y,-z
loop_
_atom_site_type_symbol
_atom_site_label
_atom_site_fract_x
_atom_site_fract_y
_atom_site_fract_z
Si Si1 0.840461 0.355364 0.036720
Si Si2 0.080802 0.594328 0.597628
Si Si3 0.280702 0.042379 0.646976
Si Si4 0.909474 0.256634 0.655564
Si Si5 0.721017 0.053981 0.681237
Si Si6 0.718448 0.796666 0.079192
Si Si7 0.282447 0.672372 0.086910
O O1 0.715252 0.626681 0.053356
O O2 0.753116 0.168828 0.200439
O O3 0.166068 0.695114 0.048568
O O4 0.068327 0.326916 0.944814
O O5 0.199022 0.307686 0.653788
O O6 0.081209 0.588920 0.490054
O O7 0.858686 0.766719 0.691952
O O8 0.203160 0.777526 0.484767
O O9 0.123339 0.076817 0.638431
O O10 0.500000 0.000000 0.500000
O O11 0.795405 0.408092 0.752322
O O12 0.782202 0.110793 0.728315
O O13 0.483783 0.145316 0.773236
O O14 0.720515 0.064705 0.969420
O O15 0.500000 0.500000 0.000000
#
# Coordination Sequence:
#
# PCOD9043991 Si02
#       7
#     2   2   2   2   2   2   2
#     4  11  27  50  67 116 149 188 250 294 379 439
#     4   9  22  47  72 104 146 185 255 296 353 443
#     4  12  25  44  73  99 152 196 231 308 364 432
#     4  10  23  46  68 107 146 185 252 296 353 444
#     4   9  21  44  76 107 140 191 251 300 365 426
#     4  11  24  48  76 101 155 190 236 318 360 432
#     4  12  27  46  76 108 144 195 248 299 366 441
#
# _framework density 24.348526
#
# number of rings (size 3 to 8) (size 9 to 14) (size 15 to 20)
#    0.857    0.571    1.429    2.571    4.000    3.429 
#    2.571    0.714    0.000    0.000    0.000    0.000 
#    0.000    0.000    0.000    0.000    0.000    0.000 
#
# Total GULP energy -78123.252343 kJ/mol
# GULP energy per Si atom -5580.232310 kJ/mol
# Density = 2.429311 g / cm^3
# Si number density = 24.348526 Si / 1000 Ang^3
#
#
#
# Elastic Constant Matrix: (Units=GPa)
#
#
# Indices 1 2 3 4 5 6 
#
# 1 84.9190 36.2272 57.5959 7.8093 6.4396 16.5988
# 2 36.2272 167.2846 63.5323 10.1569 -6.4220 29.0371
# 3 57.5959 63.5323 142.4547 29.8234 -6.0127 12.2418
# 4 7.8093 10.1569 29.8234 59.1530 -2.7558 -14.1663
# 5 6.4396 -6.4220 -6.0127 -2.7558 37.9245 13.4753
# 6 16.5988 29.0371 12.2418 -14.1663 13.4753 32.3452
#
#
#
# Elastic Compliance Matrix: (Units=1/GPa)
#
#
# Indices 1 2 3 4 5 6 
#
# 1 0.017622 -0.000485 -0.006454 -0.000389 -0.002201 -0.005419
# 2 -0.000485 0.009004 -0.002228 -0.002546 0.004635 -0.010037
# 3 -0.006454 -0.002228 0.012181 -0.005493 0.003352 -0.003100
# 4 -0.000389 -0.002546 -0.005493 0.024086 -0.005700 0.017488
# 5 -0.002201 0.004635 0.003352 -0.005700 0.035282 -0.021496
# 6 -0.005419 -0.010037 -0.003100 0.017488 -0.021496 0.060496
#
#
# Mechanical properties :
#
#
# Convention : Reuss Voigt Hill
#
# Bulk Modulus (GPa) = 48.84773 78.81879 63.83326
# Shear Modulus (GPa) = 27.19911 41.70472 34.45192
#
# Velocity S-wave (km/s) = 3.34589 4.14312 3.76566
# Velocity P-wave (km/s) = 5.91879 7.43832 6.72163
#
# Compressibility (1/GPa) = 0.02047178
#
# Stress axis : x y z
#
# Youngs Moduli (GPa) = 56.74614 111.06289 82.09664
#
# Poissons Ratio (x) = 0.05391 0.52986
# Poissons Ratio (y) = 0.02754 0.18292
# Poissons Ratio (z) = 0.36625 0.24746
#
# Static dielectric constant tensor:
#      x y z
#    x 1.919570 0.016820 -0.084530 
#    y 0.016820 1.975440 -0.071940 
#    z -0.084530 -0.071940 2.127070 
# 
# From -- ./inp_files/611363.got.cif
#   From: 2010.05.17/outbox.cif.g08.bks.cpg/sg2_306_cif.got.tgz:611363.got - 2010.06.03 11:33:40.
