data_PCOD9043534
_publ_section_title
;
Structure prediction by ZEFSAII (Michael W. Deem and Ramdas Pophale) SiO2 
 PCOD9043534
Probable space group: P -1
;
_chemical_formula_sum "Si O2"
_cell_formula_units_Z 14
_cell_length_a 5.188607
_cell_length_b 15.457788
_cell_length_c 8.045976
_cell_angle_alpha 65.083059
_cell_angle_beta 115.249032
_cell_angle_gamma 90.774406
_cell_volume 518.363222
_symmetry_space_group_name_H-M "P -1"
_symmetry_group_IT_number 2
_symmetry_cell_setting 'triclinic'
loop_
_space_group_symop_operation_xyz
x,y,z
-x,-y,-z
loop_
_atom_site_type_symbol
_atom_site_label
_atom_site_fract_x
_atom_site_fract_y
_atom_site_fract_z
Si Si1 0.236134 0.426347 0.010317
Si Si2 0.828092 0.166130 0.750399
Si Si3 0.888409 0.274028 0.025968
Si Si4 0.354303 0.020766 0.137251
Si Si5 0.206312 0.628586 0.580910
Si Si6 0.942145 0.079194 0.279697
Si Si7 0.660643 0.565619 0.348977
O O1 0.575706 0.409925 0.174187
O O2 0.177768 0.445745 0.782523
O O3 0.000000 0.500000 0.000000
O O4 0.162372 0.320299 0.099012
O O5 0.876243 0.215889 0.898672
O O6 0.786195 0.259296 0.544488
O O7 0.592052 0.097153 0.741594
O O8 0.111778 0.078169 0.894881
O O9 0.626136 0.363366 0.849613
O O10 0.881924 0.191698 0.226525
O O11 0.633720 0.063934 0.138994
O O12 0.216849 0.056302 0.250261
O O13 0.357357 0.549324 0.543872
O O14 0.866515 0.618469 0.477841
O O15 0.000000 0.000000 0.500000
#
# Coordination Sequence:
#
# PCOD9043534 Si02
#       7
#     2   2   2   2   2   2   2
#     4  12  26  46  66 103 145 185 235 299 357 435
#     4  10  23  45  72 101 137 189 242 291 363 434
#     4  11  25  45  73  94 147 188 227 306 367 419
#     4  10  24  46  71 102 145 186 242 302 359 428
#     4  11  24  42  73  99 137 185 238 286 359 436
#     4  11  25  44  72 107 144 189 240 301 364 435
#     4  11  25  46  67 103 141 183 239 301 354 434
#
# _framework density 27.008088000000001
#
# number of rings (size 3 to 8) (size 9 to 14) (size 15 to 20)
#    0.000    1.143    2.857    1.714    4.000   10.857 
#    0.000    0.000    0.000    0.000    0.000    0.000 
#    0.000    0.000    0.000    0.000    0.000    0.000 
#
# Total GULP energy -78123.671140 kJ/mol
# GULP energy per Si atom -5580.262224 kJ/mol
# Density = 2.694662 g / cm^3
# Si number density = 27.008088 Si / 1000 Ang^3
#
#
#
# Elastic Constant Matrix: (Units=GPa)
#
#
# Indices 1 2 3 4 5 6 
#
# 1 49.8833 10.8012 -21.5726 3.0629 21.2157 7.2418
# 2 10.8012 128.9491 2.1486 -28.9099 2.4935 30.7815
# 3 -21.5726 2.1486 116.6341 -32.6453 16.6656 14.5951
# 4 3.0629 -28.9099 -32.6453 54.5496 9.9186 -6.7219
# 5 21.2157 2.4935 16.6656 9.9186 31.6005 10.1337
# 6 7.2418 30.7815 14.5951 -6.7219 10.1337 52.4074
#
#
#
# Elastic Compliance Matrix: (Units=1/GPa)
#
#
# Indices 1 2 3 4 5 6 
#
# 1 0.050951 0.001415 0.022972 0.021024 -0.052582 -0.001405
# 2 0.001415 0.010784 0.003602 0.007883 -0.004354 -0.005680
# 3 0.022972 0.003602 0.023695 0.020612 -0.033804 -0.002709
# 4 0.021024 0.007883 0.020612 0.040503 -0.038091 -0.000715
# 5 -0.052582 -0.004354 -0.033804 -0.038091 0.098585 -0.004711
# 6 -0.001405 -0.005680 -0.002709 -0.000715 -0.004711 0.024185
#
#
# Mechanical properties :
#
#
# Convention : Reuss Voigt Hill
#
# Bulk Modulus (GPa) = 7.07170 30.91344 18.99257
# Shear Modulus (GPa) = 20.84547 47.98413 34.41480
#
# Velocity S-wave (km/s) = 2.78118 4.21961 3.57352
# Velocity P-wave (km/s) = 3.59686 5.93389 4.90655
#
# Compressibility (1/GPa) = 0.14140867
#
# Stress axis : x y z
#
# Youngs Moduli (GPa) = 19.62654 92.73119 42.20354
#
# Poissons Ratio (x) = -0.13123 -0.96949
# Poissons Ratio (y) = -0.02777 -0.15204
# Poissons Ratio (z) = -0.45085 -0.33406
#
# Static dielectric constant tensor:
#      x y z
#    x 2.291040 0.028110 -0.066570 
#    y 0.028110 2.240510 -0.005150 
#    z -0.066570 -0.005150 2.288900 
# 
# From -- ./inp_files/89659.got.cif
#   From: 2010.05.17/outbox.cif.g08.bks.cpg/sg2_45_cif.got.tgz:89659.got - 2010.06.03 11:33:40.
