data_PCOD9043543
_publ_section_title
;
Structure prediction by ZEFSAII (Michael W. Deem and Ramdas Pophale) SiO2 
 PCOD9043543
Probable space group: P -1
;
_chemical_formula_sum "Si O2"
_cell_formula_units_Z 14
_cell_length_a 6.733974
_cell_length_b 6.321065
_cell_length_c 16.932461
_cell_angle_alpha 72.986646
_cell_angle_beta 68.114813
_cell_angle_gamma 73.943644
_cell_volume 628.033364
_symmetry_space_group_name_H-M "P -1"
_symmetry_group_IT_number 2
_symmetry_cell_setting 'triclinic'
loop_
_space_group_symop_operation_xyz
x,y,z
-x,-y,-z
loop_
_atom_site_type_symbol
_atom_site_label
_atom_site_fract_x
_atom_site_fract_y
_atom_site_fract_z
Si Si1 0.528312 0.120972 0.901823
Si Si2 0.766391 0.499524 0.499716
Si Si3 0.864112 0.432029 0.799904
Si Si4 0.500711 0.828454 0.789687
Si Si5 0.230472 0.131202 0.674004
Si Si6 0.862291 0.478042 0.102617
Si Si7 0.631691 0.192492 0.436054
O O1 0.706065 0.274328 0.874183
O O2 0.308558 0.288606 0.891679
O O3 0.577265 0.942514 0.843780
O O4 0.500000 0.000000 0.000000
O O5 0.732349 0.674664 0.412683
O O6 0.753912 0.264777 0.485908
O O7 0.563170 0.594669 0.576999
O O8 0.000000 0.500000 0.500000
O O9 0.701342 0.631400 0.757062
O O10 0.031555 0.262002 0.740132
O O11 0.986966 0.534216 0.841127
O O12 0.287749 0.715190 0.853121
O O13 0.425809 0.020687 0.714775
O O14 0.209378 0.915035 0.645801
O O15 0.000000 0.500000 0.000000
O O16 0.500000 0.000000 0.500000
#
# Coordination Sequence:
#
# PCOD9043543 Si02
#       7
#     2   2   2   2   2   2   2
#     4  11  24  43  67  97 133 181 233 278 337 404
#     4  10  23  45  72 102 131 177 223 264 336 415
#     4  11  26  43  64 101 133 178 230 277 344 389
#     4  11  26  43  64  99 136 175 229 282 339 391
#     4  11  25  43  69 101 139 175 219 284 337 399
#     4  11  24  43  67  96 134 179 234 281 330 409
#     4   9  22  45  67  99 135 168 217 270 327 407
#
# _framework density 22.291806999999999
#
# number of rings (size 3 to 8) (size 9 to 14) (size 15 to 20)
#    0.000    1.429    1.429    1.714    8.000    5.714 
#    5.143    0.000    0.000    0.000    0.000    0.000 
#    0.000    0.000    0.000    0.000    0.000    0.000 
#
# Total GULP energy -78161.744074 kJ/mol
# GULP energy per Si atom -5582.981720 kJ/mol
# Density = 2.224107 g / cm^3
# Si number density = 22.291807 Si / 1000 Ang^3
#
#
#
# Elastic Constant Matrix: (Units=GPa)
#
#
# Indices 1 2 3 4 5 6 
#
# 1 118.9615 40.9526 15.6976 0.1097 11.8884 4.4733
# 2 40.9526 97.1014 24.3692 11.5673 11.5735 -6.9965
# 3 15.6976 24.3692 60.3736 -4.3881 14.4940 -14.8500
# 4 0.1097 11.5673 -4.3881 47.1859 -7.4788 1.9772
# 5 11.8884 11.5735 14.4940 -7.4788 21.4386 9.5863
# 6 4.4733 -6.9965 -14.8500 1.9772 9.5863 45.7859
#
#
#
# Elastic Compliance Matrix: (Units=1/GPa)
#
#
# Indices 1 2 3 4 5 6 
#
# 1 0.010156 -0.004011 -0.000865 0.000626 -0.001995 -0.001495
# 2 -0.004011 0.014317 -0.002557 -0.005002 -0.007061 0.003445
# 3 -0.000865 -0.002557 0.026149 -0.000941 -0.021867 0.012794
# 4 0.000626 -0.005002 -0.000941 0.024749 0.013909 -0.005112
# 5 -0.001995 -0.007061 -0.021867 0.013909 0.082785 -0.025910
# 6 -0.001495 0.003445 0.012794 -0.005112 -0.025910 0.032308
#
#
# Mechanical properties :
#
#
# Convention : Reuss Voigt Hill
#
# Bulk Modulus (GPa) = 27.96710 48.71948 38.34329
# Shear Modulus (GPa) = 23.01515 35.90990 29.46253
#
# Velocity S-wave (km/s) = 3.21666 4.01796 3.63943
# Velocity P-wave (km/s) = 5.13508 6.59000 5.90750
#
# Compressibility (1/GPa) = 0.03575629
#
# Stress axis : x y z
#
# Youngs Moduli (GPa) = 98.46491 69.84467 38.24266
#
# Poissons Ratio (x) = 0.28012 0.03308
# Poissons Ratio (y) = 0.39490 0.09780
# Poissons Ratio (z) = 0.08517 0.17862
#
# Static dielectric constant tensor:
#      x y z
#    x 1.820390 -0.018560 -0.031670 
#    y -0.018560 1.879680 0.037380 
#    z -0.031670 0.037380 1.880660 
# 
# From -- ./inp_files/7517.got.cif
#   From: 2010.05.17/outbox.cif.g08.bks.cpg/sg2_4_cif.got.tgz:7517.got - 2010.06.03 11:33:40.
