data_PCOD9043842
_publ_section_title
;
Structure prediction by ZEFSAII (Michael W. Deem and Ramdas Pophale) SiO2 
 PCOD9043842
Probable space group: P -1
;
_chemical_formula_sum "Si O2"
_cell_formula_units_Z 16
_cell_length_a 9.156498
_cell_length_b 18.277110
_cell_length_c 5.571923
_cell_angle_alpha 122.005248
_cell_angle_beta 125.318503
_cell_angle_gamma 79.160299
_cell_volume 635.704193
_symmetry_space_group_name_H-M "P -1"
_symmetry_group_IT_number 2
_symmetry_cell_setting 'triclinic'
loop_
_space_group_symop_operation_xyz
x,y,z
-x,-y,-z
loop_
_atom_site_type_symbol
_atom_site_label
_atom_site_fract_x
_atom_site_fract_y
_atom_site_fract_z
Si Si1 0.711387 0.174018 0.318925
Si Si2 0.954536 0.695757 0.169730
Si Si3 0.691763 0.530820 0.873163
Si Si4 0.520479 0.651016 0.216891
Si Si5 0.459597 0.924460 0.627064
Si Si6 0.870558 0.414925 0.143324
Si Si7 0.389291 0.246426 0.013003
Si Si8 0.201045 0.990809 0.104390
O O1 0.845486 0.256324 0.480930
O O2 0.649369 0.165461 0.523386
O O3 0.513926 0.172552 0.013231
O O4 0.806133 0.090659 0.224125
O O5 0.010508 0.660826 0.905887
O O6 0.836340 0.608778 0.024644
O O7 0.826336 0.768688 0.182141
O O8 0.500000 0.500000 0.500000
O O9 0.633515 0.572522 0.140046
O O10 0.788582 0.448154 0.875261
O O11 0.551590 0.692531 0.585691
O O12 0.307275 0.615619 0.926033
O O13 0.577037 0.710791 0.142254
O O14 0.322779 0.959459 0.376528
O O15 0.665053 0.925188 0.730610
O O16 0.500000 0.000000 0.000000
O O17 0.000000 0.500000 0.500000
O O18 0.000000 0.000000 0.000000
#
# Coordination Sequence:
#
# PCOD9043842 Si02
#       8
#     2   2   2   2   2   2   2   2
#     4  11  25  44  71 104 146 189 236 301 369 439
#     4  11  25  43  68 105 141 190 252 309 374 443
#     4  11  24  44  70  98 142 198 252 315 386 442
#     4  11  24  46  69  94 144 187 246 308 377 443
#     4   9  22  45  71 106 147 185 230 286 361 436
#     4  12  23  38  67 101 135 188 253 317 370 446
#     4  11  26  48  68 102 148 192 239 308 374 441
#     4  10  23  45  77 110 144 189 238 289 358 448
#
# _framework density 25.168939000000002
#
# number of rings (size 3 to 8) (size 9 to 14) (size 15 to 20)
#    0.000    1.250    1.250    3.750    3.500    6.000 
#    6.750    0.000    0.000    0.000    0.000    0.000 
#    0.000    0.000    0.000    0.000    0.000    0.000 
#
# Total GULP energy -89252.223062 kJ/mol
# GULP energy per Si atom -5578.263941 kJ/mol
# Density = 2.511165 g / cm^3
# Si number density = 25.168939 Si / 1000 Ang^3
#
#
#
# Elastic Constant Matrix: (Units=GPa)
#
#
# Indices 1 2 3 4 5 6 
#
# 1 195.1623 46.7483 44.8417 7.3327 44.6492 -15.5363
# 2 46.7483 77.7544 5.5262 -1.3239 22.0609 3.8976
# 3 44.8417 5.5262 86.3031 5.9395 16.1998 15.4187
# 4 7.3327 -1.3239 5.9395 34.5226 -2.3945 2.5350
# 5 44.6492 22.0609 16.1998 -2.3945 43.3897 -0.4566
# 6 -15.5363 3.8976 15.4187 2.5350 -0.4566 48.6898
#
#
#
# Elastic Compliance Matrix: (Units=1/GPa)
#
#
# Indices 1 2 3 4 5 6 
#
# 1 0.008540 -0.003507 -0.003771 -0.002004 -0.005662 0.004251
# 2 -0.003507 0.016598 0.002361 0.000821 -0.005701 -0.003292
# 3 -0.003771 0.002361 0.015186 -0.001487 -0.003136 -0.006153
# 4 -0.002004 0.000821 -0.001487 0.030076 0.003841 -0.001764
# 5 -0.005662 -0.005701 -0.003136 0.003841 0.033153 -0.000246
# 6 0.004251 -0.003292 -0.006153 -0.001764 -0.000246 0.024196
#
#
# Mechanical properties :
#
#
# Convention : Reuss Voigt Hill
#
# Bulk Modulus (GPa) = 32.79827 61.49468 47.14647
# Shear Modulus (GPa) = 33.84202 42.79400 38.31801
#
# Velocity S-wave (km/s) = 3.67085 4.12791 3.90607
# Velocity P-wave (km/s) = 5.57013 6.87061 6.25427
#
# Compressibility (1/GPa) = 0.03048942
#
# Stress axis : x y z
#
# Youngs Moduli (GPa) = 117.10121 60.24732 65.85156
#
# Poissons Ratio (x) = 0.21128 0.24834
# Poissons Ratio (y) = 0.41067 -0.15548
# Poissons Ratio (z) = 0.44161 -0.14225
#
# Static dielectric constant tensor:
#      x y z
#    x 2.032320 -0.000600 -0.047010 
#    y -0.000600 2.096130 0.004580 
#    z -0.047010 0.004580 2.056330 
# 
# From -- ./inp_files/53885.got.cif
#   From: 2010.05.17/outbox.cif.g08.bks.cpg/sg2_27_cif.got.tgz:53885.got - 2010.06.03 11:33:40.
