data_PCOD9043354
_publ_section_title
;
Structure prediction by ZEFSAII (Michael W. Deem and Ramdas Pophale) SiO2 
 PCOD9043354
Probable space group: P -1
;
_chemical_formula_sum "Si O2"
_cell_formula_units_Z 10
_cell_length_a 10.588760
_cell_length_b 7.016050
_cell_length_c 8.172711
_cell_angle_alpha 51.801180
_cell_angle_beta 110.781688
_cell_angle_gamma 80.159392
_cell_volume 377.952160
_symmetry_space_group_name_H-M "P -1"
_symmetry_group_IT_number 2
_symmetry_cell_setting 'triclinic'
loop_
_space_group_symop_operation_xyz
x,y,z
-x,-y,-z
loop_
_atom_site_type_symbol
_atom_site_label
_atom_site_fract_x
_atom_site_fract_y
_atom_site_fract_z
Si Si1 0.819311 0.241743 0.286685
Si Si2 0.629360 0.875395 0.773009
Si Si3 0.753688 0.206861 0.837546
Si Si4 0.434368 0.762047 0.961831
Si Si5 0.083546 0.664381 0.391543
O O1 0.739669 0.065960 0.289669
O O2 0.799511 0.354591 0.401636
O O3 0.758171 0.531369 0.998143
O O4 0.000000 0.000000 0.500000
O O5 0.534214 0.899135 0.885927
O O6 0.500000 0.000000 0.500000
O O7 0.718179 0.040713 0.767492
O O8 0.798605 0.420728 0.664184
O O9 0.606930 0.310810 0.841762
O O10 0.924087 0.975128 0.120286
O O11 0.500000 0.500000 0.000000
O O12 0.000000 0.500000 0.500000
#
# Coordination Sequence:
#
# PCOD9043354 Si02
#       5
#     2   2   2   2   2
#     4  11  22  45  73 105 150 193 249 310 365 446
#     4  11  24  46  72 111 153 197 247 305 378 447
#     4  11  23  45  75 108 147 197 252 308 370 450
#     4  10  23  45  70 108 150 194 243 309 375 445
#     4  11  23  45  74 110 144 192 255 311 374 437
#
# _framework density 26.458373999999999
#
# number of rings (size 3 to 8) (size 9 to 14) (size 15 to 20)
#    0.000    1.200    4.000    1.800    0.000    0.000 
#    7.200   13.000    0.000    0.000    0.000    0.000 
#    0.000    0.000    0.000    0.000    0.000    0.000 
#
# Total GULP energy -55701.557290 kJ/mol
# GULP energy per Si atom -5570.155729 kJ/mol
# Density = 2.639815 g / cm^3
# Si number density = 26.458374 Si / 1000 Ang^3
#
#
#
# Elastic Constant Matrix: (Units=GPa)
#
#
# Indices 1 2 3 4 5 6 
#
# 1 154.1652 24.7228 35.3548 -10.3240 -48.7932 -7.0757
# 2 24.7228 67.3857 38.4608 2.0106 -23.3088 -0.2004
# 3 35.3548 38.4608 151.1512 -3.0225 -1.5369 -8.2890
# 4 -10.3240 2.0106 -3.0225 41.8478 -4.3807 1.1364
# 5 -48.7932 -23.3088 -1.5369 -4.3807 59.4973 5.9000
# 6 -7.0757 -0.2004 -8.2890 1.1364 5.9000 57.7092
#
#
#
# Elastic Compliance Matrix: (Units=1/GPa)
#
#
# Indices 1 2 3 4 5 6 
#
# 1 0.009793 0.000524 -0.002279 0.003108 0.008411 -0.000046
# 2 0.000524 0.020671 -0.005385 -0.000321 0.008514 -0.001502
# 3 -0.002279 -0.005385 0.008550 -0.000130 -0.003899 0.001331
# 4 0.003108 -0.000321 -0.000130 0.025138 0.004328 -0.000576
# 5 0.008411 0.008514 -0.003899 0.004328 0.027497 -0.002396
# 6 -0.000046 -0.001502 0.001331 -0.000576 -0.002396 0.017765
#
#
# Mechanical properties :
#
#
# Convention : Reuss Voigt Hill
#
# Bulk Modulus (GPa) = 40.42739 63.30878 51.86809
# Shear Modulus (GPa) = 37.89685 50.08844 43.99265
#
# Velocity S-wave (km/s) = 3.78871 4.35570 4.08206
# Velocity P-wave (km/s) = 5.86957 7.01967 6.47023
#
# Compressibility (1/GPa) = 0.02473570
#
# Stress axis : x y z
#
# Youngs Moduli (GPa) = 102.11056 48.37670 116.96143
#
# Poissons Ratio (x) = -0.02536 0.26655
# Poissons Ratio (y) = -0.05354 0.62980
# Poissons Ratio (z) = 0.23270 0.26049
#
# Static dielectric constant tensor:
#      x y z
#    x 3.055130 0.316920 0.303440 
#    y 0.316920 2.990250 0.231860 
#    z 0.303440 0.231860 2.245100 
# 
# From -- ./inp_files/156362.got.cif
#   From: 2010.05.17/outbox.cif.g08.bks.cpg/sg2_79_cif.got.tgz:156362.got - 2010.06.03 11:33:40.
