data_PCOD9043029
_publ_section_title
;
Structure prediction by ZEFSAII (Michael W. Deem and Ramdas Pophale) SiO2 
 PCOD9043029
Probable space group: P -1
;
_chemical_formula_sum "Si O2"
_cell_formula_units_Z 14
_cell_length_a 11.601127
_cell_length_b 6.420534
_cell_length_c 12.585827
_cell_angle_alpha 75.367653
_cell_angle_beta 45.650746
_cell_angle_gamma 63.837571
_cell_volume 599.427920
_symmetry_space_group_name_H-M "P -1"
_symmetry_group_IT_number 2
_symmetry_cell_setting 'triclinic'
loop_
_space_group_symop_operation_xyz
x,y,z
-x,-y,-z
loop_
_atom_site_type_symbol
_atom_site_label
_atom_site_fract_x
_atom_site_fract_y
_atom_site_fract_z
Si Si1 0.580305 0.847807 0.671969
Si Si2 0.384560 0.331466 0.800890
Si Si3 0.367478 0.497171 0.494242
Si Si4 0.163286 0.050339 0.339834
Si Si5 0.986374 0.629187 0.801529
Si Si6 0.975957 0.254910 0.010693
Si Si7 0.545307 0.411817 0.865098
O O1 0.620644 0.741585 0.540615
O O2 0.734007 0.882475 0.637798
O O3 0.538051 0.650455 0.785201
O O4 0.415643 0.093797 0.750964
O O5 0.565024 0.365097 0.652526
O O6 0.219092 0.564776 0.855152
O O7 0.401019 0.323185 0.918416
O O8 0.500000 0.500000 0.500000
O O9 0.175573 0.621765 0.645903
O O10 0.117393 0.253555 0.253212
O O11 0.277425 0.812922 0.234329
O O12 0.000000 0.000000 0.500000
O O13 0.923643 0.759891 0.939294
O O14 0.015097 0.372724 0.863115
O O15 0.000000 0.000000 0.000000
O O16 0.500000 0.500000 0.000000
#
# Coordination Sequence:
#
# PCOD9043029 Si02
#       7
#     2   2   2   2   2   2   2
#     4  10  24  43  73 100 142 184 233 304 359 425
#     4  10  23  45  68 100 141 181 247 292 358 434
#     4  11  23  47  70 103 135 187 246 295 355 433
#     4  11  25  46  72 108 149 185 246 300 363 439
#     4  11  26  44  71 105 143 188 239 293 372 425
#     4  11  27  46  67 104 147 187 239 300 358 431
#     4  10  24  39  68 104 136 187 238 295 359 427
#
# _framework density 23.355601
#
# number of rings (size 3 to 8) (size 9 to 14) (size 15 to 20)
#    0.000    1.429    1.429    2.571    6.000    9.714 
#    0.000    0.000    0.000    0.000    0.000    0.000 
#    0.000    0.000    0.000    0.000    0.000    0.000 
#
# Total GULP energy -77938.887728 kJ/mol
# GULP energy per Si atom -5567.063409 kJ/mol
# Density = 2.330244 g / cm^3
# Si number density = 23.355601 Si / 1000 Ang^3
#
#
#
# Elastic Constant Matrix: (Units=GPa)
#
#
# Indices 1 2 3 4 5 6 
#
# 1 111.9860 51.1336 34.0832 17.8576 28.2463 1.0379
# 2 51.1336 136.0180 27.0912 1.1363 13.8207 17.0488
# 3 34.0832 27.0912 86.0351 -3.8652 9.2547 -2.6424
# 4 17.8576 1.1363 -3.8652 42.9354 4.2341 8.0098
# 5 28.2463 13.8207 9.2547 4.2341 40.2080 7.4681
# 6 1.0379 17.0488 -2.6424 8.0098 7.4681 33.4479
#
#
#
# Elastic Compliance Matrix: (Units=1/GPa)
#
#
# Indices 1 2 3 4 5 6 
#
# 1 0.015484 -0.004774 -0.003851 -0.006781 -0.008601 0.005193
# 2 -0.004774 0.010052 -0.001455 0.002594 0.001066 -0.005950
# 3 -0.003851 -0.001455 0.013827 0.002670 -0.000524 0.001431
# 4 -0.006781 0.002594 0.002670 0.027579 0.001823 -0.007912
# 5 -0.008601 0.001066 -0.000524 0.001823 0.031940 -0.007886
# 6 0.005193 -0.005950 0.001431 -0.007912 -0.007886 0.036537
#
#
# Mechanical properties :
#
#
# Convention : Reuss Voigt Hill
#
# Bulk Modulus (GPa) = 52.07298 62.07280 57.07289
# Shear Modulus (GPa) = 30.86779 38.10031 34.48405
#
# Velocity S-wave (km/s) = 3.63939 4.04333 3.84667
# Velocity P-wave (km/s) = 6.32489 6.95938 6.64971
#
# Compressibility (1/GPa) = 0.01920382
#
# Stress axis : x y z
#
# Youngs Moduli (GPa) = 64.58143 99.47880 72.32211
#
# Poissons Ratio (x) = 0.47496 0.27849
# Poissons Ratio (y) = 0.30834 0.10521
# Poissons Ratio (z) = 0.24869 0.14472
#
# Static dielectric constant tensor:
#      x y z
#    x 2.498290 0.003670 0.115670 
#    y 0.003670 1.885400 -0.064320 
#    z 0.115670 -0.064320 2.247230 
# 
# From -- ./inp_files/410170.got.cif
#   From: 2010.05.17/outbox.cif.g08.bks.cpg/sg2_206_cif.got.tgz:410170.got - 2010.06.03 11:33:40.
