data_PCOD9043697
_publ_section_title
;
Structure prediction by ZEFSAII (Michael W. Deem and Ramdas Pophale) SiO2 
 PCOD9043697
Probable space group: P -1
;
_chemical_formula_sum "Si O2"
_cell_formula_units_Z 16
_cell_length_a 8.943236
_cell_length_b 5.146496
_cell_length_c 23.128712
_cell_angle_alpha 125.589224
_cell_angle_beta 51.137955
_cell_angle_gamma 125.129615
_cell_volume 635.823488
_symmetry_space_group_name_H-M "P -1"
_symmetry_group_IT_number 2
_symmetry_cell_setting 'triclinic'
loop_
_space_group_symop_operation_xyz
x,y,z
-x,-y,-z
loop_
_atom_site_type_symbol
_atom_site_label
_atom_site_fract_x
_atom_site_fract_y
_atom_site_fract_z
Si Si1 0.581996 0.096830 0.672054
Si Si2 0.262917 0.698685 0.780191
Si Si3 0.436737 0.610065 0.948610
Si Si4 0.595047 0.200848 0.429199
Si Si5 0.811174 0.447192 0.893491
Si Si6 0.588490 0.721828 0.804791
Si Si7 0.181305 0.233953 0.635533
Si Si8 0.091332 0.198104 0.442913
O O1 0.693122 0.458365 0.720401
O O2 0.371284 0.981361 0.743156
O O3 0.553171 0.104755 0.611779
O O4 0.676480 0.793397 0.612187
O O5 0.438569 0.758363 0.794163
O O6 0.206831 0.354786 0.710819
O O7 0.040940 0.673534 0.853185
O O8 0.627205 0.509164 0.910961
O O9 0.433570 0.573779 0.876519
O O10 0.237630 0.467108 0.017839
O O11 0.500000 0.000000 0.000000
O O12 0.500000 0.500000 0.500000
O O13 0.766260 0.428631 0.372934
O O14 0.686345 0.023529 0.433192
O O15 0.757413 0.051769 0.835155
O O16 0.975558 0.008347 0.627161
O O17 0.000000 0.500000 0.500000
O O18 0.000000 0.000000 0.500000
#
# Coordination Sequence:
#
# PCOD9043697 Si02
#       8
#     2   2   2   2   2   2   2   2
#     4  11  26  44  68 105 147 186 251 306 378 445
#     4  11  26  43  67 109 144 189 238 307 367 442
#     4   9  21  44  72 107 140 194 239 294 356 452
#     4  11  22  43  68  94 138 186 238 301 366 438
#     4  10  23  45  74 102 149 190 242 293 371 436
#     4  11  23  44  71 105 148 187 245 302 370 440
#     4  11  24  42  64 101 137 184 241 294 369 434
#     4  12  28  47  73 105 145 199 254 316 382 451
#
# _framework density 25.164216
#
# number of rings (size 3 to 8) (size 9 to 14) (size 15 to 20)
#    0.000    1.250    1.250    3.375    5.250    4.500 
#    0.000    8.750    0.000    0.000    0.000    0.000 
#    0.000    0.000    0.000    0.000    0.000    0.000 
#
# Total GULP energy -89135.029088 kJ/mol
# GULP energy per Si atom -5570.939318 kJ/mol
# Density = 2.510694 g / cm^3
# Si number density = 25.164216 Si / 1000 Ang^3
#
#
#
# Elastic Constant Matrix: (Units=GPa)
#
#
# Indices 1 2 3 4 5 6 
#
# 1 51.0900 11.7010 10.3647 4.0530 10.5373 7.1096
# 2 11.7010 77.5196 26.4689 3.5274 -15.0838 -12.1347
# 3 10.3647 26.4689 87.8048 10.4826 1.0288 12.5574
# 4 4.0530 3.5274 10.4826 44.7268 7.4222 -10.7333
# 5 10.5373 -15.0838 1.0288 7.4222 53.4438 3.8191
# 6 7.1096 -12.1347 12.5574 -10.7333 3.8191 30.5659
#
#
#
# Elastic Compliance Matrix: (Units=1/GPa)
#
#
# Indices 1 2 3 4 5 6 
#
# 1 0.023298 -0.005956 0.000665 -0.002945 -0.005276 -0.008431
# 2 -0.005956 0.019101 -0.007192 0.002743 0.005451 0.012205
# 3 0.000665 -0.007192 0.015818 -0.005806 -0.000841 -0.011442
# 4 -0.002945 0.002743 -0.005806 0.027778 -0.003416 0.014340
# 5 -0.005276 0.005451 -0.000841 -0.003416 0.021794 -0.000186
# 6 -0.008431 0.012205 -0.011442 0.014340 -0.000186 0.049282
#
#
# Mechanical properties :
#
#
# Convention : Reuss Voigt Hill
#
# Bulk Modulus (GPa) = 30.07522 34.83151 32.45336
# Shear Modulus (GPa) = 25.89066 36.93929 31.41498
#
# Velocity S-wave (km/s) = 3.21108 3.83551 3.53710
# Velocity P-wave (km/s) = 5.07204 5.78676 5.44115
#
# Compressibility (1/GPa) = 0.03324996
#
# Stress axis : x y z
#
# Youngs Moduli (GPa) = 42.92290 52.35348 63.21952
#
# Poissons Ratio (x) = 0.31181 -0.04201
# Poissons Ratio (y) = 0.25564 0.45467
# Poissons Ratio (z) = -0.02852 0.37652
#
# Static dielectric constant tensor:
#      x y z
#    x 1.966880 0.069200 0.046710 
#    y 0.069200 2.105650 -0.057190 
#    z 0.046710 -0.057190 2.080820 
# 
# From -- ./inp_files/605928.got.cif
#   From: 2010.05.17/outbox.cif.g08.bks.cpg/sg2_303_cif.got.tgz:605928.got - 2010.06.03 11:33:40.
