data_PCOD9043209
_publ_section_title
;
Structure prediction by ZEFSAII (Michael W. Deem and Ramdas Pophale) SiO2 
 PCOD9043209
Probable space group: P -1
;
_chemical_formula_sum "Si O2"
_cell_formula_units_Z 16
_cell_length_a 12.017140
_cell_length_b 8.839580
_cell_length_c 9.826429
_cell_angle_alpha 127.193236
_cell_angle_beta 116.928700
_cell_angle_gamma 54.268477
_cell_volume 666.894991
_symmetry_space_group_name_H-M "P -1"
_symmetry_group_IT_number 2
_symmetry_cell_setting 'triclinic'
loop_
_space_group_symop_operation_xyz
x,y,z
-x,-y,-z
loop_
_atom_site_type_symbol
_atom_site_label
_atom_site_fract_x
_atom_site_fract_y
_atom_site_fract_z
Si Si1 0.068902 0.657874 0.350698
Si Si2 0.343894 0.606534 0.640059
Si Si3 0.102419 0.219208 0.243605
Si Si4 0.502075 0.883990 0.576419
Si Si5 0.794385 0.934127 0.506657
Si Si6 0.558244 0.792727 0.831779
Si Si7 0.818049 0.221011 0.085515
Si Si8 0.207915 0.637686 0.157515
O O1 0.208732 0.654705 0.496293
O O2 0.070767 0.434756 0.268306
O O3 0.076125 0.678271 0.202752
O O4 0.929481 0.837027 0.435206
O O5 0.447818 0.360072 0.564800
O O6 0.436224 0.719660 0.701514
O O7 0.293843 0.677238 0.804393
O O8 0.961826 0.210777 0.215647
O O9 0.184039 0.205552 0.421179
O O10 0.164158 0.011114 0.071119
O O11 0.346785 0.030128 0.624084
O O12 0.600555 0.855629 0.744389
O O13 0.500000 0.000000 0.500000
O O14 0.763186 0.165009 0.672852
O O15 0.679906 0.591404 0.858568
O O16 0.500000 0.000000 0.000000
O O17 0.799392 0.344907 0.999644
#
# Coordination Sequence:
#
# PCOD9043209 Si02
#       8
#     2   2   2   2   2   2   2   2
#     4  12  24  43  80 102 143 189 244 303 358 415
#     4  12  25  48  78 102 144 198 240 298 359 429
#     4  10  23  45  69 108 146 183 239 303 348 434
#     4  12  27  47  77 109 143 187 247 298 359 437
#     4  11  23  44  73 109 139 190 245 293 357 430
#     4  12  29  49  71 106 151 191 241 300 369 432
#     4  10  25  45  72 104 150 191 237 287 372 427
#     4  11  25  46  67 104 148 189 235 303 357 433
#
# _framework density 23.991785
#
# number of rings (size 3 to 8) (size 9 to 14) (size 15 to 20)
#    0.000    0.750    3.750    2.625    5.250    2.000 
#    0.000    0.000    0.000    0.000    0.000    0.000 
#    0.000    0.000    0.000    0.000    0.000    0.000 
#
# Total GULP energy -89509.018676 kJ/mol
# GULP energy per Si atom -5594.313667 kJ/mol
# Density = 2.393718 g / cm^3
# Si number density = 23.991785 Si / 1000 Ang^3
#
#
#
# Elastic Constant Matrix: (Units=GPa)
#
#
# Indices 1 2 3 4 5 6 
#
# 1 76.1079 16.9820 12.4490 3.8252 -7.7931 -17.3178
# 2 16.9820 118.0616 37.9209 -4.2240 -12.3967 -3.5466
# 3 12.4490 37.9209 62.3271 1.7717 -29.3600 -1.6486
# 4 3.8252 -4.2240 1.7717 36.7307 5.2242 -6.5041
# 5 -7.7931 -12.3967 -29.3600 5.2242 50.1239 1.2201
# 6 -17.3178 -3.5466 -1.6486 -6.5041 1.2201 46.5336
#
#
#
# Elastic Compliance Matrix: (Units=1/GPa)
#
#
# Indices 1 2 3 4 5 6 
#
# 1 0.015061 -0.001463 -0.001433 -0.000888 0.001104 0.005290
# 2 -0.001463 0.010921 -0.007384 0.002128 -0.002082 0.000378
# 3 -0.001433 -0.007384 0.027867 -0.004337 0.014753 -0.001102
# 4 -0.000888 0.002128 -0.004337 0.029215 -0.005292 0.003900
# 5 0.001104 -0.002082 0.014753 -0.005292 0.028818 -0.000720
# 6 0.005290 0.000378 -0.001102 0.003900 -0.000720 0.024012
#
#
# Mechanical properties :
#
#
# Convention : Reuss Voigt Hill
#
# Bulk Modulus (GPa) = 30.03914 43.46673 36.75293
# Shear Modulus (GPa) = 29.84182 39.28729 34.56456
#
# Velocity S-wave (km/s) = 3.53063 4.05103 3.79975
# Velocity P-wave (km/s) = 5.40076 6.32754 5.88243
#
# Compressibility (1/GPa) = 0.03328990
#
# Stress axis : x y z
#
# Youngs Moduli (GPa) = 66.39462 91.56604 35.88524
#
# Poissons Ratio (x) = 0.13398 0.05141
# Poissons Ratio (y) = 0.09715 0.26497
# Poissons Ratio (z) = 0.09512 0.67610
#
# Static dielectric constant tensor:
#      x y z
#    x 1.986820 -0.002340 0.024500 
#    y -0.002340 1.892340 -0.035280 
#    z 0.024500 -0.035280 1.903040 
# 
# From -- ./inp_files/206260.got.cif
#   From: 2010.05.17/outbox.cif.g08.bks.cpg/sg2_104_cif.got.tgz:206260.got - 2010.06.03 11:33:40.
