data_PCOD9043777
_publ_section_title
;
Structure prediction by ZEFSAII (Michael W. Deem and Ramdas Pophale) SiO2 
 PCOD9043777
Probable space group: P -1
;
_chemical_formula_sum "Si O2"
_cell_formula_units_Z 13
_cell_length_a 8.304534
_cell_length_b 11.508310
_cell_length_c 9.496850
_cell_angle_alpha 139.877873
_cell_angle_beta 95.469345
_cell_angle_gamma 105.825150
_cell_volume 490.515258
_symmetry_space_group_name_H-M "P -1"
_symmetry_group_IT_number 2
_symmetry_cell_setting 'triclinic'
loop_
_space_group_symop_operation_xyz
x,y,z
-x,-y,-z
loop_
_atom_site_type_symbol
_atom_site_label
_atom_site_fract_x
_atom_site_fract_y
_atom_site_fract_z
Si Si1 0.732854 0.885950 0.127725
Si Si2 0.880607 0.642174 0.752260
Si Si3 0.500000 0.000000 0.000000
Si Si4 0.578811 0.733113 0.277830
Si Si5 0.924781 0.631243 0.435105
Si Si6 0.266112 0.023944 0.236464
Si Si7 0.792368 0.346070 0.907411
O O1 0.689921 0.869358 0.275075
O O2 0.579925 0.896650 0.027622
O O3 0.929991 0.117499 0.342221
O O4 0.759852 0.695409 0.897275
O O5 0.937673 0.469100 0.631881
O O6 0.817102 0.592756 0.539222
O O7 0.083773 0.873979 0.984006
O O8 0.440824 0.096099 0.214657
O O9 0.385678 0.734956 0.285790
O O10 0.692932 0.786635 0.482528
O O11 0.500000 0.500000 0.000000
O O12 0.791155 0.490452 0.166577
O O13 0.232933 0.855827 0.200921
O O14 0.000000 0.500000 0.000000
#
# Coordination Sequence:
#
# PCOD9043777 Si02
#       7
#     2   2   1   2   2   2   2
#     4  12  26  48  76 108 154 200 247 315 380 446
#     4  10  24  44  77 113 146 196 249 309 378 457
#     4  12  26  44  80 112 146 202 248 314 384 436
#     4  12  30  47  69 113 150 198 256 310 375 455
#     4  10  23  45  75 107 146 196 251 305 374 452
#     4  11  25  49  74 106 152 196 250 309 383 444
#     4  11  25  45  72 103 143 200 246 302 373 450
#
# _framework density 26.502742000000001
#
# number of rings (size 3 to 8) (size 9 to 14) (size 15 to 20)
#    0.000    0.923    3.077    1.846    8.615    0.615 
#    0.000    2.308    0.000    0.000    0.000    0.000 
#    0.000    0.000    0.000    0.000    0.000    0.000 
#
# Total GULP energy -72491.811805 kJ/mol
# GULP energy per Si atom -5576.293216 kJ/mol
# Density = 2.644242 g / cm^3
# Si number density = 26.502742 Si / 1000 Ang^3
#
#
#
# Elastic Constant Matrix: (Units=GPa)
#
#
# Indices 1 2 3 4 5 6 
#
# 1 63.5082 13.8252 24.4354 -15.7732 -12.9472 0.9711
# 2 13.8252 77.6441 30.9760 -27.8066 2.8599 14.1937
# 3 24.4354 30.9760 143.3546 -30.5998 -21.9554 7.8194
# 4 -15.7732 -27.8066 -30.5998 57.8341 -1.1062 -6.0575
# 5 -12.9472 2.8599 -21.9554 -1.1062 50.6311 -7.2739
# 6 0.9711 14.1937 7.8194 -6.0575 -7.2739 32.5101
#
#
#
# Elastic Compliance Matrix: (Units=1/GPa)
#
#
# Indices 1 2 3 4 5 6 
#
# 1 0.018551 -0.002056 -0.001337 0.003706 0.004707 0.002409
# 2 -0.002056 0.017658 -0.002353 0.005914 -0.003382 -0.006737
# 3 -0.001337 -0.002353 0.008997 0.003378 0.003822 0.000388
# 4 0.003706 0.005914 0.003378 0.023135 0.002789 0.001430
# 5 0.004707 -0.003382 0.003822 0.002789 0.023762 0.006253
# 6 0.002409 -0.006737 0.000388 0.001430 0.006253 0.035201
#
#
# Mechanical properties :
#
#
# Convention : Reuss Voigt Hill
#
# Bulk Modulus (GPa) = 29.66202 46.99779 38.32991
# Shear Modulus (GPa) = 33.32502 42.54641 37.93571
#
# Velocity S-wave (km/s) = 3.54986 4.01104 3.78747
# Velocity P-wave (km/s) = 5.29323 6.26282 5.79833
#
# Compressibility (1/GPa) = 0.03371314
#
# Stress axis : x y z
#
# Youngs Moduli (GPa) = 53.90445 56.63051 111.14275
#
# Poissons Ratio (x) = 0.11645 0.14863
# Poissons Ratio (y) = 0.11085 0.26155
# Poissons Ratio (z) = 0.07209 0.13327
#
# Static dielectric constant tensor:
#      x y z
#    x 2.182640 -0.036840 -0.050990 
#    y -0.036840 2.095620 0.044740 
#    z -0.050990 0.044740 2.134960 
# 
# From -- ./inp_files/191130.got.cif
#   From: 2010.05.17/outbox.cif.g08.bks.cpg/sg2_96_cif.got.tgz:191130.got - 2010.06.03 11:33:40.
