data_PCOD9043887
_publ_section_title
;
Structure prediction by ZEFSAII (Michael W. Deem and Ramdas Pophale) SiO2 
 PCOD9043887
Probable space group: P -1
;
_chemical_formula_sum "Si O2"
_cell_formula_units_Z 16
_cell_length_a 6.716838
_cell_length_b 8.524531
_cell_length_c 19.239922
_cell_angle_alpha 40.266879
_cell_angle_beta 90.087928
_cell_angle_gamma 85.978360
_cell_volume 707.695069
_symmetry_space_group_name_H-M "P -1"
_symmetry_group_IT_number 2
_symmetry_cell_setting 'triclinic'
loop_
_space_group_symop_operation_xyz
x,y,z
-x,-y,-z
loop_
_atom_site_type_symbol
_atom_site_label
_atom_site_fract_x
_atom_site_fract_y
_atom_site_fract_z
Si Si1 0.181055 0.500798 0.284135
Si Si2 0.505679 0.609482 0.852812
Si Si3 0.757634 0.962638 0.660416
Si Si4 0.439517 0.205526 0.488887
Si Si5 0.879325 0.767312 0.400907
Si Si6 0.801216 0.796514 0.237094
Si Si7 0.482731 0.773335 0.127130
Si Si8 0.822820 0.333420 0.046645
O O1 0.182820 0.260422 0.317687
O O2 0.345314 0.436648 0.366715
O O3 0.260249 0.718397 0.166409
O O4 0.965209 0.576705 0.289907
O O5 0.605068 0.850152 0.750463
O O6 0.435792 0.473876 0.830402
O O7 0.326251 0.646675 0.894200
O O8 0.683958 0.431133 0.948975
O O9 0.637488 0.188604 0.542232
O O10 0.952461 0.047078 0.666626
O O11 0.262500 0.161415 0.557450
O O12 0.500000 0.000000 0.500000
O O13 0.761609 0.775632 0.325641
O O14 0.000000 0.500000 0.500000
O O15 0.609897 0.806712 0.184443
O O16 0.895415 0.048801 0.136923
O O17 0.500000 0.000000 0.000000
O O18 0.000000 0.500000 0.000000
#
# Coordination Sequence:
#
# PCOD9043887 Si02
#       8
#     2   2   2   2   2   2   2   2
#     4  10  25  43  70 106 135 188 245 289 364 428
#     4  10  23  46  65 103 134 187 242 293 359 433
#     4  10  24  45  72  96 149 186 241 296 360 434
#     4  10  23  46  73 105 140 193 238 295 364 434
#     4  12  26  45  72 113 145 187 243 299 369 433
#     4  12  26  43  70 106 144 182 236 306 356 424
#     4  11  25  46  70  98 140 188 240 296 355 430
#     4  11  24  41  72 100 140 184 238 295 366 426
#
# _framework density 22.608608
#
# number of rings (size 3 to 8) (size 9 to 14) (size 15 to 20)
#    0.000    1.250    2.500    1.500    3.500   11.000 
#    0.000    0.000    0.000    0.000    0.000    0.000 
#    0.000    0.000    0.000    0.000    0.000    0.000 
#
# Total GULP energy -89475.089120 kJ/mol
# GULP energy per Si atom -5592.193070 kJ/mol
# Density = 2.255715 g / cm^3
# Si number density = 22.608608 Si / 1000 Ang^3
#
#
#
# Elastic Constant Matrix: (Units=GPa)
#
#
# Indices 1 2 3 4 5 6 
#
# 1 70.4285 55.8698 28.7114 0.9436 -9.8289 -5.3918
# 2 55.8698 88.9785 41.7328 16.9094 -12.5590 8.5175
# 3 28.7114 41.7328 99.1300 7.7648 -8.6017 4.3289
# 4 0.9436 16.9094 7.7648 38.0244 1.6031 0.2176
# 5 -9.8289 -12.5590 -8.6017 1.6031 40.6023 -0.2470
# 6 -5.3918 8.5175 4.3289 0.2176 -0.2470 43.0077
#
#
#
# Elastic Compliance Matrix: (Units=1/GPa)
#
#
# Indices 1 2 3 4 5 6 
#
# 1 0.033746 -0.023326 -0.001067 0.009686 0.000400 0.008911
# 2 -0.023326 0.032006 -0.005026 -0.012731 0.003638 -0.008672
# 3 -0.001067 -0.005026 0.012634 -0.000353 0.000875 -0.000403
# 4 0.009686 -0.012731 -0.000353 0.031894 -0.002906 0.003593
# 5 0.000400 0.003638 0.000875 -0.002906 0.026148 -0.000594
# 6 0.008911 -0.008672 -0.000403 0.003593 -0.000594 0.026105
#
#
# Mechanical properties :
#
#
# Convention : Reuss Voigt Hill
#
# Bulk Modulus (GPa) = 51.15937 56.79612 53.97775
# Shear Modulus (GPa) = 21.94054 33.14173 27.54114
#
# Velocity S-wave (km/s) = 3.11859 3.83285 3.49402
# Velocity P-wave (km/s) = 5.97033 6.69056 6.34068
#
# Compressibility (1/GPa) = 0.01954676
#
# Stress axis : x y z
#
# Youngs Moduli (GPa) = 29.63288 31.24426 79.15089
#
# Poissons Ratio (x) = 0.72881 0.08446
# Poissons Ratio (y) = 0.69122 0.39785
# Poissons Ratio (z) = 0.03162 0.15705
#
# Static dielectric constant tensor:
#      x y z
#    x 1.799910 -0.011110 0.012110 
#    y -0.011110 1.847710 0.003060 
#    z 0.012110 0.003060 1.872970 
# 
# From -- ./inp_files/126444.got.cif
#   From: 2010.05.17/outbox.cif.g08.bks.cpg/sg2_64_cif.got.tgz:126444.got - 2010.06.03 11:33:40.
