data_PCOD9043492
_publ_section_title
;
Structure prediction by ZEFSAII (Michael W. Deem and Ramdas Pophale) SiO2 
 PCOD9043492
Probable space group: P -1
;
_chemical_formula_sum "Si O2"
_cell_formula_units_Z 16
_cell_length_a 14.284741
_cell_length_b 22.515912
_cell_length_c 22.070114
_cell_angle_alpha 12.544073
_cell_angle_beta 29.917838
_cell_angle_gamma 28.067574
_cell_volume 724.383931
_symmetry_space_group_name_H-M "P -1"
_symmetry_group_IT_number 2
_symmetry_cell_setting 'triclinic'
loop_
_space_group_symop_operation_xyz
x,y,z
-x,-y,-z
loop_
_atom_site_type_symbol
_atom_site_label
_atom_site_fract_x
_atom_site_fract_y
_atom_site_fract_z
Si Si1 0.781095 0.237000 0.394148
Si Si2 0.257272 0.223855 0.046158
Si Si3 0.392217 0.701864 0.304077
Si Si4 0.777426 0.913622 0.249866
Si Si5 0.875615 0.500745 0.900575
Si Si6 0.643395 0.136518 0.441151
Si Si7 0.986933 0.700912 0.226980
Si Si8 0.876143 0.672154 0.183298
O O1 0.783332 0.549797 0.100766
O O2 0.670489 0.239544 0.391036
O O3 0.000000 0.000000 0.500000
O O4 0.690926 0.099522 0.635812
O O5 0.440620 0.261375 0.870093
O O6 0.060676 0.314226 0.024654
O O7 0.500000 0.500000 0.500000
O O8 0.249911 0.536123 0.523117
O O9 0.258189 0.028646 0.071003
O O10 0.570986 0.900589 0.403450
O O11 0.950150 0.639171 0.454923
O O12 0.804351 0.868413 0.207164
O O13 0.830651 0.195227 0.957569
O O14 0.955305 0.488023 0.800290
O O15 0.801159 0.822664 0.649055
O O16 0.700104 0.363447 0.140796
O O17 0.948340 0.755294 0.123868
#
# Coordination Sequence:
#
# PCOD9043492 Si02
#       8
#     2   2   2   2   2   2   2   2
#     4  12  23  40  60  92 131 176 218 258 319 389
#     4  12  24  39  60  91 135 174 215 272 314 374
#     4  12  26  41  65  98 135 176 223 264 319 387
#     4  10  23  45  71  95 130 160 216 280 342 380
#     4  12  24  42  64  92 139 176 216 261 325 383
#     4  12  25  41  67  98 129 176 220 265 328 394
#     4  10  23  47  70  96 126 168 210 284 337 385
#     4  12  26  45  68  98 131 179 223 266 328 393
#
# _framework density 22.087734999999999
#
# number of rings (size 3 to 8) (size 9 to 14) (size 15 to 20)
#    0.000    0.500    3.750    4.500    5.250    0.000 
#    0.000    3.750    0.000    0.000    0.000    0.000 
#    0.000    0.000    0.000    0.000    0.000    0.000 
#
# Total GULP energy -89580.804951 kJ/mol
# GULP energy per Si atom -5598.800309 kJ/mol
# Density = 2.203746 g / cm^3
# Si number density = 22.087735 Si / 1000 Ang^3
#
#
#
# Elastic Constant Matrix: (Units=GPa)
#
#
# Indices 1 2 3 4 5 6 
#
# 1 70.2330 30.1792 6.7118 7.4830 -1.7627 24.1627
# 2 30.1792 92.1343 17.0723 21.9858 -10.3291 13.7983
# 3 6.7118 17.0723 93.7059 10.8038 -6.7405 4.9114
# 4 7.4830 21.9858 10.8038 44.7983 1.3062 -2.4021
# 5 -1.7627 -10.3291 -6.7405 1.3062 29.1277 4.6073
# 6 24.1627 13.7983 4.9114 -2.4021 4.6073 22.2318
#
#
#
# Elastic Compliance Matrix: (Units=1/GPa)
#
#
# Indices 1 2 3 4 5 6 
#
# 1 0.025585 -0.002561 0.001080 -0.004948 0.005564 -0.028144
# 2 -0.002561 0.015905 -0.000810 -0.007885 0.007112 -0.009235
# 3 0.001080 -0.000810 0.011527 -0.002883 0.003240 -0.004201
# 4 -0.004948 -0.007885 -0.002883 0.028768 -0.007516 0.015575
# 5 0.005564 0.007112 0.003240 -0.007516 0.041535 -0.020596
# 6 -0.028144 -0.009235 -0.004201 0.015575 -0.020596 0.088179
#
#
# Mechanical properties :
#
#
# Convention : Reuss Voigt Hill
#
# Bulk Modulus (GPa) = 20.64613 40.44443 30.54528
# Shear Modulus (GPa) = 21.53075 32.70553 27.11814
#
# Velocity S-wave (km/s) = 3.12554 3.85217 3.50772
# Velocity P-wave (km/s) = 4.73212 6.17545 5.50133
#
# Compressibility (1/GPa) = 0.04843522
#
# Stress axis : x y z
#
# Youngs Moduli (GPa) = 39.08552 62.87491 86.74989
#
# Poissons Ratio (x) = 0.16104 -0.09368
# Poissons Ratio (y) = 0.10011 0.07022
# Poissons Ratio (z) = -0.04221 0.05090
#
# Static dielectric constant tensor:
#      x y z
#    x 1.800530 0.008130 0.018920 
#    y 0.008130 1.827850 0.002920 
#    z 0.018920 0.002920 1.746160 
# 
# From -- ./inp_files/534354.got.cif
#   From: 2010.05.17/outbox.cif.g08.bks.cpg/sg2_268_cif.got.tgz:534354.got - 2010.06.03 11:33:40.
