data_PCOD9043556
_publ_section_title
;
Structure prediction by ZEFSAII (Michael W. Deem and Ramdas Pophale) SiO2 
 PCOD9043556
Probable space group: P -1
;
_chemical_formula_sum "Si O2"
_cell_formula_units_Z 12
_cell_length_a 14.969698
_cell_length_b 6.435207
_cell_length_c 9.567875
_cell_angle_alpha 93.636612
_cell_angle_beta 117.631231
_cell_angle_gamma 129.006715
_cell_volume 543.489707
_symmetry_space_group_name_H-M "P -1"
_symmetry_group_IT_number 2
_symmetry_cell_setting 'triclinic'
loop_
_space_group_symop_operation_xyz
x,y,z
-x,-y,-z
loop_
_atom_site_type_symbol
_atom_site_label
_atom_site_fract_x
_atom_site_fract_y
_atom_site_fract_z
Si Si1 0.988173 0.734974 0.049496
Si Si2 0.175567 0.217855 0.657116
Si Si3 0.289106 0.286150 0.450499
Si Si4 0.680483 0.281705 0.976272
Si Si5 0.552983 0.373701 0.696921
Si Si6 0.652977 0.788034 0.040542
O O1 0.823106 0.485958 0.985692
O O2 0.126785 0.961616 0.266227
O O3 0.000000 0.500000 0.000000
O O4 0.000000 0.000000 0.000000
O O5 0.258900 0.354964 0.575826
O O6 0.262661 0.492408 0.844115
O O7 0.206208 0.043212 0.748319
O O8 0.000000 0.000000 0.500000
O O9 0.399123 0.260604 0.558254
O O10 0.368417 0.531931 0.391587
O O11 0.641072 0.005029 0.000827
O O12 0.544661 0.158806 0.777509
O O13 0.657891 0.676482 0.889731
O O14 0.500000 0.500000 0.000000
#
# Coordination Sequence:
#
# PCOD9043556 Si02
#       6
#     2   2   2   2   2   2
#     4  12  26  49  77 111 151 199 248 313 386 448
#     4  11  24  44  69 107 147 186 250 304 381 447
#     4  11  22  47  71 109 145 191 244 317 362 454
#     4  11  25  44  75 103 145 200 245 306 380 452
#     4  10  23  45  72 103 144 187 253 301 380 437
#     4  11  24  48  68 100 145 191 243 304 375 448
#
# _framework density 22.079536999999998
#
# number of rings (size 3 to 8) (size 9 to 14) (size 15 to 20)
#    0.000    1.000    5.000    1.000    2.333    3.333 
#    6.000    2.500    0.000    0.000    0.000    0.000 
#    0.000    0.000    0.000    0.000    0.000    0.000 
#
# Total GULP energy -66861.015248 kJ/mol
# GULP energy per Si atom -5571.751271 kJ/mol
# Density = 2.202928 g / cm^3
# Si number density = 22.079537 Si / 1000 Ang^3
#
#
#
# Elastic Constant Matrix: (Units=GPa)
#
#
# Indices 1 2 3 4 5 6 
#
# 1 109.5592 41.9512 49.6358 -28.2120 -4.1575 0.8157
# 2 41.9512 146.3578 45.5630 -36.8170 6.2394 -13.2379
# 3 49.6358 45.5630 137.3647 -41.7841 19.9925 -12.2939
# 4 -28.2120 -36.8170 -41.7841 32.6349 -5.0354 3.7591
# 5 -4.1575 6.2394 19.9925 -5.0354 56.2718 -2.0087
# 6 0.8157 -13.2379 -12.2939 3.7591 -2.0087 26.5531
#
#
#
# Elastic Compliance Matrix: (Units=1/GPa)
#
#
# Indices 1 2 3 4 5 6 
#
# 1 0.012779 -0.001563 -0.002788 0.006477 0.002574 -0.003185
# 2 -0.001563 0.010043 0.000863 0.010563 -0.000451 0.003925
# 3 -0.002788 0.000863 0.013357 0.014610 -0.003584 0.004361
# 4 0.006477 0.010563 0.014610 0.066611 0.000163 0.002414
# 5 0.002574 -0.000451 -0.003584 0.000163 0.019280 -0.000528
# 6 -0.003185 0.003925 0.004361 0.002414 -0.000528 0.041353
#
#
# Mechanical properties :
#
#
# Convention : Reuss Voigt Hill
#
# Bulk Modulus (GPa) = 34.24337 74.17577 54.20957
# Shear Modulus (GPa) = 27.75720 40.16740 33.96230
#
# Velocity S-wave (km/s) = 3.54947 4.26985 3.92622
# Velocity P-wave (km/s) = 5.68692 7.61424 6.72003
#
# Compressibility (1/GPa) = 0.02920274
#
# Stress axis : x y z
#
# Youngs Moduli (GPa) = 78.25569 99.56999 74.86603
#
# Poissons Ratio (x) = 0.15565 0.20876
# Poissons Ratio (y) = 0.12233 -0.06465
# Poissons Ratio (z) = 0.21821 -0.08598
#
# Static dielectric constant tensor:
#      x y z
#    x 1.807890 0.008260 0.013070 
#    y 0.008260 1.747690 -0.066420 
#    z 0.013070 -0.066420 1.771790 
# 
# From -- ./inp_files/40208.got.cif
#   From: 2010.05.17/outbox.cif.g08.bks.cpg/sg2_21_cif.got.tgz:40208.got - 2010.06.03 11:33:40.
