data_PCOD9043152
_publ_section_title
;
Structure prediction by ZEFSAII (Michael W. Deem and Ramdas Pophale) SiO2 
 PCOD9043152
Probable space group: P -1
;
_chemical_formula_sum "Si O2"
_cell_formula_units_Z 14
_cell_length_a 25.218411
_cell_length_b 6.235685
_cell_length_c 8.542094
_cell_angle_alpha 116.540859
_cell_angle_beta 149.887722
_cell_angle_gamma 69.690248
_cell_volume 600.565739
_symmetry_space_group_name_H-M "P -1"
_symmetry_group_IT_number 2
_symmetry_cell_setting 'triclinic'
loop_
_space_group_symop_operation_xyz
x,y,z
-x,-y,-z
loop_
_atom_site_type_symbol
_atom_site_label
_atom_site_fract_x
_atom_site_fract_y
_atom_site_fract_z
Si Si1 0.024817 0.761790 0.395438
Si Si2 0.653721 0.659650 0.501129
Si Si3 0.572829 0.131534 0.596809
Si Si4 0.097731 0.102843 0.174443
Si Si5 0.849015 0.392273 0.853991
Si Si6 0.782165 0.411837 0.325957
Si Si7 0.484404 0.270873 0.103210
O O1 0.145537 0.735228 0.652968
O O2 0.000000 0.000000 0.500000
O O3 0.961458 0.776140 0.076335
O O4 0.966392 0.514157 0.230317
O O5 0.769162 0.569303 0.779742
O O6 0.574635 0.461080 0.323060
O O7 0.633790 0.918864 0.602808
O O8 0.621091 0.664330 0.235344
O O9 0.500995 0.252563 0.324365
O O10 0.500000 0.000000 0.500000
O O11 0.661200 0.323044 0.956317
O O12 0.180910 0.308389 0.523259
O O13 0.157251 0.879593 0.190443
O O14 0.000000 0.000000 0.000000
O O15 0.816528 0.362216 0.577085
O O16 0.500000 0.000000 0.000000
#
# Coordination Sequence:
#
# PCOD9043152 Si02
#       7
#     2   2   2   2   2   2   2
#     4  11  23  42  67 103 141 168 226 286 336 416
#     4  10  23  45  69 101 136 183 234 287 348 409
#     4  11  26  47  70 103 142 182 233 289 344 410
#     4  11  21  45  70  95 133 183 225 271 348 415
#     4  11  23  42  71 100 136 179 227 279 345 416
#     4  11  24  42  69 102 139 176 230 287 340 408
#     4   9  22  44  71  94 137 177 237 283 345 407
#
# _framework density 23.311351999999999
#
# number of rings (size 3 to 8) (size 9 to 14) (size 15 to 20)
#    0.000    1.429    2.857    1.714    6.000    8.000 
#    2.571    0.000    0.000    0.000    0.000    0.000 
#    0.000    0.000    0.000    0.000    0.000    0.000 
#
# Total GULP energy -78277.444283 kJ/mol
# GULP energy per Si atom -5591.246020 kJ/mol
# Density = 2.325829 g / cm^3
# Si number density = 23.311352 Si / 1000 Ang^3
#
#
#
# Elastic Constant Matrix: (Units=GPa)
#
#
# Indices 1 2 3 4 5 6 
#
# 1 72.5449 24.8566 42.0683 2.1851 -1.8374 -4.0905
# 2 24.8566 113.8097 30.9753 14.7659 1.0327 -5.0690
# 3 42.0683 30.9753 125.8537 21.6086 8.7103 16.3949
# 4 2.1851 14.7659 21.6086 45.9592 -3.3854 -3.4222
# 5 -1.8374 1.0327 8.7103 -3.3854 28.7432 -1.5310
# 6 -4.0905 -5.0690 16.3949 -3.4222 -1.5310 47.4846
#
#
#
# Elastic Compliance Matrix: (Units=1/GPa)
#
#
# Indices 1 2 3 4 5 6 
#
# 1 0.019124 -0.002551 -0.007303 0.003977 0.004226 0.004319
# 2 -0.002551 0.010075 -0.001333 -0.002431 -0.000347 0.001130
# 3 -0.007303 -0.001333 0.012896 -0.006118 -0.005359 -0.005838
# 4 0.003977 -0.002431 -0.006118 0.025946 0.005477 0.004242
# 5 0.004226 -0.000347 -0.005359 0.005477 0.037544 0.003782
# 6 0.004319 0.001130 -0.005838 0.004242 0.003782 0.023995
#
#
# Mechanical properties :
#
#
# Convention : Reuss Voigt Hill
#
# Bulk Modulus (GPa) = 50.70239 56.44540 53.57390
# Shear Modulus (GPa) = 31.54010 38.72459 35.13234
#
# Velocity S-wave (km/s) = 3.68230 4.08019 3.88634
# Velocity P-wave (km/s) = 6.31477 6.81642 6.57039
#
# Compressibility (1/GPa) = 0.01972294
#
# Stress axis : x y z
#
# Youngs Moduli (GPa) = 52.28981 99.25216 77.54096
#
# Poissons Ratio (x) = 0.25321 0.56624
# Poissons Ratio (y) = 0.13340 0.10334
# Poissons Ratio (z) = 0.38185 0.13228
#
# Static dielectric constant tensor:
#      x y z
#    x 2.467950 0.372180 0.250110 
#    y 0.372180 2.132260 0.190440 
#    z 0.250110 0.190440 1.981150 
# 
# From -- ./inp_files/138749.got.cif
#   From: 2010.05.17/outbox.cif.g08.bks.cpg/sg2_70_cif.got.tgz:138749.got - 2010.06.03 11:33:40.
