data_PCOD9043796
_publ_section_title
;
Structure prediction by ZEFSAII (Michael W. Deem and Ramdas Pophale) SiO2 
 PCOD9043796
Probable space group: P -1
;
_chemical_formula_sum "Si O2"
_cell_formula_units_Z 14
_cell_length_a 5.111603
_cell_length_b 8.814677
_cell_length_c 20.996565
_cell_angle_alpha 36.135237
_cell_angle_beta 80.588779
_cell_angle_gamma 81.632783
_cell_volume 550.220101
_symmetry_space_group_name_H-M "P -1"
_symmetry_group_IT_number 2
_symmetry_cell_setting 'triclinic'
loop_
_space_group_symop_operation_xyz
x,y,z
-x,-y,-z
loop_
_atom_site_type_symbol
_atom_site_label
_atom_site_fract_x
_atom_site_fract_y
_atom_site_fract_z
Si Si1 0.705269 0.916403 0.718414
Si Si2 0.244005 0.735532 0.509134
Si Si3 0.395496 0.035909 0.894205
Si Si4 0.012845 0.442953 0.721039
Si Si5 0.244772 0.555646 0.396385
Si Si6 0.761153 0.674262 0.927334
Si Si7 0.357856 0.601233 0.136548
O O1 0.848135 0.783529 0.818211
O O2 0.515457 0.677407 0.791927
O O3 0.816678 0.008946 0.614669
O O4 0.644014 0.194580 0.658348
O O5 0.555371 0.674488 0.514952
O O6 0.161959 0.687455 0.602014
O O7 0.063178 0.517200 0.556840
O O8 0.459296 0.234833 0.880320
O O9 0.207687 0.190396 0.799783
O O10 0.661565 0.910172 0.895693
O O11 0.273061 0.789222 0.018483
O O12 0.770392 0.419912 0.688148
O O13 0.896691 0.461021 0.789588
O O14 0.500000 0.500000 0.000000
O O15 0.000000 0.500000 0.000000
#
# Coordination Sequence:
#
# PCOD9043796 Si02
#       7
#     2   2   2   2   2   2   2
#     4  12  25  45  73 111 145 184 247 300 356 435
#     4  10  24  46  76 106 143 189 240 298 368 417
#     4  11  25  50  69 106 148 198 236 299 364 431
#     4  10  23  45  76 100 144 201 236 289 367 429
#     4  10  24  46  76 103 144 191 237 300 362 422
#     4  12  29  48  75 110 141 188 243 300 358 425
#     4  11  25  44  72 105 148 198 238 297 357 436
#
# _framework density 25.444364
#
# number of rings (size 3 to 8) (size 9 to 14) (size 15 to 20)
#    0.857    0.286    1.429    3.857    4.000    4.000 
#    5.143    1.429    0.000    0.000    0.000    0.000 
#    0.000    0.000    0.000    0.000    0.000    0.000 
#
# Total GULP energy -78014.726986 kJ/mol
# GULP energy per Si atom -5572.480499 kJ/mol
# Density = 2.538645 g / cm^3
# Si number density = 25.444364 Si / 1000 Ang^3
#
#
#
# Elastic Constant Matrix: (Units=GPa)
#
#
# Indices 1 2 3 4 5 6 
#
# 1 118.9467 28.2808 48.8027 4.6848 22.0306 -9.9430
# 2 28.2808 76.6487 42.5796 -12.4902 10.5708 4.3713
# 3 48.8027 42.5796 244.2262 23.4699 8.5224 -12.4590
# 4 4.6848 -12.4902 23.4699 48.3524 9.0256 -8.4008
# 5 22.0306 10.5708 8.5224 9.0256 30.1641 2.4301
# 6 -9.9430 4.3713 -12.4590 -8.4008 2.4301 21.1433
#
#
#
# Elastic Compliance Matrix: (Units=1/GPa)
#
#
# Indices 1 2 3 4 5 6 
#
# 1 0.011599 -0.002479 -0.001411 0.001627 -0.008232 0.006728
# 2 -0.002479 0.017800 -0.003254 0.006800 -0.005264 -0.003457
# 3 -0.001411 -0.003254 0.005289 -0.003268 0.001522 0.001652
# 4 0.001627 0.006800 -0.003268 0.027764 -0.011746 0.009815
# 5 -0.008232 -0.005264 0.001522 -0.011746 0.045039 -0.011730
# 6 0.006728 -0.003457 0.001652 0.009815 -0.011730 0.057396
#
#
# Mechanical properties :
#
#
# Convention : Reuss Voigt Hill
#
# Bulk Modulus (GPa) = 49.02113 75.46087 62.24100
# Shear Modulus (GPa) = 26.88517 41.27584 34.08051
#
# Velocity S-wave (km/s) = 3.25410 4.03202 3.66377
# Velocity P-wave (km/s) = 5.78159 7.16923 6.51247
#
# Compressibility (1/GPa) = 0.02039937
#
# Stress axis : x y z
#
# Youngs Moduli (GPa) = 86.21708 56.17977 189.06459
#
# Poissons Ratio (x) = 0.13925 0.26684
# Poissons Ratio (y) = 0.21371 0.61524
# Poissons Ratio (z) = 0.12168 0.18282
#
# Static dielectric constant tensor:
#      x y z
#    x 1.976520 0.008770 -0.065860 
#    y 0.008770 2.128520 0.049540 
#    z -0.065860 0.049540 2.068980 
# 
# From -- ./inp_files/582186.got.cif
#   From: 2010.05.17/outbox.cif.g08.bks.cpg/sg2_292_cif.got.tgz:582186.got - 2010.06.03 11:33:40.
