data_PCOD9043367
_publ_section_title
;
Structure prediction by ZEFSAII (Michael W. Deem and Ramdas Pophale) SiO2 
 PCOD9043367
Probable space group: P -1
;
_chemical_formula_sum "Si O2"
_cell_formula_units_Z 14
_cell_length_a 8.997448
_cell_length_b 15.035079
_cell_length_c 20.432990
_cell_angle_alpha 151.843310
_cell_angle_beta 32.314524
_cell_angle_gamma 131.336162
_cell_volume 656.839004
_symmetry_space_group_name_H-M "P -1"
_symmetry_group_IT_number 2
_symmetry_cell_setting 'triclinic'
loop_
_space_group_symop_operation_xyz
x,y,z
-x,-y,-z
loop_
_atom_site_type_symbol
_atom_site_label
_atom_site_fract_x
_atom_site_fract_y
_atom_site_fract_z
Si Si1 0.653659 0.261595 0.614163
Si Si2 0.832154 0.841041 0.946767
Si Si3 0.617007 0.087735 0.074358
Si Si4 0.784901 0.839047 0.110487
Si Si5 0.090917 0.455095 0.512687
Si Si6 0.719575 0.478718 0.965676
Si Si7 0.745287 0.895132 0.435127
O O1 0.467287 0.440046 0.846856
O O2 0.430643 0.215824 0.616089
O O3 0.900623 0.324896 0.526889
O O4 0.788010 0.066423 0.483413
O O5 0.019000 0.649911 0.711268
O O6 0.751353 0.786754 0.013275
O O7 0.577012 0.965513 0.073528
O O8 0.000000 0.000000 0.000000
O O9 0.431589 0.319790 0.302216
O O10 0.956483 0.065263 0.921347
O O11 0.500000 0.000000 0.000000
O O12 0.873564 0.642456 0.995260
O O13 0.480585 0.989303 0.349216
O O14 0.000000 0.500000 0.500000
O O15 0.500000 0.500000 0.000000
O O16 0.959656 0.263101 0.748460
#
# Coordination Sequence:
#
# PCOD9043367 Si02
#       7
#     2   2   2   2   2   2   2
#     4  10  24  43  66 102 132 179 236 275 354 405
#     4  10  24  42  61  96 140 178 227 277 341 406
#     4  11  23  42  67 101 138 181 230 281 340 415
#     4  10  24  41  66 100 133 178 228 279 348 408
#     4  12  25  41  70 102 137 181 228 285 343 409
#     4  11  24  42  68  99 132 176 230 288 347 406
#     4  10  23  45  70  95 137 180 225 294 342 413
#
# _framework density 21.314204
#
# number of rings (size 3 to 8) (size 9 to 14) (size 15 to 20)
#    0.000    1.429    1.429    2.143    4.000    9.143 
#    0.000    0.000    0.000    0.000    0.000    0.000 
#    0.000    0.000    0.000    0.000    0.000    0.000 
#
# Total GULP energy -78267.780771 kJ/mol
# GULP energy per Si atom -5590.555769 kJ/mol
# Density = 2.126569 g / cm^3
# Si number density = 21.314204 Si / 1000 Ang^3
#
#
#
# Elastic Constant Matrix: (Units=GPa)
#
#
# Indices 1 2 3 4 5 6 
#
# 1 118.8954 25.8620 63.2221 2.5262 15.1109 -15.1960
# 2 25.8620 96.8283 38.4387 -10.6932 -3.1847 -4.9249
# 3 63.2221 38.4387 151.9406 22.8555 0.0698 -16.4120
# 4 2.5262 -10.6932 22.8555 29.1143 -5.8737 6.1736
# 5 15.1109 -3.1847 0.0698 -5.8737 43.9656 5.3473
# 6 -15.1960 -4.9249 -16.4120 6.1736 5.3473 35.6797
#
#
#
# Elastic Compliance Matrix: (Units=1/GPa)
#
#
# Indices 1 2 3 4 5 6 
#
# 1 0.012058 -0.001506 -0.004236 -0.000003 -0.004695 0.003683
# 2 -0.001506 0.013667 -0.004705 0.010173 0.003260 -0.003168
# 3 -0.004236 -0.004705 0.011924 -0.012078 -0.001161 0.005295
# 4 -0.000003 0.010173 -0.012078 0.052612 0.009573 -0.014690
# 5 -0.004695 0.003260 -0.001161 0.009573 0.026819 -0.007760
# 6 0.003683 -0.003168 0.005295 -0.014690 -0.007760 0.035299
#
#
# Mechanical properties :
#
#
# Convention : Reuss Voigt Hill
#
# Bulk Modulus (GPa) = 59.68417 69.18999 64.43708
# Shear Modulus (GPa) = 27.95505 37.76136 32.85821
#
# Velocity S-wave (km/s) = 3.62549 4.21367 3.93059
# Velocity P-wave (km/s) = 6.75192 7.49705 7.13422
#
# Compressibility (1/GPa) = 0.01675486
#
# Stress axis : x y z
#
# Youngs Moduli (GPa) = 82.92929 73.16817 83.86737
#
# Poissons Ratio (x) = 0.11023 0.35526
# Poissons Ratio (y) = 0.12493 0.39457
# Poissons Ratio (z) = 0.35129 0.34424
#
# Static dielectric constant tensor:
#      x y z
#    x 1.759260 0.001140 -0.005840 
#    y 0.001140 1.817000 0.013730 
#    z -0.005840 0.013730 1.754130 
# 
# From -- ./inp_files/392705.got.cif
#   From: 2010.05.17/outbox.cif.g08.bks.cpg/sg2_197_cif.got.tgz:392705.got - 2010.06.03 11:33:40.
