data_PCOD9043550
_publ_section_title
;
Structure prediction by ZEFSAII (Michael W. Deem and Ramdas Pophale) SiO2 
 PCOD9043550
Probable space group: P -1
;
_chemical_formula_sum "Si O2"
_cell_formula_units_Z 16
_cell_length_a 15.230955
_cell_length_b 11.560978
_cell_length_c 14.693636
_cell_angle_alpha 42.647537
_cell_angle_beta 30.065436
_cell_angle_gamma 62.584684
_cell_volume 750.671311
_symmetry_space_group_name_H-M "P -1"
_symmetry_group_IT_number 2
_symmetry_cell_setting 'triclinic'
loop_
_space_group_symop_operation_xyz
x,y,z
-x,-y,-z
loop_
_atom_site_type_symbol
_atom_site_label
_atom_site_fract_x
_atom_site_fract_y
_atom_site_fract_z
Si Si1 0.808928 0.467885 0.752746
Si Si2 0.123703 0.865125 0.318931
Si Si3 0.527777 0.525944 0.675048
Si Si4 0.213465 0.287740 0.950259
Si Si5 0.664213 0.233353 0.205273
Si Si6 0.474127 0.768697 0.010417
Si Si7 0.109007 0.405110 0.785806
Si Si8 0.152921 0.820039 0.525899
O O1 0.615694 0.376838 0.911469
O O2 0.000000 0.500000 0.500000
O O3 0.903381 0.686973 0.585026
O O4 0.743371 0.313126 0.985224
O O5 0.292262 0.803784 0.185188
O O6 0.118016 0.884196 0.421216
O O7 0.193643 0.073619 0.088011
O O8 0.427133 0.450774 0.709354
O O9 0.442970 0.651124 0.726094
O O10 0.473740 0.338357 0.895514
O O11 0.770829 0.637925 0.375190
O O12 0.153461 0.341139 0.878792
O O13 0.049433 0.268423 0.182463
O O14 0.500000 0.000000 0.500000
O O15 0.869832 0.297733 0.040111
O O16 0.668056 0.988082 0.694747
O O17 0.197145 0.642797 0.572217
#
# Coordination Sequence:
#
# PCOD9043550 Si02
#       8
#     2   2   2   2   2   2   2   2
#     4  10  23  45  72 102 142 189 241 296 359 425
#     4  11  21  44  69 103 142 187 241 299 355 426
#     4  12  25  47  73 105 142 192 242 298 364 433
#     4  12  26  39  72 110 139 187 244 294 364 434
#     4  12  29  48  73 104 148 196 244 296 368 443
#     4  11  24  40  73 105 138 183 243 300 360 420
#     4  12  26  48  70 104 150 190 236 304 361 434
#     4  12  22  42  72  99 144 183 239 299 355 417
#
# _framework density 21.314257000000001
#
# number of rings (size 3 to 8) (size 9 to 14) (size 15 to 20)
#    0.000    0.500    5.000    3.000    3.500    4.000 
#    0.000    0.000    0.000    0.000    0.000    0.000 
#    0.000    0.000    0.000    0.000    0.000    0.000 
#
# Total GULP energy -89501.254839 kJ/mol
# GULP energy per Si atom -5593.828427 kJ/mol
# Density = 2.126574 g / cm^3
# Si number density = 21.314257 Si / 1000 Ang^3
#
#
#
# Elastic Constant Matrix: (Units=GPa)
#
#
# Indices 1 2 3 4 5 6 
#
# 1 127.6818 36.8891 76.8106 -3.4607 34.8161 -5.9575
# 2 36.8891 107.1163 41.8351 2.5527 -7.0723 -14.3043
# 3 76.8106 41.8351 195.9809 11.5676 44.0019 8.0813
# 4 -3.4607 2.5527 11.5676 36.4444 5.9528 -3.5997
# 5 34.8161 -7.0723 44.0019 5.9528 67.3550 -4.5777
# 6 -5.9575 -14.3043 8.0813 -3.5997 -4.5777 27.3628
#
#
#
# Elastic Compliance Matrix: (Units=1/GPa)
#
#
# Indices 1 2 3 4 5 6 
#
# 1 0.012144 -0.003024 -0.003354 0.003349 -0.004582 0.001728
# 2 -0.003024 0.013055 -0.003163 -0.000318 0.005572 0.007991
# 3 -0.003354 -0.003163 0.008459 -0.002669 -0.004293 -0.005952
# 4 0.003349 -0.000318 -0.002669 0.029480 -0.002297 0.004845
# 5 -0.004582 0.005572 -0.004293 -0.002297 0.021245 0.006435
# 6 0.001728 0.007991 -0.005952 0.004845 0.006435 0.044571
#
#
# Mechanical properties :
#
#
# Convention : Reuss Voigt Hill
#
# Bulk Modulus (GPa) = 68.60747 82.42759 75.51753
# Shear Modulus (GPa) = 32.70177 44.58204 38.64191
#
# Velocity S-wave (km/s) = 3.92122 4.57842 4.26251
# Velocity P-wave (km/s) = 7.26359 8.16736 7.72869
#
# Compressibility (1/GPa) = 0.01457567
#
# Stress axis : x y z
#
# Youngs Moduli (GPa) = 82.34268 76.59900 118.21286
#
# Poissons Ratio (x) = 0.23162 0.39653
# Poissons Ratio (y) = 0.24899 0.37394
# Poissons Ratio (z) = 0.27621 0.24231
#
# Static dielectric constant tensor:
#      x y z
#    x 1.755300 0.007810 -0.031490 
#    y 0.007810 1.797200 0.018150 
#    z -0.031490 0.018150 1.801800 
# 
# From -- ./inp_files/505579.got.cif
#   From: 2010.05.17/outbox.cif.g08.bks.cpg/sg2_253_cif.got.tgz:505579.got - 2010.06.03 11:33:40.
