data_PCOD9043160
_publ_section_title
;
Structure prediction by ZEFSAII (Michael W. Deem and Ramdas Pophale) SiO2 
 PCOD9043160
Probable space group: P -1
;
_chemical_formula_sum "Si O2"
_cell_formula_units_Z 14
_cell_length_a 12.514363
_cell_length_b 9.081159
_cell_length_c 9.478129
_cell_angle_alpha 105.714875
_cell_angle_beta 78.668807
_cell_angle_gamma 146.675029
_cell_volume 568.740872
_symmetry_space_group_name_H-M "P -1"
_symmetry_group_IT_number 2
_symmetry_cell_setting 'triclinic'
loop_
_space_group_symop_operation_xyz
x,y,z
-x,-y,-z
loop_
_atom_site_type_symbol
_atom_site_label
_atom_site_fract_x
_atom_site_fract_y
_atom_site_fract_z
Si Si1 0.621623 0.057022 0.864387
Si Si2 0.699365 0.616572 0.854642
Si Si3 0.316700 0.478240 0.853196
Si Si4 0.830270 0.468595 0.685512
Si Si5 0.970921 0.305093 0.574385
Si Si6 0.615061 0.712711 0.393643
Si Si7 0.932630 0.184374 0.862594
O O1 0.489406 0.755421 0.791692
O O2 0.653133 0.193397 0.751873
O O3 0.819883 0.212915 0.913490
O O4 0.500000 0.000000 0.000000
O O5 0.856940 0.664958 0.798056
O O6 0.540735 0.417445 0.719181
O O7 0.804388 0.900668 0.887030
O O8 0.618167 0.499588 0.002828
O O9 0.257053 0.266379 0.717428
O O10 0.151283 0.410064 0.912882
O O11 0.975212 0.490409 0.662489
O O12 0.845604 0.514563 0.526145
O O13 0.959461 0.195968 0.690746
O O14 0.766412 0.021454 0.478851
O O15 0.500000 0.500000 0.500000
#
# Coordination Sequence:
#
# PCOD9043160 Si02
#       7
#     2   2   2   2   2   2   2
#     4  11  23  49  67 102 147 187 238 290 357 430
#     4  12  24  45  71 108 143 182 240 296 357 426
#     4  12  26  45  73 108 143 190 238 297 362 424
#     4  10  23  45  69 101 145 183 243 293 354 427
#     4  10  23  47  67 107 142 188 241 292 361 424
#     4  12  24  44  76 104 147 189 241 300 357 426
#     4  11  25  45  76 102 146 185 239 296 357 432
#
# _framework density 24.615779
#
# number of rings (size 3 to 8) (size 9 to 14) (size 15 to 20)
#    0.000    0.857    4.286    2.571    2.000    2.286 
#    7.714    0.000    0.000    0.000    0.000    0.000 
#    0.000    0.000    0.000    0.000    0.000    0.000 
#
# Total GULP energy -78148.742136 kJ/mol
# GULP energy per Si atom -5582.053010 kJ/mol
# Density = 2.455975 g / cm^3
# Si number density = 24.615779 Si / 1000 Ang^3
#
#
#
# Elastic Constant Matrix: (Units=GPa)
#
#
# Indices 1 2 3 4 5 6 
#
# 1 112.5897 39.9842 32.5863 2.0019 -24.4086 7.2843
# 2 39.9842 118.5628 49.4522 -34.2224 22.5950 -4.0856
# 3 32.5863 49.4522 137.9509 -40.8103 -3.0140 4.1504
# 4 2.0019 -34.2224 -40.8103 50.0073 9.1607 2.9204
# 5 -24.4086 22.5950 -3.0140 9.1607 42.9562 4.4718
# 6 7.2843 -4.0856 4.1504 2.9204 4.4718 34.8334
#
#
#
# Elastic Compliance Matrix: (Units=1/GPa)
#
#
# Indices 1 2 3 4 5 6 
#
# 1 0.023499 -0.017770 -0.004704 -0.021558 0.027821 -0.008202
# 2 -0.017770 0.027587 0.000912 0.025486 -0.030882 0.008671
# 3 -0.004704 0.000912 0.011137 0.010779 -0.004613 -0.000548
# 4 -0.021558 0.025486 0.010779 0.053494 -0.036981 0.006476
# 5 0.027821 -0.030882 -0.004613 -0.036981 0.064358 -0.014052
# 6 -0.008202 0.008671 -0.000548 0.006476 -0.014052 0.032767
#
#
# Mechanical properties :
#
#
# Convention : Reuss Voigt Hill
#
# Bulk Modulus (GPa) = 52.35427 68.12764 60.24096
# Shear Modulus (GPa) = 19.05984 42.03142 30.54563
#
# Velocity S-wave (km/s) = 2.78563 4.13667 3.52646
# Velocity P-wave (km/s) = 5.62682 7.11003 6.41146
#
# Compressibility (1/GPa) = 0.01910064
#
# Stress axis : x y z
#
# Youngs Moduli (GPa) = 42.55447 36.24886 89.78773
#
# Poissons Ratio (x) = 0.64415 0.42232
# Poissons Ratio (y) = 0.75620 -0.08190
# Poissons Ratio (z) = 0.20016 -0.03307
#
# Static dielectric constant tensor:
#      x y z
#    x 2.030110 0.012490 0.004240 
#    y 0.012490 1.958860 0.015770 
#    z 0.004240 0.015770 1.946540 
# 
# From -- ./inp_files/191108.got.cif
#   From: 2010.05.17/outbox.cif.g08.bks.cpg/sg2_96_cif.got.tgz:191108.got - 2010.06.03 11:33:40.
