data_PCOD9043909
_publ_section_title
;
Structure prediction by ZEFSAII (Michael W. Deem and Ramdas Pophale) SiO2 
 PCOD9043909
Probable space group: P -1
;
_chemical_formula_sum "Si O2"
_cell_formula_units_Z 14
_cell_length_a 7.033613
_cell_length_b 12.529393
_cell_length_c 14.474933
_cell_angle_alpha 32.263459
_cell_angle_beta 66.723298
_cell_angle_gamma 59.326453
_cell_volume 583.851503
_symmetry_space_group_name_H-M "P -1"
_symmetry_group_IT_number 2
_symmetry_cell_setting 'triclinic'
loop_
_space_group_symop_operation_xyz
x,y,z
-x,-y,-z
loop_
_atom_site_type_symbol
_atom_site_label
_atom_site_fract_x
_atom_site_fract_y
_atom_site_fract_z
Si Si1 0.031389 0.711578 0.793022
Si Si2 0.511622 0.231077 0.297119
Si Si3 0.631666 0.373987 0.655068
Si Si4 0.220788 0.374400 0.420072
Si Si5 0.558123 0.929581 0.756395
Si Si6 0.850099 0.483786 0.280519
Si Si7 0.678171 0.926795 0.937804
O O1 0.249020 0.751806 0.753861
O O2 0.056200 0.672506 0.707611
O O3 0.811252 0.916165 0.704713
O O4 0.000000 0.500000 0.000000
O O5 0.349869 0.386384 0.290578
O O6 0.453155 0.244037 0.189915
O O7 0.500000 0.000000 0.500000
O O8 0.500000 0.500000 0.500000
O O9 0.795840 0.448953 0.629374
O O10 0.414868 0.439135 0.717075
O O11 0.746275 0.133475 0.772584
O O12 0.981797 0.393002 0.414685
O O13 0.370587 0.151918 0.601931
O O14 0.557950 0.893979 0.891653
O O15 0.874378 0.709824 0.084437
O O16 0.500000 0.000000 0.000000
#
# Coordination Sequence:
#
# PCOD9043909 Si02
#       7
#     2   2   2   2   2   2   2
#     4  12  24  43  72 106 148 188 229 296 370 425
#     4  10  24  43  68 107 142 182 235 297 354 422
#     4  11  23  45  72  94 140 188 241 289 349 420
#     4  11  23  42  70 105 135 182 236 296 350 423
#     4  11  23  44  69 107 141 180 243 289 358 426
#     4  11  24  44  69 102 141 183 235 293 362 417
#     4  10  23  46  66  95 140 188 228 293 348 421
#
# _framework density 23.978701000000001
#
# number of rings (size 3 to 8) (size 9 to 14) (size 15 to 20)
#    0.000    1.143    5.714    0.000    0.000    6.286 
#    5.143    0.000    0.000    0.000    0.000    0.000 
#    0.000    0.000    0.000    0.000    0.000    0.000 
#
# Total GULP energy -78180.987330 kJ/mol
# GULP energy per Si atom -5584.356238 kJ/mol
# Density = 2.392412 g / cm^3
# Si number density = 23.978701 Si / 1000 Ang^3
#
#
#
# Elastic Constant Matrix: (Units=GPa)
#
#
# Indices 1 2 3 4 5 6 
#
# 1 137.2847 31.9740 33.8867 10.5817 4.8800 14.6697
# 2 31.9740 116.7469 29.3421 26.2080 14.3914 38.0317
# 3 33.8867 29.3421 86.7649 3.9854 14.8172 7.9416
# 4 10.5817 26.2080 3.9854 34.1177 2.0468 14.8817
# 5 4.8800 14.3914 14.8172 2.0468 34.5998 0.3342
# 6 14.6697 38.0317 7.9416 14.8817 0.3342 44.1004
#
#
#
# Elastic Compliance Matrix: (Units=1/GPa)
#
#
# Indices 1 2 3 4 5 6 
#
# 1 0.008415 -0.001098 -0.002875 -0.001033 0.000572 -0.000990
# 2 -0.001098 0.014555 -0.002592 -0.006073 -0.004337 -0.009638
# 3 -0.002875 -0.002592 0.014246 0.001421 -0.004703 0.000182
# 4 -0.001033 -0.006073 0.001421 0.037302 -0.000073 -0.007262
# 5 0.000572 -0.004337 -0.004703 -0.000073 0.032603 0.004175
# 6 -0.000990 -0.009638 0.000182 -0.007262 0.004175 0.033703
#
#
# Mechanical properties :
#
#
# Convention : Reuss Voigt Hill
#
# Bulk Modulus (GPa) = 41.51613 59.02245 50.26929
# Shear Modulus (GPa) = 30.86777 38.93649 34.90213
#
# Velocity S-wave (km/s) = 3.59179 4.03401 3.81930
# Velocity P-wave (km/s) = 5.87815 6.80923 6.36075
#
# Compressibility (1/GPa) = 0.02408703
#
# Stress axis : x y z
#
# Youngs Moduli (GPa) = 118.84226 68.70310 70.19639
#
# Poissons Ratio (x) = 0.07544 0.20178
# Poissons Ratio (y) = 0.13050 0.18193
# Poissons Ratio (z) = 0.34162 0.17806
#
# Static dielectric constant tensor:
#      x y z
#    x 2.013250 0.007470 -0.143340 
#    y 0.007470 1.918630 0.001420 
#    z -0.143340 0.001420 2.109780 
# 
# From -- ./inp_files/131665.got.cif
#   From: 2010.05.17/outbox.cif.g08.bks.cpg/sg2_66_cif.got.tgz:131665.got - 2010.06.03 11:33:40.
