data_PCOD9043548
_publ_section_title
;
Structure prediction by ZEFSAII (Michael W. Deem and Ramdas Pophale) SiO2 
 PCOD9043548
Probable space group: P -1
;
_chemical_formula_sum "Si O2"
_cell_formula_units_Z 14
_cell_length_a 7.200481
_cell_length_b 17.949259
_cell_length_c 9.760552
_cell_angle_alpha 145.388229
_cell_angle_beta 129.621586
_cell_angle_gamma 50.182181
_cell_volume 532.353783
_symmetry_space_group_name_H-M "P -1"
_symmetry_group_IT_number 2
_symmetry_cell_setting 'triclinic'
loop_
_space_group_symop_operation_xyz
x,y,z
-x,-y,-z
loop_
_atom_site_type_symbol
_atom_site_label
_atom_site_fract_x
_atom_site_fract_y
_atom_site_fract_z
Si Si1 0.961416 0.098753 0.300351
Si Si2 0.628494 0.351284 0.938551
Si Si3 0.604440 0.124664 0.785998
Si Si4 0.622108 0.820158 0.851818
Si Si5 0.106604 0.202728 0.807040
Si Si6 0.166591 0.292977 0.491850
Si Si7 0.317524 0.493824 0.530285
O O1 0.669937 0.117274 0.172549
O O2 0.056065 0.214923 0.439785
O O3 0.002232 0.126576 0.522639
O O4 0.146021 0.950669 0.129507
O O5 0.670574 0.206012 0.814386
O O6 0.374824 0.363401 0.754305
O O7 0.875656 0.329891 0.929728
O O8 0.604696 0.454250 0.209122
O O9 0.368117 0.223481 0.900868
O O10 0.500000 0.000000 0.500000
O O11 0.700236 0.815590 0.724366
O O12 0.685461 0.660414 0.679825
O O13 0.785945 0.877297 0.124101
O O14 0.943665 0.402986 0.479794
O O15 0.500000 0.500000 0.500000
#
# Coordination Sequence:
#
# PCOD9043548 Si02
#       7
#     2   2   2   2   2   2   2
#     4  11  25  46  72 103 137 187 234 284 345 412
#     4  12  25  45  73 105 140 183 232 282 351 416
#     4  10  23  45  72 102 142 181 229 289 345 409
#     4  12  26  47  69 103 145 180 233 289 343 411
#     4  11  24  44  72 102 141 185 225 283 349 406
#     4  12  25  44  71 103 139 180 234 281 345 414
#     4  12  27  46  71 103 145 181 230 293 343 411
#
# _framework density 26.298303000000001
#
# number of rings (size 3 to 8) (size 9 to 14) (size 15 to 20)
#    0.000    0.571    7.143    1.286    0.000    6.286 
#    0.000    1.429    0.000    0.000    0.000    0.000 
#    0.000    0.000    0.000    0.000    0.000    0.000 
#
# Total GULP energy -78502.771891 kJ/mol
# GULP energy per Si atom -5607.340849 kJ/mol
# Density = 2.623845 g / cm^3
# Si number density = 26.298303 Si / 1000 Ang^3
#
#
#
# Elastic Constant Matrix: (Units=GPa)
#
#
# Indices 1 2 3 4 5 6 
#
# 1 163.3747 69.6089 70.0082 -7.5712 -19.2239 -41.9171
# 2 69.6089 168.3373 50.5941 -20.1675 9.2115 -18.6294
# 3 70.0082 50.5941 143.0718 -31.2944 -19.2372 4.8819
# 4 -7.5712 -20.1675 -31.2944 54.9443 3.5389 11.8939
# 5 -19.2239 9.2115 -19.2372 3.5389 38.9753 -1.8504
# 6 -41.9171 -18.6294 4.8819 11.8939 -1.8504 51.3298
#
#
#
# Elastic Compliance Matrix: (Units=1/GPa)
#
#
# Indices 1 2 3 4 5 6 
#
# 1 0.014022 -0.003465 -0.006663 -0.006194 0.005601 0.012464
# 2 -0.003465 0.008242 -0.001345 0.002155 -0.004534 -0.000373
# 3 -0.006663 -0.001345 0.013049 0.007794 0.002342 -0.008892
# 4 -0.006194 0.002155 0.007794 0.025104 -0.002515 -0.010925
# 5 0.005601 -0.004534 0.002342 -0.002515 0.031085 0.004409
# 6 0.012464 -0.000373 -0.008892 -0.010925 0.004409 0.033061
#
#
# Mechanical properties :
#
#
# Convention : Reuss Voigt Hill
#
# Bulk Modulus (GPa) = 80.85673 95.02290 87.93982
# Shear Modulus (GPa) = 32.97458 48.02137 40.49798
#
# Velocity S-wave (km/s) = 3.54484 4.27784 3.92847
# Velocity P-wave (km/s) = 6.89690 7.78531 7.35453
#
# Compressibility (1/GPa) = 0.01236755
#
# Stress axis : x y z
#
# Youngs Moduli (GPa) = 71.31487 121.32369 76.63571
#
# Poissons Ratio (x) = 0.42036 0.51064
# Poissons Ratio (y) = 0.24709 0.10307
# Poissons Ratio (z) = 0.47518 0.16318
#
# Static dielectric constant tensor:
#      x y z
#    x 2.074000 0.011260 -0.035730 
#    y 0.011260 2.072750 -0.014340 
#    z -0.035730 -0.014340 2.083280 
# 
# From -- ./inp_files/406441.got.cif
#   From: 2010.05.17/outbox.cif.g08.bks.cpg/sg2_204_cif.got.tgz:406441.got - 2010.06.03 11:33:40.
