data_PCOD9043450
_publ_section_title
;
Structure prediction by ZEFSAII (Michael W. Deem and Ramdas Pophale) SiO2 
 PCOD9043450
Probable space group: P -1
;
_chemical_formula_sum "Si O2"
_cell_formula_units_Z 15
_cell_length_a 13.936102
_cell_length_b 9.910729
_cell_length_c 16.807554
_cell_angle_alpha 125.575578
_cell_angle_beta 153.899710
_cell_angle_gamma 41.081025
_cell_volume 633.733932
_symmetry_space_group_name_H-M "P -1"
_symmetry_group_IT_number 2
_symmetry_cell_setting 'triclinic'
loop_
_space_group_symop_operation_xyz
x,y,z
-x,-y,-z
loop_
_atom_site_type_symbol
_atom_site_label
_atom_site_fract_x
_atom_site_fract_y
_atom_site_fract_z
Si Si1 0.970895 0.227826 0.723874
Si Si2 0.399249 0.120818 0.683468
Si Si3 0.198861 0.783313 0.020998
Si Si4 0.621354 0.665304 0.710112
Si Si5 0.500000 0.000000 0.000000
Si Si6 0.006226 0.674367 0.397465
Si Si7 0.796119 0.798368 0.609911
Si Si8 0.557875 0.617840 0.823547
O O1 0.818923 0.461183 0.729005
O O2 0.711283 0.228417 0.517741
O O3 0.122201 0.212431 0.745954
O O4 0.268829 0.023667 0.909794
O O5 0.536865 0.232823 0.812724
O O6 0.225307 0.171788 0.490350
O O7 0.209066 0.212605 0.651728
O O8 0.626539 0.858928 0.768266
O O9 0.284038 0.589568 0.073959
O O10 0.035771 0.792120 0.826725
O O11 0.000000 0.000000 0.000000
O O12 0.690742 0.577712 0.821354
O O13 0.531978 0.803553 0.910621
O O14 0.142788 0.425650 0.404978
O O15 0.249373 0.688869 0.600468
O O16 0.500000 0.000000 0.500000
#
# Coordination Sequence:
#
# PCOD9043450 Si02
#       8
#     2   2   2   2   1   2   2   2
#     4  10  23  45  71 103 146 196 244 308 376 444
#     4  12  25  46  76 112 144 196 248 313 370 451
#     4  12  27  48  76 109 150 196 253 306 373 446
#     4  10  24  48  77 103 145 200 252 302 376 450
#     4  12  24  40  68 110 148 188 244 310 366 440
#     4  11  23  47  73 102 150 193 243 312 377 440
#     4  12  24  46  75 102 149 200 244 304 372 446
#     4  11  25  48  74 107 153 195 245 312 371 447
#
# _framework density 23.669239999999999
#
# number of rings (size 3 to 8) (size 9 to 14) (size 15 to 20)
#    0.000    0.800    2.667    3.600    1.867    5.333 
#   12.000    0.000    0.000    0.000    0.000    0.000 
#    0.000    0.000    0.000    0.000    0.000    0.000 
#
# Total GULP energy -83891.505214 kJ/mol
# GULP energy per Si atom -5592.767014 kJ/mol
# Density = 2.361537 g / cm^3
# Si number density = 23.669240 Si / 1000 Ang^3
#
#
#
# Elastic Constant Matrix: (Units=GPa)
#
#
# Indices 1 2 3 4 5 6 
#
# 1 132.5388 71.3962 64.3127 1.6017 -10.0482 3.2882
# 2 71.3962 139.4534 41.3439 13.5851 -9.1784 -8.3498
# 3 64.3127 41.3439 153.2199 21.1923 -19.4251 -13.7959
# 4 1.6017 13.5851 21.1923 42.0568 -5.8679 -1.9510
# 5 -10.0482 -9.1784 -19.4251 -5.8679 35.0330 -9.9704
# 6 3.2882 -8.3498 -13.7959 -1.9510 -9.9704 35.9240
#
#
#
# Elastic Compliance Matrix: (Units=1/GPa)
#
#
# Indices 1 2 3 4 5 6 
#
# 1 0.013153 -0.005965 -0.004985 0.003541 -0.001291 -0.004671
# 2 -0.005965 0.010689 0.000624 -0.003098 0.001953 0.003644
# 3 -0.004985 0.000624 0.010225 -0.004148 0.005356 0.005789
# 4 0.003541 -0.003098 -0.004148 0.027026 0.002278 -0.000537
# 5 -0.001291 0.001953 0.005356 0.002278 0.035636 0.012643
# 6 -0.004671 0.003644 0.005789 -0.000537 0.012643 0.034814
#
#
# Mechanical properties :
#
#
# Convention : Reuss Voigt Hill
#
# Bulk Modulus (GPa) = 74.55431 86.59087 80.57259
# Shear Modulus (GPa) = 31.91520 39.14669 35.53094
#
# Velocity S-wave (km/s) = 3.67602 4.07124 3.87866
# Velocity P-wave (km/s) = 7.04161 7.66571 7.36028
#
# Compressibility (1/GPa) = 0.01341304
#
# Stress axis : x y z
#
# Youngs Moduli (GPa) = 76.03090 93.55828 97.80385
#
# Poissons Ratio (x) = 0.55811 0.48755
# Poissons Ratio (y) = 0.45356 -0.06104
# Poissons Ratio (z) = 0.37901 -0.05839
#
# Static dielectric constant tensor:
#      x y z
#    x 1.946250 0.032280 0.013380 
#    y 0.032280 1.859750 -0.120960 
#    z 0.013380 -0.120960 2.069270 
# 
# From -- ./inp_files/516174.got.cif
#   From: 2010.05.17/outbox.cif.g08.bks.cpg/sg2_259_cif.got.tgz:516174.got - 2010.06.03 11:33:40.
