data_PCOD9043314
_publ_section_title
;
Structure prediction by ZEFSAII (Michael W. Deem and Ramdas Pophale) SiO2 
 PCOD9043314
Probable space group: P -1
;
_chemical_formula_sum "Si O2"
_cell_formula_units_Z 11
_cell_length_a 13.464520
_cell_length_b 14.372683
_cell_length_c 11.505821
_cell_angle_alpha 32.979731
_cell_angle_beta 135.701899
_cell_angle_gamma 159.192018
_cell_volume 402.698854
_symmetry_space_group_name_H-M "P -1"
_symmetry_group_IT_number 2
_symmetry_cell_setting 'triclinic'
loop_
_space_group_symop_operation_xyz
x,y,z
-x,-y,-z
loop_
_atom_site_type_symbol
_atom_site_label
_atom_site_fract_x
_atom_site_fract_y
_atom_site_fract_z
Si Si1 0.141688 0.362316 0.490043
Si Si2 0.716187 0.836059 0.242950
Si Si3 0.622430 0.922310 0.857326
Si Si4 0.746198 0.419656 0.398746
Si Si5 0.500000 0.500000 0.000000
Si Si6 0.161288 0.847716 0.775117
O O1 0.137386 0.153796 0.724991
O O2 0.076311 0.378292 0.540945
O O3 0.939480 0.170584 0.408941
O O4 0.479030 0.783034 0.306386
O O5 0.500000 0.500000 0.500000
O O6 0.925032 0.149458 0.181032
O O7 0.558477 0.802341 0.062126
O O8 0.543468 0.034777 0.639800
O O9 0.525386 0.671279 0.950575
O O10 0.986713 0.314354 0.747733
O O11 0.584493 0.428516 0.233224
O O12 0.000000 0.500000 0.000000
#
# Coordination Sequence:
#
# PCOD9043314 Si02
#       6
#     2   2   2   2   1   2
#     4  11  24  44  72 102 144 191 248 302 368 443
#     4  10  23  45  70 103 146 195 247 299 369 444
#     4  11  25  47  70 107 146 193 243 306 372 443
#     4  11  26  45  73 107 146 189 248 305 376 437
#     4  12  24  46  74 104 144 190 250 306 370 438
#     4  11  24  44  69 104 145 193 245 305 366 439
#
# _framework density 27.315698000000001
#
# number of rings (size 3 to 8) (size 9 to 14) (size 15 to 20)
#    0.000    1.091    1.818    3.273    2.545    1.455 
#    9.818    0.000    0.000    0.000    0.000    0.000 
#    0.000    0.000    0.000    0.000    0.000    0.000 
#
# Total GULP energy -61385.903149 kJ/mol
# GULP energy per Si atom -5580.536650 kJ/mol
# Density = 2.725353 g / cm^3
# Si number density = 27.315698 Si / 1000 Ang^3
#
#
#
# Elastic Constant Matrix: (Units=GPa)
#
#
# Indices 1 2 3 4 5 6 
#
# 1 109.0914 64.0740 69.5521 0.4011 33.5475 -44.3462
# 2 64.0740 126.7052 49.3347 7.1577 -11.5139 -44.0701
# 3 69.5521 49.3347 166.8011 9.9462 33.9496 -19.8430
# 4 0.4011 7.1577 9.9462 50.7903 -7.1847 -6.8820
# 5 33.5475 -11.5139 33.9496 -7.1847 60.7513 -4.3786
# 6 -44.3462 -44.0701 -19.8430 -6.8820 -4.3786 53.6675
#
#
#
# Elastic Compliance Matrix: (Units=1/GPa)
#
#
# Indices 1 2 3 4 5 6 
#
# 1 0.025164 -0.008120 -0.004362 0.001703 -0.011948 0.011756
# 2 -0.008120 0.016036 -0.002560 0.000506 0.009471 0.006350
# 3 -0.004362 -0.002560 0.009101 -0.002300 -0.003646 -0.002934
# 4 0.001703 0.000506 -0.002300 0.021042 0.003213 0.003932
# 5 -0.011948 0.009471 -0.003646 0.003213 0.027212 -0.000812
# 6 0.011756 0.006350 -0.002934 0.003932 -0.000812 0.032915
#
#
# Mechanical properties :
#
#
# Convention : Reuss Voigt Hill
#
# Bulk Modulus (GPa) = 49.46114 85.39105 67.42610
# Shear Modulus (GPa) = 29.71030 47.68426 38.69728
#
# Velocity S-wave (km/s) = 3.30155 4.18266 3.76795
# Velocity P-wave (km/s) = 5.71666 7.39289 6.60814
#
# Compressibility (1/GPa) = 0.02021789
#
# Stress axis : x y z
#
# Youngs Moduli (GPa) = 39.73980 62.36151 109.87330
#
# Poissons Ratio (x) = 0.50634 0.47930
# Poissons Ratio (y) = 0.32267 0.28122
# Poissons Ratio (z) = 0.17336 0.15962
#
# Static dielectric constant tensor:
#      x y z
#    x 2.233560 0.528010 -0.014200 
#    y 0.528010 0.833670 -0.309030 
#    z -0.014200 -0.309030 2.156370 
# 
# From -- ./inp_files/58711.got.cif
#   From: 2010.05.17/outbox.cif.g08.bks.cpg/sg2_30_cif.got.tgz:58711.got - 2010.06.03 11:33:40.
