data_PCOD9043294
_publ_section_title
;
Structure prediction by ZEFSAII (Michael W. Deem and Ramdas Pophale) SiO2 
 PCOD9043294
Probable space group: P -1
;
_chemical_formula_sum "Si O2"
_cell_formula_units_Z 15
_cell_length_a 8.215195
_cell_length_b 16.634873
_cell_length_c 19.487121
_cell_angle_alpha 159.531635
_cell_angle_beta 142.753728
_cell_angle_gamma 37.869070
_cell_volume 551.527482
_symmetry_space_group_name_H-M "P -1"
_symmetry_group_IT_number 2
_symmetry_cell_setting 'triclinic'
loop_
_space_group_symop_operation_xyz
x,y,z
-x,-y,-z
loop_
_atom_site_type_symbol
_atom_site_label
_atom_site_fract_x
_atom_site_fract_y
_atom_site_fract_z
Si Si1 0.901768 0.712133 0.188643
Si Si2 0.287090 0.587118 0.757990
Si Si3 0.000000 0.000000 0.000000
Si Si4 0.177275 0.993442 0.893071
Si Si5 0.656922 0.270172 0.910259
Si Si6 0.309040 0.174908 0.526574
Si Si7 0.879418 0.229810 0.541309
Si Si8 0.719246 0.544752 0.507049
O O1 0.582716 0.739410 0.123467
O O2 0.069494 0.674092 0.287812
O O3 0.940247 0.951576 0.356621
O O4 0.000000 0.500000 0.000000
O O5 0.397259 0.393347 0.694799
O O6 0.285334 0.475634 0.593913
O O7 0.942998 0.681363 0.724630
O O8 0.337076 0.841921 0.988719
O O9 0.965577 0.013395 0.086119
O O10 0.193181 0.724709 0.654215
O O11 0.988849 0.245282 0.007384
O O12 0.500000 0.000000 0.000000
O O13 0.707654 0.008945 0.685609
O O14 0.500000 0.500000 0.000000
O O15 0.076385 0.275415 0.583012
O O16 0.500000 0.000000 0.500000
O O17 0.587204 0.321531 0.480520
#
# Coordination Sequence:
#
# PCOD9043294 Si02
#       8
#     2   2   1   2   2   2   2   2
#     4  11  26  49  74 109 156 201 263 316 381 469
#     4  10  23  45  70 101 144 192 251 303 384 455
#     4  10  26  44  74 110 144 200 254 324 384 462
#     4  11  27  48  74 110 152 199 260 324 384 464
#     4  12  27  49  76 109 155 201 254 320 392 467
#     4  12  25  45  73 107 148 199 245 314 387 460
#     4  11  26  44  75 110 147 204 254 313 387 465
#     4  10  23  46  73  99 145 198 248 310 383 459
#
# _framework density 27.197192999999999
#
# number of rings (size 3 to 8) (size 9 to 14) (size 15 to 20)
#    0.000    1.067    2.667    1.600   11.200    3.733 
#    0.000    0.000    0.000    0.000    0.000    0.000 
#    0.000    0.000    0.000    0.000    0.000    0.000 
#
# Total GULP energy -83512.388221 kJ/mol
# GULP energy per Si atom -5567.492548 kJ/mol
# Density = 2.713529 g / cm^3
# Si number density = 27.197193 Si / 1000 Ang^3
#
#
#
# Elastic Constant Matrix: (Units=GPa)
#
#
# Indices 1 2 3 4 5 6 
#
# 1 79.0039 12.0225 35.1448 5.5274 -23.4796 -6.4530
# 2 12.0225 172.6268 26.1539 31.8261 3.7090 -18.6495
# 3 35.1448 26.1539 157.3235 27.0138 -27.6669 -1.3057
# 4 5.5274 31.8261 27.0138 49.5204 6.0923 10.0300
# 5 -23.4796 3.7090 -27.6669 6.0923 36.8501 1.9053
# 6 -6.4530 -18.6495 -1.3057 10.0300 1.9053 54.5000
#
#
#
# Elastic Compliance Matrix: (Units=1/GPa)
#
#
# Indices 1 2 3 4 5 6 
#
# 1 0.016626 -0.000524 -0.001496 -0.002280 0.009805 0.001830
# 2 -0.000524 0.007165 -0.000303 -0.004976 -0.000632 0.003320
# 3 -0.001496 -0.000303 0.008829 -0.005402 0.006563 0.000695
# 4 -0.002280 -0.004976 -0.005402 0.029205 -0.009467 -0.007146
# 5 0.009805 -0.000632 0.006563 -0.009467 0.039866 0.001451
# 6 0.001830 0.003320 0.000695 -0.007146 0.001451 0.020983
#
#
# Mechanical properties :
#
#
# Convention : Reuss Voigt Hill
#
# Bulk Modulus (GPa) = 35.74850 61.73296 48.74073
# Shear Modulus (GPa) = 36.59167 50.54964 43.57065
#
# Velocity S-wave (km/s) = 3.67198 4.31587 4.00688
# Velocity P-wave (km/s) = 5.58127 6.89805 6.27430
#
# Compressibility (1/GPa) = 0.02797320
#
# Stress axis : x y z
#
# Youngs Moduli (GPa) = 60.14709 139.56981 113.26943
#
# Poissons Ratio (x) = 0.07311 0.16945
# Poissons Ratio (y) = 0.03151 0.03435
# Poissons Ratio (z) = 0.08998 0.04232
#
# Static dielectric constant tensor:
#      x y z
#    x 2.162720 -0.004870 0.012730 
#    y -0.004870 2.448230 0.019940 
#    z 0.012730 0.019940 2.230450 
# 
# From -- ./inp_files/591115.got.cif
#   From: 2010.05.17/outbox.cif.g08.bks.cpg/sg2_296_cif.got.tgz:591115.got - 2010.06.03 11:33:40.
