data_PCOD9043266
_publ_section_title
;
Structure prediction by ZEFSAII (Michael W. Deem and Ramdas Pophale) SiO2 
 PCOD9043266
Probable space group: P -1
;
_chemical_formula_sum "Si O2"
_cell_formula_units_Z 12
_cell_length_a 18.160251
_cell_length_b 5.380296
_cell_length_c 8.029246
_cell_angle_alpha 116.216955
_cell_angle_beta 125.006097
_cell_angle_gamma 49.144659
_cell_volume 483.223961
_symmetry_space_group_name_H-M "P -1"
_symmetry_group_IT_number 2
_symmetry_cell_setting 'triclinic'
loop_
_space_group_symop_operation_xyz
x,y,z
-x,-y,-z
loop_
_atom_site_type_symbol
_atom_site_label
_atom_site_fract_x
_atom_site_fract_y
_atom_site_fract_z
Si Si1 0.539994 0.674973 0.223852
Si Si2 0.025654 0.174881 0.728335
Si Si3 0.242227 0.544459 0.964507
Si Si4 0.909006 0.378400 0.965944
Si Si5 0.605007 0.245826 0.673299
Si Si6 0.335229 0.011679 0.650975
O O1 0.442653 0.881589 0.288683
O O2 0.576863 0.888118 0.240108
O O3 0.631942 0.347060 0.343416
O O4 0.500000 0.500000 0.000000
O O5 0.929265 0.388193 0.799029
O O6 0.135983 0.885211 0.870114
O O7 0.057418 0.435169 0.806218
O O8 0.000000 0.000000 0.500000
O O9 0.262585 0.271642 0.774676
O O10 0.209322 0.498364 0.092199
O O11 0.342439 0.581749 0.116113
O O12 0.000000 0.000000 0.000000
O O13 0.500000 0.500000 0.500000
O O14 0.692878 0.993144 0.580189
#
# Coordination Sequence:
#
# PCOD9043266 Si02
#       6
#     2   2   2   2   2   2
#     4  11  22  43  67  92 140 188 232 287 340 395
#     4  10  23  45  70 100 133 173 220 289 359 420
#     4  11  24  42  67 101 132 174 230 281 341 417
#     4   9  22  43  69  96 136 172 220 283 348 418
#     4  10  24  44  65  96 139 186 230 278 340 405
#     4  11  25  42  66  99 137 185 235 284 340 407
#
# _framework density 24.833203999999999
#
# number of rings (size 3 to 8) (size 9 to 14) (size 15 to 20)
#    0.000    1.667    1.667    1.000    4.667    8.000 
#    9.000    0.000    0.000    0.000    0.000    0.000 
#    0.000    0.000    0.000    0.000    0.000    0.000 
#
# Total GULP energy -66903.825507 kJ/mol
# GULP energy per Si atom -5575.318792 kJ/mol
# Density = 2.477668 g / cm^3
# Si number density = 24.833204 Si / 1000 Ang^3
#
#
#
# Elastic Constant Matrix: (Units=GPa)
#
#
# Indices 1 2 3 4 5 6 
#
# 1 126.1816 27.2330 11.6194 6.8918 -3.1433 -21.0443
# 2 27.2330 111.1399 30.8101 15.0033 7.2705 -19.1947
# 3 11.6194 30.8101 108.5686 31.6369 -2.9303 -8.0164
# 4 6.8918 15.0033 31.6369 47.9652 -5.0948 -2.1826
# 5 -3.1433 7.2705 -2.9303 -5.0948 32.5643 17.3725
# 6 -21.0443 -19.1947 -8.0164 -2.1826 17.3725 35.6644
#
#
#
# Elastic Compliance Matrix: (Units=1/GPa)
#
#
# Indices 1 2 3 4 5 6 
#
# 1 0.009108 -0.000929 -0.000062 -0.000944 -0.002201 0.005875
# 2 -0.000929 0.012448 -0.002121 -0.002842 -0.008700 0.009739
# 3 -0.000062 -0.002121 0.012003 -0.007213 -0.000211 0.001182
# 4 -0.000944 -0.002842 -0.007213 0.027132 0.007069 -0.005491
# 5 -0.002201 -0.008700 -0.000211 0.007069 0.049330 -0.029625
# 6 0.005875 0.009739 0.001182 -0.005491 -0.029625 0.051107
#
#
# Mechanical properties :
#
#
# Convention : Reuss Voigt Hill
#
# Bulk Modulus (GPa) = 36.58131 53.91277 45.24704
# Shear Modulus (GPa) = 28.33487 41.65395 34.99441
#
# Velocity S-wave (km/s) = 3.38154 4.09999 3.75797
# Velocity P-wave (km/s) = 5.47807 6.64607 6.09014
#
# Compressibility (1/GPa) = 0.02733636
#
# Stress axis : x y z
#
# Youngs Moduli (GPa) = 109.79733 80.33515 83.31507
#
# Poissons Ratio (x) = 0.07459 0.00515
# Poissons Ratio (y) = 0.10195 0.17667
# Poissons Ratio (z) = 0.00679 0.17036
#
# Static dielectric constant tensor:
#      x y z
#    x 2.118850 0.025260 -0.040450 
#    y 0.025260 2.083000 -0.042740 
#    z -0.040450 -0.042740 2.010620 
# 
# From -- ./inp_files/49216.got.cif
#   From: 2010.05.17/outbox.cif.g08.bks.cpg/sg2_25_cif.got.tgz:49216.got - 2010.06.03 11:33:40.
