data_PCOD9043465
_publ_section_title
;
Structure prediction by ZEFSAII (Michael W. Deem and Ramdas Pophale) SiO2 
 PCOD9043465
Probable space group: P -1
;
_chemical_formula_sum "Si O2"
_cell_formula_units_Z 16
_cell_length_a 11.964815
_cell_length_b 10.120248
_cell_length_c 9.082366
_cell_angle_alpha 77.800905
_cell_angle_beta 145.140688
_cell_angle_gamma 103.735374
_cell_volume 610.335245
_symmetry_space_group_name_H-M "P -1"
_symmetry_group_IT_number 2
_symmetry_cell_setting 'triclinic'
loop_
_space_group_symop_operation_xyz
x,y,z
-x,-y,-z
loop_
_atom_site_type_symbol
_atom_site_label
_atom_site_fract_x
_atom_site_fract_y
_atom_site_fract_z
Si Si1 0.089220 0.526617 0.251818
Si Si2 0.547039 0.705296 0.955772
Si Si3 0.727006 0.447132 0.073371
Si Si4 0.613274 0.815069 0.706893
Si Si5 0.396077 0.329346 0.550570
Si Si6 0.792773 0.163913 0.770480
Si Si7 0.005704 0.984987 0.215262
Si Si8 0.684541 0.921474 0.266510
O O1 0.269049 0.435167 0.468813
O O2 0.145974 0.687942 0.263808
O O3 0.000000 0.500000 0.000000
O O4 0.949345 0.483051 0.250132
O O5 0.489404 0.777146 0.729610
O O6 0.361934 0.662881 0.873560
O O7 0.500000 0.000000 0.000000
O O8 0.701037 0.812552 0.181331
O O9 0.650255 0.580076 0.032175
O O10 0.615702 0.392121 0.815701
O O11 0.653799 0.692327 0.670482
O O12 0.430867 0.866980 0.408532
O O13 0.814091 0.885039 0.979149
O O14 0.360316 0.181553 0.621178
O O15 0.834121 0.052064 0.720923
O O16 0.934697 0.132145 0.067748
O O17 0.119277 0.985467 0.491910
#
# Coordination Sequence:
#
# PCOD9043465 Si02
#       8
#     2   2   2   2   2   2   2   2
#     4  12  23  41  73 111 147 190 242 302 376 446
#     4  10  23  45  71 105 148 197 249 301 372 450
#     4  10  23  46  71 104 154 197 241 308 373 446
#     4  12  24  45  75 110 152 197 247 313 377 444
#     4  11  25  45  75 112 149 189 250 314 373 452
#     4  11  24  41  71 113 151 193 247 310 378 445
#     4  11  24  45  70 105 154 200 251 307 368 449
#     4  11  25  48  72 102 149 202 254 308 369 444
#
# _framework density 26.2151
#
# number of rings (size 3 to 8) (size 9 to 14) (size 15 to 20)
#    0.000    1.000    0.000    7.125    0.000    3.000 
#    0.000   21.250    0.000    0.000    0.000    2.625 
#    0.000    0.000    0.000    0.000    0.000    0.000 
#
# Total GULP energy -89362.576791 kJ/mol
# GULP energy per Si atom -5585.161049 kJ/mol
# Density = 2.615543 g / cm^3
# Si number density = 26.215100 Si / 1000 Ang^3
#
#
#
# Elastic Constant Matrix: (Units=GPa)
#
#
# Indices 1 2 3 4 5 6 
#
# 1 144.8028 33.0560 51.2772 17.6509 -1.9403 -1.9504
# 2 33.0560 118.5850 63.8067 17.7544 1.7016 -6.6989
# 3 51.2772 63.8067 147.8796 19.5613 6.6759 -14.5678
# 4 17.6509 17.7544 19.5613 45.7462 -12.1274 -13.6327
# 5 -1.9403 1.7016 6.6759 -12.1274 50.1713 3.4468
# 6 -1.9504 -6.6989 -14.5678 -13.6327 3.4468 16.3438
#
#
#
# Elastic Compliance Matrix: (Units=1/GPa)
#
#
# Indices 1 2 3 4 5 6 
#
# 1 0.008299 -0.000706 -0.002599 -0.002990 0.000254 -0.004164
# 2 -0.000706 0.011345 -0.004420 -0.002840 -0.000396 -0.001660
# 3 -0.002599 -0.004420 0.010394 0.000039 -0.001844 0.007564
# 4 -0.002990 -0.002840 0.000039 0.033174 0.006286 0.024859
# 5 0.000254 -0.000396 -0.001844 0.006286 0.021797 -0.001129
# 6 -0.004164 -0.001660 0.007564 0.024859 -0.001129 0.087724
#
#
# Mechanical properties :
#
#
# Convention : Reuss Voigt Hill
#
# Bulk Modulus (GPa) = 68.55220 78.61637 73.58428
# Shear Modulus (GPa) = 25.90037 39.99409 32.94723
#
# Velocity S-wave (km/s) = 3.14665 3.91015 3.54899
# Velocity P-wave (km/s) = 6.27762 7.10209 6.70255
#
# Compressibility (1/GPa) = 0.01458742
#
# Stress axis : x y z
#
# Youngs Moduli (GPa) = 120.49091 88.14335 96.20970
#
# Poissons Ratio (x) = 0.06224 0.25007
# Poissons Ratio (y) = 0.08508 0.42527
# Poissons Ratio (z) = 0.31318 0.38961
#
# Static dielectric constant tensor:
#      x y z
#    x 2.149940 0.080460 -0.038560 
#    y 0.080460 2.210900 -0.065550 
#    z -0.038560 -0.065550 2.187790 
# 
# From -- ./inp_files/447278.got.cif
#   From: 2010.05.17/outbox.cif.g08.bks.cpg/sg2_224_cif.got.tgz:447278.got - 2010.06.03 11:33:40.
