data_PCOD9043636
_publ_section_title
;
Structure prediction by ZEFSAII (Michael W. Deem and Ramdas Pophale) SiO2 
 PCOD9043636
Probable space group: P -1
;
_chemical_formula_sum "Si O2"
_cell_formula_units_Z 14
_cell_length_a 21.772272
_cell_length_b 13.453189
_cell_length_c 5.768440
_cell_angle_alpha 106.089978
_cell_angle_beta 104.279181
_cell_angle_gamma 20.842075
_cell_volume 577.226741
_symmetry_space_group_name_H-M "P -1"
_symmetry_group_IT_number 2
_symmetry_cell_setting 'triclinic'
loop_
_space_group_symop_operation_xyz
x,y,z
-x,-y,-z
loop_
_atom_site_type_symbol
_atom_site_label
_atom_site_fract_x
_atom_site_fract_y
_atom_site_fract_z
Si Si1 0.808952 0.831539 0.071912
Si Si2 0.711354 0.183755 0.982715
Si Si3 0.249970 0.686190 0.605506
Si Si4 0.721843 0.674974 0.228897
Si Si5 0.973386 0.130180 0.247058
Si Si6 0.367964 0.090160 0.200748
Si Si7 0.608339 0.230220 0.510186
O O1 0.727005 0.961543 0.330858
O O2 0.675909 0.964813 0.885348
O O3 0.000000 0.500000 0.000000
O O4 0.789386 0.982882 0.100593
O O5 0.743583 0.082511 0.704594
O O6 0.500000 0.500000 0.000000
O O7 0.771990 0.203369 0.125039
O O8 0.180088 0.680358 0.604757
O O9 0.448082 0.402021 0.548632
O O10 0.136799 0.892522 0.413416
O O11 0.901062 0.342244 0.200723
O O12 0.695478 0.773826 0.516676
O O13 0.564419 0.830265 0.183157
O O14 0.716801 0.739206 0.013059
O O15 0.000000 0.000000 0.000000
O O16 0.500000 0.500000 0.500000
#
# Coordination Sequence:
#
# PCOD9043636 Si02
#       7
#     2   2   2   2   2   2   2
#     4  12  28  45  71 110 147 190 249 310 377 447
#     4  10  23  45  73 105 142 192 243 304 372 453
#     4  10  25  44  69 114 143 186 253 304 383 453
#     4  10  25  48  74 100 148 196 246 304 376 441
#     4  11  27  41  74 109 144 189 242 323 365 443
#     4  10  26  48  72 103 142 202 245 301 372 465
#     4  11  24  45  76 104 145 199 242 305 379 453
#
# _framework density 24.253898
#
# number of rings (size 3 to 8) (size 9 to 14) (size 15 to 20)
#    0.000    1.429    2.857    0.000   16.000    1.714 
#    0.000    0.000    0.000    0.000    0.000    0.000 
#    0.000    0.000    0.000    0.000    0.000    0.000 
#
# Total GULP energy -78035.482627 kJ/mol
# GULP energy per Si atom -5573.963045 kJ/mol
# Density = 2.419869 g / cm^3
# Si number density = 24.253898 Si / 1000 Ang^3
#
#
#
# Elastic Constant Matrix: (Units=GPa)
#
#
# Indices 1 2 3 4 5 6 
#
# 1 73.9877 28.6986 5.1690 -3.4969 3.0187 -26.2707
# 2 28.6986 120.8921 55.0853 10.2545 -3.2688 2.3792
# 3 5.1690 55.0853 133.9918 -13.2096 24.2378 -15.4422
# 4 -3.4969 10.2545 -13.2096 44.0915 4.5513 -7.0967
# 5 3.0187 -3.2688 24.2378 4.5513 43.3490 -8.1976
# 6 -26.2707 2.3792 -15.4422 -7.0967 -8.1976 28.4715
#
#
#
# Elastic Compliance Matrix: (Units=1/GPa)
#
#
# Indices 1 2 3 4 5 6 
#
# 1 0.037502 -0.018171 0.014338 0.019640 -0.005112 0.047321
# 2 -0.018171 0.021050 -0.014012 -0.015773 0.007043 -0.028029
# 3 0.014338 -0.014012 0.018805 0.015125 -0.009299 0.025693
# 4 0.019640 -0.015773 0.015125 0.038932 -0.008502 0.034900
# 5 -0.005112 0.007043 -0.009299 -0.008502 0.029284 -0.004036
# 6 0.047321 -0.028029 0.025693 0.034900 -0.004036 0.102601
#
#
# Mechanical properties :
#
#
# Convention : Reuss Voigt Hill
#
# Bulk Modulus (GPa) = 24.00038 56.30860 40.15449
# Shear Modulus (GPa) = 16.79243 39.17699 27.98471
#
# Velocity S-wave (km/s) = 2.63413 4.02342 3.40048
# Velocity P-wave (km/s) = 4.37818 6.69706 5.65770
#
# Compressibility (1/GPa) = 0.04166600
#
# Stress axis : x y z
#
# Youngs Moduli (GPa) = 26.66557 47.50515 53.17794
#
# Poissons Ratio (x) = 0.86323 -0.76248
# Poissons Ratio (y) = 0.48455 0.74515
# Poissons Ratio (z) = -0.38234 0.66566
#
# Static dielectric constant tensor:
#      x y z
#    x 2.101730 0.135890 -0.088570 
#    y 0.135890 2.055650 0.002660 
#    z -0.088570 0.002660 1.909910 
# 
# From -- ./inp_files/124071.got.cif
#   From: 2010.05.17/outbox.cif.g08.bks.cpg/sg2_63_cif.got.tgz:124071.got - 2010.06.03 11:33:40.
