data_PCOD9043931
_publ_section_title
;
Structure prediction by ZEFSAII (Michael W. Deem and Ramdas Pophale) SiO2 
 PCOD9043931
Probable space group: P -1
;
_chemical_formula_sum "Si O2"
_cell_formula_units_Z 16
_cell_length_a 10.462790
_cell_length_b 11.381874
_cell_length_c 7.045922
_cell_angle_alpha 126.761779
_cell_angle_beta 84.630607
_cell_angle_gamma 91.905160
_cell_volume 668.984148
_symmetry_space_group_name_H-M "P -1"
_symmetry_group_IT_number 2
_symmetry_cell_setting 'triclinic'
loop_
_space_group_symop_operation_xyz
x,y,z
-x,-y,-z
loop_
_atom_site_type_symbol
_atom_site_label
_atom_site_fract_x
_atom_site_fract_y
_atom_site_fract_z
Si Si1 0.490625 0.232660 0.285923
Si Si2 0.025047 0.734972 0.229549
Si Si3 0.802802 0.863043 0.142328
Si Si4 0.692263 0.572695 0.700648
Si Si5 0.715043 0.019284 0.972411
Si Si6 0.433397 0.641518 0.236722
Si Si7 0.086827 0.487978 0.668526
Si Si8 0.271161 0.898266 0.370489
O O1 0.447932 0.363469 0.278493
O O2 0.390588 0.107030 0.134883
O O3 0.474061 0.286065 0.554087
O O4 0.634221 0.165317 0.184369
O O5 0.142520 0.821763 0.381821
O O6 0.921257 0.840899 0.244336
O O7 0.959250 0.642253 0.314914
O O8 0.075740 0.627678 0.946513
O O9 0.698139 0.965852 0.366698
O O10 0.758226 0.701747 0.934901
O O11 0.822652 0.956454 0.038700
O O12 0.680386 0.429701 0.692257
O O13 0.772883 0.541455 0.468634
O O14 0.757744 0.043866 0.778153
O O15 0.380175 0.770715 0.235516
O O16 0.500000 0.500000 0.000000
O O17 0.000000 0.500000 0.500000
#
# Coordination Sequence:
#
# PCOD9043931 Si02
#       8
#     2   2   2   2   2   2   2   2
#     4  10  23  46  67 101 138 181 232 283 346 413
#     4  11  27  43  72 107 137 184 237 286 347 411
#     4  11  25  48  68 104 138 184 235 282 349 414
#     4  11  25  44  76  98 141 187 228 289 354 410
#     4  10  24  46  71 100 139 185 227 288 350 408
#     4  12  27  43  69 110 142 179 235 290 344 418
#     4  11  24  47  71 102 143 182 229 291 350 412
#     4  12  27  44  72 102 143 183 231 291 342 417
#
# _framework density 23.916861999999998
#
# number of rings (size 3 to 8) (size 9 to 14) (size 15 to 20)
#    0.000    1.000    2.500    2.250   10.500    2.000 
#    0.000    0.000    0.000    0.000    0.000    0.000 
#    0.000    0.000    0.000    0.000    0.000    0.000 
#
# Total GULP energy -89513.411809 kJ/mol
# GULP energy per Si atom -5594.588238 kJ/mol
# Density = 2.386243 g / cm^3
# Si number density = 23.916862 Si / 1000 Ang^3
#
#
#
# Elastic Constant Matrix: (Units=GPa)
#
#
# Indices 1 2 3 4 5 6 
#
# 1 39.5698 18.1859 11.8144 0.9968 -3.1543 -9.5020
# 2 18.1859 115.2034 42.0020 -18.5866 -7.2192 -19.1928
# 3 11.8144 42.0020 130.8662 8.1708 -11.7088 1.9717
# 4 0.9968 -18.5866 8.1708 43.9716 -5.0128 2.7059
# 5 -3.1543 -7.2192 -11.7088 -5.0128 31.1043 -11.3738
# 6 -9.5020 -19.1928 1.9717 2.7059 -11.3738 36.6933
#
#
#
# Elastic Compliance Matrix: (Units=1/GPa)
#
#
# Indices 1 2 3 4 5 6 
#
# 1 0.029188 -0.002831 -0.001356 -0.001582 0.004319 0.007606
# 2 -0.002831 0.013220 -0.004056 0.006520 0.005041 0.007482
# 3 -0.001356 -0.004056 0.009395 -0.003160 0.001065 -0.002414
# 4 -0.001582 0.006520 -0.003160 0.026570 0.005513 0.002920
# 5 0.004319 0.005041 0.001065 0.005513 0.040885 0.015964
# 6 0.007606 0.007482 -0.002414 0.002920 0.015964 0.037999
#
#
# Mechanical properties :
#
#
# Convention : Reuss Voigt Hill
#
# Bulk Modulus (GPa) = 28.31479 47.73821 38.02650
# Shear Modulus (GPa) = 26.95193 36.59632 31.77413
#
# Velocity S-wave (km/s) = 3.36058 3.91595 3.64885
# Velocity P-wave (km/s) = 5.18869 6.36000 5.80397
#
# Compressibility (1/GPa) = 0.03531723
#
# Stress axis : x y z
#
# Youngs Moduli (GPa) = 34.26049 75.64075 106.44301
#
# Poissons Ratio (x) = 0.21411 0.14433
# Poissons Ratio (y) = 0.09698 0.43177
# Poissons Ratio (z) = 0.04646 0.30683
#
# Static dielectric constant tensor:
#      x y z
#    x 1.932080 -0.026670 -0.025220 
#    y -0.026670 1.898210 0.016820 
#    z -0.025220 0.016820 1.932430 
# 
# From -- ./inp_files/72276.got.cif
#   From: 2010.05.17/outbox.cif.g08.bks.cpg/sg2_37_cif.got.tgz:72276.got - 2010.06.03 11:33:40.
