data_PCOD9043014
_publ_section_title
;
Structure prediction by ZEFSAII (Michael W. Deem and Ramdas Pophale) SiO2 
 PCOD9043014
Probable space group: P -1
;
_chemical_formula_sum "Si O2"
_cell_formula_units_Z 11
_cell_length_a 9.764518
_cell_length_b 11.095978
_cell_length_c 6.986961
_cell_angle_alpha 92.331576
_cell_angle_beta 74.552375
_cell_angle_gamma 40.539258
_cell_volume 437.099072
_symmetry_space_group_name_H-M "P -1"
_symmetry_group_IT_number 2
_symmetry_cell_setting 'triclinic'
loop_
_space_group_symop_operation_xyz
x,y,z
-x,-y,-z
loop_
_atom_site_type_symbol
_atom_site_label
_atom_site_fract_x
_atom_site_fract_y
_atom_site_fract_z
Si Si1 0.702406 0.765299 0.935242
Si Si2 0.011295 0.723520 0.081710
Si Si3 0.276197 0.907143 0.236794
Si Si4 0.569587 0.576969 0.384243
Si Si5 0.000000 0.000000 0.000000
Si Si6 0.980875 0.349188 0.482144
O O1 0.847477 0.666598 0.677715
O O2 0.872751 0.707244 0.028586
O O3 0.540501 0.764838 0.058275
O O4 0.500000 0.000000 0.000000
O O5 0.030179 0.669369 0.290216
O O6 0.257814 0.571099 0.866239
O O7 0.895484 0.932488 0.094857
O O8 0.339646 0.801335 0.407704
O O9 0.105635 0.138720 0.344108
O O10 0.153845 0.901141 0.133724
O O11 0.500000 0.500000 0.500000
O O12 0.730272 0.532410 0.480083
#
# Coordination Sequence:
#
# PCOD9043014 Si02
#       6
#     2   2   2   2   1   2
#     4   9  19  45  65  99 132 177 214 278 323 400
#     4  11  24  42  69  98 138 167 229 270 330 396
#     4  11  24  44  72  94 139 175 223 270 338 384
#     4  11  25  45  65 100 137 177 214 280 331 397
#     4  12  22  40  68  98 128 180 216 270 326 394
#     4  10  23  45  67  99 132 174 222 278 318 404
#
# _framework density 25.16592
#
# number of rings (size 3 to 8) (size 9 to 14) (size 15 to 20)
#    0.000    1.455    5.455    1.091    2.545   10.182 
#    0.000    1.818    0.000    0.000    0.000    0.000 
#    0.000    0.000    0.000    0.000    0.000    0.000 
#
# Total GULP energy -61287.828076 kJ/mol
# GULP energy per Si atom -5571.620734 kJ/mol
# Density = 2.510864 g / cm^3
# Si number density = 25.165920 Si / 1000 Ang^3
#
#
#
# Elastic Constant Matrix: (Units=GPa)
#
#
# Indices 1 2 3 4 5 6 
#
# 1 145.8956 26.5054 60.6909 -12.1889 -3.4515 -17.3741
# 2 26.5054 107.2852 34.0841 -45.0105 3.1812 -0.5174
# 3 60.6909 34.0841 175.2878 -26.3163 4.8262 -21.2569
# 4 -12.1889 -45.0105 -26.3163 43.6817 1.3994 -7.3507
# 5 -3.4515 3.1812 4.8262 1.3994 37.4605 -10.4284
# 6 -17.3741 -0.5174 -21.2569 -7.3507 -10.4284 28.2860
#
#
#
# Elastic Compliance Matrix: (Units=1/GPa)
#
#
# Indices 1 2 3 4 5 6 
#
# 1 0.008650 -0.001296 -0.002169 0.000482 0.002476 0.004698
# 2 -0.001296 0.017315 0.000392 0.018457 -0.001166 0.004182
# 3 -0.002169 0.000392 0.007976 0.005644 0.000263 0.006232
# 4 0.000482 0.018457 0.005644 0.048411 0.000893 0.017785
# 5 0.002476 -0.001166 0.000263 0.000893 0.030636 0.013224
# 6 0.004698 0.004182 0.006232 0.017785 0.013224 0.052496
#
#
# Mechanical properties :
#
#
# Convention : Reuss Voigt Hill
#
# Bulk Modulus (GPa) = 35.97819 74.55882 55.26851
# Shear Modulus (GPa) = 27.64028 42.36484 35.00256
#
# Velocity S-wave (km/s) = 3.31769 4.10740 3.73348
# Velocity P-wave (km/s) = 5.38549 7.22396 6.37138
#
# Compressibility (1/GPa) = 0.02779461
#
# Stress axis : x y z
#
# Youngs Moduli (GPa) = 115.60202 57.75363 125.38333
#
# Poissons Ratio (x) = 0.07487 0.27196
# Poissons Ratio (y) = 0.14987 -0.04919
# Poissons Ratio (z) = 0.25074 -0.02266
#
# Static dielectric constant tensor:
#      x y z
#    x 2.080270 0.076290 -0.048000 
#    y 0.076290 2.041990 0.025410 
#    z -0.048000 0.025410 2.044230 
# 
# From -- ./inp_files/28246.got.cif
#   From: 2010.05.17/outbox.cif.g08.bks.cpg/sg2_15_cif.got.tgz:28246.got - 2010.06.03 11:33:40.
