data_PCOD9043115
_publ_section_title
;
Structure prediction by ZEFSAII (Michael W. Deem and Ramdas Pophale) SiO2 
 PCOD9043115
Probable space group: P -1
;
_chemical_formula_sum "Si O2"
_cell_formula_units_Z 16
_cell_length_a 12.235488
_cell_length_b 8.570512
_cell_length_c 20.252568
_cell_angle_alpha 43.988095
_cell_angle_beta 31.110367
_cell_angle_gamma 52.439610
_cell_volume 761.983110
_symmetry_space_group_name_H-M "P -1"
_symmetry_group_IT_number 2
_symmetry_cell_setting 'triclinic'
loop_
_space_group_symop_operation_xyz
x,y,z
-x,-y,-z
loop_
_atom_site_type_symbol
_atom_site_label
_atom_site_fract_x
_atom_site_fract_y
_atom_site_fract_z
Si Si1 0.348290 0.785357 0.654323
Si Si2 0.694703 0.925608 0.151135
Si Si3 0.644814 0.385119 0.652810
Si Si4 0.942170 0.955293 0.885558
Si Si5 0.267586 0.495935 0.654050
Si Si6 0.517782 0.600985 0.886082
Si Si7 0.016671 0.513969 0.323072
Si Si8 0.540638 0.761096 0.082189
O O1 0.493289 0.598126 0.668500
O O2 0.160782 0.859621 0.776121
O O3 0.266551 0.671805 0.662198
O O4 0.500000 0.000000 0.500000
O O5 0.489389 0.801075 0.261905
O O6 0.757373 0.757076 0.228053
O O7 0.612830 0.175820 0.127261
O O8 0.887480 0.938654 0.995914
O O9 0.651410 0.300936 0.749906
O O10 0.854745 0.454287 0.483917
O O11 0.929721 0.217231 0.789710
O O12 0.757682 0.798697 0.997663
O O13 0.500000 0.500000 0.500000
O O14 0.099884 0.539977 0.669777
O O15 0.769807 0.623730 0.737884
O O16 0.437132 0.417963 0.931719
O O17 0.500000 0.500000 0.000000
O O18 0.500000 0.000000 0.000000
#
# Coordination Sequence:
#
# PCOD9043115 Si02
#       8
#     2   2   2   2   2   2   2   2
#     4  11  22  41  70 103 138 176 227 280 343 403
#     4  10  23  45  68  98 142 180 226 282 337 408
#     4  10  23  45  68  98 139 175 223 288 332 412
#     4  11  23  43  71  96 136 181 228 282 339 403
#     4  11  23  44  69 101 144 177 221 289 341 405
#     4  12  25  45  70 102 137 181 230 284 340 409
#     4  12  23  45  71 100 140 179 225 285 345 401
#     4  11  24  46  68  94 135 182 227 279 337 404
#
# _framework density 20.997838999999999
#
# number of rings (size 3 to 8) (size 9 to 14) (size 15 to 20)
#    0.000    1.000    6.250    0.750    1.750    8.000 
#    0.000    0.000    0.000    0.000    0.000    0.000 
#    0.000    0.000    0.000    0.000    0.000    0.000 
#
# Total GULP energy -89448.761624 kJ/mol
# GULP energy per Si atom -5590.547601 kJ/mol
# Density = 2.095005 g / cm^3
# Si number density = 20.997839 Si / 1000 Ang^3
#
#
#
# Elastic Constant Matrix: (Units=GPa)
#
#
# Indices 1 2 3 4 5 6 
#
# 1 77.9136 40.3605 48.7849 -5.8011 7.6751 7.0219
# 2 40.3605 138.6891 61.4525 4.3805 11.0624 1.0913
# 3 48.7849 61.4525 167.0784 13.8333 24.5314 7.9495
# 4 -5.8011 4.3805 13.8333 48.7887 -1.1794 -5.3245
# 5 7.6751 11.0624 24.5314 -1.1794 41.1887 -2.3226
# 6 7.0219 1.0913 7.9495 -5.3245 -2.3226 15.3615
#
#
#
# Elastic Compliance Matrix: (Units=1/GPa)
#
#
# Indices 1 2 3 4 5 6 
#
# 1 0.017755 -0.003483 -0.003883 0.002988 -0.000249 -0.004861
# 2 -0.003483 0.009322 -0.002435 -0.000347 -0.000300 0.002024
# 3 -0.003883 -0.002435 0.009177 -0.003463 -0.004451 -0.004675
# 4 0.002988 -0.000347 -0.003463 0.022892 0.002751 0.008801
# 5 -0.000249 -0.000300 -0.004451 0.002751 0.027562 0.007559
# 6 -0.004861 0.002024 -0.004675 0.008801 0.007559 0.073789
#
#
# Mechanical properties :
#
#
# Convention : Reuss Voigt Hill
#
# Bulk Modulus (GPa) = 60.05063 76.09744 68.07404
# Shear Modulus (GPa) = 26.93250 36.60666 31.76958
#
# Velocity S-wave (km/s) = 3.58527 4.17988 3.89394
# Velocity P-wave (km/s) = 6.76753 7.72104 7.25996
#
# Compressibility (1/GPa) = 0.01665261
#
# Stress axis : x y z
#
# Youngs Moduli (GPa) = 56.32140 107.27378 108.96422
#
# Poissons Ratio (x) = 0.37361 0.42309
# Poissons Ratio (y) = 0.19616 0.26536
# Poissons Ratio (z) = 0.21869 0.26124
#
# Static dielectric constant tensor:
#      x y z
#    x 1.842120 -0.064010 -0.025910 
#    y -0.064010 1.859900 0.055160 
#    z -0.025910 0.055160 1.853840 
# 
# From -- ./inp_files/593937.got.cif
#   From: 2010.05.17/outbox.cif.g08.bks.cpg/sg2_297_cif.got.tgz:593937.got - 2010.06.03 11:33:40.
