data_PCOD9043876
_publ_section_title
;
Structure prediction by ZEFSAII (Michael W. Deem and Ramdas Pophale) SiO2 
 PCOD9043876
Probable space group: P -1
;
_chemical_formula_sum "Si O2"
_cell_formula_units_Z 10
_cell_length_a 16.339473
_cell_length_b 7.199727
_cell_length_c 8.094866
_cell_angle_alpha 82.183723
_cell_angle_beta 33.718711
_cell_angle_gamma 68.723435
_cell_volume 466.595511
_symmetry_space_group_name_H-M "P -1"
_symmetry_group_IT_number 2
_symmetry_cell_setting 'triclinic'
loop_
_space_group_symop_operation_xyz
x,y,z
-x,-y,-z
loop_
_atom_site_type_symbol
_atom_site_label
_atom_site_fract_x
_atom_site_fract_y
_atom_site_fract_z
Si Si1 0.654094 0.878413 0.380738
Si Si2 0.950266 0.701433 0.675276
Si Si3 0.789413 0.152471 0.711019
Si Si4 0.446917 0.426640 0.267597
Si Si5 0.199960 0.880283 0.675500
O O1 0.607992 0.756910 0.615440
O O2 0.500000 0.000000 0.500000
O O3 0.721845 0.024287 0.336632
O O4 0.808923 0.714851 0.034623
O O5 0.000000 0.500000 0.500000
O O6 0.103790 0.718500 0.503234
O O7 0.875147 0.925786 0.679385
O O8 0.753842 0.097930 0.593543
O O9 0.626546 0.308174 0.066797
O O10 0.296455 0.629544 0.572470
O O11 0.500000 0.500000 0.000000
O O12 0.000000 0.000000 0.000000
#
# Coordination Sequence:
#
# PCOD9043876 Si02
#       5
#     2   2   2   2   2
#     4  12  26  46  72 105 134 185 238 279 346 414
#     4  11  25  42  71  99 143 180 230 283 346 409
#     4  10  23  46  64 103 140 182 224 286 346 406
#     4  10  25  44  69 101 140 178 227 286 345 402
#     4  11  25  45  71 100 141 179 232 288 338 411
#
# _framework density 21.431837999999999
#
# number of rings (size 3 to 8) (size 9 to 14) (size 15 to 20)
#    0.000    1.200    4.000    0.000    5.600    8.000 
#    0.000    0.000    0.000    0.000    0.000    0.000 
#    0.000    0.000    0.000    0.000    0.000    0.000 
#
# Total GULP energy -55703.370926 kJ/mol
# GULP energy per Si atom -5570.337093 kJ/mol
# Density = 2.138306 g / cm^3
# Si number density = 21.431838 Si / 1000 Ang^3
#
#
#
# Elastic Constant Matrix: (Units=GPa)
#
#
# Indices 1 2 3 4 5 6 
#
# 1 101.3323 40.4610 28.5910 8.7209 -11.9313 19.4781
# 2 40.4610 124.9946 51.8147 7.3699 -11.9005 5.5947
# 3 28.5910 51.8147 124.2194 14.0880 -23.0865 5.4293
# 4 8.7209 7.3699 14.0880 45.9950 -8.9620 1.9480
# 5 -11.9313 -11.9005 -23.0865 -8.9620 33.5773 -4.4522
# 6 19.4781 5.5947 5.4293 1.9480 -4.4522 21.8181
#
#
#
# Elastic Compliance Matrix: (Units=1/GPa)
#
#
# Indices 1 2 3 4 5 6 
#
# 1 0.013833 -0.003423 -0.000908 -0.001073 0.001350 -0.010874
# 2 -0.003423 0.010580 -0.003649 0.000058 0.000211 0.001289
# 3 -0.000908 -0.003649 0.010976 -0.001534 0.005559 0.000287
# 4 -0.001073 0.000058 -0.001534 0.023340 0.004845 0.000229
# 5 0.001350 0.000211 0.005559 0.004845 0.036019 0.004275
# 6 -0.010874 0.001289 0.000287 0.000229 0.004275 0.055992
#
#
# Mechanical properties :
#
#
# Convention : Reuss Voigt Hill
#
# Bulk Modulus (GPa) = 51.47034 65.80884 58.63959
# Shear Modulus (GPa) = 28.87242 35.59005 32.23124
#
# Velocity S-wave (km/s) = 3.67437 4.07949 3.88222
# Velocity P-wave (km/s) = 6.48608 7.27753 6.89317
#
# Compressibility (1/GPa) = 0.01942866
#
# Stress axis : x y z
#
# Youngs Moduli (GPa) = 72.29091 94.51859 91.10710
#
# Poissons Ratio (x) = 0.32351 0.08276
# Poissons Ratio (y) = 0.24743 0.33245
# Poissons Ratio (z) = 0.06567 0.34490
#
# Static dielectric constant tensor:
#      x y z
#    x 1.838800 -0.044800 -0.051730 
#    y -0.044800 1.829760 0.001920 
#    z -0.051730 0.001920 1.919530 
# 
# From -- ./inp_files/15267.got.cif
#   From: 2010.05.17/outbox.cif.g08.bks.cpg/sg2_8_cif.got.tgz:15267.got - 2010.06.03 11:33:40.
