data_PCOD9043621
_publ_section_title
;
Structure prediction by ZEFSAII (Michael W. Deem and Ramdas Pophale) SiO2 
 PCOD9043621
Probable space group: P -1
;
_chemical_formula_sum "Si O2"
_cell_formula_units_Z 16
_cell_length_a 12.098362
_cell_length_b 10.022464
_cell_length_c 11.150020
_cell_angle_alpha 139.026500
_cell_angle_beta 59.924871
_cell_angle_gamma 95.837773
_cell_volume 669.809311
_symmetry_space_group_name_H-M "P -1"
_symmetry_group_IT_number 2
_symmetry_cell_setting 'triclinic'
loop_
_space_group_symop_operation_xyz
x,y,z
-x,-y,-z
loop_
_atom_site_type_symbol
_atom_site_label
_atom_site_fract_x
_atom_site_fract_y
_atom_site_fract_z
Si Si1 0.089154 0.242290 0.720112
Si Si2 0.838825 0.107238 0.108315
Si Si3 0.570349 0.927375 0.546573
Si Si4 0.253756 0.857244 0.066173
Si Si5 0.546217 0.423164 0.614877
Si Si6 0.833109 0.705009 0.722415
Si Si7 0.619947 0.600339 0.898035
Si Si8 0.855828 0.239088 0.689041
O O1 0.994080 0.270682 0.670117
O O2 0.256031 0.181911 0.606928
O O3 0.102576 0.986310 0.571173
O O4 0.000000 0.500000 0.000000
O O5 0.703403 0.306216 0.387203
O O6 0.188673 0.113327 0.036340
O O7 0.830949 0.185283 0.027159
O O8 0.000000 0.000000 0.000000
O O9 0.791182 0.872763 0.743658
O O10 0.500000 0.000000 0.500000
O O11 0.525119 0.737684 0.484674
O O12 0.501210 0.153481 0.822338
O O13 0.211985 0.796562 0.174772
O O14 0.425000 0.687946 0.830355
O O15 0.563302 0.437050 0.758764
O O16 0.714955 0.627004 0.758649
O O17 0.000000 0.500000 0.500000
O O18 0.733704 0.466270 0.848380
#
# Coordination Sequence:
#
# PCOD9043621 Si02
#       8
#     2   2   2   2   2   2   2   2
#     4  11  25  44  68 104 146 193 241 303 363 439
#     4  10  23  45  73 103 143 197 248 308 365 436
#     4  12  25  45  68 106 151 196 244 300 371 445
#     4  10  24  46  73 104 148 193 247 307 369 442
#     4  12  24  46  76 107 149 195 254 306 369 446
#     4  10  24  46  71 106 144 186 249 298 371 437
#     4  12  26  48  76 109 151 197 243 308 373 442
#     4  11  26  48  74 110 151 190 250 305 373 439
#
# _framework density 23.887395999999999
#
# number of rings (size 3 to 8) (size 9 to 14) (size 15 to 20)
#    0.750    0.250    1.250    4.875    3.500    4.000 
#    4.500    2.500    0.000    0.000    0.000    0.000 
#    0.000    0.000    0.000    0.000    0.000    0.000 
#
# Total GULP energy -89305.808202 kJ/mol
# GULP energy per Si atom -5581.613013 kJ/mol
# Density = 2.383303 g / cm^3
# Si number density = 23.887396 Si / 1000 Ang^3
#
#
#
# Elastic Constant Matrix: (Units=GPa)
#
#
# Indices 1 2 3 4 5 6 
#
# 1 152.2070 46.7648 68.1701 -10.4918 -29.7864 15.9310
# 2 46.7648 88.5202 60.4804 -5.7273 -5.5319 -1.2692
# 3 68.1701 60.4804 221.9972 -1.0440 -27.9282 13.9068
# 4 -10.4918 -5.7273 -1.0440 32.0544 8.3573 -2.1972
# 5 -29.7864 -5.5319 -27.9282 8.3573 57.6244 11.2211
# 6 15.9310 -1.2692 13.9068 -2.1972 11.2211 40.8246
#
#
#
# Elastic Compliance Matrix: (Units=1/GPa)
#
#
# Indices 1 2 3 4 5 6 
#
# 1 0.009881 -0.004314 -0.000892 0.000748 0.005138 -0.005058
# 2 -0.004314 0.016213 -0.003859 0.002685 -0.003849 0.004704
# 3 -0.000892 -0.003859 0.006391 -0.001776 0.003087 -0.002893
# 4 0.000748 0.002685 -0.001776 0.033647 -0.005839 0.003812
# 5 0.005138 -0.003849 0.003087 -0.005839 0.023944 -0.010071
# 6 -0.005058 0.004704 -0.002893 0.003812 -0.010071 0.030574
#
#
# Mechanical properties :
#
#
# Convention : Reuss Voigt Hill
#
# Bulk Modulus (GPa) = 69.65819 90.39500 80.02660
# Shear Modulus (GPa) = 34.82743 45.25462 40.04103
#
# Velocity S-wave (km/s) = 3.82250 4.35730 4.09863
# Velocity P-wave (km/s) = 6.97899 7.95230 7.48149
#
# Compressibility (1/GPa) = 0.01435581
#
# Stress axis : x y z
#
# Youngs Moduli (GPa) = 101.19998 61.68001 156.46929
#
# Poissons Ratio (x) = 0.26606 0.13965
# Poissons Ratio (y) = 0.43653 0.60376
# Poissons Ratio (z) = 0.09032 0.23800
#
# Static dielectric constant tensor:
#      x y z
#    x 2.023700 0.089490 0.045000 
#    y 0.089490 2.036380 0.007170 
#    z 0.045000 0.007170 1.962390 
# 
# From -- ./inp_files/570198.got.cif
#   From: 2010.05.17/outbox.cif.g08.bks.cpg/sg2_286_cif.got.tgz:570198.got - 2010.06.03 11:33:40.
