data_PCOD9043206
_publ_section_title
;
Structure prediction by ZEFSAII (Michael W. Deem and Ramdas Pophale) SiO2 
 PCOD9043206
Probable space group: P -1
;
_chemical_formula_sum "Si O2"
_cell_formula_units_Z 10
_cell_length_a 8.208129
_cell_length_b 7.274495
_cell_length_c 12.022958
_cell_angle_alpha 79.165884
_cell_angle_beta 147.077422
_cell_angle_gamma 99.656713
_cell_volume 383.155911
_symmetry_space_group_name_H-M "P -1"
_symmetry_group_IT_number 2
_symmetry_cell_setting 'triclinic'
loop_
_space_group_symop_operation_xyz
x,y,z
-x,-y,-z
loop_
_atom_site_type_symbol
_atom_site_label
_atom_site_fract_x
_atom_site_fract_y
_atom_site_fract_z
Si Si1 0.771032 0.813253 0.001454
Si Si2 0.154007 0.468147 0.338252
Si Si3 0.341081 0.034413 0.287713
Si Si4 0.423170 0.694621 0.999611
Si Si5 0.776762 0.816950 0.403110
O O1 0.499453 0.837616 0.927754
O O2 0.998102 0.662793 0.199080
O O3 0.649530 0.782326 0.809331
O O4 0.992851 0.989505 0.108299
O O5 0.500000 0.500000 0.500000
O O6 0.120577 0.370368 0.450989
O O7 0.920653 0.327648 0.156259
O O8 0.500000 0.000000 0.500000
O O9 0.510431 0.889619 0.320955
O O10 0.646869 0.743087 0.221012
O O11 0.500000 0.500000 0.000000
O O12 0.000000 0.000000 0.500000
#
# Coordination Sequence:
#
# PCOD9043206 Si02
#       5
#     2   2   2   2   2
#     4  10  23  45  69 107 146 198 253 310 379 455
#     4  11  24  47  73 112 151 201 258 315 379 461
#     4  11  24  43  70 106 155 197 245 314 388 453
#     4  10  25  47  77 108 151 199 259 314 382 456
#     4  12  26  46  77 114 154 200 257 319 386 457
#
# _framework density 26.099036999999999
#
# number of rings (size 3 to 8) (size 9 to 14) (size 15 to 20)
#    0.000    1.200    2.000    2.400    0.000   13.600 
#    0.000    0.000    0.000    0.000    0.000    0.000 
#    0.000    0.000    0.000    0.000    0.000    0.000 
#
# Total GULP energy -55747.642316 kJ/mol
# GULP energy per Si atom -5574.764232 kJ/mol
# Density = 2.603963 g / cm^3
# Si number density = 26.099037 Si / 1000 Ang^3
#
#
#
# Elastic Constant Matrix: (Units=GPa)
#
#
# Indices 1 2 3 4 5 6 
#
# 1 115.9482 74.1315 74.2860 17.4177 -15.5019 15.8968
# 2 74.1315 119.8354 84.4316 -2.0958 -18.8322 17.3322
# 3 74.2860 84.4316 220.8110 -8.1376 -31.6035 15.9197
# 4 17.4177 -2.0958 -8.1376 61.4193 8.5656 4.0023
# 5 -15.5019 -18.8322 -31.6035 8.5656 64.3804 2.9062
# 6 15.8968 17.3322 15.9197 4.0023 2.9062 50.6460
#
#
#
# Elastic Compliance Matrix: (Units=1/GPa)
#
#
# Indices 1 2 3 4 5 6 
#
# 1 0.016595 -0.008352 -0.002328 -0.005382 0.001183 -0.001262
# 2 -0.008352 0.016119 -0.002954 0.002530 0.001018 -0.002224
# 3 -0.002328 -0.002954 0.006783 0.001250 0.001765 -0.000591
# 4 -0.005382 0.002530 0.001250 0.018447 -0.002356 -0.000892
# 5 0.001183 0.001018 0.001765 -0.002356 0.017389 -0.002086
# 6 -0.001262 -0.002224 -0.000591 -0.000892 -0.002086 0.021278
#
#
# Mechanical properties :
#
#
# Convention : Reuss Voigt Hill
#
# Bulk Modulus (GPa) = 81.77075 102.47698 92.12386
# Shear Modulus (GPa) = 39.07643 50.20551 44.64097
#
# Velocity S-wave (km/s) = 3.87361 4.39071 4.14024
# Velocity P-wave (km/s) = 7.16976 8.06562 7.63085
#
# Compressibility (1/GPa) = 0.01222931
#
# Stress axis : x y z
#
# Youngs Moduli (GPa) = 60.25837 62.03991 147.43258
#
# Poissons Ratio (x) = 0.51814 0.34316
# Poissons Ratio (y) = 0.50326 0.43557
# Poissons Ratio (z) = 0.14026 0.18329
#
# Static dielectric constant tensor:
#      x y z
#    x 2.114490 0.128370 0.002590 
#    y 0.128370 2.278510 -0.148540 
#    z 0.002590 -0.148540 2.122430 
# 
# From -- ./inp_files/16053.got.cif
#   From: 2010.05.17/outbox.cif.g08.bks.cpg/sg2_9_cif.got.tgz:16053.got - 2010.06.03 11:33:40.
