data_PCOD9043761
_publ_section_title
;
Structure prediction by ZEFSAII (Michael W. Deem and Ramdas Pophale) SiO2 
 PCOD9043761
Probable space group: P -1
;
_chemical_formula_sum "Si O2"
_cell_formula_units_Z 16
_cell_length_a 9.239394
_cell_length_b 23.505326
_cell_length_c 9.066760
_cell_angle_alpha 134.615893
_cell_angle_beta 48.807635
_cell_angle_gamma 149.955621
_cell_volume 694.652697
_symmetry_space_group_name_H-M "P -1"
_symmetry_group_IT_number 2
_symmetry_cell_setting 'triclinic'
loop_
_space_group_symop_operation_xyz
x,y,z
-x,-y,-z
loop_
_atom_site_type_symbol
_atom_site_label
_atom_site_fract_x
_atom_site_fract_y
_atom_site_fract_z
Si Si1 0.018107 0.191052 0.099376
Si Si2 0.851763 0.393304 0.650668
Si Si3 0.783141 0.552280 0.976326
Si Si4 0.455971 0.964778 0.635938
Si Si5 0.347426 0.108886 0.997961
Si Si6 0.382183 0.530883 0.741962
Si Si7 0.634014 0.846742 0.263271
Si Si8 0.237649 0.752726 0.815485
O O1 0.341322 0.329496 0.143232
O O2 0.863249 0.152951 0.293601
O O3 0.818006 0.179494 0.101990
O O4 0.076390 0.118405 0.874182
O O5 0.772460 0.456033 0.765977
O O6 0.604216 0.273232 0.696830
O O7 0.893518 0.348474 0.402944
O O8 0.134133 0.495736 0.749337
O O9 0.048575 0.681180 0.958954
O O10 0.500000 0.500000 0.000000
O O11 0.762938 0.549932 0.161421
O O12 0.643055 0.941729 0.488446
O O13 0.500000 0.000000 0.500000
O O14 0.482981 0.063451 0.859064
O O15 0.461955 0.177423 0.888916
O O16 0.446051 0.179535 0.214356
O O17 0.000000 0.000000 0.000000
O O18 0.500000 0.500000 0.500000
#
# Coordination Sequence:
#
# PCOD9043761 Si02
#       8
#     2   2   2   2   2   2   2   2
#     4  12  23  44  73 102 145 183 235 292 358 418
#     4  12  24  44  69 106 144 194 232 285 356 428
#     4  12  24  44  66 106 150 189 234 287 354 426
#     4  10  23  45  75 102 135 179 246 297 356 422
#     4  11  25  47  73  99 136 186 240 304 362 411
#     4  12  23  41  72 103 142 194 238 280 350 433
#     4  11  22  46  73 102 139 186 240 290 357 431
#     4  12  26  45  68 107 146 185 238 300 350 429
#
# _framework density 23.033093000000001
#
# number of rings (size 3 to 8) (size 9 to 14) (size 15 to 20)
#    0.000    0.500    6.250    1.500    1.750    1.500 
#    0.000    8.750    0.000    0.000    0.000    0.000 
#    0.000    0.000    0.000    0.000    0.000    0.000 
#
# Total GULP energy -89248.996284 kJ/mol
# GULP energy per Si atom -5578.062268 kJ/mol
# Density = 2.298067 g / cm^3
# Si number density = 23.033093 Si / 1000 Ang^3
#
#
#
# Elastic Constant Matrix: (Units=GPa)
#
#
# Indices 1 2 3 4 5 6 
#
# 1 153.3399 41.1648 36.5042 4.2283 -13.7730 7.8571
# 2 41.1648 91.7591 11.1788 -25.0953 15.3811 -12.4233
# 3 36.5042 11.1788 80.3029 -21.6823 -16.3186 0.9534
# 4 4.2283 -25.0953 -21.6823 32.9897 -7.2561 7.4192
# 5 -13.7730 15.3811 -16.3186 -7.2561 54.3809 8.9231
# 6 7.8571 -12.4233 0.9534 7.4192 8.9231 33.9750
#
#
#
# Elastic Compliance Matrix: (Units=1/GPa)
#
#
# Indices 1 2 3 4 5 6 
#
# 1 0.010602 -0.007558 -0.005841 -0.009621 0.002373 -0.003574
# 2 -0.007558 0.020040 0.003749 0.015915 -0.005471 0.006932
# 3 -0.005841 0.003749 0.021650 0.020418 0.007385 -0.004284
# 4 -0.009621 0.015915 0.020418 0.060782 0.008623 -0.008066
# 5 0.002373 -0.005471 0.007385 0.008623 0.025776 -0.011409
# 6 -0.003574 0.006932 -0.004284 -0.008066 -0.011409 0.037673
#
#
# Mechanical properties :
#
#
# Convention : Reuss Voigt Hill
#
# Bulk Modulus (GPa) = 30.30894 55.89974 43.10434
# Shear Modulus (GPa) = 24.17549 40.03940 32.10745
#
# Velocity S-wave (km/s) = 3.24327 4.17387 3.73764
# Velocity P-wave (km/s) = 5.21656 6.89567 6.11403
#
# Compressibility (1/GPa) = 0.03299357
#
# Stress axis : x y z
#
# Youngs Moduli (GPa) = 94.31843 49.89987 46.18833
#
# Poissons Ratio (x) = 0.37713 0.26977
# Poissons Ratio (y) = 0.71284 -0.17315
# Poissons Ratio (z) = 0.55089 -0.18706
#
# Static dielectric constant tensor:
#      x y z
#    x 1.869860 0.076460 0.006750 
#    y 0.076460 2.002100 0.107070 
#    z 0.006750 0.107070 1.965240 
# 
# From -- ./inp_files/226443.got.cif
#   From: 2010.05.17/outbox.cif.g08.bks.cpg/sg2_114_cif.got.tgz:226443.got - 2010.06.03 11:33:40.
