data_PCOD9043449
_publ_section_title
;
Structure prediction by ZEFSAII (Michael W. Deem and Ramdas Pophale) SiO2 
 PCOD9043449
Probable space group: P -1
;
_chemical_formula_sum "Si O2"
_cell_formula_units_Z 14
_cell_length_a 5.012038
_cell_length_b 16.695069
_cell_length_c 9.681395
_cell_angle_alpha 122.374095
_cell_angle_beta 68.931097
_cell_angle_gamma 127.580761
_cell_volume 541.559379
_symmetry_space_group_name_H-M "P -1"
_symmetry_group_IT_number 2
_symmetry_cell_setting 'triclinic'
loop_
_space_group_symop_operation_xyz
x,y,z
-x,-y,-z
loop_
_atom_site_type_symbol
_atom_site_label
_atom_site_fract_x
_atom_site_fract_y
_atom_site_fract_z
Si Si1 0.758385 0.947642 0.743668
Si Si2 0.464801 0.600444 0.150988
Si Si3 0.151991 0.337127 0.301305
Si Si4 0.720464 0.111276 0.470138
Si Si5 0.214873 0.419896 0.668854
Si Si6 0.584831 0.808885 0.187567
Si Si7 0.520962 0.206289 0.108367
O O1 0.446930 0.915096 0.673329
O O2 0.641033 0.910306 0.887427
O O3 0.919018 0.875252 0.596853
O O4 0.054325 0.075944 0.784829
O O5 0.659306 0.633446 0.290782
O O6 0.613994 0.702565 0.110855
O O7 0.922915 0.438032 0.793202
O O8 0.542910 0.541497 0.688671
O O9 0.830652 0.295873 0.226465
O O10 0.907006 0.648976 0.514381
O O11 0.261133 0.247498 0.186590
O O12 0.634360 0.191432 0.643196
O O13 0.500000 0.000000 0.500000
O O14 0.500000 0.500000 0.000000
O O15 0.398652 0.799955 0.071127
#
# Coordination Sequence:
#
# PCOD9043449 Si02
#       7
#     2   2   2   2   2   2   2
#     4  11  25  47  74 108 150 201 249 301 369 458
#     4  12  27  46  77 111 151 195 253 306 386 443
#     4  11  26  48  76 106 145 199 252 315 364 447
#     4  10  23  45  71 103 145 195 251 302 365 444
#     4  11  26  50  75 105 147 197 259 309 374 441
#     4  11  27  47  73 112 157 194 243 317 378 435
#     4  12  26  45  75 110 151 194 256 300 381 443
#
# _framework density 25.851272999999999
#
# number of rings (size 3 to 8) (size 9 to 14) (size 15 to 20)
#    0.000    0.857    0.000    6.000    6.000   10.286 
#    0.000    5.000    0.000    0.000    0.000    0.000 
#    0.000    0.000    0.000    0.000    0.000    0.000 
#
# Total GULP energy -78615.058473 kJ/mol
# GULP energy per Si atom -5615.361320 kJ/mol
# Density = 2.579243 g / cm^3
# Si number density = 25.851273 Si / 1000 Ang^3
#
#
#
# Elastic Constant Matrix: (Units=GPa)
#
#
# Indices 1 2 3 4 5 6 
#
# 1 127.9646 38.1679 36.4360 -16.9245 12.0930 -1.8876
# 2 38.1679 153.1483 52.8944 -13.6936 10.8134 -5.6425
# 3 36.4360 52.8944 125.2166 -17.6026 25.5058 -3.4043
# 4 -16.9245 -13.6936 -17.6026 47.0681 -12.2628 2.4240
# 5 12.0930 10.8134 25.5058 -12.2628 36.8428 -0.4436
# 6 -1.8876 -5.6425 -3.4043 2.4240 -0.4436 46.9392
#
#
#
# Elastic Compliance Matrix: (Units=1/GPa)
#
#
# Indices 1 2 3 4 5 6 
#
# 1 0.009043 -0.001478 -0.001564 0.002037 -0.000774 -0.000040
# 2 -0.001478 0.007960 -0.002890 0.000779 0.000417 0.000652
# 3 -0.001564 -0.002890 0.011033 0.001176 -0.005881 0.000273
# 4 0.002037 0.000779 0.001176 0.024356 0.006384 -0.000937
# 5 -0.000774 0.000417 -0.005881 0.006384 0.033466 -0.000421
# 6 -0.000040 0.000652 0.000273 -0.000937 -0.000421 0.021445
#
#
# Mechanical properties :
#
#
# Convention : Reuss Voigt Hill
#
# Bulk Modulus (GPa) = 61.83724 73.48070 67.65897
# Shear Modulus (GPa) = 40.14179 44.75878 42.45028
#
# Velocity S-wave (km/s) = 3.94483 4.16552 4.05667
# Velocity P-wave (km/s) = 6.68739 7.18481 6.94056
#
# Compressibility (1/GPa) = 0.01617148
#
# Stress axis : x y z
#
# Youngs Moduli (GPa) = 110.58461 125.62097 90.63716
#
# Poissons Ratio (x) = 0.18569 0.14175
# Poissons Ratio (y) = 0.16347 0.26197
# Poissons Ratio (z) = 0.17295 0.36308
#
# Static dielectric constant tensor:
#      x y z
#    x 1.948080 0.021260 -0.039640 
#    y 0.021260 2.083680 0.026820 
#    z -0.039640 0.026820 2.082630 
# 
# From -- ./inp_files/136842.got.cif
#   From: 2010.05.17/outbox.cif.g08.bks.cpg/sg2_69_cif.got.tgz:136842.got - 2010.06.03 11:33:40.
