data_PCOD9043434
_publ_section_title
;
Structure prediction by ZEFSAII (Michael W. Deem and Ramdas Pophale) SiO2 
 PCOD9043434
Probable space group: P -1
;
_chemical_formula_sum "Si O2"
_cell_formula_units_Z 14
_cell_length_a 8.252114
_cell_length_b 13.772733
_cell_length_c 8.787268
_cell_angle_alpha 64.366721
_cell_angle_beta 38.570291
_cell_angle_gamma 80.508044
_cell_volume 534.033871
_symmetry_space_group_name_H-M "P -1"
_symmetry_group_IT_number 2
_symmetry_cell_setting 'triclinic'
loop_
_space_group_symop_operation_xyz
x,y,z
-x,-y,-z
loop_
_atom_site_type_symbol
_atom_site_label
_atom_site_fract_x
_atom_site_fract_y
_atom_site_fract_z
Si Si1 0.459605 0.877656 0.545440
Si Si2 0.218862 0.511440 0.136240
Si Si3 0.570478 0.415476 0.387187
Si Si4 0.648090 0.917892 0.028439
Si Si5 0.205273 0.710568 0.453660
Si Si6 0.961483 0.270613 0.860326
Si Si7 0.935949 0.860934 0.401319
O O1 0.567731 0.894144 0.282003
O O2 0.638795 0.830865 0.566655
O O3 0.500000 0.000000 0.500000
O O4 0.154511 0.797486 0.854507
O O5 0.168238 0.628646 0.132817
O O6 0.960288 0.402916 0.438372
O O7 0.500000 0.500000 0.000000
O O8 0.260588 0.515825 0.921656
O O9 0.500000 0.500000 0.500000
O O10 0.732741 0.341078 0.399665
O O11 0.283042 0.333050 0.595201
O O12 0.507125 0.796797 0.133541
O O13 0.500000 0.000000 0.000000
O O14 0.954761 0.004245 0.740086
O O15 0.005500 0.789009 0.536923
O O16 0.904350 0.179518 0.827458
#
# Coordination Sequence:
#
# PCOD9043434 Si02
#       7
#     2   2   2   2   2   2   2
#     4  12  25  45  77 107 140 188 239 290 351 434
#     4  12  27  47  73 107 141 189 244 288 352 430
#     4  12  27  45  71 107 144 188 235 297 362 410
#     4  10  23  45  71 102 143 181 232 295 350 414
#     4  11  24  46  72 100 148 182 239 299 347 421
#     4  12  25  45  74 103 145 186 241 286 353 429
#     4  11  25  47  71 108 140 191 236 290 361 419
#
# _framework density 26.215565000000002
#
# number of rings (size 3 to 8) (size 9 to 14) (size 15 to 20)
#    0.000    0.571    2.857    5.143    6.000    1.143 
#    0.000    2.857    3.143    0.000    0.000    0.000 
#    0.000    0.000    0.000    0.000    0.000    0.000 
#
# Total GULP energy -78299.336651 kJ/mol
# GULP energy per Si atom -5592.809761 kJ/mol
# Density = 2.615590 g / cm^3
# Si number density = 26.215565 Si / 1000 Ang^3
#
#
#
# Elastic Constant Matrix: (Units=GPa)
#
#
# Indices 1 2 3 4 5 6 
#
# 1 141.8789 30.4299 30.6101 -8.6423 6.3857 -23.7422
# 2 30.4299 132.2865 42.9029 -28.4527 2.2971 -2.1526
# 3 30.6101 42.9029 110.7062 -30.2133 3.4363 4.5368
# 4 -8.6423 -28.4527 -30.2133 52.7436 12.4925 -2.3942
# 5 6.3857 2.2971 3.4363 12.4925 46.3515 -12.7111
# 6 -23.7422 -2.1526 4.5368 -2.3942 -12.7111 44.9832
#
#
#
# Elastic Compliance Matrix: (Units=1/GPa)
#
#
# Indices 1 2 3 4 5 6 
#
# 1 0.008549 -0.001279 -0.002201 -0.000447 0.000482 0.004785
# 2 -0.001279 0.009422 -0.002189 0.003901 -0.001218 -0.000140
# 3 -0.002201 -0.002189 0.012377 0.006118 -0.002986 -0.003033
# 4 -0.000447 0.003901 0.006118 0.026346 -0.008113 -0.001556
# 5 0.000482 -0.001218 -0.002986 -0.008113 0.026010 0.007415
# 6 0.004785 -0.000140 -0.003033 -0.001556 0.007415 0.027068
#
#
# Mechanical properties :
#
#
# Convention : Reuss Voigt Hill
#
# Bulk Modulus (GPa) = 52.60977 65.86194 59.23586
# Shear Modulus (GPa) = 39.23203 47.54424 43.38813
#
# Velocity S-wave (km/s) = 3.87268 4.26324 4.07265
# Velocity P-wave (km/s) = 6.33313 7.02933 6.69029
#
# Compressibility (1/GPa) = 0.01900788
#
# Stress axis : x y z
#
# Youngs Moduli (GPa) = 116.96634 106.13923 80.79798
#
# Poissons Ratio (x) = 0.13580 0.17785
# Poissons Ratio (y) = 0.14965 0.17689
# Poissons Ratio (z) = 0.25746 0.23237
#
# Static dielectric constant tensor:
#      x y z
#    x 2.108080 0.008560 -0.021290 
#    y 0.008560 2.071280 0.010750 
#    z -0.021290 0.010750 2.002720 
# 
# From -- ./inp_files/205803.got.cif
#   From: 2010.05.17/outbox.cif.g08.bks.cpg/sg2_103_cif.got.tgz:205803.got - 2010.06.03 11:33:40.
