data_PCOD9043447
_publ_section_title
;
Structure prediction by ZEFSAII (Michael W. Deem and Ramdas Pophale) SiO2 
 PCOD9043447
Probable space group: P -1
;
_chemical_formula_sum "Si O2"
_cell_formula_units_Z 14
_cell_length_a 13.945632
_cell_length_b 9.134463
_cell_length_c 8.877165
_cell_angle_alpha 36.090413
_cell_angle_beta 61.644779
_cell_angle_gamma 77.277343
_cell_volume 556.260482
_symmetry_space_group_name_H-M "P -1"
_symmetry_group_IT_number 2
_symmetry_cell_setting 'triclinic'
loop_
_space_group_symop_operation_xyz
x,y,z
-x,-y,-z
loop_
_atom_site_type_symbol
_atom_site_label
_atom_site_fract_x
_atom_site_fract_y
_atom_site_fract_z
Si Si1 0.871085 0.915728 0.605124
Si Si2 0.821501 0.337046 0.477136
Si Si3 0.668920 0.960256 0.116854
Si Si4 0.756479 0.934739 0.395707
Si Si5 0.664778 0.542167 0.252622
Si Si6 0.543672 0.022371 0.616474
Si Si7 0.021781 0.723486 0.170267
O O1 0.842034 0.180389 0.447813
O O2 0.841283 0.831537 0.523739
O O3 0.000000 0.000000 0.500000
O O4 0.782658 0.692720 0.954182
O O5 0.706348 0.401933 0.474927
O O6 0.927955 0.586944 0.227276
O O7 0.788485 0.143686 0.806128
O O8 0.619200 0.755278 0.189241
O O9 0.573611 0.102984 0.100580
O O10 0.698101 0.841923 0.352854
O O11 0.654070 0.925470 0.597591
O O12 0.849465 0.208872 0.048148
O O13 0.585896 0.323548 0.386646
O O14 0.500000 0.000000 0.500000
O O15 0.000000 0.500000 0.500000
O O16 0.000000 0.000000 0.000000
#
# Coordination Sequence:
#
# PCOD9043447 Si02
#       7
#     2   2   2   2   2   2   2
#     4  11  26  43  71 107 148 190 245 308 380 447
#     4  11  24  45  71 103 146 193 244 305 378 454
#     4  10  23  46  71 102 142 189 247 298 371 452
#     4  11  23  46  71 106 145 185 246 306 374 435
#     4  11  23  45  70 102 144 192 244 302 375 450
#     4  10  23  45  71 103 143 189 244 309 367 443
#     4  12  27  45  75 109 150 199 249 314 379 457
#
# _framework density 25.168064000000001
#
# number of rings (size 3 to 8) (size 9 to 14) (size 15 to 20)
#    0.000    1.143    2.857    2.143    6.000    1.714 
#    7.714    1.429    0.000    0.000    0.000    0.000 
#    0.000    0.000    0.000    0.000    0.000    0.000 
#
# Total GULP energy -78097.728056 kJ/mol
# GULP energy per Si atom -5578.409147 kJ/mol
# Density = 2.511078 g / cm^3
# Si number density = 25.168064 Si / 1000 Ang^3
#
#
#
# Elastic Constant Matrix: (Units=GPa)
#
#
# Indices 1 2 3 4 5 6 
#
# 1 100.1331 21.7747 10.3578 3.0872 -10.5091 29.7366
# 2 21.7747 76.8734 14.6675 1.5260 -2.9432 24.2113
# 3 10.3578 14.6675 65.2798 11.5418 2.6588 12.2888
# 4 3.0872 1.5260 11.5418 42.7898 5.3677 -8.4082
# 5 -10.5091 -2.9432 2.6588 5.3677 42.4422 -3.2532
# 6 29.7366 24.2113 12.2888 -8.4082 -3.2532 49.1087
#
#
#
# Elastic Compliance Matrix: (Units=1/GPa)
#
#
# Indices 1 2 3 4 5 6 
#
# 1 0.012842 -0.001109 -0.000013 -0.002718 0.002873 -0.007502
# 2 -0.001109 0.015905 -0.001872 -0.001414 0.000595 -0.006904
# 3 -0.000013 -0.001872 0.017578 -0.005438 -0.000888 -0.004458
# 4 -0.002718 -0.001414 -0.005438 0.027086 -0.003233 0.008127
# 5 0.002873 0.000595 -0.000888 -0.003233 0.024723 -0.000726
# 6 -0.007502 -0.006904 -0.004458 0.008127 -0.000726 0.030768
#
#
# Mechanical properties :
#
#
# Convention : Reuss Voigt Hill
#
# Bulk Modulus (GPa) = 24.79066 37.32070 31.05568
# Shear Modulus (GPa) = 33.70732 39.90056 36.80394
#
# Velocity S-wave (km/s) = 3.66360 3.98598 3.82819
# Velocity P-wave (km/s) = 5.26948 6.00374 5.64855
#
# Compressibility (1/GPa) = 0.04033778
#
# Stress axis : x y z
#
# Youngs Moduli (GPa) = 77.86874 62.87341 56.88844
#
# Poissons Ratio (x) = 0.06970 0.00073
# Poissons Ratio (y) = 0.08632 0.10652
# Poissons Ratio (z) = 0.00100 0.11772
#
# Static dielectric constant tensor:
#      x y z
#    x 2.230610 -0.159900 0.046190 
#    y -0.159900 2.102850 -0.012380 
#    z 0.046190 -0.012380 2.021770 
# 
# From -- ./inp_files/297233.got.cif
#   From: 2010.05.17/outbox.cif.g08.bks.cpg/sg2_149_cif.got.tgz:297233.got - 2010.06.03 11:33:40.
