data_PCOD9043332
_publ_section_title
;
Structure prediction by ZEFSAII (Michael W. Deem and Ramdas Pophale) SiO2 
 PCOD9043332
Probable space group: P -1
;
_chemical_formula_sum "Si O2"
_cell_formula_units_Z 10
_cell_length_a 9.455627
_cell_length_b 10.870980
_cell_length_c 8.009089
_cell_angle_alpha 40.264038
_cell_angle_beta 91.182657
_cell_angle_gamma 65.942012
_cell_volume 401.856230
_symmetry_space_group_name_H-M "P -1"
_symmetry_group_IT_number 2
_symmetry_cell_setting 'triclinic'
loop_
_space_group_symop_operation_xyz
x,y,z
-x,-y,-z
loop_
_atom_site_type_symbol
_atom_site_label
_atom_site_fract_x
_atom_site_fract_y
_atom_site_fract_z
Si Si1 0.374736 0.481140 0.893534
Si Si2 0.098814 0.554533 0.316644
Si Si3 0.711844 0.259525 0.706740
Si Si4 0.003605 0.225882 0.261876
Si Si5 0.315774 0.043671 0.730485
O O1 0.284531 0.706441 0.524402
O O2 0.500000 0.500000 0.000000
O O3 0.203821 0.535684 0.928159
O O4 0.497348 0.213004 0.078154
O O5 0.151603 0.707823 0.240149
O O6 0.000000 0.500000 0.500000
O O7 0.293017 0.279586 0.547461
O O8 0.977285 0.705260 0.993318
O O9 0.500000 0.500000 0.500000
O O10 0.738426 0.035534 0.027725
O O11 0.158847 0.152652 0.472254
O O12 0.000000 0.000000 0.500000
#
# Coordination Sequence:
#
# PCOD9043332 Si02
#       5
#     2   2   2   2   2
#     4  11  23  42  72 104 136 191 240 288 359 428
#     4  12  27  45  72 112 144 188 245 297 363 428
#     4  10  23  45  70 105 145 189 238 290 365 427
#     4  12  23  45  73 102 146 191 237 292 361 430
#     4  11  25  45  74 104 147 186 238 303 356 426
#
# _framework density 24.884522
#
# number of rings (size 3 to 8) (size 9 to 14) (size 15 to 20)
#    0.000    0.800    4.000    3.000    2.800    5.600 
#    0.000    2.000    0.000    0.000    0.000    0.000 
#    0.000    0.000    0.000    0.000    0.000    0.000 
#
# Total GULP energy -56033.838950 kJ/mol
# GULP energy per Si atom -5603.383895 kJ/mol
# Density = 2.482788 g / cm^3
# Si number density = 24.884522 Si / 1000 Ang^3
#
#
#
# Elastic Constant Matrix: (Units=GPa)
#
#
# Indices 1 2 3 4 5 6 
#
# 1 52.2887 8.6418 15.0451 10.7593 11.5418 -16.6777
# 2 8.6418 100.1051 57.7838 -4.9910 6.0424 -12.1620
# 3 15.0451 57.7838 167.5503 27.2973 -4.4074 0.6110
# 4 10.7593 -4.9910 27.2973 82.2630 -0.3058 6.9558
# 5 11.5418 6.0424 -4.4074 -0.3058 33.0735 1.5356
# 6 -16.6777 -12.1620 0.6110 6.9558 1.5356 49.2017
#
#
#
# Elastic Compliance Matrix: (Units=1/GPa)
#
#
# Indices 1 2 3 4 5 6 
#
# 1 0.025630 0.000708 -0.002285 -0.003406 -0.009859 0.009680
# 2 0.000708 0.013711 -0.005254 0.002173 -0.003595 0.003499
# 3 -0.002285 -0.005254 0.008505 -0.002671 0.002954 -0.001893
# 4 -0.003406 0.002173 -0.002671 0.013839 0.000683 -0.002562
# 5 -0.009859 -0.003595 0.002954 0.000683 0.034986 -0.005455
# 6 0.009680 0.003499 -0.001893 -0.002562 -0.005455 0.025027
#
#
# Mechanical properties :
#
#
# Convention : Reuss Voigt Hill
#
# Bulk Modulus (GPa) = 29.25317 53.65394 41.45356
# Shear Modulus (GPa) = 34.07034 48.80587 41.43810
#
# Velocity S-wave (km/s) = 3.70420 4.43345 4.08513
# Velocity P-wave (km/s) = 5.48415 6.91486 6.24064
#
# Compressibility (1/GPa) = 0.03418432
#
# Stress axis : x y z
#
# Youngs Moduli (GPa) = 39.01715 72.93166 117.57514
#
# Poissons Ratio (x) = -0.05163 0.26869
# Poissons Ratio (y) = -0.02762 0.61770
# Poissons Ratio (z) = 0.08917 0.38316
#
# Static dielectric constant tensor:
#      x y z
#    x 1.912530 -0.025510 0.009780 
#    y -0.025510 1.958420 -0.017530 
#    z 0.009780 -0.017530 1.981000 
# 
# From -- ./inp_files/173670.got.cif
#   From: 2010.05.17/outbox.cif.g08.bks.cpg/sg2_87_cif.got.tgz:173670.got - 2010.06.03 11:33:40.
