data_PCOD9043071
_publ_section_title
;
Structure prediction by ZEFSAII (Michael W. Deem and Ramdas Pophale) SiO2 
 PCOD9043071
Probable space group: P -1
;
_chemical_formula_sum "Si O2"
_cell_formula_units_Z 14
_cell_length_a 13.012630
_cell_length_b 11.218063
_cell_length_c 5.082075
_cell_angle_alpha 65.648550
_cell_angle_beta 107.322766
_cell_angle_gamma 129.479527
_cell_volume 520.996988
_symmetry_space_group_name_H-M "P -1"
_symmetry_group_IT_number 2
_symmetry_cell_setting 'triclinic'
loop_
_space_group_symop_operation_xyz
x,y,z
-x,-y,-z
loop_
_atom_site_type_symbol
_atom_site_label
_atom_site_fract_x
_atom_site_fract_y
_atom_site_fract_z
Si Si1 0.302611 0.190904 0.931235
Si Si2 0.032789 0.911894 0.887182
Si Si3 0.982784 0.344652 0.513975
Si Si4 0.609796 0.356486 0.015154
Si Si5 0.702484 0.041963 0.498521
Si Si6 0.593365 0.174513 0.684685
Si Si7 0.191903 0.338028 0.407140
O O1 0.457491 0.286905 0.905399
O O2 0.262826 0.310518 0.721548
O O3 0.188682 0.032522 0.824249
O O4 0.284103 0.101148 0.275651
O O5 0.925147 0.834446 0.646713
O O6 0.013664 0.759878 0.156677
O O7 0.000000 0.000000 0.000000
O O8 0.843258 0.209963 0.385444
O O9 0.000000 0.500000 0.500000
O O10 0.110000 0.404209 0.380569
O O11 0.643102 0.266737 0.912472
O O12 0.703134 0.543684 0.839046
O O13 0.618556 0.303350 0.360946
O O14 0.657773 0.090855 0.686060
O O15 0.567527 0.956875 0.304444
#
# Coordination Sequence:
#
# PCOD9043071 Si02
#       7
#     2   2   2   2   2   2   2
#     4  10  23  45  68 107 134 196 241 299 360 450
#     4  11  25  46  73 104 146 193 245 305 370 446
#     4  11  25  45  71 106 147 191 249 307 379 439
#     4  11  26  44  75 105 150 189 250 303 380 433
#     4   9  22  42  73 100 142 193 251 303 362 447
#     4  10  23  47  70 105 144 196 245 311 363 443
#     4  12  26  43  74 104 151 190 243 316 370 440
#
# _framework density 26.871559000000001
#
# number of rings (size 3 to 8) (size 9 to 14) (size 15 to 20)
#    0.000    1.429    1.429    1.714    6.000    8.000 
#    2.571    4.286    0.000    0.000    0.000    0.000 
#    0.000    0.000    0.000    0.000    0.000    0.000 
#
# Total GULP energy -78451.414535 kJ/mol
# GULP energy per Si atom -5603.672467 kJ/mol
# Density = 2.681040 g / cm^3
# Si number density = 26.871559 Si / 1000 Ang^3
#
#
#
# Elastic Constant Matrix: (Units=GPa)
#
#
# Indices 1 2 3 4 5 6 
#
# 1 131.8536 56.4961 44.6474 -10.2244 13.5734 17.8283
# 2 56.4961 135.3267 44.5374 -34.9846 -7.7838 15.7061
# 3 44.6474 44.5374 94.6063 -14.9582 5.0245 7.6726
# 4 -10.2244 -34.9846 -14.9582 48.5776 1.3676 -9.7946
# 5 13.5734 -7.7838 5.0245 1.3676 41.4165 -7.1743
# 6 17.8283 15.7061 7.6726 -9.7946 -7.1743 62.4334
#
#
#
# Elastic Compliance Matrix: (Units=1/GPa)
#
#
# Indices 1 2 3 4 5 6 
#
# 1 0.011024 -0.004011 -0.003183 -0.001940 -0.004359 -0.002553
# 2 -0.004011 0.011978 -0.002866 0.006790 0.003684 -0.000027
# 3 -0.003183 -0.002866 0.013724 0.001535 -0.001203 0.000046
# 4 -0.001940 0.006790 0.001535 0.026088 0.001368 0.002907
# 5 -0.004359 0.003684 -0.001203 0.001368 0.027022 0.003785
# 6 -0.002553 -0.000027 0.000046 0.002907 0.003785 0.017638
#
#
# Mechanical properties :
#
#
# Convention : Reuss Voigt Hill
#
# Bulk Modulus (GPa) = 60.21420 72.57205 66.39313
# Shear Modulus (GPa) = 37.55790 44.89256 41.22523
#
# Velocity S-wave (km/s) = 3.74261 4.09177 3.92108
# Velocity P-wave (km/s) = 6.41350 7.02774 6.72763
#
# Compressibility (1/GPa) = 0.01660738
#
# Stress axis : x y z
#
# Youngs Moduli (GPa) = 90.71279 83.48964 72.86473
#
# Poissons Ratio (x) = 0.33486 0.23189
# Poissons Ratio (y) = 0.36383 0.20881
# Poissons Ratio (z) = 0.28870 0.23925
#
# Static dielectric constant tensor:
#      x y z
#    x 2.118410 -0.046100 -0.007340 
#    y -0.046100 2.109800 -0.004060 
#    z -0.007340 -0.004060 2.131030 
# 
# From -- ./inp_files/69282.got.cif
#   From: 2010.05.17/outbox.cif.g08.bks.cpg/sg2_35_cif.got.tgz:69282.got - 2010.06.03 11:33:40.
