data_PCOD9043878
_publ_section_title
;
Structure prediction by ZEFSAII (Michael W. Deem and Ramdas Pophale) SiO2 
 PCOD9043878
Probable space group: P -1
;
_chemical_formula_sum "Si O2"
_cell_formula_units_Z 15
_cell_length_a 6.380928
_cell_length_b 12.569437
_cell_length_c 11.620609
_cell_angle_alpha 73.898866
_cell_angle_beta 105.072440
_cell_angle_gamma 129.642198
_cell_volume 685.184775
_symmetry_space_group_name_H-M "P -1"
_symmetry_group_IT_number 2
_symmetry_cell_setting 'triclinic'
loop_
_space_group_symop_operation_xyz
x,y,z
-x,-y,-z
loop_
_atom_site_type_symbol
_atom_site_label
_atom_site_fract_x
_atom_site_fract_y
_atom_site_fract_z
Si Si1 0.267085 0.241884 0.604155
Si Si2 0.449993 0.531815 0.243410
Si Si3 0.210037 0.975239 0.720078
Si Si4 0.936679 0.274549 0.386825
Si Si5 0.806236 0.820375 0.926488
Si Si6 0.500000 0.500000 0.000000
Si Si7 0.675091 0.026086 0.903917
Si Si8 0.714097 0.404694 0.420214
O O1 0.413854 0.319840 0.720522
O O2 0.038785 0.259311 0.528919
O O3 0.485266 0.325859 0.508402
O O4 0.168992 0.086093 0.636928
O O5 0.175562 0.413418 0.309613
O O6 0.410214 0.528522 0.103711
O O7 0.658057 0.495291 0.309560
O O8 0.142803 0.857350 0.657176
O O9 0.009021 0.899082 0.823437
O O10 0.526767 0.054063 0.778823
O O11 0.707292 0.293725 0.373686
O O12 0.658352 0.890926 0.909637
O O13 0.617641 0.657121 0.927044
O O14 0.009047 0.856020 0.052899
O O15 0.500000 0.000000 0.000000
O O16 0.000000 0.500000 0.500000
#
# Coordination Sequence:
#
# PCOD9043878 Si02
#       8
#     2   2   2   2   2   1   2   2
#     4  11  24  40  68  98 132 175 219 272 335 396
#     4  11  24  43  64  98 134 172 225 273 332 393
#     4  11  24  41  66 101 133 174 220 269 332 399
#     4  11  22  44  66  97 136 170 220 282 323 387
#     4  10  23  46  64  92 136 173 218 278 324 394
#     4  12  26  42  72  98 128 180 220 272 342 382
#     4   9  22  42  64  89 130 177 217 265 328 389
#     4  11  21  42  70  95 129 177 222 272 331 390
#
# _framework density 21.891902999999999
#
# number of rings (size 3 to 8) (size 9 to 14) (size 15 to 20)
#    0.000    1.333    4.000    1.200    7.467    2.667 
#    0.000    3.333    0.000    0.000    0.000    0.000 
#    0.000    0.000    0.000    0.000    0.000    0.000 
#
# Total GULP energy -83584.046393 kJ/mol
# GULP energy per Si atom -5572.269760 kJ/mol
# Density = 2.184208 g / cm^3
# Si number density = 21.891903 Si / 1000 Ang^3
#
#
#
# Elastic Constant Matrix: (Units=GPa)
#
#
# Indices 1 2 3 4 5 6 
#
# 1 72.7688 11.8159 2.3639 -3.8587 1.4780 -29.9047
# 2 11.8159 76.3490 2.2211 8.9138 -13.7223 -30.3330
# 3 2.3639 2.2211 46.4754 3.6983 -11.1427 6.8106
# 4 -3.8587 8.9138 3.6983 31.2024 -12.6445 -10.6362
# 5 1.4780 -13.7223 -11.1427 -12.6445 21.9719 10.7136
# 6 -29.9047 -30.3330 6.8106 -10.6362 10.7136 28.1099
#
#
#
# Elastic Compliance Matrix: (Units=1/GPa)
#
#
# Indices 1 2 3 4 5 6 
#
# 1 0.436515 0.263523 -0.307197 0.207121 -0.418809 1.061171
# 2 0.263523 0.183483 -0.191049 0.128771 -0.252390 0.669549
# 3 -0.307197 -0.191049 0.246653 -0.146209 0.317241 -0.768964
# 4 0.207121 0.128771 -0.146209 0.142233 -0.177503 0.516194
# 5 -0.418809 -0.252390 0.317241 -0.177503 0.485249 -1.046871
# 6 1.061171 0.669549 -0.768964 0.516194 -1.046871 2.667624
#
#
# Mechanical properties :
#
#
# Convention : Reuss Voigt Hill
#
# Bulk Modulus (GPa) = 2.51759 25.37724 13.94742
# Shear Modulus (GPa) = 1.04962 28.20298 14.62630
#
# Velocity S-wave (km/s) = 0.69318 3.59316 2.58760
# Velocity P-wave (km/s) = 1.33909 5.36951 3.91311
#
# Compressibility (1/GPa) = 0.39720481
#
# Stress axis : x y z
#
# Youngs Moduli (GPa) = 2.29087 5.45008 4.05427
#
# Poissons Ratio (x) = -1.43622 1.24546
# Poissons Ratio (y) = -0.60370 0.77457
# Poissons Ratio (z) = 0.70375 1.04123
#
# Static dielectric constant tensor:
#      x y z
#    x 1.802710 0.021550 0.036340 
#    y 0.021550 1.807900 0.072650 
#    z 0.036340 0.072650 1.780710 
# 
# From -- ./inp_files/67399.got.cif
#   From: 2010.05.17/outbox.cif.g08.bks.cpg/sg2_34_cif.got.tgz:67399.got - 2010.06.03 11:33:40.
