data_PCOD9043897
_publ_section_title
;
Structure prediction by ZEFSAII (Michael W. Deem and Ramdas Pophale) SiO2 
 PCOD9043897
Probable space group: P -1
;
_chemical_formula_sum "Si O2"
_cell_formula_units_Z 14
_cell_length_a 4.823357
_cell_length_b 5.338747
_cell_length_c 21.374683
_cell_angle_alpha 63.636342
_cell_angle_beta 90.979857
_cell_angle_gamma 91.740417
_cell_volume 492.934724
_symmetry_space_group_name_H-M "P -1"
_symmetry_group_IT_number 2
_symmetry_cell_setting 'triclinic'
loop_
_space_group_symop_operation_xyz
x,y,z
-x,-y,-z
loop_
_atom_site_type_symbol
_atom_site_label
_atom_site_fract_x
_atom_site_fract_y
_atom_site_fract_z
Si Si1 0.138265 0.297941 0.264478
Si Si2 0.471984 0.538890 0.336364
Si Si3 0.823117 0.719978 0.513709
Si Si4 0.271887 0.647273 0.062830
Si Si5 0.923540 0.078152 0.089756
Si Si6 0.633058 0.279956 0.174892
Si Si7 0.467808 0.025498 0.626285
O O1 0.265348 0.562425 0.274792
O O2 0.351347 0.229563 0.216972
O O3 0.860069 0.338656 0.222073
O O4 0.220005 0.052885 0.342137
O O5 0.301891 0.424809 0.408956
O O6 0.640529 0.798639 0.335613
O O7 0.666874 0.282499 0.348487
O O8 0.579789 0.817941 0.455413
O O9 0.000000 0.500000 0.500000
O O10 0.000000 0.000000 0.500000
O O11 0.113682 0.353615 0.077398
O O12 0.564093 0.546973 0.101541
O O13 0.115858 0.832251 0.093445
O O14 0.267322 0.827347 0.979613
O O15 0.737367 0.040703 0.155243
#
# Coordination Sequence:
#
# PCOD9043897 Si02
#       7
#     2   2   2   2   2   2   2
#     4  10  28  43  77  98 156 190 252 290 374 436
#     4  10  23  46  65  98 139 187 235 302 355 438
#     4  12  24  38  72 107 135 186 239 309 366 431
#     4  10  23  46  75 109 147 191 245 310 370 432
#     4  10  23  46  75 109 147 191 245 310 370 432
#     4  12  23  52  68 117 138 210 238 310 358 455
#     4  10  23  46  65  98 139 187 235 302 355 438
#
# _framework density 28.401329
#
# number of rings (size 3 to 8) (size 9 to 14) (size 15 to 20)
#    0.857    0.571    1.429    3.000    2.000    2.286 
#    5.143    4.286    0.000    0.000    0.000    0.000 
#    0.000    0.000    0.000    0.000    0.000    0.000 
#
# Total GULP energy -78455.981112 kJ/mol
# GULP energy per Si atom -5603.998651 kJ/mol
# Density = 2.833669 g / cm^3
# Si number density = 28.401329 Si / 1000 Ang^3
#
#
#
# Elastic Constant Matrix: (Units=GPa)
#
#
# Indices 1 2 3 4 5 6 
#
# 1 128.8388 44.0984 58.9606 0.4827 37.1089 -16.8632
# 2 44.0984 217.1715 46.5687 34.5255 8.4968 -7.6818
# 3 58.9606 46.5687 168.0245 31.0715 29.9643 -12.5411
# 4 0.4827 34.5255 31.0715 54.5545 -9.5544 -5.9718
# 5 37.1089 8.4968 29.9643 -9.5544 60.6060 -2.5354
# 6 -16.8632 -7.6818 -12.5411 -5.9718 -2.5354 41.4259
#
#
#
# Elastic Compliance Matrix: (Units=1/GPa)
#
#
# Indices 1 2 3 4 5 6 
#
# 1 0.011523 -0.001759 -0.002807 0.002130 -0.004938 0.003520
# 2 -0.001759 0.005557 -0.000302 -0.003376 -0.000097 -0.000269
# 3 -0.002807 -0.000302 0.008606 -0.005214 -0.003297 0.000454
# 4 0.002130 -0.003376 -0.005214 0.024706 0.005749 0.002576
# 5 -0.004938 -0.000097 -0.003297 0.005749 0.022038 -0.000849
# 6 0.003520 -0.000269 0.000454 0.002576 -0.000849 0.025979
#
#
# Mechanical properties :
#
#
# Convention : Reuss Voigt Hill
#
# Bulk Modulus (GPa) = 62.68718 90.36557 76.52637
# Shear Modulus (GPa) = 44.06765 55.61107 49.83936
#
# Velocity S-wave (km/s) = 3.94332 4.42978 4.19361
# Velocity P-wave (km/s) = 6.54621 7.61908 7.10293
#
# Compressibility (1/GPa) = 0.01595222
#
# Stress axis : x y z
#
# Youngs Moduli (GPa) = 86.78198 179.93722 116.19991
#
# Poissons Ratio (x) = 0.31651 0.32612
# Poissons Ratio (y) = 0.15265 0.03505
# Poissons Ratio (z) = 0.24356 0.05427
#
# Static dielectric constant tensor:
#      x y z
#    x 2.233330 0.061650 -0.073600 
#    y 0.061650 2.342730 -0.050300 
#    z -0.073600 -0.050300 2.202190 
# 
# From -- ./inp_files/581018.got.cif
#   From: 2010.05.17/outbox.cif.g08.bks.cpg/sg2_291_cif.got.tgz:581018.got - 2010.06.03 11:33:40.
