data_PCOD9043997
_publ_section_title
;
Structure prediction by ZEFSAII (Michael W. Deem and Ramdas Pophale) SiO2 
 PCOD9043997
Probable space group: P -1
;
_chemical_formula_sum "Si O2"
_cell_formula_units_Z 16
_cell_length_a 13.538342
_cell_length_b 10.369052
_cell_length_c 9.073124
_cell_angle_alpha 63.610802
_cell_angle_beta 121.751155
_cell_angle_gamma 68.206151
_cell_volume 589.231238
_symmetry_space_group_name_H-M "P -1"
_symmetry_group_IT_number 2
_symmetry_cell_setting 'triclinic'
loop_
_space_group_symop_operation_xyz
x,y,z
-x,-y,-z
loop_
_atom_site_type_symbol
_atom_site_label
_atom_site_fract_x
_atom_site_fract_y
_atom_site_fract_z
Si Si1 0.200366 0.117233 0.383195
Si Si2 0.399219 0.335642 0.177677
Si Si3 0.189097 0.800790 0.646035
Si Si4 0.334013 0.999979 0.847742
Si Si5 0.654525 0.477457 0.655701
Si Si6 0.899353 0.978696 0.143485
Si Si7 0.725126 0.668577 0.192818
Si Si8 0.948885 0.354638 0.790780
O O1 0.402442 0.940475 0.553680
O O2 0.216984 0.931521 0.537240
O O3 0.204206 0.184710 0.514467
O O4 0.035422 0.315706 0.036014
O O5 0.387169 0.371727 0.323119
O O6 0.357605 0.543592 0.985459
O O7 0.251631 0.388828 0.933089
O O8 0.000000 0.000000 0.500000
O O9 0.117093 0.767434 0.475857
O O10 0.352741 0.096418 0.944225
O O11 0.234481 0.966691 0.870226
O O12 0.533647 0.768761 0.041466
O O13 0.500000 0.500000 0.500000
O O14 0.740665 0.489988 0.588697
O O15 0.839642 0.201622 0.979863
O O16 0.895799 0.914388 0.012001
O O17 0.908202 0.477397 0.542144
#
# Coordination Sequence:
#
# PCOD9043997 Si02
#       8
#     2   2   2   2   2   2   2   2
#     4  11  23  39  64  95 132 164 205 267 323 380
#     4  11  23  41  64  92 128 175 214 251 318 376
#     4  12  20  37  62  95 126 167 208 259 312 384
#     4  10  23  46  68  90 123 170 224 260 310 371
#     4  12  25  40  64  97 136 168 202 260 329 385
#     4  12  23  38  65  95 128 164 210 262 313 377
#     4  10  24  45  68  91 123 171 222 265 300 381
#     4  12  25  40  62  99 134 163 208 263 326 377
#
# _framework density 27.154025000000001
#
# number of rings (size 3 to 8) (size 9 to 14) (size 15 to 20)
#    0.000    0.750    5.000    2.250    1.750    3.000 
#    0.000    1.250    0.000    5.250    0.000    0.000 
#    0.000    0.000    0.000    0.000    0.000    0.000 
#
# Total GULP energy -89308.423390 kJ/mol
# GULP energy per Si atom -5581.776462 kJ/mol
# Density = 2.709222 g / cm^3
# Si number density = 27.154025 Si / 1000 Ang^3
#
#
#
# Elastic Constant Matrix: (Units=GPa)
#
#
# Indices 1 2 3 4 5 6 
#
# 1 60.5951 8.1585 22.9110 12.3972 1.0318 -15.1204
# 2 8.1585 155.5436 16.1320 37.8215 6.4882 -17.1427
# 3 22.9110 16.1320 123.6812 23.7086 0.9572 -2.1724
# 4 12.3972 37.8215 23.7086 42.9020 -5.0037 -1.0881
# 5 1.0318 6.4882 0.9572 -5.0037 27.8316 5.2842
# 6 -15.1204 -17.1427 -2.1724 -1.0881 5.2842 26.8155
#
#
#
# Elastic Compliance Matrix: (Units=1/GPa)
#
#
# Indices 1 2 3 4 5 6 
#
# 1 0.022669 0.002938 -0.002755 -0.007902 -0.005747 0.015249
# 2 0.002938 0.009961 0.000329 -0.010285 -0.005964 0.008810
# 3 -0.002755 0.000329 0.009486 -0.004875 -0.001070 -0.000562
# 4 -0.007902 -0.010285 -0.004875 0.038453 0.012097 -0.012249
# 5 -0.005747 -0.005964 -0.001070 0.012097 0.042602 -0.015044
# 6 0.015249 0.008810 -0.000562 -0.012249 -0.015044 0.053944
#
#
# Mechanical properties :
#
#
# Convention : Reuss Voigt Hill
#
# Bulk Modulus (GPa) = 23.18064 48.24700 35.71382
# Shear Modulus (GPa) = 26.25065 39.01772 32.63419
#
# Velocity S-wave (km/s) = 3.11260 3.79476 3.47049
# Velocity P-wave (km/s) = 4.63390 6.08332 5.40739
#
# Compressibility (1/GPa) = 0.04313944
#
# Stress axis : x y z
#
# Youngs Moduli (GPa) = 44.11336 100.38815 105.42166
#
# Poissons Ratio (x) = -0.29499 0.29049
# Poissons Ratio (y) = -0.12963 -0.03466
# Poissons Ratio (z) = 0.12155 -0.03301
#
# Static dielectric constant tensor:
#      x y z
#    x 2.183920 0.016790 -0.015140 
#    y 0.016790 2.162870 0.047910 
#    z -0.015140 0.047910 2.298060 
# 
# From -- ./inp_files/307144.got.cif
#   From: 2010.05.17/outbox.cif.g08.bks.cpg/sg2_154_cif.got.tgz:307144.got - 2010.06.03 11:33:40.
