data_PCOD9043257
_publ_section_title
;
Structure prediction by ZEFSAII (Michael W. Deem and Ramdas Pophale) SiO2 
 PCOD9043257
Probable space group: P -1
;
_chemical_formula_sum "Si O2"
_cell_formula_units_Z 16
_cell_length_a 13.417205
_cell_length_b 16.333528
_cell_length_c 8.443812
_cell_angle_alpha 109.381512
_cell_angle_beta 117.153496
_cell_angle_gamma 24.281323
_cell_volume 658.928923
_symmetry_space_group_name_H-M "P -1"
_symmetry_group_IT_number 2
_symmetry_cell_setting 'triclinic'
loop_
_space_group_symop_operation_xyz
x,y,z
-x,-y,-z
loop_
_atom_site_type_symbol
_atom_site_label
_atom_site_fract_x
_atom_site_fract_y
_atom_site_fract_z
Si Si1 0.784145 0.068826 0.087770
Si Si2 0.604523 0.338011 0.340309
Si Si3 0.799443 0.768379 0.106633
Si Si4 0.758076 0.348445 0.996048
Si Si5 0.734930 0.540886 0.246822
Si Si6 0.503162 0.253289 0.458092
Si Si7 0.032623 0.448954 0.211537
Si Si8 0.950898 0.846222 0.368895
O O1 0.502317 0.269705 0.926227
O O2 0.801603 0.148465 0.240717
O O3 0.021002 0.878476 0.019369
O O4 0.812575 0.979008 0.192561
O O5 0.536535 0.311701 0.402261
O O6 0.233458 0.693883 0.497288
O O7 0.354874 0.540626 0.184052
O O8 0.935267 0.753854 0.284035
O O9 0.806155 0.677259 0.157436
O O10 0.946734 0.637781 0.967134
O O11 0.500000 0.000000 0.000000
O O12 0.852663 0.365227 0.173107
O O13 0.500000 0.500000 0.000000
O O14 0.596238 0.641190 0.379250
O O15 0.966794 0.446820 0.324122
O O16 0.288565 0.330159 0.307185
O O17 0.772959 0.009421 0.486309
#
# Coordination Sequence:
#
# PCOD9043257 Si02
#       8
#     2   2   2   2   2   2   2   2
#     4  10  23  45  69  99 142 185 230 281 355 413
#     4  10  26  46  71 103 143 183 232 289 353 415
#     4  11  23  43  74 102 135 180 240 291 345 413
#     4  11  27  44  71 105 141 188 233 282 354 429
#     4  11  26  46  69  98 150 183 232 293 351 415
#     4  11  24  46  72 102 143 187 230 293 352 411
#     4  11  25  44  71 101 138 187 236 286 352 411
#     4  11  23  44  73 103 136 186 231 291 348 419
#
# _framework density 24.281831
#
# number of rings (size 3 to 8) (size 9 to 14) (size 15 to 20)
#    0.000    1.250    1.250    3.375   15.750    2.500 
#    0.000    0.625    0.000    0.000    0.000    0.000 
#    0.000    0.000    0.000    0.000    0.000    0.000 
#
# Total GULP energy -89598.353106 kJ/mol
# GULP energy per Si atom -5599.897069 kJ/mol
# Density = 2.422656 g / cm^3
# Si number density = 24.281831 Si / 1000 Ang^3
#
#
#
# Elastic Constant Matrix: (Units=GPa)
#
#
# Indices 1 2 3 4 5 6 
#
# 1 144.4279 45.1754 49.9479 19.7923 22.5246 -7.0186
# 2 45.1754 120.7560 22.6600 23.3637 16.8421 8.3529
# 3 49.9479 22.6600 100.0434 32.7618 15.8507 2.1970
# 4 19.7923 23.3637 32.7618 41.7162 2.4216 5.9464
# 5 22.5246 16.8421 15.8507 2.4216 40.8150 3.2018
# 6 -7.0186 8.3529 2.1970 5.9464 3.2018 33.8613
#
#
#
# Elastic Compliance Matrix: (Units=1/GPa)
#
#
# Indices 1 2 3 4 5 6 
#
# 1 0.009735 -0.002646 -0.003665 -0.000550 -0.003083 0.003296
# 2 -0.002646 0.010591 0.001080 -0.005063 -0.002867 -0.002071
# 3 -0.003665 0.001080 0.015838 -0.011114 -0.003936 0.000270
# 4 -0.000550 -0.005063 -0.011114 0.036218 0.004950 -0.004972
# 5 -0.003083 -0.002867 -0.003936 0.004950 0.028877 -0.003276
# 6 0.003296 -0.002071 0.000270 -0.004972 -0.003276 0.031892
#
#
# Mechanical properties :
#
#
# Convention : Reuss Voigt Hill
#
# Bulk Modulus (GPa) = 38.90758 66.75487 52.83122
# Shear Modulus (GPa) = 32.85558 39.77479 36.31518
#
# Velocity S-wave (km/s) = 3.68243 4.05167 3.87146
# Velocity P-wave (km/s) = 5.84282 7.03132 6.46444
#
# Compressibility (1/GPa) = 0.02570194
#
# Stress axis : x y z
#
# Youngs Moduli (GPa) = 102.71798 94.42005 63.13824
#
# Poissons Ratio (x) = 0.24983 0.23141
# Poissons Ratio (y) = 0.27178 -0.06817
# Poissons Ratio (z) = 0.37647 -0.10194
#
# Static dielectric constant tensor:
#      x y z
#    x 1.918840 -0.013080 -0.015190 
#    y -0.013080 1.971440 0.009270 
#    z -0.015190 0.009270 1.980610 
# 
# From -- ./inp_files/272771.got.cif
#   From: 2010.05.17/outbox.cif.g08.bks.cpg/sg2_137_cif.got.tgz:272771.got - 2010.06.03 11:33:40.
