data_PCOD9043178
_publ_section_title
;
Structure prediction by ZEFSAII (Michael W. Deem and Ramdas Pophale) SiO2 
 PCOD9043178
Probable space group: P -1
;
_chemical_formula_sum "Si O2"
_cell_formula_units_Z 16
_cell_length_a 8.978204
_cell_length_b 9.522377
_cell_length_c 15.340306
_cell_angle_alpha 111.679369
_cell_angle_beta 33.738097
_cell_angle_gamma 101.905210
_cell_volume 663.819007
_symmetry_space_group_name_H-M "P -1"
_symmetry_group_IT_number 2
_symmetry_cell_setting 'triclinic'
loop_
_space_group_symop_operation_xyz
x,y,z
-x,-y,-z
loop_
_atom_site_type_symbol
_atom_site_label
_atom_site_fract_x
_atom_site_fract_y
_atom_site_fract_z
Si Si1 0.852676 0.736145 0.170179
Si Si2 0.027487 0.269952 0.691811
Si Si3 0.255090 0.973105 0.302502
Si Si4 0.133844 0.695932 0.843030
Si Si5 0.183384 0.283428 0.298554
Si Si6 0.585125 0.464606 0.641929
Si Si7 0.251161 0.419141 0.125129
Si Si8 0.411243 0.949542 0.691237
O O1 0.976599 0.693390 0.195166
O O2 0.630216 0.630498 0.233873
O O3 0.707207 0.915035 0.285766
O O4 0.067097 0.719275 0.983235
O O5 0.317498 0.163113 0.502011
O O6 0.974015 0.429241 0.700670
O O7 0.793197 0.175148 0.759798
O O8 0.241922 0.120005 0.280354
O O9 0.511026 0.965422 0.239742
O O10 0.000000 0.000000 0.500000
O O11 0.404807 0.561157 0.675798
O O12 0.200646 0.845050 0.798224
O O13 0.880181 0.648062 0.908200
O O14 0.307560 0.408424 0.322564
O O15 0.301975 0.294379 0.147577
O O16 0.856016 0.339474 0.460671
O O17 0.500000 0.500000 0.000000
#
# Coordination Sequence:
#
# PCOD9043178 Si02
#       8
#     2   2   2   2   2   2   2   2
#     4  12  26  45  72 101 144 190 232 298 359 415
#     4  11  26  45  73 103 139 188 239 293 354 420
#     4  10  23  45  69 104 141 181 231 297 353 412
#     4  12  26  47  70 101 147 187 238 294 358 423
#     4  11  25  43  74 107 138 190 240 294 355 422
#     4  11  23  43  73 101 137 186 241 291 350 421
#     4  12  29  46  70 106 149 188 236 294 363 424
#     4  11  25  46  73 101 140 185 242 290 353 425
#
# _framework density 24.102955000000001
#
# number of rings (size 3 to 8) (size 9 to 14) (size 15 to 20)
#    0.000    0.750    2.500    4.125   14.000    1.000 
#    0.000    1.250    0.000    0.000    0.000    0.000 
#    0.000    0.000    0.000    0.000    0.000    0.000 
#
# Total GULP energy -89612.466105 kJ/mol
# GULP energy per Si atom -5600.779132 kJ/mol
# Density = 2.404810 g / cm^3
# Si number density = 24.102955 Si / 1000 Ang^3
#
#
#
# Elastic Constant Matrix: (Units=GPa)
#
#
# Indices 1 2 3 4 5 6 
#
# 1 105.7160 23.0819 13.0645 -21.3653 6.4771 11.9595
# 2 23.0819 136.8505 11.1900 -14.7975 8.5519 -6.9089
# 3 13.0645 11.1900 62.5871 -4.5357 3.4406 6.4638
# 4 -21.3653 -14.7975 -4.5357 26.8400 -3.0305 0.4093
# 5 6.4771 8.5519 3.4406 -3.0305 33.7422 -3.3736
# 6 11.9595 -6.9089 6.4638 0.4093 -3.3736 46.4726
#
#
#
# Elastic Compliance Matrix: (Units=1/GPa)
#
#
# Indices 1 2 3 4 5 6 
#
# 1 0.012065 -0.001065 -0.001281 0.008685 -0.001462 -0.003268
# 2 -0.001065 0.008083 -0.001071 0.003259 -0.001292 0.001502
# 3 -0.001281 -0.001071 0.016826 0.001118 -0.001325 -0.002276
# 4 0.008685 0.003259 0.001118 0.046342 0.001333 -0.002217
# 5 -0.001462 -0.001292 -0.001325 0.001333 0.030758 0.002590
# 6 -0.003268 0.001502 -0.002276 -0.002217 0.002590 0.023106
#
#
# Mechanical properties :
#
#
# Convention : Reuss Voigt Hill
#
# Bulk Modulus (GPa) = 33.17763 44.42516 38.80140
# Shear Modulus (GPa) = 32.45503 38.59878 35.52690
#
# Velocity S-wave (km/s) = 3.67347 4.00611 3.84339
# Velocity P-wave (km/s) = 5.63803 6.31427 5.98571
#
# Compressibility (1/GPa) = 0.03014079
#
# Stress axis : x y z
#
# Youngs Moduli (GPa) = 82.88774 123.71053 59.43350
#
# Poissons Ratio (x) = 0.13171 0.07612
# Poissons Ratio (y) = 0.08824 0.06365
# Poissons Ratio (z) = 0.10616 0.13248
#
# Static dielectric constant tensor:
#      x y z
#    x 1.892440 0.006890 -0.015070 
#    y 0.006890 1.874430 0.042140 
#    z -0.015070 0.042140 1.995110 
# 
# From -- ./inp_files/495369.got.cif
#   From: 2010.05.17/outbox.cif.g08.bks.cpg/sg2_248_cif.got.tgz:495369.got - 2010.06.03 11:33:40.
