data_PCOD9043144
_publ_section_title
;
Structure prediction by ZEFSAII (Michael W. Deem and Ramdas Pophale) SiO2 
 PCOD9043144
Probable space group: P -1
;
_chemical_formula_sum "Si O2"
_cell_formula_units_Z 14
_cell_length_a 17.245932
_cell_length_b 12.063636
_cell_length_c 9.017682
_cell_angle_alpha 39.646416
_cell_angle_beta 147.772524
_cell_angle_gamma 130.256243
_cell_volume 638.293024
_symmetry_space_group_name_H-M "P -1"
_symmetry_group_IT_number 2
_symmetry_cell_setting 'triclinic'
loop_
_space_group_symop_operation_xyz
x,y,z
-x,-y,-z
loop_
_atom_site_type_symbol
_atom_site_label
_atom_site_fract_x
_atom_site_fract_y
_atom_site_fract_z
Si Si1 0.829534 0.523121 0.173772
Si Si2 0.895926 0.882607 0.849921
Si Si3 0.342003 0.049941 0.133187
Si Si4 0.636656 0.452012 0.669144
Si Si5 0.652367 0.559354 0.259998
Si Si6 0.640064 0.047303 0.078803
Si Si7 0.827787 0.274952 0.683276
O O1 0.765813 0.375124 0.331894
O O2 0.000000 0.500000 0.500000
O O3 0.807069 0.730332 0.947702
O O4 0.775854 0.484419 0.962681
O O5 0.781302 0.997451 0.455739
O O6 0.005621 0.777906 0.024990
O O7 0.000000 0.000000 0.000000
O O8 0.500000 0.000000 0.500000
O O9 0.241903 0.904589 0.194203
O O10 0.307423 0.247046 0.921419
O O11 0.346075 0.037676 0.973545
O O12 0.500000 0.500000 0.500000
O O13 0.630484 0.560977 0.398397
O O14 0.631304 0.251669 0.825094
O O15 0.781055 0.420592 0.576582
O O16 0.500000 0.500000 0.000000
O O17 0.500000 0.000000 0.000000
#
# Coordination Sequence:
#
# PCOD9043144 Si02
#       7
#     2   2   2   2   2   2   2
#     4  10  23  45  69 100 141 186 236 288 358 429
#     4  11  26  47  76 108 142 194 243 301 366 428
#     4  12  26  45  72 109 147 188 242 300 366 423
#     4  12  24  45  71 104 141 188 243 298 355 432
#     4  12  24  45  70 106 147 192 236 302 367 423
#     4  12  26  46  74 107 143 190 250 297 356 439
#     4  11  25  47  71 104 149 187 242 295 366 428
#
# _framework density 21.933502000000001
#
# number of rings (size 3 to 8) (size 9 to 14) (size 15 to 20)
#    0.000    0.571    2.857    5.143    6.000    0.571 
#    0.000    3.571    0.000    0.000    0.000    0.000 
#    0.000    0.000    0.000    0.000    0.000    0.000 
#
# Total GULP energy -78227.954661 kJ/mol
# GULP energy per Si atom -5587.711047 kJ/mol
# Density = 2.188358 g / cm^3
# Si number density = 21.933502 Si / 1000 Ang^3
#
#
#
# Elastic Constant Matrix: (Units=GPa)
#
#
# Indices 1 2 3 4 5 6 
#
# 1 114.0782 38.3879 34.1426 0.2209 -8.7148 7.3462
# 2 38.3879 142.3926 30.0075 -28.8885 -10.0814 11.5759
# 3 34.1426 30.0075 93.0798 -1.7826 -3.8928 6.2683
# 4 0.2209 -28.8885 -1.7826 60.9784 -5.1970 -11.8752
# 5 -8.7148 -10.0814 -3.8928 -5.1970 50.6585 -9.0904
# 6 7.3462 11.5759 6.2683 -11.8752 -9.0904 32.7213
#
#
#
# Elastic Compliance Matrix: (Units=1/GPa)
#
#
# Indices 1 2 3 4 5 6 
#
# 1 0.010610 -0.002352 -0.003044 -0.001426 0.000748 -0.001277
# 2 -0.002352 0.009076 -0.001892 0.004337 0.001649 -0.000288
# 3 -0.003044 -0.001892 0.012538 -0.000819 -0.000276 -0.001423
# 4 -0.001426 0.004337 -0.000819 0.020208 0.003951 0.007374
# 5 0.000748 0.001649 -0.000276 0.003951 0.021800 0.006792
# 6 -0.001277 -0.000288 -0.001423 0.007374 0.006792 0.035786
#
#
# Mechanical properties :
#
#
# Convention : Reuss Voigt Hill
#
# Bulk Modulus (GPa) = 56.65770 61.62518 59.14144
# Shear Modulus (GPa) = 38.32124 45.33916 41.83020
#
# Velocity S-wave (km/s) = 4.18443 4.55149 4.37182
# Velocity P-wave (km/s) = 7.01667 7.46852 7.24612
#
# Compressibility (1/GPa) = 0.01764985
#
# Stress axis : x y z
#
# Youngs Moduli (GPa) = 94.24716 110.18516 79.75439
#
# Poissons Ratio (x) = 0.25912 0.24276
# Poissons Ratio (y) = 0.22164 0.15088
# Poissons Ratio (z) = 0.28688 0.20845
#
# Static dielectric constant tensor:
#      x y z
#    x 1.966810 0.053850 0.020010 
#    y 0.053850 1.866950 -0.022950 
#    z 0.020010 -0.022950 1.806870 
# 
# From -- ./inp_files/285115.got.cif
#   From: 2010.05.17/outbox.cif.g08.bks.cpg/sg2_143_cif.got.tgz:285115.got - 2010.06.03 11:33:40.
