data_PCOD9043990
_publ_section_title
;
Structure prediction by ZEFSAII (Michael W. Deem and Ramdas Pophale) SiO2 
 PCOD9043990
Probable space group: P -1
;
_chemical_formula_sum "Si O2"
_cell_formula_units_Z 12
_cell_length_a 6.417904
_cell_length_b 15.847586
_cell_length_c 15.465283
_cell_angle_alpha 18.826976
_cell_angle_beta 60.729224
_cell_angle_gamma 60.305640
_cell_volume 439.817750
_symmetry_space_group_name_H-M "P -1"
_symmetry_group_IT_number 2
_symmetry_cell_setting 'triclinic'
loop_
_space_group_symop_operation_xyz
x,y,z
-x,-y,-z
loop_
_atom_site_type_symbol
_atom_site_label
_atom_site_fract_x
_atom_site_fract_y
_atom_site_fract_z
Si Si1 0.772033 0.705918 0.996732
Si Si2 0.463422 0.594850 0.317335
Si Si3 0.912951 0.581607 0.559084
Si Si4 0.793199 0.958147 0.910997
Si Si5 0.274172 0.715567 0.818328
Si Si6 0.545784 0.931175 0.415088
O O1 0.557899 0.831987 0.856839
O O2 0.843788 0.943623 0.812708
O O3 0.018334 0.613528 0.987466
O O4 0.663127 0.522930 0.269103
O O5 0.500000 0.500000 0.500000
O O6 0.235822 0.485150 0.429593
O O7 0.510264 0.902838 0.015181
O O8 0.093255 0.804401 0.298430
O O9 0.720743 0.711787 0.542180
O O10 0.055058 0.305295 0.827248
O O11 0.318111 0.948274 0.650260
O O12 0.316934 0.813228 0.617884
O O13 0.500000 0.500000 0.000000
#
# Coordination Sequence:
#
# PCOD9043990 Si02
#       6
#     2   2   2   2   2   2
#     4  10  23  46  68 106 150 193 253 307 374 446
#     4  10  26  47  78 113 150 198 258 314 380 453
#     4  12  24  49  76 108 157 200 246 320 381 447
#     4  10  26  44  75 109 151 200 254 305 382 445
#     4  11  24  43  69 106 150 191 259 303 375 456
#     4  11  24  41  71 106 145 201 242 312 377 449
#
# _framework density 27.284026999999998
#
# number of rings (size 3 to 8) (size 9 to 14) (size 15 to 20)
#    1.000    0.333    1.667    2.500    4.667    2.000 
#    3.000    5.833    0.000    0.000    0.000    0.000 
#    0.000    0.000    0.000    0.000    0.000    0.000 
#
# Total GULP energy -67044.729963 kJ/mol
# GULP energy per Si atom -5587.060830 kJ/mol
# Density = 2.722193 g / cm^3
# Si number density = 27.284027 Si / 1000 Ang^3
#
#
#
# Elastic Constant Matrix: (Units=GPa)
#
#
# Indices 1 2 3 4 5 6 
#
# 1 160.6759 73.2809 81.3081 3.9058 -35.6977 2.1831
# 2 73.2809 135.5914 71.6359 14.7217 -24.6721 2.3205
# 3 81.3081 71.6359 121.7867 -10.6877 -5.6318 -14.2183
# 4 3.9058 14.7217 -10.6877 61.6118 5.4113 -10.9239
# 5 -35.6977 -24.6721 -5.6318 5.4113 63.5724 4.3808
# 6 2.1831 2.3205 -14.2183 -10.9239 4.3808 55.5717
#
#
#
# Elastic Compliance Matrix: (Units=1/GPa)
#
#
# Indices 1 2 3 4 5 6 
#
# 1 0.012230 -0.000724 -0.008156 -0.003230 0.006392 -0.003676
# 2 -0.000724 0.013870 -0.008464 -0.005937 0.005027 -0.004279
# 3 -0.008156 -0.008464 0.019928 0.008046 -0.007331 0.007932
# 4 -0.003230 -0.005937 0.008046 0.020991 -0.005675 0.007007
# 5 0.006392 0.005027 -0.007331 -0.005675 0.021459 -0.005144
# 6 -0.003676 -0.004279 0.007932 0.007007 -0.005144 0.022130
#
#
# Mechanical properties :
#
#
# Convention : Reuss Voigt Hill
#
# Bulk Modulus (GPa) = 88.17672 96.72263 92.44967
# Shear Modulus (GPa) = 33.54017 48.93980 41.23998
#
# Velocity S-wave (km/s) = 3.50994 4.23982 3.89203
# Velocity P-wave (km/s) = 6.98673 7.71332 7.35900
#
# Compressibility (1/GPa) = 0.01134086
#
# Stress axis : x y z
#
# Youngs Moduli (GPa) = 81.76721 72.09670 50.18071
#
# Poissons Ratio (x) = 0.05218 0.40929
# Poissons Ratio (y) = 0.05918 0.42471
# Poissons Ratio (z) = 0.66692 0.61020
#
# Static dielectric constant tensor:
#      x y z
#    x 2.171630 -0.090760 -0.043550 
#    y -0.090760 2.285070 0.003420 
#    z -0.043550 0.003420 2.217270 
# 
# From -- ./inp_files/550496.got.cif
#   From: 2010.05.17/outbox.cif.g08.bks.cpg/sg2_276_cif.got.tgz:550496.got - 2010.06.03 11:33:40.
