data_PCOD9043399
_publ_section_title
;
Structure prediction by ZEFSAII (Michael W. Deem and Ramdas Pophale) SiO2 
 PCOD9043399
Probable space group: P -1
;
_chemical_formula_sum "Si O2"
_cell_formula_units_Z 14
_cell_length_a 8.729560
_cell_length_b 12.723677
_cell_length_c 8.691475
_cell_angle_alpha 88.179772
_cell_angle_beta 49.963850
_cell_angle_gamma 67.319821
_cell_volume 649.230768
_symmetry_space_group_name_H-M "P -1"
_symmetry_group_IT_number 2
_symmetry_cell_setting 'triclinic'
loop_
_space_group_symop_operation_xyz
x,y,z
-x,-y,-z
loop_
_atom_site_type_symbol
_atom_site_label
_atom_site_fract_x
_atom_site_fract_y
_atom_site_fract_z
Si Si1 0.528597 0.937561 0.318325
Si Si2 0.668163 0.241438 0.595988
Si Si3 0.370157 0.476379 0.942527
Si Si4 0.010008 0.880709 0.064864
Si Si5 0.081165 0.405948 0.591519
Si Si6 0.101956 0.152692 0.515057
Si Si7 0.591784 0.347647 0.321177
O O1 0.437021 0.842495 0.384410
O O2 0.798322 0.873637 0.120149
O O3 0.500000 0.000000 0.500000
O O4 0.356503 0.048367 0.319269
O O5 0.502642 0.336707 0.823582
O O6 0.680490 0.314659 0.438070
O O7 0.916875 0.165783 0.509673
O O8 0.384972 0.546893 0.781153
O O9 0.500000 0.500000 0.000000
O O10 0.108974 0.531818 0.157786
O O11 0.970612 0.880769 0.273020
O O12 0.250421 0.769862 0.874139
O O13 0.000000 0.000000 0.000000
O O14 0.090036 0.281408 0.541346
O O15 0.330575 0.377537 0.483911
O O16 0.000000 0.500000 0.500000
#
# Coordination Sequence:
#
# PCOD9043399 Si02
#       7
#     2   2   2   2   2   2   2
#     4  10  23  45  70  99 137 183 232 288 346 408
#     4  12  25  44  71 106 143 184 228 293 349 415
#     4  12  24  48  69 104 144 182 236 287 346 418
#     4  11  22  44  73 100 137 187 236 289 347 412
#     4  12  24  44  77 103 139 191 229 286 353 414
#     4  11  22  45  71 101 145 179 234 290 345 416
#     4  12  24  43  69 106 142 184 235 285 348 416
#
# _framework density 21.563981999999999
#
# number of rings (size 3 to 8) (size 9 to 14) (size 15 to 20)
#    0.000    0.571    4.286    5.143    0.000    0.571 
#    5.143    1.429    0.000    0.000    0.000    0.000 
#    0.000    0.000    0.000    0.000    0.000    0.000 
#
# Total GULP energy -78346.376829 kJ/mol
# GULP energy per Si atom -5596.169773 kJ/mol
# Density = 2.151490 g / cm^3
# Si number density = 21.563982 Si / 1000 Ang^3
#
#
#
# Elastic Constant Matrix: (Units=GPa)
#
#
# Indices 1 2 3 4 5 6 
#
# 1 123.3288 39.4621 51.9877 -6.0080 -17.4907 -27.9423
# 2 39.4621 114.2547 15.2335 -13.7351 4.1315 -7.0688
# 3 51.9877 15.2335 77.5827 -1.0173 -20.5674 -8.8861
# 4 -6.0080 -13.7351 -1.0173 44.3621 -5.0933 1.0488
# 5 -17.4907 4.1315 -20.5674 -5.0933 37.3890 10.7342
# 6 -27.9423 -7.0688 -8.8861 1.0488 10.7342 43.6361
#
#
#
# Elastic Compliance Matrix: (Units=1/GPa)
#
#
# Indices 1 2 3 4 5 6 
#
# 1 0.014159 -0.003389 -0.007819 0.000629 0.000859 0.006699
# 2 -0.003389 0.010370 -0.000432 0.002438 -0.002640 0.000013
# 3 -0.007819 -0.000432 0.020083 0.000299 0.008354 -0.003049
# 4 0.000629 0.002438 0.000299 0.023817 0.003606 -0.000601
# 5 0.000859 -0.002640 0.008354 0.003606 0.034461 -0.006740
# 6 0.006699 0.000013 -0.003049 -0.000601 -0.006740 0.028260
#
#
# Mechanical properties :
#
#
# Convention : Reuss Voigt Hill
#
# Bulk Modulus (GPa) = 46.87707 58.72588 52.80148
# Shear Modulus (GPa) = 30.95195 38.97630 34.96412
#
# Velocity S-wave (km/s) = 3.79272 4.25605 4.03105
# Velocity P-wave (km/s) = 6.40042 7.17247 6.79742
#
# Compressibility (1/GPa) = 0.02133239
#
# Stress axis : x y z
#
# Youngs Moduli (GPa) = 70.62582 96.43408 49.79313
#
# Poissons Ratio (x) = 0.32680 0.38934
# Poissons Ratio (y) = 0.23934 0.02150
# Poissons Ratio (z) = 0.55224 0.04164
#
# Static dielectric constant tensor:
#      x y z
#    x 1.782970 -0.010030 0.004670 
#    y -0.010030 1.799260 0.014350 
#    z 0.004670 0.014350 1.804590 
# 
# From -- ./inp_files/182021.got.cif
#   From: 2010.05.17/outbox.cif.g08.bks.cpg/sg2_92_cif.got.tgz:182021.got - 2010.06.03 11:33:40.
