data_PCOD9043936
_publ_section_title
;
Structure prediction by ZEFSAII (Michael W. Deem and Ramdas Pophale) SiO2 
 PCOD9043936
Probable space group: P -1
;
_chemical_formula_sum "Si O2"
_cell_formula_units_Z 13
_cell_length_a 14.553640
_cell_length_b 7.983022
_cell_length_c 9.233143
_cell_angle_alpha 128.619954
_cell_angle_beta 135.209021
_cell_angle_gamma 49.521164
_cell_volume 547.473102
_symmetry_space_group_name_H-M "P -1"
_symmetry_group_IT_number 2
_symmetry_cell_setting 'triclinic'
loop_
_space_group_symop_operation_xyz
x,y,z
-x,-y,-z
loop_
_atom_site_type_symbol
_atom_site_label
_atom_site_fract_x
_atom_site_fract_y
_atom_site_fract_z
Si Si1 0.064036 0.757087 0.523146
Si Si2 0.413161 0.339509 0.349297
Si Si3 0.162983 0.942286 0.987964
Si Si4 0.775946 0.851209 0.393035
Si Si5 0.724072 0.705413 0.571591
Si Si6 0.500000 0.000000 0.000000
Si Si7 0.157292 0.735419 0.175919
O O1 0.176421 0.795180 0.779584
O O2 0.144946 0.538737 0.396882
O O3 0.936538 0.720984 0.446892
O O4 0.000000 0.000000 0.500000
O O5 0.500000 0.500000 0.500000
O O6 0.408342 0.314275 0.504253
O O7 0.252637 0.481546 0.195042
O O8 0.476092 0.113916 0.200101
O O9 0.169427 0.775707 0.040202
O O10 0.008552 0.147803 0.918007
O O11 0.260891 0.079662 0.210750
O O12 0.733067 0.748199 0.433999
O O13 0.779986 0.096355 0.580295
O O14 0.668008 0.877135 0.158307
#
# Coordination Sequence:
#
# PCOD9043936 Si02
#       7
#     2   2   2   2   2   1   2
#     4  11  24  40  71 105 141 166 220 284 341 401
#     4  12  27  46  66  95 137 184 229 276 329 393
#     4   9  21  39  67 102 128 169 212 277 348 390
#     4  10  23  46  67 103 137 173 228 274 331 408
#     4  11  25  43  72  99 135 176 224 281 342 396
#     4  12  28  44  72  92 136 188 232 274 324 398
#     4   9  19  43  67  92 138 168 216 280 332 397
#
# _framework density 23.745459
#
# number of rings (size 3 to 8) (size 9 to 14) (size 15 to 20)
#    0.000    1.538    1.538    3.231    6.462    1.846 
#    0.000    0.769    0.000    0.000    0.000    0.000 
#    0.000    0.000    0.000    0.000    0.000    0.000 
#
# Total GULP energy -72391.767240 kJ/mol
# GULP energy per Si atom -5568.597480 kJ/mol
# Density = 2.369141 g / cm^3
# Si number density = 23.745459 Si / 1000 Ang^3
#
#
#
# Elastic Constant Matrix: (Units=GPa)
#
#
# Indices 1 2 3 4 5 6 
#
# 1 139.9258 17.7410 33.7964 17.1048 -17.1380 -0.2857
# 2 17.7410 77.1850 2.6222 3.0028 -9.6984 -14.3533
# 3 33.7964 2.6222 91.1341 -6.9136 -10.2306 3.8541
# 4 17.1048 3.0028 -6.9136 26.4848 -10.8553 -6.2337
# 5 -17.1380 -9.6984 -10.2306 -10.8553 28.9367 9.9950
# 6 -0.2857 -14.3533 3.8541 -6.2337 9.9950 26.8657
#
#
#
# Elastic Compliance Matrix: (Units=1/GPa)
#
#
# Indices 1 2 3 4 5 6 
#
# 1 0.009299 -0.002014 -0.003530 -0.006486 0.002105 -0.002758
# 2 -0.002014 0.015019 0.000429 0.002441 0.002260 0.007666
# 3 -0.003530 0.000429 0.013739 0.008015 0.006758 -0.002434
# 4 -0.006486 0.002441 0.008015 0.052255 0.017437 0.005723
# 5 0.002105 0.002260 0.006758 0.017437 0.050494 -0.014479
# 6 -0.002758 0.007666 -0.002434 0.005723 -0.014479 0.048352
#
#
# Mechanical properties :
#
#
# Convention : Reuss Voigt Hill
#
# Bulk Modulus (GPa) = 35.93379 46.28488 41.10933
# Shear Modulus (GPa) = 23.96200 33.39648 28.67924
#
# Velocity S-wave (km/s) = 3.18011 3.75432 3.47908
# Velocity P-wave (km/s) = 5.35256 6.19093 5.78695
#
# Compressibility (1/GPa) = 0.02782896
#
# Stress axis : x y z
#
# Youngs Moduli (GPa) = 107.53302 66.58291 72.78523
#
# Poissons Ratio (x) = 0.13408 0.25692
# Poissons Ratio (y) = 0.21655 -0.03125
# Poissons Ratio (z) = 0.37957 -0.02859
#
# Static dielectric constant tensor:
#      x y z
#    x 1.954320 0.034960 0.009560 
#    y 0.034960 1.934700 -0.050070 
#    z 0.009560 -0.050070 1.882500 
# 
# From -- ./inp_files/194992.got.cif
#   From: 2010.05.17/outbox.cif.g08.bks.cpg/sg2_98_cif.got.tgz:194992.got - 2010.06.03 11:33:40.
