data_PCOD9043262
_publ_section_title
;
Structure prediction by ZEFSAII (Michael W. Deem and Ramdas Pophale) SiO2 
 PCOD9043262
Probable space group: P -1
;
_chemical_formula_sum "Si O2"
_cell_formula_units_Z 16
_cell_length_a 10.782565
_cell_length_b 7.012246
_cell_length_c 15.126314
_cell_angle_alpha 49.826544
_cell_angle_beta 80.642811
_cell_angle_gamma 55.905679
_cell_volume 686.955551
_symmetry_space_group_name_H-M "P -1"
_symmetry_group_IT_number 2
_symmetry_cell_setting 'triclinic'
loop_
_space_group_symop_operation_xyz
x,y,z
-x,-y,-z
loop_
_atom_site_type_symbol
_atom_site_label
_atom_site_fract_x
_atom_site_fract_y
_atom_site_fract_z
Si Si1 0.725117 0.388606 0.747609
Si Si2 0.980178 0.699040 0.717492
Si Si3 0.957859 0.905788 0.279675
Si Si4 0.487396 0.264806 0.181503
Si Si5 0.316609 0.494364 0.952993
Si Si6 0.203325 0.379267 0.623862
Si Si7 0.333314 0.692461 0.413853
Si Si8 0.133021 0.259993 0.984224
O O1 0.593910 0.683598 0.730919
O O2 0.651738 0.347502 0.681492
O O3 0.874668 0.361834 0.702066
O O4 0.799933 0.086718 0.892522
O O5 0.074072 0.607445 0.643278
O O6 0.020518 0.893681 0.715019
O O7 0.049562 0.389514 0.860536
O O8 0.791439 0.938291 0.661322
O O9 0.868346 0.777881 0.368655
O O10 0.842856 0.152488 0.143417
O O11 0.550658 0.475818 0.108403
O O12 0.637538 0.905714 0.261372
O O13 0.367493 0.373206 0.082580
O O14 0.275377 0.290580 0.966974
O O15 0.248215 0.546662 0.504507
O O16 0.500000 0.500000 0.500000
O O17 0.000000 0.500000 0.000000
#
# Coordination Sequence:
#
# PCOD9043262 Si02
#       8
#     2   2   2   2   2   2   2   2
#     4  11  24  42  66  99 134 169 221 277 328 392
#     4  10  23  45  70 100 127 176 226 268 330 393
#     4   9  21  43  65  98 127 173 222 269 322 394
#     4  10  24  40  60 101 135 170 215 268 331 398
#     4   9  20  39  58  93 138 167 214 257 328 400
#     4  11  25  44  68  93 134 183 219 268 329 389
#     4  11  26  45  68  99 131 172 226 275 325 394
#     4  11  20  39  69  97 133 171 212 275 334 387
#
# _framework density 23.291170999999999
#
# number of rings (size 3 to 8) (size 9 to 14) (size 15 to 20)
#    0.000    1.750    3.750    0.375    7.000    8.500 
#    0.000    1.250    0.000    0.000    0.000    0.000 
#    0.000    0.000    0.000    0.000    0.000    0.000 
#
# Total GULP energy -89498.936358 kJ/mol
# GULP energy per Si atom -5593.683522 kJ/mol
# Density = 2.323816 g / cm^3
# Si number density = 23.291171 Si / 1000 Ang^3
#
#
#
# Elastic Constant Matrix: (Units=GPa)
#
#
# Indices 1 2 3 4 5 6 
#
# 1 79.7877 16.0619 34.1831 -11.9631 2.4056 -11.0039
# 2 16.0619 96.4948 20.7693 4.3878 19.9742 -14.5172
# 3 34.1831 20.7693 121.6094 -12.4615 15.0829 -6.7343
# 4 -11.9631 4.3878 -12.4615 16.7256 -15.8132 -2.9137
# 5 2.4056 19.9742 15.0829 -15.8132 39.9539 -11.5615
# 6 -11.0039 -14.5172 -6.7343 -2.9137 -11.5615 20.6360
#
#
#
# Elastic Compliance Matrix: (Units=1/GPa)
#
#
# Indices 1 2 3 4 5 6 
#
# 1 0.034515 -0.012598 -0.002603 0.086087 0.054074 0.051143
# 2 -0.012598 0.019300 -0.001899 -0.051708 -0.034546 -0.020416
# 3 -0.002603 -0.001899 0.010028 0.007098 0.000690 0.001937
# 4 0.086087 -0.051708 0.007098 0.391210 0.229430 0.195622
# 5 0.054074 -0.034546 0.000690 0.229430 0.167493 0.130991
# 6 0.051143 -0.020416 0.001937 0.195622 0.130991 0.163010
#
#
# Mechanical properties :
#
#
# Convention : Reuss Voigt Hill
#
# Bulk Modulus (GPa) = 33.73704 48.88007 41.30855
# Shear Modulus (GPa) = 6.02672 30.58827 18.30749
#
# Velocity S-wave (km/s) = 1.61033 3.62788 2.80666
# Velocity P-wave (km/s) = 4.23957 6.21134 5.31764
#
# Compressibility (1/GPa) = 0.02964101
#
# Stress axis : x y z
#
# Youngs Moduli (GPa) = 28.97261 51.81394 99.71878
#
# Poissons Ratio (x) = 0.65278 0.25961
# Poissons Ratio (y) = 0.36501 0.18940
# Poissons Ratio (z) = 0.07543 0.09841
#
# Static dielectric constant tensor:
#      x y z
#    x 1.930030 0.012930 -0.007680 
#    y 0.012930 1.860710 -0.034750 
#    z -0.007680 -0.034750 1.890600 
# 
# From -- ./inp_files/515061.got.cif
#   From: 2010.05.17/outbox.cif.g08.bks.cpg/sg2_258_cif.got.tgz:515061.got - 2010.06.03 11:33:40.
