data_PCOD9043143
_publ_section_title
;
Structure prediction by ZEFSAII (Michael W. Deem and Ramdas Pophale) SiO2 
 PCOD9043143
Probable space group: P -1
;
_chemical_formula_sum "Si O2"
_cell_formula_units_Z 14
_cell_length_a 8.647785
_cell_length_b 5.195711
_cell_length_c 19.306027
_cell_angle_alpha 134.799121
_cell_angle_beta 106.660217
_cell_angle_gamma 62.391342
_cell_volume 544.340212
_symmetry_space_group_name_H-M "P -1"
_symmetry_group_IT_number 2
_symmetry_cell_setting 'triclinic'
loop_
_space_group_symop_operation_xyz
x,y,z
-x,-y,-z
loop_
_atom_site_type_symbol
_atom_site_label
_atom_site_fract_x
_atom_site_fract_y
_atom_site_fract_z
Si Si1 0.449772 0.462836 0.064176
Si Si2 0.292363 0.475587 0.783044
Si Si3 0.921027 0.916387 0.383165
Si Si4 0.052979 0.789624 0.110421
Si Si5 0.497640 0.646964 0.340045
Si Si6 0.121715 0.056655 0.308442
Si Si7 0.652796 0.237291 0.518027
O O1 0.565354 0.613317 0.156871
O O2 0.246618 0.725148 0.098591
O O3 0.500000 0.500000 0.000000
O O4 0.500000 0.000000 0.000000
O O5 0.244050 0.112492 0.685131
O O6 0.372631 0.610308 0.751239
O O7 0.111479 0.807274 0.846185
O O8 0.034092 0.469497 0.335705
O O9 0.830331 0.165253 0.486347
O O10 0.026236 0.073447 0.373058
O O11 0.081186 0.759871 0.192736
O O12 0.000000 0.500000 0.000000
O O13 0.388660 0.575592 0.376194
O O14 0.328122 0.924608 0.325299
O O15 0.623263 0.826552 0.431224
O O16 0.500000 0.500000 0.500000
#
# Coordination Sequence:
#
# PCOD9043143 Si02
#       7
#     2   2   2   2   2   2   2
#     4  12  27  46  72 106 137 186 239 290 350 419
#     4  10  23  48  69 102 144 187 234 291 351 418
#     4  10  26  43  71  99 142 181 231 294 349 412
#     4  11  24  45  74 104 145 186 234 290 349 414
#     4  10  23  45  69 100 141 185 234 291 349 424
#     4  11  25  46  69 107 136 185 237 287 350 416
#     4  10  24  43  70  99 138 190 231 290 360 414
#
# _framework density 25.719207999999998
#
# number of rings (size 3 to 8) (size 9 to 14) (size 15 to 20)
#    0.000    1.429    2.857    0.000   12.000    4.000 
#    2.571    0.000    0.000    0.000    0.000    0.000 
#    0.000    0.000    0.000    0.000    0.000    0.000 
#
# Total GULP energy -78272.451584 kJ/mol
# GULP energy per Si atom -5590.889399 kJ/mol
# Density = 2.566067 g / cm^3
# Si number density = 25.719208 Si / 1000 Ang^3
#
#
#
# Elastic Constant Matrix: (Units=GPa)
#
#
# Indices 1 2 3 4 5 6 
#
# 1 175.7791 53.3298 68.2601 -14.6900 -22.9291 -31.2649
# 2 53.3298 93.7068 36.3288 -14.9249 -19.5156 -8.1217
# 3 68.2601 36.3288 142.2922 -12.8372 -20.5868 -5.4263
# 4 -14.6900 -14.9249 -12.8372 38.0977 -2.1446 -9.6981
# 5 -22.9291 -19.5156 -20.5868 -2.1446 69.3652 -6.4843
# 6 -31.2649 -8.1217 -5.4263 -9.6981 -6.4843 61.6145
#
#
#
# Elastic Compliance Matrix: (Units=1/GPa)
#
#
# Indices 1 2 3 4 5 6 
#
# 1 0.008909 -0.002761 -0.002898 0.002626 0.001810 0.004505
# 2 -0.002761 0.014254 -0.001425 0.004556 0.002944 0.001379
# 3 -0.002898 -0.001425 0.009074 0.001326 0.001327 -0.000511
# 4 0.002626 0.004556 0.001326 0.031632 0.004220 0.007473
# 5 0.001810 0.002944 0.001327 0.004220 0.016727 0.003848
# 6 0.004505 0.001379 -0.000511 0.007473 0.003848 0.020234
#
#
# Mechanical properties :
#
#
# Convention : Reuss Voigt Hill
#
# Bulk Modulus (GPa) = 55.34493 80.84616 68.09555
# Shear Modulus (GPa) = 41.31471 50.73944 46.02708
#
# Velocity S-wave (km/s) = 4.01231 4.44647 4.23496
# Velocity P-wave (km/s) = 6.55976 7.60683 7.10261
#
# Compressibility (1/GPa) = 0.01806850
#
# Stress axis : x y z
#
# Youngs Moduli (GPa) = 112.24612 70.15700 110.20231
#
# Poissons Ratio (x) = 0.19369 0.31940
# Poissons Ratio (y) = 0.30990 0.15704
# Poissons Ratio (z) = 0.32532 0.09998
#
# Static dielectric constant tensor:
#      x y z
#    x 2.082320 0.078090 0.087710 
#    y 0.078090 2.087260 0.073140 
#    z 0.087710 0.073140 2.093860 
# 
# From -- ./inp_files/91138.got.cif
#   From: 2010.05.17/outbox.cif.g08.bks.cpg/sg2_46_cif.got.tgz:91138.got - 2010.06.03 11:33:40.
