data_PCOD9043114
_publ_section_title
;
Structure prediction by ZEFSAII (Michael W. Deem and Ramdas Pophale) SiO2 
 PCOD9043114
Probable space group: P -1
;
_chemical_formula_sum "Si O2"
_cell_formula_units_Z 10
_cell_length_a 9.055302
_cell_length_b 14.627115
_cell_length_c 12.059147
_cell_angle_alpha 19.845381
_cell_angle_beta 82.208051
_cell_angle_gamma 71.971770
_cell_volume 451.834280
_symmetry_space_group_name_H-M "P -1"
_symmetry_group_IT_number 2
_symmetry_cell_setting 'triclinic'
loop_
_space_group_symop_operation_xyz
x,y,z
-x,-y,-z
loop_
_atom_site_type_symbol
_atom_site_label
_atom_site_fract_x
_atom_site_fract_y
_atom_site_fract_z
Si Si1 0.535568 0.769450 0.654085
Si Si2 0.779662 0.826567 0.943222
Si Si3 0.380433 0.366832 0.632377
Si Si4 0.020027 0.791558 0.129910
Si Si5 0.948948 0.360459 0.062390
O O1 0.500000 0.000000 0.500000
O O2 0.395675 0.949887 0.364481
O O3 0.500000 0.500000 0.000000
O O4 0.739644 0.591691 0.800403
O O5 0.938249 0.641129 0.051066
O O6 0.722031 0.639117 0.241730
O O7 0.864745 0.973678 0.847299
O O8 0.500000 0.500000 0.500000
O O9 0.227553 0.604713 0.289031
O O10 0.500000 0.000000 0.000000
O O11 0.000000 0.500000 0.500000
O O12 0.000000 0.000000 0.000000
O O13 0.000000 0.000000 0.500000
O O14 0.000000 0.500000 0.000000
#
# Coordination Sequence:
#
# PCOD9043114 Si02
#       5
#     2   2   2   2   2
#     4  12  25  47  72 107 146 185 243 293 345 437
#     4  11  26  47  77 100 151 193 231 295 376 400
#     4  11  25  46  70 105 137 182 247 295 344 426
#     4  10  23  45  68  98 138 179 237 292 345 423
#     4  12  25  47  71 107 146 189 238 292 352 433
#
# _framework density 22.132009
#
# number of rings (size 3 to 8) (size 9 to 14) (size 15 to 20)
#    0.000    0.800    4.000    2.400    2.800    9.600 
#    3.600    0.000    0.000    0.000    0.000    0.000 
#    0.000    0.000    0.000    0.000    0.000    0.000 
#
# Total GULP energy -55851.320193 kJ/mol
# GULP energy per Si atom -5585.132019 kJ/mol
# Density = 2.208164 g / cm^3
# Si number density = 22.132009 Si / 1000 Ang^3
#
#
#
# Elastic Constant Matrix: (Units=GPa)
#
#
# Indices 1 2 3 4 5 6 
#
# 1 241.4255 89.4788 79.3414 -7.6300 34.2524 9.8011
# 2 89.4788 151.0008 54.9255 -14.3948 -2.7279 4.0767
# 3 79.3414 54.9255 105.8396 -17.5000 20.1108 14.1486
# 4 -7.6300 -14.3948 -17.5000 42.5612 5.5335 -3.1919
# 5 34.2524 -2.7279 20.1108 5.5335 69.9314 0.7330
# 6 9.8011 4.0767 14.1486 -3.1919 0.7330 69.7099
#
#
#
# Elastic Compliance Matrix: (Units=1/GPa)
#
#
# Indices 1 2 3 4 5 6 
#
# 1 0.006529 -0.002865 -0.003065 -0.000762 -0.002366 -0.000138
# 2 -0.002865 0.009637 -0.003235 0.001114 0.002616 0.000519
# 3 -0.003065 -0.003235 0.015158 0.004859 -0.003346 -0.002199
# 4 -0.000762 0.001114 0.004859 0.026152 -0.003053 0.000285
# 5 -0.002366 0.002616 -0.003346 -0.003053 0.016759 0.000543
# 6 -0.000138 0.000519 -0.002199 0.000285 0.000543 0.014788
#
#
# Mechanical properties :
#
#
# Convention : Reuss Voigt Hill
#
# Bulk Modulus (GPa) = 76.97107 105.08414 91.02760
# Shear Modulus (GPa) = 44.76938 54.74185 49.75561
#
# Velocity S-wave (km/s) = 4.50247 4.97875 4.74659
# Velocity P-wave (km/s) = 7.86660 8.97966 8.44149
#
# Compressibility (1/GPa) = 0.01299189
#
# Stress axis : x y z
#
# Youngs Moduli (GPa) = 153.17280 103.76971 65.97294
#
# Poissons Ratio (x) = 0.29735 0.20220
# Poissons Ratio (y) = 0.43891 0.21344
# Poissons Ratio (z) = 0.46945 0.33572
#
# Static dielectric constant tensor:
#      x y z
#    x 1.781110 -0.040690 0.142610 
#    y -0.040690 1.796860 0.047810 
#    z 0.142610 0.047810 1.920870 
# 
# From -- ./inp_files/92376.got.cif
#   From: 2010.05.17/outbox.cif.g08.bks.cpg/sg2_47_cif.got.tgz:92376.got - 2010.06.03 11:33:40.
