data_PCOD9043327
_publ_section_title
;
Structure prediction by ZEFSAII (Michael W. Deem and Ramdas Pophale) SiO2 
 PCOD9043327
Probable space group: P -1
;
_chemical_formula_sum "Si O2"
_cell_formula_units_Z 13
_cell_length_a 10.629974
_cell_length_b 9.012327
_cell_length_c 8.061655
_cell_angle_alpha 122.623975
_cell_angle_beta 129.848088
_cell_angle_gamma 69.946467
_cell_volume 499.386328
_symmetry_space_group_name_H-M "P -1"
_symmetry_group_IT_number 2
_symmetry_cell_setting 'triclinic'
loop_
_space_group_symop_operation_xyz
x,y,z
-x,-y,-z
loop_
_atom_site_type_symbol
_atom_site_label
_atom_site_fract_x
_atom_site_fract_y
_atom_site_fract_z
Si Si1 0.500000 0.500000 0.000000
Si Si2 0.818055 0.541487 0.663706
Si Si3 0.796557 0.562854 0.033682
Si Si4 0.475086 0.909288 0.248289
Si Si5 0.891923 0.861440 0.728730
Si Si6 0.818732 0.235059 0.272399
Si Si7 0.241411 0.032142 0.664421
O O1 0.663215 0.483041 0.998184
O O2 0.542236 0.710032 0.186589
O O3 0.985759 0.502313 0.188055
O O4 0.794524 0.739456 0.700097
O O5 0.735556 0.412992 0.377971
O O6 0.754859 0.511920 0.777556
O O7 0.788225 0.775817 0.167273
O O8 0.567928 0.006209 0.233822
O O9 0.500000 0.000000 0.500000
O O10 0.291653 0.877566 0.012393
O O11 0.815783 0.964031 0.572452
O O12 0.012747 0.727000 0.653167
O O13 0.000000 0.000000 0.000000
O O14 0.840800 0.115195 0.381149
#
# Coordination Sequence:
#
# PCOD9043327 Si02
#       7
#     1   2   2   2   2   2   2
#     4  10  24  46  76 104 144 194 242 304 366 446
#     4  11  25  41  74 106 145 185 247 301 373 427
#     4  10  23  45  70 104 147 188 240 301 370 443
#     4  11  26  46  72 100 148 193 248 297 378 437
#     4  12  25  41  70 103 142 188 242 301 368 434
#     4  12  25  44  71 104 143 188 244 304 369 431
#     4  11  25  45  67 102 143 188 242 305 360 442
#
# _framework density 26.031949000000001
#
# number of rings (size 3 to 8) (size 9 to 14) (size 15 to 20)
#    0.000    0.923    1.538    4.154   10.769    0.000 
#    0.000    1.538    0.000    0.000    0.000    0.000 
#    0.000    0.000    0.000    0.000    0.000    0.000 
#
# Total GULP energy -72573.762776 kJ/mol
# GULP energy per Si atom -5582.597137 kJ/mol
# Density = 2.597270 g / cm^3
# Si number density = 26.031949 Si / 1000 Ang^3
#
#
#
# Elastic Constant Matrix: (Units=GPa)
#
#
# Indices 1 2 3 4 5 6 
#
# 1 117.8218 0.6373 15.5872 -17.0276 -24.5930 16.8161
# 2 0.6373 97.8166 26.1607 -2.5308 -17.3629 19.1794
# 3 15.5872 26.1607 174.6011 -1.6693 -26.5615 9.6396
# 4 -17.0276 -2.5308 -1.6693 40.5431 3.0073 -5.6993
# 5 -24.5930 -17.3629 -26.5615 3.0073 33.5577 -1.3886
# 6 16.8161 19.1794 9.6396 -5.6993 -1.3886 36.6566
#
#
#
# Elastic Compliance Matrix: (Units=1/GPa)
#
#
# Indices 1 2 3 4 5 6 
#
# 1 0.011887 0.002875 0.000392 0.003590 0.009934 -0.006126
# 2 0.002875 0.013352 -0.000575 0.000313 0.008210 -0.007794
# 3 0.000392 -0.000575 0.006650 -0.000189 0.005210 -0.001460
# 4 0.003590 0.000313 -0.000189 0.026491 0.000367 0.002372
# 5 0.009934 0.008210 0.005210 0.000367 0.045068 -0.008458
# 6 -0.006126 -0.007794 -0.001460 0.002372 -0.008458 0.034601
#
#
# Mechanical properties :
#
#
# Convention : Reuss Voigt Hill
#
# Bulk Modulus (GPa) = 26.82993 52.77889 39.80441
# Shear Modulus (GPa) = 34.46196 45.34176 39.90186
#
# Velocity S-wave (km/s) = 3.64240 4.17798 3.91935
# Velocity P-wave (km/s) = 5.29324 6.60248 5.98377
#
# Compressibility (1/GPa) = 0.03727180
#
# Stress axis : x y z
#
# Youngs Moduli (GPa) = 84.12853 74.89622 150.38016
#
# Poissons Ratio (x) = -0.21533 -0.05891
# Poissons Ratio (y) = -0.24187 0.08647
# Poissons Ratio (z) = -0.03296 0.04306
#
# Static dielectric constant tensor:
#      x y z
#    x 2.243400 -0.159890 0.174230 
#    y -0.159890 2.049350 -0.117020 
#    z 0.174230 -0.117020 2.137440 
# 
# From -- ./inp_files/60041.got.cif
#   From: 2010.05.17/outbox.cif.g08.bks.cpg/sg2_31_cif.got.tgz:60041.got - 2010.06.03 11:33:40.
