data_PCOD9043616
_publ_section_title
;
Structure prediction by ZEFSAII (Michael W. Deem and Ramdas Pophale) SiO2 
 PCOD9043616
Probable space group: P -1
;
_chemical_formula_sum "Si O2"
_cell_formula_units_Z 12
_cell_length_a 9.874663
_cell_length_b 8.063952
_cell_length_c 9.452288
_cell_angle_alpha 97.787099
_cell_angle_beta 120.196727
_cell_angle_gamma 43.756571
_cell_volume 415.959271
_symmetry_space_group_name_H-M "P -1"
_symmetry_group_IT_number 2
_symmetry_cell_setting 'triclinic'
loop_
_space_group_symop_operation_xyz
x,y,z
-x,-y,-z
loop_
_atom_site_type_symbol
_atom_site_label
_atom_site_fract_x
_atom_site_fract_y
_atom_site_fract_z
Si Si1 0.435916 0.867774 0.012105
Si Si2 0.908136 0.854613 0.861410
Si Si3 0.307742 0.309382 0.364057
Si Si4 0.274669 0.654708 0.242553
Si Si5 0.175215 0.518289 0.605511
Si Si6 0.278803 0.896951 0.627885
O O1 0.673818 0.597729 0.184164
O O2 0.325373 0.868953 0.816578
O O3 0.248124 0.021417 0.061270
O O4 0.500000 0.000000 0.000000
O O5 0.824887 0.081214 0.751315
O O6 0.993341 0.824178 0.520172
O O7 0.175495 0.682567 0.038918
O O8 0.173713 0.586531 0.275971
O O9 0.144982 0.279824 0.252170
O O10 0.541880 0.116760 0.362316
O O11 0.359252 0.312509 0.552633
O O12 0.566215 0.394246 0.371137
O O13 0.000000 0.500000 0.500000
#
# Coordination Sequence:
#
# PCOD9043616 Si02
#       6
#     2   2   2   2   2   2
#     4  12  23  42  71 111 144 189 246 300 358 439
#     4  11  21  43  75 109 145 192 251 291 370 438
#     4  10  23  45  73 102 147 196 237 306 360 432
#     4   9  23  42  73 109 145 194 240 307 358 434
#     4  12  25  42  75 112 142 190 250 296 365 439
#     4  10  24  46  69 108 147 185 245 299 364 428
#
# _framework density 28.848977999999999
#
# number of rings (size 3 to 8) (size 9 to 14) (size 15 to 20)
#    1.000    0.333    3.333    1.500    2.333    3.333 
#    0.000    1.667    0.000    0.000    0.000    0.000 
#    0.000    0.000    0.000    0.000    0.000    0.000 
#
# Total GULP energy -67203.399680 kJ/mol
# GULP energy per Si atom -5600.283307 kJ/mol
# Density = 2.878332 g / cm^3
# Si number density = 28.848978 Si / 1000 Ang^3
#
#
#
# Elastic Constant Matrix: (Units=GPa)
#
#
# Indices 1 2 3 4 5 6 
#
# 1 99.6965 72.6989 30.5317 1.9842 17.1150 -3.3893
# 2 72.6989 180.7576 84.5144 -40.8568 11.6778 18.5992
# 3 30.5317 84.5144 190.1027 -7.7585 -2.5089 -3.1406
# 4 1.9842 -40.8568 -7.7585 64.8725 -8.7863 11.4005
# 5 17.1150 11.6778 -2.5089 -8.7863 53.1080 7.7670
# 6 -3.3893 18.5992 -3.1406 11.4005 7.7670 70.3575
#
#
#
# Elastic Compliance Matrix: (Units=1/GPa)
#
#
# Indices 1 2 3 4 5 6 
#
# 1 0.018404 -0.010101 0.001201 -0.008573 -0.005898 0.005651
# 2 -0.010101 0.014562 -0.004500 0.010426 0.002517 -0.006504
# 3 0.001201 -0.004500 0.007008 -0.002332 0.000269 0.001909
# 4 -0.008573 0.010426 -0.002332 0.024074 0.005481 -0.007779
# 5 -0.005898 0.002517 0.000269 0.005481 0.021714 -0.004223
# 6 0.005651 -0.006504 0.001909 -0.007779 -0.004223 0.018017
#
#
# Mechanical properties :
#
#
# Convention : Reuss Voigt Hill
#
# Bulk Modulus (GPa) = 75.91785 94.00522 84.96153
# Shear Modulus (GPa) = 37.04467 56.52171 46.78319
#
# Velocity S-wave (km/s) = 3.58731 4.43112 4.03135
# Velocity P-wave (km/s) = 6.59781 7.67045 7.15426
#
# Compressibility (1/GPa) = 0.01317213
#
# Stress axis : x y z
#
# Youngs Moduli (GPa) = 54.33614 68.66954 142.69073
#
# Poissons Ratio (x) = 0.69366 -0.17132
# Poissons Ratio (y) = 0.54887 0.64217
# Poissons Ratio (z) = -0.06524 0.30904
#
# Static dielectric constant tensor:
#      x y z
#    x 2.339440 -0.005810 -0.004380 
#    y -0.005810 2.271760 -0.077310 
#    z -0.004380 -0.077310 2.271090 
# 
# From -- ./inp_files/235638.got.cif
#   From: 2010.05.17/outbox.cif.g08.bks.cpg/sg2_118_cif.got.tgz:235638.got - 2010.06.03 11:33:40.
