data_PCOD9043566
_publ_section_title
;
Structure prediction by ZEFSAII (Michael W. Deem and Ramdas Pophale) SiO2 
 PCOD9043566
Probable space group: P -1
;
_chemical_formula_sum "Si O2"
_cell_formula_units_Z 13
_cell_length_a 9.509908
_cell_length_b 15.103045
_cell_length_c 11.237720
_cell_angle_alpha 31.621088
_cell_angle_beta 122.980383
_cell_angle_gamma 140.892086
_cell_volume 499.642149
_symmetry_space_group_name_H-M "P -1"
_symmetry_group_IT_number 2
_symmetry_cell_setting 'triclinic'
loop_
_space_group_symop_operation_xyz
x,y,z
-x,-y,-z
loop_
_atom_site_type_symbol
_atom_site_label
_atom_site_fract_x
_atom_site_fract_y
_atom_site_fract_z
Si Si1 0.621252 0.762583 0.391384
Si Si2 0.500000 0.000000 0.000000
Si Si3 0.201093 0.748716 0.369885
Si Si4 0.480591 0.611141 0.047285
Si Si5 0.600455 0.071943 0.330637
Si Si6 0.980231 0.075128 0.777302
Si Si7 0.011866 0.816777 0.758919
O O1 0.418237 0.740977 0.277937
O O2 0.537413 0.562651 0.675588
O O3 0.781553 0.777678 0.354659
O O4 0.799183 0.040823 0.208890
O O5 0.333114 0.939334 0.105788
O O6 0.089214 0.786376 0.377459
O O7 0.000000 0.500000 0.500000
O O8 0.422526 0.824834 0.456016
O O9 0.258183 0.434347 0.056518
O O10 0.422932 0.749702 0.924623
O O11 0.754105 0.831155 0.882265
O O12 0.863341 0.197984 0.273694
O O13 0.500000 0.000000 0.500000
O O14 0.000000 0.000000 0.000000
O O15 0.000000 0.000000 0.500000
#
# Coordination Sequence:
#
# PCOD9043566 Si02
#       7
#     2   1   2   2   2   2   2
#     4  11  25  47  74 105 153 188 245 305 369 443
#     4  12  24  46  74 108 146 192 246 300 356 458
#     4  11  27  46  73 107 147 193 246 304 375 433
#     4  10  26  45  74 104 143 195 241 301 377 425
#     4  11  25  49  74 110 149 191 258 308 364 450
#     4  11  25  46  67 108 143 188 247 297 361 447
#     4  10  23  45  72 105 146 190 244 301 373 438
#
# _framework density 26.018621
#
# number of rings (size 3 to 8) (size 9 to 14) (size 15 to 20)
#    0.000    1.231    3.077    0.462   10.769    4.923 
#    2.769    0.000    0.000    0.000    0.000    0.000 
#    0.000    0.000    0.000    0.000    0.000    0.000 
#
# Total GULP energy -72419.211267 kJ/mol
# GULP energy per Si atom -5570.708559 kJ/mol
# Density = 2.595940 g / cm^3
# Si number density = 26.018621 Si / 1000 Ang^3
#
#
#
# Elastic Constant Matrix: (Units=GPa)
#
#
# Indices 1 2 3 4 5 6 
#
# 1 151.1272 0.3648 34.2336 2.7421 7.6294 -3.2552
# 2 0.3648 101.5776 26.6226 -39.1993 -23.4677 -15.2584
# 3 34.2336 26.6226 95.2074 -6.3036 8.2324 -1.5488
# 4 2.7421 -39.1993 -6.3036 42.6888 0.6741 -6.1238
# 5 7.6294 -23.4677 8.2324 0.6741 40.0236 1.6139
# 6 -3.2552 -15.2584 -1.5488 -6.1238 1.6139 34.4246
#
#
#
# Elastic Compliance Matrix: (Units=1/GPa)
#
#
# Indices 1 2 3 4 5 6 
#
# 1 0.007285 0.000671 -0.002762 -0.000129 -0.000460 0.000861
# 2 0.000671 0.029048 -0.007766 0.027603 0.017364 0.016686
# 3 -0.002762 -0.007766 0.013827 -0.005341 -0.006631 -0.003721
# 4 -0.000129 0.027603 -0.005341 0.050651 0.015638 0.020259
# 5 -0.000460 0.017364 -0.006631 0.015638 0.036014 0.008448
# 6 0.000861 0.016686 -0.003721 0.020259 0.008448 0.039567
#
#
# Mechanical properties :
#
#
# Convention : Reuss Voigt Hill
#
# Bulk Modulus (GPa) = 32.84490 52.26155 42.55322
# Shear Modulus (GPa) = 24.24182 42.54015 33.39099
#
# Velocity S-wave (km/s) = 3.05570 4.04789 3.58627
# Velocity P-wave (km/s) = 5.01007 6.47897 5.79128
#
# Compressibility (1/GPa) = 0.03044613
#
# Stress axis : x y z
#
# Youngs Moduli (GPa) = 137.26766 34.42578 72.32018
#
# Poissons Ratio (x) = -0.02310 0.19974
# Poissons Ratio (y) = -0.09212 0.56166
# Poissons Ratio (z) = 0.37912 0.26736
#
# Static dielectric constant tensor:
#      x y z
#    x 2.320060 0.394870 0.044570 
#    y 0.394870 2.861940 0.029740 
#    z 0.044570 0.029740 2.104520 
# 
# From -- ./inp_files/398290.got.cif
#   From: 2010.05.17/outbox.cif.g08.bks.cpg/sg2_200_cif.got.tgz:398290.got - 2010.06.03 11:33:40.
