data_PCOD9043333
_publ_section_title
;
Structure prediction by ZEFSAII (Michael W. Deem and Ramdas Pophale) SiO2 
 PCOD9043333
Probable space group: P -1
;
_chemical_formula_sum "Si O2"
_cell_formula_units_Z 12
_cell_length_a 9.701392
_cell_length_b 17.680122
_cell_length_c 5.009022
_cell_angle_alpha 73.864476
_cell_angle_beta 89.586210
_cell_angle_gamma 140.712066
_cell_volume 486.446309
_symmetry_space_group_name_H-M "P -1"
_symmetry_group_IT_number 2
_symmetry_cell_setting 'triclinic'
loop_
_space_group_symop_operation_xyz
x,y,z
-x,-y,-z
loop_
_atom_site_type_symbol
_atom_site_label
_atom_site_fract_x
_atom_site_fract_y
_atom_site_fract_z
Si Si1 0.145802 0.357256 0.032228
Si Si2 0.530450 0.616928 0.151871
Si Si3 0.466311 0.226626 0.262837
Si Si4 0.283699 0.892419 0.399286
Si Si5 0.834730 0.476564 0.349014
Si Si6 0.438440 0.107464 0.861896
O O1 0.336586 0.482926 0.107166
O O2 0.953548 0.220575 0.326177
O O3 0.276732 0.360451 0.819383
O O4 0.038441 0.385949 0.880029
O O5 0.391445 0.593793 0.416734
O O6 0.642553 0.740015 0.857309
O O7 0.721617 0.371494 0.221917
O O8 0.352908 0.123638 0.604971
O O9 0.480232 0.180083 0.046851
O O10 0.334927 0.833281 0.312683
O O11 0.500000 0.000000 0.500000
O O12 0.286628 0.964098 0.114199
O O13 0.000000 0.500000 0.500000
#
# Coordination Sequence:
#
# PCOD9043333 Si02
#       6
#     2   2   2   2   2   2
#     4  10  25  45  68 104 148 190 236 288 361 430
#     4  10  23  45  70 105 145 191 230 295 359 429
#     4  11  23  44  73  99 144 181 236 298 354 412
#     4  11  25  42  72 103 142 192 235 295 356 416
#     4  11  25  39  75 110 142 186 237 302 357 414
#     4  11  24  44  71 102 141 180 238 300 341 422
#
# _framework density 24.668706
#
# number of rings (size 3 to 8) (size 9 to 14) (size 15 to 20)
#    0.000    1.333    3.333    0.500    7.000    2.667 
#    0.000    4.167    0.000    0.000    0.000    0.000 
#    0.000    0.000    0.000    0.000    0.000    0.000 
#
# Total GULP energy -67190.013463 kJ/mol
# GULP energy per Si atom -5599.167789 kJ/mol
# Density = 2.461256 g / cm^3
# Si number density = 24.668706 Si / 1000 Ang^3
#
#
#
# Elastic Constant Matrix: (Units=GPa)
#
#
# Indices 1 2 3 4 5 6 
#
# 1 124.5308 39.8188 44.0471 2.2805 2.0174 -21.4117
# 2 39.8188 61.3749 21.9895 26.3249 -4.2748 -25.3121
# 3 44.0471 21.9895 128.3247 2.7670 5.0122 -9.7661
# 4 2.2805 26.3249 2.7670 44.0916 -9.7013 -5.5878
# 5 2.0174 -4.2748 5.0122 -9.7013 47.4599 3.4434
# 6 -21.4117 -25.3121 -9.7661 -5.5878 3.4434 18.4999
#
#
#
# Elastic Compliance Matrix: (Units=1/GPa)
#
#
# Indices 1 2 3 4 5 6 
#
# 1 0.011770 -0.006542 -0.002647 0.003966 -0.000328 0.004533
# 2 -0.006542 0.060521 -0.002286 -0.028260 -0.004620 0.066351
# 3 -0.002647 -0.002286 0.009030 0.000612 -0.000843 -0.001082
# 4 0.003966 -0.028260 0.000612 0.037785 0.006656 -0.023578
# 5 -0.000328 -0.004620 -0.000843 0.006656 0.022798 -0.009380
# 6 0.004533 0.066351 -0.001082 -0.023578 -0.009380 0.144138
#
#
# Mechanical properties :
#
#
# Convention : Reuss Voigt Hill
#
# Bulk Modulus (GPa) = 17.13153 58.43792 37.78472
# Shear Modulus (GPa) = 15.22305 35.90197 25.56251
#
# Velocity S-wave (km/s) = 2.48684 3.81906 3.22255
# Velocity P-wave (km/s) = 3.89943 6.57172 5.40338
#
# Compressibility (1/GPa) = 0.05837191
#
# Stress axis : x y z
#
# Youngs Moduli (GPa) = 84.95918 16.52331 110.73815
#
# Poissons Ratio (x) = 0.10810 0.29310
# Poissons Ratio (y) = 0.55583 0.25311
# Poissons Ratio (z) = 0.22487 0.03777
#
# Static dielectric constant tensor:
#      x y z
#    x 1.959370 -0.000920 0.022780 
#    y -0.000920 1.954800 -0.000590 
#    z 0.022780 -0.000590 2.015530 
# 
# From -- ./inp_files/47099.got.cif
#   From: 2010.05.17/outbox.cif.g08.bks.cpg/sg2_24_cif.got.tgz:47099.got - 2010.06.03 11:33:40.
