data_PCOD9043690
_publ_section_title
;
Structure prediction by ZEFSAII (Michael W. Deem and Ramdas Pophale) SiO2 
 PCOD9043690
Probable space group: P -1
;
_chemical_formula_sum "Si O2"
_cell_formula_units_Z 14
_cell_length_a 5.546344
_cell_length_b 9.205327
_cell_length_c 12.294543
_cell_angle_alpha 76.267139
_cell_angle_beta 79.196703
_cell_angle_gamma 84.931226
_cell_volume 598.324733
_symmetry_space_group_name_H-M "P -1"
_symmetry_group_IT_number 2
_symmetry_cell_setting 'triclinic'
loop_
_space_group_symop_operation_xyz
x,y,z
-x,-y,-z
loop_
_atom_site_type_symbol
_atom_site_label
_atom_site_fract_x
_atom_site_fract_y
_atom_site_fract_z
Si Si1 0.024373 0.177467 0.841595
Si Si2 0.843665 0.112434 0.641306
Si Si3 0.308954 0.127984 0.450250
Si Si4 0.625090 0.356124 0.461488
Si Si5 0.650964 0.082552 0.064932
Si Si6 0.519276 0.610404 0.875651
Si Si7 0.073584 0.527462 0.767834
O O1 0.101787 0.346696 0.793118
O O2 0.850152 0.139881 0.762592
O O3 0.241782 0.049633 0.843262
O O4 0.879168 0.156497 0.970280
O O5 0.669481 0.234995 0.573924
O O6 0.103036 0.143424 0.557170
O O7 0.794669 0.944200 0.637210
O O8 0.448631 0.278757 0.404113
O O9 0.500000 0.000000 0.500000
O O10 0.500000 0.500000 0.500000
O O11 0.862447 0.401172 0.366802
O O12 0.505813 0.217744 0.112687
O O13 0.500000 0.000000 0.000000
O O14 0.282338 0.579544 0.825207
O O15 0.792908 0.572308 0.813575
O O16 0.500000 0.500000 0.000000
#
# Coordination Sequence:
#
# PCOD9043690 Si02
#       7
#     2   2   2   2   2   2   2
#     4  11  26  46  74 109 144 202 249 317 386 454
#     4  10  23  45  74 101 150 190 251 307 374 455
#     4   9  21  43  66 100 144 189 240 302 365 444
#     4  11  26  44  73 110 152 197 254 308 379 460
#     4  11  27  48  75 107 149 191 262 315 386 457
#     4  12  27  51  80 109 154 201 258 324 385 458
#     4  12  29  48  79 113 154 204 255 315 398 453
#
# _framework density 23.398662999999999
#
# number of rings (size 3 to 8) (size 9 to 14) (size 15 to 20)
#    0.000    1.143    1.429    2.143    8.000    8.000 
#    0.000    0.000    0.000    0.000    0.000    0.000 
#    0.000    0.000    0.000    0.000    0.000    0.000 
#
# Total GULP energy -78383.730253 kJ/mol
# GULP energy per Si atom -5598.837875 kJ/mol
# Density = 2.334541 g / cm^3
# Si number density = 23.398663 Si / 1000 Ang^3
#
#
#
# Elastic Constant Matrix: (Units=GPa)
#
#
# Indices 1 2 3 4 5 6 
#
# 1 109.0572 52.0306 34.9925 2.3584 -2.8308 -3.3822
# 2 52.0306 169.6844 46.0310 -2.4095 -13.2131 -3.9589
# 3 34.9925 46.0310 97.4348 -3.8140 1.9647 -3.0149
# 4 2.3584 -2.4095 -3.8140 26.0383 -7.0519 -2.9584
# 5 -2.8308 -13.2131 1.9647 -7.0519 40.3518 -4.1925
# 6 -3.3822 -3.9589 -3.0149 -2.9584 -4.1925 40.1964
#
#
#
# Elastic Compliance Matrix: (Units=1/GPa)
#
#
# Indices 1 2 3 4 5 6 
#
# 1 0.011450 -0.002772 -0.002856 -0.001739 -0.000236 0.000324
# 2 -0.002772 0.007709 -0.002625 0.001415 0.002780 0.000723
# 3 -0.002856 -0.002625 0.012630 0.001545 -0.001361 0.000420
# 4 -0.001739 0.001415 0.001545 0.041523 0.007938 0.003993
# 5 -0.000236 0.002780 -0.001361 0.007938 0.027504 0.003605
# 6 0.000324 0.000723 0.000420 0.003993 0.003605 0.025678
#
#
# Mechanical properties :
#
#
# Convention : Reuss Voigt Hill
#
# Bulk Modulus (GPa) = 65.42896 71.36492 68.39694
# Shear Modulus (GPa) = 33.76289 37.52546 35.64418
#
# Velocity S-wave (km/s) = 3.80273 4.00902 3.90724
# Velocity P-wave (km/s) = 6.87782 7.21079 7.04627
#
# Compressibility (1/GPa) = 0.01528375
#
# Stress axis : x y z
#
# Youngs Moduli (GPa) = 87.33852 129.72548 79.17758
#
# Poissons Ratio (x) = 0.35954 0.22613
# Poissons Ratio (y) = 0.24206 0.20781
# Poissons Ratio (z) = 0.24943 0.34049
#
# Static dielectric constant tensor:
#      x y z
#    x 1.945140 0.007890 0.016060 
#    y 0.007890 1.849860 -0.026490 
#    z 0.016060 -0.026490 1.865800 
# 
# From -- ./inp_files/360623.got.cif
#   From: 2010.05.17/outbox.cif.g08.bks.cpg/sg2_181_cif.got.tgz:360623.got - 2010.06.03 11:33:40.
