data_PCOD9043372
_publ_section_title
;
Structure prediction by ZEFSAII (Michael W. Deem and Ramdas Pophale) SiO2 
 PCOD9043372
Probable space group: P -1
;
_chemical_formula_sum "Si O2"
_cell_formula_units_Z 16
_cell_length_a 9.303949
_cell_length_b 15.982654
_cell_length_c 5.034966
_cell_angle_alpha 79.856779
_cell_angle_beta 86.245711
_cell_angle_gamma 69.239900
_cell_volume 689.151024
_symmetry_space_group_name_H-M "P -1"
_symmetry_group_IT_number 2
_symmetry_cell_setting 'triclinic'
loop_
_space_group_symop_operation_xyz
x,y,z
-x,-y,-z
loop_
_atom_site_type_symbol
_atom_site_label
_atom_site_fract_x
_atom_site_fract_y
_atom_site_fract_z
Si Si1 0.666115 0.779993 0.046680
Si Si2 0.247601 0.686009 0.984775
Si Si3 0.326883 0.858357 0.923037
Si Si4 0.189068 0.414668 0.707652
Si Si5 0.034377 0.220711 0.727819
Si Si6 0.100710 0.348107 0.257071
Si Si7 0.327298 0.564183 0.543516
Si Si8 0.874871 0.085605 0.601274
O O1 0.499457 0.851351 0.971584
O O2 0.672420 0.684029 0.233394
O O3 0.788976 0.811380 0.178525
O O4 0.749375 0.739920 0.781209
O O5 0.328420 0.756188 0.026141
O O6 0.274477 0.608059 0.240508
O O7 0.067231 0.745427 0.011962
O O8 0.309331 0.641527 0.721700
O O9 0.206975 0.924326 0.108189
O O10 0.260153 0.878538 0.622253
O O11 0.134268 0.418135 0.412275
O O12 0.238189 0.500173 0.703397
O O13 0.073068 0.397136 0.947470
O O14 0.006344 0.304574 0.481199
O O15 0.967342 0.152033 0.631231
O O16 0.500000 0.500000 0.500000
O O17 0.000000 0.000000 0.500000
#
# Coordination Sequence:
#
# PCOD9043372 Si02
#       8
#     2   2   2   2   2   2   2   2
#     4   9  22  39  70  93 131 174 234 261 327 380
#     4  11  25  39  65  96 127 178 231 274 335 396
#     4  11  24  43  71 100 130 173 231 270 322 411
#     4   9  20  36  57  91 127 173 225 278 329 363
#     4  10  23  45  70  96 133 176 224 273 334 413
#     4   9  20  36  64  86 127 172 226 260 331 379
#     4  12  24  38  60  90 137 179 227 284 337 379
#     4  11  26  46  71 102 140 169 207 274 347 398
#
# _framework density 23.21697
#
# number of rings (size 3 to 8) (size 9 to 14) (size 15 to 20)
#    0.750    1.000    0.000    3.750   10.500    0.000 
#    0.000   10.000    0.000    0.000    0.000    0.000 
#    0.000    0.000    0.000    0.000    0.000    0.000 
#
# Total GULP energy -89268.751370 kJ/mol
# GULP energy per Si atom -5579.296961 kJ/mol
# Density = 2.316413 g / cm^3
# Si number density = 23.216970 Si / 1000 Ang^3
#
#
#
# Elastic Constant Matrix: (Units=GPa)
#
#
# Indices 1 2 3 4 5 6 
#
# 1 90.8393 16.9382 25.7902 0.0098 18.7469 -24.9653
# 2 16.9382 53.0263 13.0922 23.8219 10.3941 -15.6879
# 3 25.7902 13.0922 128.6087 23.5983 10.2688 -4.5949
# 4 0.0098 23.8219 23.5983 34.7855 -4.1612 -0.3412
# 5 18.7469 10.3941 10.2688 -4.1612 31.1401 -3.6867
# 6 -24.9653 -15.6879 -4.5949 -0.3412 -3.6867 22.1140
#
#
#
# Elastic Compliance Matrix: (Units=1/GPa)
#
#
# Indices 1 2 3 4 5 6 
#
# 1 0.018977 0.003783 -0.002274 -0.001986 -0.009598 0.022004
# 2 0.003783 0.048133 0.004210 -0.037941 -0.020626 0.035267
# 3 -0.002274 0.004210 0.010108 -0.010269 -0.004552 0.001603
# 4 -0.001986 -0.037941 -0.010269 0.064150 0.022678 -0.026521
# 5 -0.009598 -0.020626 -0.004552 0.022678 0.047152 -0.018203
# 6 0.022004 0.035267 0.001603 -0.026521 -0.018203 0.091970
#
#
# Mechanical properties :
#
#
# Convention : Reuss Voigt Hill
#
# Bulk Modulus (GPa) = 11.27948 42.67949 26.97949
# Shear Modulus (GPa) = 16.74466 32.05150 24.39808
#
# Velocity S-wave (km/s) = 2.68848 3.71957 3.24523
# Velocity P-wave (km/s) = 3.80868 6.07204 5.06832
#
# Compressibility (1/GPa) = 0.08865653
#
# Stress axis : x y z
#
# Youngs Moduli (GPa) = 52.69561 20.77588 98.93388
#
# Poissons Ratio (x) = -0.07860 0.22495
# Poissons Ratio (y) = -0.19935 -0.41654
# Poissons Ratio (z) = 0.11982 -0.08747
#
# Static dielectric constant tensor:
#      x y z
#    x 1.970170 -0.050160 0.023560 
#    y -0.050160 1.895790 -0.010510 
#    z 0.023560 -0.010510 1.870620 
# 
# From -- ./inp_files/44639.got.cif
#   From: 2010.05.17/outbox.cif.g08.bks.cpg/sg2_23_cif.got.tgz:44639.got - 2010.06.03 11:33:40.
