data_PCOD9043993
_publ_section_title
;
Structure prediction by ZEFSAII (Michael W. Deem and Ramdas Pophale) SiO2 
 PCOD9043993
Probable space group: P -1
;
_chemical_formula_sum "Si O2"
_cell_formula_units_Z 16
_cell_length_a 11.021987
_cell_length_b 14.109840
_cell_length_c 11.299619
_cell_angle_alpha 123.472634
_cell_angle_beta 99.176570
_cell_angle_gamma 130.542917
_cell_volume 642.078152
_symmetry_space_group_name_H-M "P -1"
_symmetry_group_IT_number 2
_symmetry_cell_setting 'triclinic'
loop_
_space_group_symop_operation_xyz
x,y,z
-x,-y,-z
loop_
_atom_site_type_symbol
_atom_site_label
_atom_site_fract_x
_atom_site_fract_y
_atom_site_fract_z
Si Si1 0.040678 0.179081 0.444149
Si Si2 0.351905 0.842302 0.715051
Si Si3 0.935862 0.235753 0.038187
Si Si4 0.068038 0.105241 0.951594
Si Si5 0.882458 0.588335 0.560521
Si Si6 0.783508 0.169807 0.550555
Si Si7 0.466002 0.408107 0.807795
Si Si8 0.742281 0.403755 0.884435
O O1 0.922064 0.999317 0.200307
O O2 0.880967 0.137848 0.471037
O O3 0.827083 0.801199 0.433523
O O4 0.235042 0.422682 0.561579
O O5 0.204829 0.828473 0.742440
O O6 0.256746 0.649145 0.631370
O O7 0.678183 0.102032 0.938670
O O8 0.245122 0.758377 0.505500
O O9 0.856295 0.038772 0.854871
O O10 0.086456 0.427246 0.089903
O O11 0.119718 0.371945 0.278434
O O12 0.336452 0.391551 0.133915
O O13 0.000000 0.000000 0.000000
O O14 0.971538 0.598997 0.159234
O O15 0.470716 0.877767 0.342456
O O16 0.500000 0.500000 0.000000
O O17 0.537176 0.340730 0.808536
#
# Coordination Sequence:
#
# PCOD9043993 Si02
#       8
#     2   2   2   2   2   2   2   2
#     4  11  24  43  77 101 149 191 246 305 370 446
#     4  10  25  45  76  97 142 186 253 302 368 436
#     4  11  25  44  69 101 149 190 236 309 371 442
#     4  11  25  43  66 110 144 196 241 304 376 447
#     4  10  23  46  68 109 134 191 246 309 367 443
#     4  11  26  49  74 111 142 197 252 304 365 440
#     4  11  24  43  69 103 146 196 246 299 367 445
#     4  11  27  45  72 109 151 191 248 302 373 439
#
# _framework density 24.919086
#
# number of rings (size 3 to 8) (size 9 to 14) (size 15 to 20)
#    0.000    1.250    2.500    1.125    8.750    3.500 
#    4.500    0.000    0.000    0.000    0.000    0.000 
#    0.000    0.000    0.000    0.000    0.000    0.000 
#
# Total GULP energy -89269.048721 kJ/mol
# GULP energy per Si atom -5579.315545 kJ/mol
# Density = 2.486237 g / cm^3
# Si number density = 24.919086 Si / 1000 Ang^3
#
#
#
# Elastic Constant Matrix: (Units=GPa)
#
#
# Indices 1 2 3 4 5 6 
#
# 1 84.8147 22.7090 31.7742 -10.0317 -7.8614 -13.1378
# 2 22.7090 159.6526 66.2357 -14.6747 2.5101 -16.9927
# 3 31.7742 66.2357 92.1138 -14.1138 -6.5305 -12.3032
# 4 -10.0317 -14.6747 -14.1138 28.6716 -5.0814 0.0700
# 5 -7.8614 2.5101 -6.5305 -5.0814 35.5852 -7.1016
# 6 -13.1378 -16.9927 -12.3032 0.0700 -7.1016 41.6558
#
#
#
# Elastic Compliance Matrix: (Units=1/GPa)
#
#
# Indices 1 2 3 4 5 6 
#
# 1 0.014644 0.000240 -0.003743 0.004097 0.003971 0.004281
# 2 0.000240 0.009190 -0.006318 0.001461 -0.001196 0.001752
# 3 -0.003743 -0.006318 0.018062 0.005071 0.004110 0.002269
# 4 0.004097 0.001461 0.005071 0.041059 0.008548 0.004774
# 5 0.003971 -0.001196 0.004110 0.008548 0.032537 0.007511
# 6 0.004281 0.001752 0.002269 0.004774 0.007511 0.028014
#
#
# Mechanical properties :
#
#
# Convention : Reuss Voigt Hill
#
# Bulk Modulus (GPa) = 44.93564 64.22434 54.57999
# Shear Modulus (GPa) = 29.31423 35.57333 32.44378
#
# Velocity S-wave (km/s) = 3.43356 3.78240 3.61219
# Velocity P-wave (km/s) = 5.81299 6.70108 6.27277
#
# Compressibility (1/GPa) = 0.02225405
#
# Stress axis : x y z
#
# Youngs Moduli (GPa) = 68.28657 108.81057 55.36624
#
# Poissons Ratio (x) = -0.02606 0.20721
# Poissons Ratio (y) = -0.01636 0.34980
# Poissons Ratio (z) = 0.25557 0.68746
#
# Static dielectric constant tensor:
#      x y z
#    x 2.057080 0.076870 0.007630 
#    y 0.076870 1.967170 0.019140 
#    z 0.007630 0.019140 2.022380 
# 
# From -- ./inp_files/267449.got.cif
#   From: 2010.05.17/outbox.cif.g08.bks.cpg/sg2_134_cif.got.tgz:267449.got - 2010.06.03 11:33:40.
