data_PCOD9043784
_publ_section_title
;
Structure prediction by ZEFSAII (Michael W. Deem and Ramdas Pophale) SiO2 
 PCOD9043784
Probable space group: P -1
;
_chemical_formula_sum "Si O2"
_cell_formula_units_Z 12
_cell_length_a 13.965337
_cell_length_b 6.941625
_cell_length_c 5.024091
_cell_angle_alpha 108.831237
_cell_angle_beta 105.323318
_cell_angle_gamma 83.199222
_cell_volume 444.295770
_symmetry_space_group_name_H-M "P -1"
_symmetry_group_IT_number 2
_symmetry_cell_setting 'triclinic'
loop_
_space_group_symop_operation_xyz
x,y,z
-x,-y,-z
loop_
_atom_site_type_symbol
_atom_site_label
_atom_site_fract_x
_atom_site_fract_y
_atom_site_fract_z
Si Si1 0.045508 0.076790 0.348422
Si Si2 0.526362 0.860950 0.210051
Si Si3 0.958231 0.420462 0.655387
Si Si4 0.252501 0.477010 0.253472
Si Si5 0.257711 0.088845 0.766201
Si Si6 0.335622 0.657211 0.862731
O O1 0.164036 0.077061 0.497479
O O2 0.028139 0.345624 0.405312
O O3 0.026313 0.844532 0.402821
O O4 0.000000 0.000000 0.000000
O O5 0.644241 0.823133 0.258595
O O6 0.500000 0.000000 0.500000
O O7 0.445911 0.689470 0.065928
O O8 0.500000 0.000000 0.000000
O O9 0.839670 0.435166 0.605432
O O10 0.000000 0.500000 0.000000
O O11 0.341050 0.517570 0.539602
O O12 0.231812 0.247898 0.052654
O O13 0.270571 0.587252 0.034847
O O14 0.289902 0.873522 0.820618
#
# Coordination Sequence:
#
# PCOD9043784 Si02
#       6
#     2   2   2   2   2   2
#     4  12  28  47  74 108 144 198 257 309 378 459
#     4  10  23  45  75 110 152 199 245 316 382 448
#     4  12  25  48  69 101 150 186 250 313 368 442
#     4  12  27  47  79 112 149 206 253 314 388 455
#     4  11  27  50  80 108 157 205 252 314 393 449
#     4  11  26  48  75 115 154 192 262 315 375 461
#
# _framework density 27.009035999999998
#
# number of rings (size 3 to 8) (size 9 to 14) (size 15 to 20)
#    0.000    0.667    1.667    5.000    0.000   13.333 
#    0.000    0.000    0.000    0.000    0.000    0.000 
#    0.000    0.000    0.000    0.000    0.000    0.000 
#
# Total GULP energy -67215.662482 kJ/mol
# GULP energy per Si atom -5601.305207 kJ/mol
# Density = 2.694756 g / cm^3
# Si number density = 27.009036 Si / 1000 Ang^3
#
#
#
# Elastic Constant Matrix: (Units=GPa)
#
#
# Indices 1 2 3 4 5 6 
#
# 1 165.1153 47.6902 87.8515 -14.2102 12.4075 -6.9504
# 2 47.6902 216.6775 66.6155 -0.9999 -16.1436 6.7010
# 3 87.8515 66.6155 226.3377 -2.6819 18.1556 -10.0292
# 4 -14.2102 -0.9999 -2.6819 65.6866 5.7348 -17.9787
# 5 12.4075 -16.1436 18.1556 5.7348 56.9434 -6.1736
# 6 -6.9504 6.7010 -10.0292 -17.9787 -6.1736 48.2477
#
#
#
# Elastic Compliance Matrix: (Units=1/GPa)
#
#
# Indices 1 2 3 4 5 6 
#
# 1 0.008118 -0.001108 -0.002632 0.002130 -0.001306 0.001403
# 2 -0.001108 0.005495 -0.001426 -0.000738 0.002197 -0.001213
# 3 -0.002632 -0.001426 0.006032 0.000040 -0.001663 0.000875
# 4 0.002130 -0.000738 0.000040 0.017683 -0.001731 0.006785
# 5 -0.001306 0.002197 -0.001663 -0.001731 0.019280 0.000983
# 6 0.001403 -0.001213 0.000875 0.006785 0.000983 0.023933
#
#
# Mechanical properties :
#
#
# Convention : Reuss Voigt Hill
#
# Bulk Modulus (GPa) = 107.38976 112.49389 109.94182
# Shear Modulus (GPa) = 53.20374 61.24042 57.22208
#
# Velocity S-wave (km/s) = 4.44311 4.76689 4.60785
# Velocity P-wave (km/s) = 8.13441 8.48755 8.31286
#
# Compressibility (1/GPa) = 0.00931187
#
# Stress axis : x y z
#
# Youngs Moduli (GPa) = 123.18986 181.97545 165.77486
#
# Poissons Ratio (x) = 0.20166 0.43640
# Poissons Ratio (y) = 0.13652 0.23639
# Poissons Ratio (z) = 0.32429 0.25949
#
# Static dielectric constant tensor:
#      x y z
#    x 4.105270 -0.830160 2.301870 
#    y -0.830160 2.793970 -0.874380 
#    z 2.301870 -0.874380 4.542560 
# 
# From -- ./inp_files/89560.got.cif
#   From: 2010.05.17/outbox.cif.g08.bks.cpg/sg2_45_cif.got.tgz:89560.got - 2010.06.03 11:33:40.
