data_PCOD9043207
_publ_section_title
;
Structure prediction by ZEFSAII (Michael W. Deem and Ramdas Pophale) SiO2 
 PCOD9043207
Probable space group: P -1
;
_chemical_formula_sum "Si O2"
_cell_formula_units_Z 16
_cell_length_a 24.302517
_cell_length_b 14.753789
_cell_length_c 7.228475
_cell_angle_alpha 69.056075
_cell_angle_beta 60.936162
_cell_angle_gamma 20.470640
_cell_volume 750.771724
_symmetry_space_group_name_H-M "P -1"
_symmetry_group_IT_number 2
_symmetry_cell_setting 'triclinic'
loop_
_space_group_symop_operation_xyz
x,y,z
-x,-y,-z
loop_
_atom_site_type_symbol
_atom_site_label
_atom_site_fract_x
_atom_site_fract_y
_atom_site_fract_z
Si Si1 0.376639 0.047160 0.212735
Si Si2 0.404527 0.225596 0.605367
Si Si3 0.847104 0.658874 0.954962
Si Si4 0.990803 0.645863 0.558925
Si Si5 0.604180 0.124351 0.212564
Si Si6 0.993818 0.260761 0.155048
Si Si7 0.387654 0.814468 0.279969
Si Si8 0.612531 0.327512 0.132916
O O1 0.334521 0.116343 0.012518
O O2 0.186732 0.358310 0.369434
O O3 0.525371 0.880327 0.219194
O O4 0.410564 0.882562 0.299459
O O5 0.463977 0.245083 0.413087
O O6 0.192290 0.525215 0.719968
O O7 0.500000 0.000000 0.500000
O O8 0.936282 0.614126 0.722452
O O9 0.969912 0.390664 0.974281
O O10 0.785223 0.799026 0.144191
O O11 0.996027 0.709167 0.678946
O O12 0.811355 0.936313 0.535035
O O13 0.604879 0.222314 0.257206
O O14 0.598759 0.170931 0.972858
O O15 0.181641 0.941889 0.038388
O O16 0.525488 0.528248 0.270876
O O17 0.500000 0.500000 0.000000
#
# Coordination Sequence:
#
# PCOD9043207 Si02
#       8
#     2   2   2   2   2   2   2   2
#     4  10  21  36  55  83 127 142 179 241 293 337
#     4  12  23  35  54  89 120 151 180 234 291 337
#     4  10  19  32  55  89 110 150 185 237 290 319
#     4  10  17  33  60  86 114 137 186 251 282 322
#     4   9  18  36  58  85 112 146 189 229 280 334
#     4  12  21  33  59  87 114 144 196 231 273 345
#     4   9  19  38  61  84 108 154 193 232 282 328
#     4  10  19  38  63  83 107 152 199 234 268 336
#
# _framework density 21.311406000000002
#
# number of rings (size 3 to 8) (size 9 to 14) (size 15 to 20)
#    0.000    2.000    6.250    1.875    1.750    0.500 
#    0.000    3.750    0.000    0.000    0.000    0.000 
#    0.000    0.000    0.000    0.000    0.000    0.000 
#
# Total GULP energy -89142.471531 kJ/mol
# GULP energy per Si atom -5571.404471 kJ/mol
# Density = 2.126290 g / cm^3
# Si number density = 21.311406 Si / 1000 Ang^3
#
#
#
# Elastic Constant Matrix: (Units=GPa)
#
#
# Indices 1 2 3 4 5 6 
#
# 1 123.8018 50.8451 21.0558 22.4104 3.7074 -3.4189
# 2 50.8451 116.3260 40.0810 34.1748 3.1187 3.5414
# 3 21.0558 40.0810 55.4880 28.2554 -11.7283 8.3165
# 4 22.4104 34.1748 28.2554 38.0405 -4.8497 5.4556
# 5 3.7074 3.1187 -11.7283 -4.8497 33.6821 9.4015
# 6 -3.4189 3.5414 8.3165 5.4556 9.4015 45.3150
#
#
#
# Elastic Compliance Matrix: (Units=1/GPa)
#
#
# Indices 1 2 3 4 5 6 
#
# 1 0.010234 -0.003364 -0.000586 -0.003104 -0.002005 0.001932
# 2 -0.003364 0.014570 -0.007150 -0.006673 -0.004916 0.001743
# 3 -0.000586 -0.007150 0.035879 -0.017335 0.012563 -0.006590
# 4 -0.003104 -0.006673 -0.017335 0.047719 0.002579 -0.002811
# 5 -0.002005 -0.004916 0.012563 0.002579 0.037976 -0.010262
# 6 0.001932 0.001743 -0.006590 -0.002811 -0.010262 0.025754
#
#
# Mechanical properties :
#
#
# Convention : Reuss Voigt Hill
#
# Bulk Modulus (GPa) = 25.98591 57.73106 41.85848
# Shear Modulus (GPa) = 24.13590 35.64977 29.89283
#
# Velocity S-wave (km/s) = 3.36897 4.09443 3.74928
# Velocity P-wave (km/s) = 5.23002 7.03566 6.19894
#
# Compressibility (1/GPa) = 0.03848240
#
# Stress axis : x y z
#
# Youngs Moduli (GPa) = 97.71161 68.63513 27.87141
#
# Poissons Ratio (x) = 0.23092 0.01634
# Poissons Ratio (y) = 0.32875 0.19927
# Poissons Ratio (z) = 0.05727 0.49072
#
# Static dielectric constant tensor:
#      x y z
#    x 1.827670 -0.019600 0.041210 
#    y -0.019600 1.858300 -0.046530 
#    z 0.041210 -0.046530 1.862570 
# 
# From -- ./inp_files/354542.got.cif
#   From: 2010.05.17/outbox.cif.g08.bks.cpg/sg2_178_cif.got.tgz:354542.got - 2010.06.03 11:33:40.
