data_PCOD9043949
_publ_section_title
;
Structure prediction by ZEFSAII (Michael W. Deem and Ramdas Pophale) SiO2 
 PCOD9043949
Probable space group: P -1
;
_chemical_formula_sum "Si O2"
_cell_formula_units_Z 16
_cell_length_a 12.136297
_cell_length_b 7.002828
_cell_length_c 13.138130
_cell_angle_alpha 86.431770
_cell_angle_beta 126.911122
_cell_angle_gamma 62.948408
_cell_volume 701.410380
_symmetry_space_group_name_H-M "P -1"
_symmetry_group_IT_number 2
_symmetry_cell_setting 'triclinic'
loop_
_space_group_symop_operation_xyz
x,y,z
-x,-y,-z
loop_
_atom_site_type_symbol
_atom_site_label
_atom_site_fract_x
_atom_site_fract_y
_atom_site_fract_z
Si Si1 0.190721 0.757824 0.144530
Si Si2 0.808548 0.452205 0.321529
Si Si3 0.279331 0.100150 0.445101
Si Si4 0.026146 0.609248 0.377915
Si Si5 0.667949 0.776068 0.748597
Si Si6 0.947702 0.022702 0.732648
Si Si7 0.701579 0.262408 0.103474
Si Si8 0.589951 0.139920 0.863997
O O1 0.215048 0.510488 0.161316
O O2 0.189771 0.815256 0.260758
O O3 0.340366 0.737948 0.165917
O O4 0.000000 0.000000 0.000000
O O5 0.945048 0.339373 0.493657
O O6 0.780582 0.273235 0.254980
O O7 0.618134 0.674683 0.249645
O O8 0.877596 0.573748 0.289307
O O9 0.202714 0.352358 0.448462
O O10 0.269869 0.153986 0.317038
O O11 0.471518 0.889541 0.599314
O O12 0.150233 0.034836 0.395404
O O13 0.000023 0.818494 0.289819
O O14 0.655453 0.905956 0.841394
O O15 0.140962 0.775400 0.876431
O O16 0.500000 0.500000 0.000000
O O17 0.663734 0.103570 0.020608
#
# Coordination Sequence:
#
# PCOD9043949 Si02
#       8
#     2   2   2   2   2   2   2   2
#     4  12  26  45  71 106 146 188 234 289 353 434
#     4  10  23  46  70 100 143 186 234 296 348 418
#     4  11  23  43  72 106 144 180 232 298 359 423
#     4  11  23  44  73 102 144 178 238 296 354 421
#     4  11  25  43  72 107 145 185 229 292 364 421
#     4  12  24  44  73 105 138 186 234 294 364 416
#     4  10  23  46  67  93 141 189 235 286 336 414
#     4  11  23  46  69 101 146 184 238 281 348 427
#
# _framework density 22.811181000000001
#
# number of rings (size 3 to 8) (size 9 to 14) (size 15 to 20)
#    0.000    1.000    6.250    0.000    1.750    1.500 
#    9.000    1.250    0.000    0.000    0.000    0.000 
#    0.000    0.000    0.000    0.000    0.000    0.000 
#
# Total GULP energy -89126.075932 kJ/mol
# GULP energy per Si atom -5570.379746 kJ/mol
# Density = 2.275926 g / cm^3
# Si number density = 22.811181 Si / 1000 Ang^3
#
#
#
# Elastic Constant Matrix: (Units=GPa)
#
#
# Indices 1 2 3 4 5 6 
#
# 1 77.5176 18.5292 15.1011 -13.8063 14.6293 0.4643
# 2 18.5292 133.7865 51.6901 19.3042 -22.7139 -15.0930
# 3 15.1011 51.6901 71.7379 11.5125 0.2979 7.7191
# 4 -13.8063 19.3042 11.5125 31.5229 -2.5953 -7.0080
# 5 14.6293 -22.7139 0.2979 -2.5953 26.0536 5.0731
# 6 0.4643 -15.0930 7.7191 -7.0080 5.0731 38.8470
#
#
#
# Elastic Compliance Matrix: (Units=1/GPa)
#
#
# Indices 1 2 3 4 5 6 
#
# 1 0.019947 -0.006340 -0.001764 0.012392 -0.015854 0.001955
# 2 -0.006340 0.016667 -0.010224 -0.006731 0.016522 0.005211
# 3 -0.001764 -0.010224 0.023549 -0.005633 -0.007054 -0.008725
# 4 0.012392 -0.006731 -0.005633 0.044213 -0.009841 0.007617
# 5 -0.015854 0.016522 -0.007054 -0.009841 0.061130 -0.001748
# 6 0.001955 0.005211 -0.008725 0.007617 -0.001748 0.031079
#
#
# Mechanical properties :
#
#
# Convention : Reuss Voigt Hill
#
# Bulk Modulus (GPa) = 42.53862 50.40918 46.47390
# Shear Modulus (GPa) = 20.74030 32.46615 26.60322
#
# Velocity S-wave (km/s) = 3.01859 3.77670 3.41872
# Velocity P-wave (km/s) = 5.55318 6.41595 6.00009
#
# Compressibility (1/GPa) = 0.02350805
#
# Stress axis : x y z
#
# Youngs Moduli (GPa) = 50.13317 59.99888 42.46380
#
# Poissons Ratio (x) = 0.38042 0.07489
# Poissons Ratio (y) = 0.31787 0.43413
# Poissons Ratio (z) = 0.08841 0.61341
#
# Static dielectric constant tensor:
#      x y z
#    x 1.921360 -0.060610 -0.015200 
#    y -0.060610 2.034430 -0.219870 
#    z -0.015200 -0.219870 2.232910 
# 
# From -- ./inp_files/511026.got.cif
#   From: 2010.05.17/outbox.cif.g08.bks.cpg/sg2_256_cif.got.tgz:511026.got - 2010.06.03 11:33:40.
