data_PCOD9043045
_publ_section_title
;
Structure prediction by ZEFSAII (Michael W. Deem and Ramdas Pophale) SiO2 
 PCOD9043045
Probable space group: P -1
;
_chemical_formula_sum "Si O2"
_cell_formula_units_Z 14
_cell_length_a 20.336730
_cell_length_b 14.021891
_cell_length_c 11.856346
_cell_angle_alpha 147.800463
_cell_angle_beta 150.220129
_cell_angle_gamma 22.085933
_cell_volume 615.245187
_symmetry_space_group_name_H-M "P -1"
_symmetry_group_IT_number 2
_symmetry_cell_setting 'triclinic'
loop_
_space_group_symop_operation_xyz
x,y,z
-x,-y,-z
loop_
_atom_site_type_symbol
_atom_site_label
_atom_site_fract_x
_atom_site_fract_y
_atom_site_fract_z
Si Si1 0.376857 0.114913 0.750560
Si Si2 0.296736 0.793348 0.011314
Si Si3 0.694113 0.617054 0.878992
Si Si4 0.019786 0.384037 0.793677
Si Si5 0.173713 0.973127 0.258282
Si Si6 0.875136 0.070719 0.607257
Si Si7 0.363877 0.088069 0.284598
O O1 0.510735 0.033656 0.763377
O O2 0.512765 0.860919 0.780605
O O3 0.191078 0.175680 0.501542
O O4 0.337315 0.330765 0.981567
O O5 0.294626 0.837415 0.186700
O O6 0.279593 0.979696 0.087791
O O7 0.500000 0.500000 0.000000
O O8 0.100535 0.879595 0.779425
O O9 0.771090 0.350118 0.688981
O O10 0.860046 0.599006 0.086515
O O11 0.799066 0.600336 0.645549
O O12 0.125275 0.092064 0.644257
O O13 0.000000 0.500000 0.000000
O O14 0.220928 0.873633 0.358208
O O15 0.000000 0.000000 0.000000
O O16 0.500000 0.000000 0.500000
#
# Coordination Sequence:
#
# PCOD9043045 Si02
#       7
#     2   2   2   2   2   2   2
#     4  11  24  47  72 105 147 187 247 301 356 442
#     4  11  24  43  67 109 143 185 240 294 364 430
#     4  11  25  47  73 106 143 195 242 297 367 431
#     4  12  25  49  72 104 147 191 244 298 368 432
#     4  10  23  45  68 101 145 188 237 290 363 434
#     4  11  25  47  72 103 145 189 239 297 362 436
#     4  12  24  44  72 105 145 188 237 303 362 422
#
# _framework density 22.755155999999999
#
# number of rings (size 3 to 8) (size 9 to 14) (size 15 to 20)
#    0.000    0.857    5.714    0.857    2.000    1.143 
#    5.143    4.286    0.000    0.000    0.000    0.000 
#    0.000    0.000    0.000    0.000    0.000    0.000 
#
# Total GULP energy -78034.276345 kJ/mol
# GULP energy per Si atom -5573.876882 kJ/mol
# Density = 2.270336 g / cm^3
# Si number density = 22.755156 Si / 1000 Ang^3
#
#
#
# Elastic Constant Matrix: (Units=GPa)
#
#
# Indices 1 2 3 4 5 6 
#
# 1 93.5984 12.7245 52.7832 14.0107 -3.7323 -30.6292
# 2 12.7245 92.0290 49.2873 28.5721 -4.7644 -0.0002
# 3 52.7832 49.2873 109.9609 30.8663 -16.3188 -6.2891
# 4 14.0107 28.5721 30.8663 48.9521 -0.5310 2.9777
# 5 -3.7323 -4.7644 -16.3188 -0.5310 32.7582 0.3508
# 6 -30.6292 -0.0002 -6.2891 2.9777 0.3508 19.0700
#
#
#
# Elastic Compliance Matrix: (Units=1/GPa)
#
#
# Indices 1 2 3 4 5 6 
#
# 1 0.039952 0.005638 -0.016581 -0.007961 -0.003660 0.060010
# 2 0.005638 0.016314 -0.007893 -0.006628 -0.001105 0.007509
# 3 -0.016581 -0.007893 0.021475 -0.002933 0.007819 -0.019235
# 4 -0.007961 -0.006628 -0.002933 0.029510 -0.002658 -0.018312
# 5 -0.003660 -0.001105 0.007819 -0.002658 0.033839 -0.003507
# 6 0.060010 0.007509 -0.019235 -0.018312 -0.003507 0.145404
#
#
# Mechanical properties :
#
#
# Convention : Reuss Voigt Hill
#
# Bulk Modulus (GPa) = 24.95684 58.35316 41.65500
# Shear Modulus (GPa) = 14.81390 32.20892 23.51141
#
# Velocity S-wave (km/s) = 2.55426 3.76634 3.21788
# Velocity P-wave (km/s) = 4.43738 6.67932 5.67026
#
# Compressibility (1/GPa) = 0.04006918
#
# Stress axis : x y z
#
# Youngs Moduli (GPa) = 25.03034 61.29566 46.56595
#
# Poissons Ratio (x) = -0.34561 0.77212
# Poissons Ratio (y) = -0.14113 0.36755
# Poissons Ratio (z) = 0.41503 0.48382
#
# Static dielectric constant tensor:
#      x y z
#    x 1.720720 -0.039470 -0.116820 
#    y -0.039470 1.839740 -0.028760 
#    z -0.116820 -0.028760 1.854240 
# 
# From -- ./inp_files/188498.got.cif
#   From: 2010.05.17/outbox.cif.g08.bks.cpg/sg2_95_cif.got.tgz:188498.got - 2010.06.03 11:33:40.
