data_PCOD9043756
_publ_section_title
;
Structure prediction by ZEFSAII (Michael W. Deem and Ramdas Pophale) SiO2 
 PCOD9043756
Probable space group: P -1
;
_chemical_formula_sum "Si O2"
_cell_formula_units_Z 12
_cell_length_a 5.262942
_cell_length_b 6.603867
_cell_length_c 15.216653
_cell_angle_alpha 81.259429
_cell_angle_beta 94.656574
_cell_angle_gamma 82.766761
_cell_volume 515.843478
_symmetry_space_group_name_H-M "P -1"
_symmetry_group_IT_number 2
_symmetry_cell_setting 'triclinic'
loop_
_space_group_symop_operation_xyz
x,y,z
-x,-y,-z
loop_
_atom_site_type_symbol
_atom_site_label
_atom_site_fract_x
_atom_site_fract_y
_atom_site_fract_z
Si Si1 0.318599 0.790510 0.685975
Si Si2 0.772232 0.356489 0.501498
Si Si3 0.527214 0.350660 0.804011
Si Si4 0.794444 0.059809 0.688629
Si Si5 0.277538 0.030542 0.916285
Si Si6 0.838700 0.325750 0.981784
O O1 0.243397 0.754295 0.585131
O O2 0.395845 0.560949 0.742979
O O3 0.560752 0.920252 0.688633
O O4 0.063983 0.912140 0.715806
O O5 0.500000 0.500000 0.500000
O O6 0.806943 0.186715 0.590437
O O7 0.000000 0.500000 0.500000
O O8 0.740230 0.234639 0.751315
O O9 0.362450 0.165223 0.831579
O O10 0.617458 0.402655 0.901284
O O11 0.026213 0.162726 0.940185
O O12 0.500000 0.000000 0.000000
O O13 0.229874 0.794482 0.925108
O O14 0.000000 0.500000 0.000000
#
# Coordination Sequence:
#
# PCOD9043756 Si02
#       6
#     2   2   2   2   2   2
#     4  12  28  47  77 113 150 206 250 302 384 438
#     4  12  24  48  81 105 157 202 248 306 371 444
#     4  11  27  46  72 106 153 187 253 317 371 437
#     4  12  28  48  75 111 155 199 253 311 368 450
#     4   9  22  44  67  99 138 185 237 301 374 443
#     4  10  23  45  75 101 141 190 249 298 385 449
#
# _framework density 23.262869999999999
#
# number of rings (size 3 to 8) (size 9 to 14) (size 15 to 20)
#    0.000    1.000    1.667    3.000    4.667    8.000 
#    0.000    0.000    0.000    0.000    0.000    0.000 
#    0.000    0.000    0.000    0.000    0.000    0.000 
#
# Total GULP energy -67124.522412 kJ/mol
# GULP energy per Si atom -5593.710201 kJ/mol
# Density = 2.320992 g / cm^3
# Si number density = 23.262870 Si / 1000 Ang^3
#
#
#
# Elastic Constant Matrix: (Units=GPa)
#
#
# Indices 1 2 3 4 5 6 
#
# 1 149.6481 78.0458 40.5924 -21.0640 -2.0740 3.8037
# 2 78.0458 172.8626 87.5575 -31.3588 -2.1004 3.5538
# 3 40.5924 87.5575 149.6248 -37.0230 -3.6743 10.3690
# 4 -21.0640 -31.3588 -37.0230 48.1215 9.9369 -5.3104
# 5 -2.0740 -2.1004 -3.6743 9.9369 28.0105 3.7364
# 6 3.8037 3.5538 10.3690 -5.3104 3.7364 67.1439
#
#
#
# Elastic Compliance Matrix: (Units=1/GPa)
#
#
# Indices 1 2 3 4 5 6 
#
# 1 0.008835 -0.003823 0.000238 0.001563 -0.000129 -0.000204
# 2 -0.003823 0.010071 -0.004507 0.001643 -0.000776 0.000553
# 3 0.000238 -0.004507 0.010640 0.005395 -0.000712 -0.000952
# 4 0.001563 0.001643 0.005395 0.028853 -0.009530 0.001804
# 5 -0.000129 -0.000776 -0.000712 -0.009530 0.039292 -0.002782
# 6 -0.000204 0.000553 -0.000952 0.001804 -0.002782 0.015320
#
#
# Mechanical properties :
#
#
# Convention : Reuss Voigt Hill
#
# Bulk Modulus (GPa) = 74.84175 98.28079 86.56127
# Shear Modulus (GPa) = 37.41127 46.38451 41.89789
#
# Velocity S-wave (km/s) = 4.01458 4.47019 4.24850
# Velocity P-wave (km/s) = 7.33016 8.30560 7.83308
#
# Compressibility (1/GPa) = 0.01336153
#
# Stress axis : x y z
#
# Youngs Moduli (GPa) = 113.18355 99.29116 93.98872
#
# Poissons Ratio (x) = 0.37964 -0.02239
# Poissons Ratio (y) = 0.43276 0.42361
# Poissons Ratio (z) = -0.02697 0.44751
#
# Static dielectric constant tensor:
#      x y z
#    x 1.915550 0.015270 0.004600 
#    y 0.015270 1.854630 0.035490 
#    z 0.004600 0.035490 1.952930 
# 
# From -- ./inp_files/3162.got.cif
#   From: 2010.05.17/outbox.cif.g08.bks.cpg/sg2_2_cif.got.tgz:3162.got - 2010.06.03 11:33:40.
