data_PCOD9043738
_publ_section_title
;
Structure prediction by ZEFSAII (Michael W. Deem and Ramdas Pophale) SiO2 
 PCOD9043738
Probable space group: P -1
;
_chemical_formula_sum "Si O2"
_cell_formula_units_Z 12
_cell_length_a 11.595467
_cell_length_b 7.430400
_cell_length_c 7.298688
_cell_angle_alpha 109.525578
_cell_angle_beta 123.936261
_cell_angle_gamma 93.188516
_cell_volume 467.541013
_symmetry_space_group_name_H-M "P -1"
_symmetry_group_IT_number 2
_symmetry_cell_setting 'triclinic'
loop_
_space_group_symop_operation_xyz
x,y,z
-x,-y,-z
loop_
_atom_site_type_symbol
_atom_site_label
_atom_site_fract_x
_atom_site_fract_y
_atom_site_fract_z
Si Si1 0.378517 0.041959 0.664027
Si Si2 0.060508 0.968138 0.242622
Si Si3 0.808258 0.599080 0.849752
Si Si4 0.627237 0.880373 0.891066
Si Si5 0.876447 0.594563 0.481688
Si Si6 0.321126 0.695164 0.059816
O O1 0.064093 0.167734 0.424163
O O2 0.503368 0.222452 0.739426
O O3 0.228349 0.978897 0.404188
O O4 0.355876 0.110921 0.872210
O O5 0.540098 0.127881 0.299494
O O6 0.951896 0.752772 0.124741
O O7 0.000000 0.000000 0.000000
O O8 0.158429 0.431038 0.341613
O O9 0.685926 0.713018 0.799053
O O10 0.758385 0.403449 0.862375
O O11 0.713594 0.104494 0.970501
O O12 0.000000 0.500000 0.500000
O O13 0.732767 0.474511 0.200587
#
# Coordination Sequence:
#
# PCOD9043738 Si02
#       6
#     2   2   2   2   2   2
#     4   9  21  47  79 107 159 200 247 312 391 449
#     4  10  23  45  74 109 149 203 250 309 383 460
#     4  11  24  46  80 110 147 201 263 306 376 456
#     4   9  21  45  78 112 152 200 250 311 381 458
#     4  11  25  45  72 108 155 196 251 319 378 453
#     4  10  23  46  78 113 151 198 252 317 377 445
#
# _framework density 25.6662
#
# number of rings (size 3 to 8) (size 9 to 14) (size 15 to 20)
#    1.000    1.000    0.000    2.000    0.000    7.333 
#    0.000   19.167    7.333    0.000    0.000    0.000 
#    0.000    0.000    0.000    0.000    0.000    0.000 
#
# Total GULP energy -67249.231895 kJ/mol
# GULP energy per Si atom -5604.102658 kJ/mol
# Density = 2.560778 g / cm^3
# Si number density = 25.666200 Si / 1000 Ang^3
#
#
#
# Elastic Constant Matrix: (Units=GPa)
#
#
# Indices 1 2 3 4 5 6 
#
# 1 160.6272 50.4998 59.6051 1.6341 -10.6334 -2.4146
# 2 50.4998 110.8056 28.7374 16.2550 -0.2352 10.4978
# 3 59.6051 28.7374 148.9511 -2.5645 18.3199 -4.6291
# 4 1.6341 16.2550 -2.5645 17.7912 -5.3880 -10.0278
# 5 -10.6334 -0.2352 18.3199 -5.3880 64.3980 -5.0794
# 6 -2.4146 10.4978 -4.6291 -10.0278 -5.0794 50.3735
#
#
#
# Elastic Compliance Matrix: (Units=1/GPa)
#
#
# Indices 1 2 3 4 5 6 
#
# 1 0.008781 -0.004135 -0.002914 0.004665 0.002830 0.002229
# 2 -0.004135 0.014564 -0.001403 -0.017850 -0.002288 -0.007146
# 3 -0.002914 -0.001403 0.008554 0.002677 -0.002600 0.001209
# 4 0.004665 -0.017850 0.002677 0.087975 0.009088 0.022619
# 5 0.002830 -0.002288 -0.002600 0.009088 0.017801 0.003978
# 6 0.002229 -0.007146 0.001209 0.022619 0.003978 0.026463
#
#
# Mechanical properties :
#
#
# Convention : Reuss Voigt Hill
#
# Bulk Modulus (GPa) = 66.69735 77.56316 72.13026
# Shear Modulus (GPa) = 26.87578 45.28196 36.07887
#
# Velocity S-wave (km/s) = 3.23945 4.20487 3.75333
# Velocity P-wave (km/s) = 6.32731 7.33895 6.85183
#
# Compressibility (1/GPa) = 0.01499310
#
# Stress axis : x y z
#
# Youngs Moduli (GPa) = 113.88781 68.66152 116.90422
#
# Poissons Ratio (x) = 0.28395 0.34069
# Poissons Ratio (y) = 0.47098 0.16402
# Poissons Ratio (z) = 0.33190 0.09634
#
# Static dielectric constant tensor:
#      x y z
#    x 2.026860 -0.002000 0.017910 
#    y -0.002000 2.038800 -0.003850 
#    z 0.017910 -0.003850 2.022820 
# 
# From -- ./inp_files/290721.got.cif
#   From: 2010.05.17/outbox.cif.g08.bks.cpg/sg2_146_cif.got.tgz:290721.got - 2010.06.03 11:33:40.
