data_PCOD9043458
_publ_section_title
;
Structure prediction by ZEFSAII (Michael W. Deem and Ramdas Pophale) SiO2 
 PCOD9043458
Probable space group: P -1
;
_chemical_formula_sum "Si O2"
_cell_formula_units_Z 14
_cell_length_a 10.152103
_cell_length_b 13.345134
_cell_length_c 16.044694
_cell_angle_alpha 154.407806
_cell_angle_beta 43.375868
_cell_angle_gamma 121.035129
_cell_volume 568.563210
_symmetry_space_group_name_H-M "P -1"
_symmetry_group_IT_number 2
_symmetry_cell_setting 'triclinic'
loop_
_space_group_symop_operation_xyz
x,y,z
-x,-y,-z
loop_
_atom_site_type_symbol
_atom_site_label
_atom_site_fract_x
_atom_site_fract_y
_atom_site_fract_z
Si Si1 0.515503 0.301518 0.772536
Si Si2 0.018925 0.049254 0.312811
Si Si3 0.278465 0.368886 0.410844
Si Si4 0.367571 0.117774 0.014752
Si Si5 0.441267 0.952118 0.676666
Si Si6 0.213901 0.539117 0.930562
Si Si7 0.948491 0.085987 0.984029
O O1 0.342918 0.443005 0.885520
O O2 0.472324 0.089287 0.682873
O O3 0.500000 0.500000 0.000000
O O4 0.761106 0.176712 0.533418
O O5 0.097790 0.268325 0.431092
O O6 0.137310 0.845839 0.179947
O O7 0.085932 0.870171 0.065522
O O8 0.481038 0.153639 0.209450
O O9 0.194660 0.650558 0.701472
O O10 0.341920 0.334675 0.257699
O O11 0.454980 0.091866 0.861279
O O12 0.134042 0.126607 0.119310
O O13 0.625869 0.652251 0.358111
O O14 0.201041 0.983701 0.807133
O O15 0.000000 0.500000 0.000000
#
# Coordination Sequence:
#
# PCOD9043458 Si02
#       7
#     2   2   2   2   2   2   2
#     4  12  27  46  69 108 148 184 244 304 360 433
#     4  11  24  46  74 106 143 190 237 295 364 429
#     4  10  23  45  71 104 145 182 244 296 356 432
#     4  10  24  42  69 106 141 189 241 292 359 432
#     4  12  24  44  71 102 143 188 241 291 365 429
#     4  12  25  46  75 101 145 197 245 292 360 437
#     4  11  22  45  73 102 146 188 236 300 357 428
#
# _framework density 24.623473000000001
#
# number of rings (size 3 to 8) (size 9 to 14) (size 15 to 20)
#    0.000    0.857    2.857    3.857    2.000    4.571 
#    0.000    0.000    0.000    0.000    0.000    0.000 
#    0.000    0.000    0.000    0.000    0.000    0.000 
#
# Total GULP energy -78471.389577 kJ/mol
# GULP energy per Si atom -5605.099255 kJ/mol
# Density = 2.456743 g / cm^3
# Si number density = 24.623473 Si / 1000 Ang^3
#
#
#
# Elastic Constant Matrix: (Units=GPa)
#
#
# Indices 1 2 3 4 5 6 
#
# 1 149.4501 47.9808 54.7168 -14.2586 1.9151 -17.4555
# 2 47.9808 80.9957 14.0106 -4.9612 2.8902 -9.1448
# 3 54.7168 14.0106 117.6171 -8.7605 9.8763 -0.3032
# 4 -14.2586 -4.9612 -8.7605 39.3223 4.1319 0.9565
# 5 1.9151 2.8902 9.8763 4.1319 50.5486 -6.3099
# 6 -17.4555 -9.1448 -0.3032 0.9565 -6.3099 46.7882
#
#
#
# Elastic Compliance Matrix: (Units=1/GPa)
#
#
# Indices 1 2 3 4 5 6 
#
# 1 0.010326 -0.004980 -0.004127 0.002031 0.000900 0.002932
# 2 -0.004980 0.015359 0.000571 0.000307 -0.000695 0.001048
# 3 -0.004127 0.000571 0.010631 0.001223 -0.002264 -0.001690
# 4 0.002031 0.000307 0.001223 0.026745 -0.002527 -0.000062
# 5 0.000900 -0.000695 -0.002264 -0.002527 0.020818 0.003044
# 6 0.002932 0.001048 -0.001690 -0.000062 0.003044 0.023072
#
#
# Mechanical properties :
#
#
# Convention : Reuss Voigt Hill
#
# Bulk Modulus (GPa) = 51.96350 64.60881 58.28616
# Shear Modulus (GPa) = 38.33247 42.75549 40.54398
#
# Velocity S-wave (km/s) = 3.94984 4.17150 4.06218
# Velocity P-wave (km/s) = 6.47694 7.03545 6.76196
#
# Compressibility (1/GPa) = 0.01924428
#
# Stress axis : x y z
#
# Youngs Moduli (GPa) = 96.84708 65.10711 94.06424
#
# Poissons Ratio (x) = 0.32420 0.38822
# Poissons Ratio (y) = 0.48225 -0.05370
# Poissons Ratio (z) = 0.39970 -0.03717
#
# Static dielectric constant tensor:
#      x y z
#    x 1.952370 -0.002310 0.014190 
#    y -0.002310 2.030150 -0.005280 
#    z 0.014190 -0.005280 1.919930 
# 
# From -- ./inp_files/505680.got.cif
#   From: 2010.05.17/outbox.cif.g08.bks.cpg/sg2_253_cif.got.tgz:505680.got - 2010.06.03 11:33:40.
