data_PCOD9043786
_publ_section_title
;
Structure prediction by ZEFSAII (Michael W. Deem and Ramdas Pophale) SiO2 
 PCOD9043786
Probable space group: P -1
;
_chemical_formula_sum "Si O2"
_cell_formula_units_Z 16
_cell_length_a 14.485075
_cell_length_b 11.571914
_cell_length_c 6.938738
_cell_angle_alpha 65.139680
_cell_angle_beta 61.726245
_cell_angle_gamma 33.290444
_cell_volume 561.507200
_symmetry_space_group_name_H-M "P -1"
_symmetry_group_IT_number 2
_symmetry_cell_setting 'triclinic'
loop_
_space_group_symop_operation_xyz
x,y,z
-x,-y,-z
loop_
_atom_site_type_symbol
_atom_site_label
_atom_site_fract_x
_atom_site_fract_y
_atom_site_fract_z
Si Si1 0.331858 0.570137 0.134877
Si Si2 0.783803 0.957766 0.182989
Si Si3 0.821279 0.708871 0.630977
Si Si4 0.954619 0.745807 0.786778
Si Si5 0.070702 0.004741 0.660507
Si Si6 0.518850 0.057992 0.144309
Si Si7 0.647956 0.670734 0.412277
Si Si8 0.359272 0.534192 0.693530
O O1 0.382537 0.409253 0.343618
O O2 0.137311 0.803931 0.229872
O O3 0.500000 0.500000 0.000000
O O4 0.320179 0.545304 0.944211
O O5 0.756094 0.886880 0.434811
O O6 0.835220 0.032421 0.208731
O O7 0.940822 0.776000 0.008084
O O8 0.634825 0.066798 0.091334
O O9 0.848330 0.732365 0.805326
O O10 0.000000 0.500000 0.500000
O O11 0.682745 0.731468 0.747412
O O12 0.900564 0.919717 0.589946
O O13 0.148271 0.526745 0.687977
O O14 0.174811 0.778696 0.648245
O O15 0.427179 0.332985 0.693150
O O16 0.500000 0.000000 0.000000
O O17 0.593078 0.868335 0.331140
O O18 0.500000 0.500000 0.500000
#
# Coordination Sequence:
#
# PCOD9043786 Si02
#       8
#     2   2   2   2   2   2   2   2
#     4  11  24  51  79 115 154 209 259 325 391 464
#     4  11  24  47  78 107 159 205 249 319 386 459
#     4  11  25  45  71 111 147 197 260 312 379 460
#     4  10  23  45  75 112 152 203 249 318 385 464
#     4  10  26  48  78 118 156 200 267 311 393 470
#     4  12  27  51  78 112 156 209 259 320 386 468
#     4  11  27  49  74 114 159 198 266 316 387 468
#     4  12  26  48  75 112 158 202 258 321 385 465
#
# _framework density 28.494736
#
# number of rings (size 3 to 8) (size 9 to 14) (size 15 to 20)
#    0.000    1.000    2.500    2.250    5.250    4.000 
#    9.000    0.000    0.000    0.000    0.000    0.000 
#    0.000    0.000    0.000    0.000    0.000    0.000 
#
# Total GULP energy -89478.024821 kJ/mol
# GULP energy per Si atom -5592.376551 kJ/mol
# Density = 2.842988 g / cm^3
# Si number density = 28.494736 Si / 1000 Ang^3
#
#
#
# Elastic Constant Matrix: (Units=GPa)
#
#
# Indices 1 2 3 4 5 6 
#
# 1 167.1910 34.3901 27.8141 13.7771 10.5116 -17.0832
# 2 34.3901 103.7975 12.2691 18.3960 -2.7174 -2.3829
# 3 27.8141 12.2691 134.4446 15.9267 16.8727 1.9808
# 4 13.7771 18.3960 15.9267 41.6277 3.2935 -6.5222
# 5 10.5116 -2.7174 16.8727 3.2935 58.7944 9.1329
# 6 -17.0832 -2.3829 1.9808 -6.5222 9.1329 49.2166
#
#
#
# Elastic Compliance Matrix: (Units=1/GPa)
#
#
# Indices 1 2 3 4 5 6 
#
# 1 0.006974 -0.002080 -0.001058 -0.000471 -0.001411 0.002562
# 2 -0.002080 0.011145 -0.000218 -0.004418 0.001354 -0.001011
# 3 -0.001058 -0.000218 0.008245 -0.002666 -0.001928 -0.000705
# 4 -0.000471 -0.004418 -0.002666 0.027848 -0.001489 0.003697
# 5 -0.001411 0.001354 -0.001928 -0.001489 0.018580 -0.003992
# 6 0.002562 -0.001011 -0.000705 0.003697 -0.003992 0.022418
#
#
# Mechanical properties :
#
#
# Convention : Reuss Voigt Hill
#
# Bulk Modulus (GPa) = 50.88827 61.59777 56.24302
# Shear Modulus (GPa) = 46.09444 51.99173 49.04309
#
# Velocity S-wave (km/s) = 4.02636 4.27618 4.15315
# Velocity P-wave (km/s) = 6.28594 6.78565 6.54057
#
# Compressibility (1/GPa) = 0.01965090
#
# Stress axis : x y z
#
# Youngs Moduli (GPa) = 143.38121 89.73016 121.28615
#
# Poissons Ratio (x) = 0.18667 0.12831
# Poissons Ratio (y) = 0.29828 0.02647
# Poissons Ratio (z) = 0.15168 0.01959
#
# Static dielectric constant tensor:
#      x y z
#    x 2.369620 -0.064690 0.057160 
#    y -0.064690 2.314010 0.049800 
#    z 0.057160 0.049800 2.317400 
# 
# From -- ./inp_files/110711.got.cif
#   From: 2010.05.17/outbox.cif.g08.bks.cpg/sg2_56_cif.got.tgz:110711.got - 2010.06.03 11:33:40.
