data_PCOD9043015
_publ_section_title
;
Structure prediction by ZEFSAII (Michael W. Deem and Ramdas Pophale) SiO2 
 PCOD9043015
Probable space group: P -1
;
_chemical_formula_sum "Si O2"
_cell_formula_units_Z 16
_cell_length_a 9.748997
_cell_length_b 15.163130
_cell_length_c 14.349096
_cell_angle_alpha 151.459191
_cell_angle_beta 96.251215
_cell_angle_gamma 102.569430
_cell_volume 757.192604
_symmetry_space_group_name_H-M "P -1"
_symmetry_group_IT_number 2
_symmetry_cell_setting 'triclinic'
loop_
_space_group_symop_operation_xyz
x,y,z
-x,-y,-z
loop_
_atom_site_type_symbol
_atom_site_label
_atom_site_fract_x
_atom_site_fract_y
_atom_site_fract_z
Si Si1 0.269368 0.180218 0.945821
Si Si2 0.035273 0.750713 0.226676
Si Si3 0.210621 0.627812 0.632036
Si Si4 0.309287 0.945931 0.101607
Si Si5 0.300982 0.276182 0.819693
Si Si6 0.403845 0.445805 0.541926
Si Si7 0.973711 0.708456 0.972355
Si Si8 0.303756 0.794645 0.584998
O O1 0.442458 0.355962 0.189303
O O2 0.104792 0.166962 0.954315
O O3 0.315088 0.280669 0.937006
O O4 0.219438 0.922182 0.700433
O O5 0.850787 0.700778 0.195389
O O6 0.206484 0.999327 0.522524
O O7 0.061518 0.812396 0.175867
O O8 0.000000 0.500000 0.000000
O O9 0.253753 0.471908 0.539584
O O10 0.275884 0.679859 0.578520
O O11 0.000000 0.500000 0.500000
O O12 0.313354 0.871833 0.928454
O O13 0.327988 0.182278 0.323184
O O14 0.477968 0.007381 0.227517
O O15 0.115256 0.735306 0.938987
O O16 0.500000 0.500000 0.000000
O O17 0.500000 0.500000 0.500000
O O18 0.796384 0.420209 0.696658
#
# Coordination Sequence:
#
# PCOD9043015 Si02
#       8
#     2   2   2   2   2   2   2   2
#     4  11  24  43  67  95 131 173 214 272 323 387
#     4  10  23  45  67  99 136 168 218 280 331 398
#     4  12  25  43  61  95 131 173 220 269 319 385
#     4  12  25  40  65  92 127 171 216 265 322 386
#     4  10  24  44  69 100 134 174 221 271 338 398
#     4  12  24  43  66  93 132 175 216 268 325 377
#     4  11  25  41  66  99 125 170 220 266 327 392
#     4  12  23  44  63  92 134 167 220 269 321 385
#
# _framework density 21.130687000000002
#
# number of rings (size 3 to 8) (size 9 to 14) (size 15 to 20)
#    0.000    0.750    5.000    1.875    3.500    2.000 
#    0.000    0.000    0.000    0.000    0.000    0.000 
#    0.000    0.000    0.000    0.000    0.000    0.000 
#
# Total GULP energy -89439.908754 kJ/mol
# GULP energy per Si atom -5589.994297 kJ/mol
# Density = 2.108259 g / cm^3
# Si number density = 21.130687 Si / 1000 Ang^3
#
#
#
# Elastic Constant Matrix: (Units=GPa)
#
#
# Indices 1 2 3 4 5 6 
#
# 1 108.1278 9.9045 39.5390 3.1985 0.5697 -15.6286
# 2 9.9045 32.6518 16.7596 -9.2953 3.9678 1.0943
# 3 39.5390 16.7596 108.2004 -11.4951 -5.9637 -1.0445
# 4 3.1985 -9.2953 -11.4951 32.4929 -5.0059 -10.8472
# 5 0.5697 3.9678 -5.9637 -5.0059 41.4043 10.2630
# 6 -15.6286 1.0943 -1.0445 -10.8472 10.2630 36.5775
#
#
#
# Elastic Compliance Matrix: (Units=1/GPa)
#
#
# Indices 1 2 3 4 5 6 
#
# 1 0.011767 -0.001813 -0.004280 -0.001843 -0.002065 0.004992
# 2 -0.001813 0.036257 -0.004153 0.009121 -0.003359 0.001669
# 3 -0.004280 -0.004153 0.011974 0.003539 0.002888 -0.001123
# 4 -0.001843 0.009121 0.003539 0.038413 0.001848 0.009914
# 5 -0.002065 -0.003359 0.002888 0.001848 0.027061 -0.007744
# 6 0.004992 0.001669 -0.001123 0.009914 -0.007744 0.034503
#
#
# Mechanical properties :
#
#
# Convention : Reuss Voigt Hill
#
# Bulk Modulus (GPa) = 25.31422 42.37624 33.84523
# Shear Modulus (GPa) = 25.82160 34.28009 30.05085
#
# Velocity S-wave (km/s) = 3.49950 4.03213 3.77522
# Velocity P-wave (km/s) = 5.32302 6.46339 5.92072
#
# Compressibility (1/GPa) = 0.03950349
#
# Stress axis : x y z
#
# Youngs Moduli (GPa) = 84.98655 27.58101 83.51506
#
# Poissons Ratio (x) = 0.05001 0.35747
# Poissons Ratio (y) = 0.15410 0.34687
# Poissons Ratio (z) = 0.36377 0.11455
#
# Static dielectric constant tensor:
#      x y z
#    x 1.763770 -0.004560 0.004700 
#    y -0.004560 1.759960 -0.003150 
#    z 0.004700 -0.003150 1.776960 
# 
# From -- ./inp_files/315297.got.cif
#   From: 2010.05.17/outbox.cif.g08.bks.cpg/sg2_158_cif.got.tgz:315297.got - 2010.06.03 11:33:40.
