data_PCOD9043788
_publ_section_title
;
Structure prediction by ZEFSAII (Michael W. Deem and Ramdas Pophale) SiO2 
 PCOD9043788
Probable space group: P -1
;
_chemical_formula_sum "Si O2"
_cell_formula_units_Z 16
_cell_length_a 10.853916
_cell_length_b 8.932107
_cell_length_c 13.034766
_cell_angle_alpha 121.351358
_cell_angle_beta 82.426325
_cell_angle_gamma 53.578323
_cell_volume 666.290304
_symmetry_space_group_name_H-M "P -1"
_symmetry_group_IT_number 2
_symmetry_cell_setting 'triclinic'
loop_
_space_group_symop_operation_xyz
x,y,z
-x,-y,-z
loop_
_atom_site_type_symbol
_atom_site_label
_atom_site_fract_x
_atom_site_fract_y
_atom_site_fract_z
Si Si1 0.135606 0.172395 0.599930
Si Si2 0.705733 0.047760 0.872311
Si Si3 0.204396 0.301994 0.833605
Si Si4 0.680684 0.456869 0.037584
Si Si5 0.340949 0.959480 0.887638
Si Si6 0.529961 0.563903 0.317129
Si Si7 0.224316 0.403927 0.343388
Si Si8 0.340625 0.270774 0.498419
O O1 0.094025 0.312756 0.762232
O O2 0.241460 0.207481 0.532748
O O3 0.939337 0.335402 0.619578
O O4 0.299841 0.839757 0.472409
O O5 0.476798 0.310521 0.949413
O O6 0.805249 0.774281 0.707405
O O7 0.782932 0.161062 0.889121
O O8 0.726103 0.978311 0.965341
O O9 0.182587 0.533453 0.937971
O O10 0.202434 0.210331 0.911180
O O11 0.437017 0.024720 0.670195
O O12 0.552880 0.549267 0.186534
O O13 0.377838 0.720825 0.760726
O O14 0.558062 0.810311 0.806493
O O15 0.642204 0.601817 0.371163
O O16 0.231579 0.464755 0.479501
#
# Coordination Sequence:
#
# PCOD9043788 Si02
#       8
#     2   2   2   2   2   2   2   2
#     4  11  20  33  56  81 118 138 171 227 270 332
#     4  10  20  35  57  80 108 139 188 227 257 311
#     4  10  18  34  57  84 101 143 186 214 273 310
#     4  10  17  33  62  83  98 135 194 227 250 310
#     4  10  22  36  58  78 109 145 182 228 255 321
#     4  10  19  36  59  85 103 140 187 217 270 310
#     4  11  22  34  51  87 113 144 171 215 292 313
#     4  10  18  34  58  79 108 139 182 224 257 323
#
# _framework density 24.013558
#
# number of rings (size 3 to 8) (size 9 to 14) (size 15 to 20)
#    0.000    1.750    5.000    1.500    0.000    5.000 
#    0.000    1.250    0.000    0.000    0.000    0.000 
#    0.000    0.000    0.000    0.000    0.000    0.000 
#
# Total GULP energy -89526.598490 kJ/mol
# GULP energy per Si atom -5595.412406 kJ/mol
# Density = 2.395890 g / cm^3
# Si number density = 24.013558 Si / 1000 Ang^3
#
#
#
# Elastic Constant Matrix: (Units=GPa)
#
#
# Indices 1 2 3 4 5 6 
#
# 1 38.3008 -5.7727 10.0588 -0.1292 11.3025 -1.2245
# 2 -5.7727 86.3341 16.4037 -28.2898 2.4793 -3.8708
# 3 10.0588 16.4037 63.2381 -9.7221 9.2483 -0.7695
# 4 -0.1292 -28.2898 -9.7221 33.7427 0.2318 13.3057
# 5 11.3025 2.4793 9.2483 0.2318 29.2153 -0.0427
# 6 -1.2245 -3.8708 -0.7695 13.3057 -0.0427 36.3878
#
#
#
# Elastic Compliance Matrix: (Units=1/GPa)
#
#
# Indices 1 2 3 4 5 6 
#
# 1 0.031034 0.003843 -0.003994 0.002023 -0.011083 0.000616
# 2 0.003843 0.017175 -0.002444 0.015162 -0.002296 -0.003642
# 3 -0.003994 -0.002444 0.018237 0.003767 -0.004053 -0.001391
# 4 0.002023 0.015162 0.003767 0.049980 -0.003682 -0.016520
# 5 -0.011083 -0.002296 -0.004053 -0.003682 0.040024 0.000691
# 6 0.000616 -0.003642 -0.001391 -0.016520 0.000691 0.033127
#
#
# Mechanical properties :
#
#
# Convention : Reuss Voigt Hill
#
# Bulk Modulus (GPa) = 16.32469 25.47252 20.89861
# Shear Modulus (GPa) = 23.23555 31.01469 27.12512
#
# Velocity S-wave (km/s) = 3.11400 3.59771 3.36456
# Velocity P-wave (km/s) = 4.44322 5.28097 4.88011
#
# Compressibility (1/GPa) = 0.06125691
#
# Stress axis : x y z
#
# Youngs Moduli (GPa) = 32.22235 58.22357 54.83279
#
# Poissons Ratio (x) = -0.22374 0.21899
# Poissons Ratio (y) = -0.12382 0.13401
# Poissons Ratio (z) = 0.12869 0.14229
#
# Static dielectric constant tensor:
#      x y z
#    x 1.967380 -0.022680 -0.025430 
#    y -0.022680 1.919030 0.026850 
#    z -0.025430 0.026850 1.914000 
# 
# From -- ./inp_files/201480.got.cif
#   From: 2010.05.17/outbox.cif.g08.bks.cpg/sg2_101_cif.got.tgz:201480.got - 2010.06.03 11:33:40.
