data_PCOD9043019
_publ_section_title
;
Structure prediction by ZEFSAII (Michael W. Deem and Ramdas Pophale) SiO2 
 PCOD9043019
Probable space group: P -1
;
_chemical_formula_sum "Si O2"
_cell_formula_units_Z 12
_cell_length_a 6.446678
_cell_length_b 23.087671
_cell_length_c 11.852202
_cell_angle_alpha 26.207396
_cell_angle_beta 70.442256
_cell_angle_gamma 53.632429
_cell_volume 521.962330
_symmetry_space_group_name_H-M "P -1"
_symmetry_group_IT_number 2
_symmetry_cell_setting 'triclinic'
loop_
_space_group_symop_operation_xyz
x,y,z
-x,-y,-z
loop_
_atom_site_type_symbol
_atom_site_label
_atom_site_fract_x
_atom_site_fract_y
_atom_site_fract_z
Si Si1 0.292467 0.044284 0.065455
Si Si2 0.264706 0.343811 0.578271
Si Si3 0.618949 0.644510 0.038553
Si Si4 0.786244 0.717554 0.679574
Si Si5 0.619928 0.412000 0.258692
Si Si6 0.397368 0.687262 0.227162
O O1 0.475334 0.853099 0.428111
O O2 0.310797 0.173469 0.902786
O O3 0.930661 0.166237 0.905370
O O4 0.500000 0.000000 0.000000
O O5 0.486965 0.331933 0.471699
O O6 0.333295 0.384606 0.611830
O O7 0.940148 0.480845 0.331561
O O8 0.548174 0.555494 0.117265
O O9 0.378075 0.765270 0.972570
O O10 0.684955 0.746624 0.775690
O O11 0.009016 0.741057 0.558317
O O12 0.000000 0.500000 0.000000
O O13 0.500000 0.500000 0.000000
O O14 0.500000 0.500000 0.500000
#
# Coordination Sequence:
#
# PCOD9043019 Si02
#       6
#     2   2   2   2   2   2
#     4  12  27  45  70 107 145 181 244 300 348 424
#     4  12  23  44  75 103 145 185 239 294 353 416
#     4  11  23  43  71 102 143 185 235 287 348 429
#     4  10  23  45  67  99 141 184 232 295 348 414
#     4  11  22  39  72 106 133 189 237 281 355 418
#     4  12  25  45  74 108 142 190 236 286 364 427
#
# _framework density 22.990164
#
# number of rings (size 3 to 8) (size 9 to 14) (size 15 to 20)
#    0.000    0.667    5.000    3.500    2.333    3.333 
#    0.000    0.833    0.000    0.000    0.000    0.000 
#    0.000    0.000    0.000    0.000    0.000    0.000 
#
# Total GULP energy -66911.762603 kJ/mol
# GULP energy per Si atom -5575.980217 kJ/mol
# Density = 2.293784 g / cm^3
# Si number density = 22.990164 Si / 1000 Ang^3
#
#
#
# Elastic Constant Matrix: (Units=GPa)
#
#
# Indices 1 2 3 4 5 6 
#
# 1 103.4984 35.0006 18.3598 -3.6339 15.0472 7.0930
# 2 35.0006 135.7534 14.3233 27.0910 17.9486 -5.0232
# 3 18.3598 14.3233 82.3147 7.6312 25.3217 3.8350
# 4 -3.6339 27.0910 7.6312 29.6477 -6.9626 2.1931
# 5 15.0472 17.9486 25.3217 -6.9626 35.0987 3.3847
# 6 7.0930 -5.0232 3.8350 2.1931 3.3847 65.7402
#
#
#
# Elastic Compliance Matrix: (Units=1/GPa)
#
#
# Indices 1 2 3 4 5 6 
#
# 1 0.011757 -0.004021 -0.002417 0.005877 0.000083 -0.001635
# 2 -0.004021 0.012581 0.003193 -0.015392 -0.010284 0.002252
# 3 -0.002417 0.003193 0.018126 -0.011700 -0.016058 0.000665
# 4 0.005877 -0.015392 -0.011700 0.057886 0.025698 -0.004382
# 5 0.000083 -0.010284 -0.016058 0.025698 0.050718 -0.003327
# 6 -0.001635 0.002252 0.000665 -0.004382 -0.003327 0.015839
#
#
# Mechanical properties :
#
#
# Convention : Reuss Voigt Hill
#
# Bulk Modulus (GPa) = 27.79731 50.77046 39.28389
# Shear Modulus (GPa) = 26.97089 43.02285 34.99687
#
# Velocity S-wave (km/s) = 3.42884 4.33061 3.90584
# Velocity P-wave (km/s) = 5.27192 6.86565 6.12088
#
# Compressibility (1/GPa) = 0.03597470
#
# Stress axis : x y z
#
# Youngs Moduli (GPa) = 85.05780 79.48687 55.17083
#
# Poissons Ratio (x) = 0.31958 0.13334
# Poissons Ratio (y) = 0.34198 -0.17618
# Poissons Ratio (z) = 0.20558 -0.25383
#
# Static dielectric constant tensor:
#      x y z
#    x 1.881910 -0.052720 0.016940 
#    y -0.052720 1.983150 0.016670 
#    z 0.016940 0.016670 1.850800 
# 
# From -- ./inp_files/370258.got.cif
#   From: 2010.05.17/outbox.cif.g08.bks.cpg/sg2_186_cif.got.tgz:370258.got - 2010.06.03 11:33:40.
