data_PCOD9043820
_publ_section_title
;
Structure prediction by ZEFSAII (Michael W. Deem and Ramdas Pophale) SiO2 
 PCOD9043820
Probable space group: P -1
;
_chemical_formula_sum "Si O2"
_cell_formula_units_Z 11
_cell_length_a 9.243864
_cell_length_b 13.023763
_cell_length_c 5.728713
_cell_angle_alpha 116.567312
_cell_angle_beta 98.127870
_cell_angle_gamma 43.983177
_cell_volume 409.900635
_symmetry_space_group_name_H-M "P -1"
_symmetry_group_IT_number 2
_symmetry_cell_setting 'triclinic'
loop_
_space_group_symop_operation_xyz
x,y,z
-x,-y,-z
loop_
_atom_site_type_symbol
_atom_site_label
_atom_site_fract_x
_atom_site_fract_y
_atom_site_fract_z
Si Si1 0.324603 0.070436 0.833924
Si Si2 0.509015 0.362232 0.787866
Si Si3 0.997799 0.731957 0.661372
Si Si4 0.500000 0.500000 0.500000
Si Si5 0.899189 0.022546 0.749934
Si Si6 0.709614 0.721670 0.350878
O O1 0.289655 0.202931 0.804120
O O2 0.463653 0.888158 0.561244
O O3 0.099378 0.174926 0.015512
O O4 0.500000 0.000000 0.000000
O O5 0.587679 0.336470 0.515856
O O6 0.663614 0.218595 0.874464
O O7 0.288886 0.415692 0.811133
O O8 0.500000 0.500000 0.000000
O O9 0.253673 0.593110 0.561259
O O10 0.893064 0.671459 0.503541
O O11 0.895975 0.886201 0.620585
O O12 0.000000 0.000000 0.500000
O O13 0.000000 0.000000 0.000000
#
# Coordination Sequence:
#
# PCOD9043820 Si02
#       6
#     2   2   2   1   2   2
#     4   9  19  40  75 114 150 198 270 341 410 489
#     4  12  28  49  75 115 165 219 275 347 422 503
#     4  11  25  46  82 115 160 215 277 343 420 499
#     4  12  28  50  70 114 168 212 274 340 424 496
#     4  12  27  49  84 119 164 221 278 347 421 505
#     4  10  23  45  76 114 156 208 278 344 413 502
#
# _framework density 26.83577
#
# number of rings (size 3 to 8) (size 9 to 14) (size 15 to 20)
#    0.000    1.091    1.818    4.364    5.091    5.091 
#    0.000    1.818    0.000    0.000    0.000    0.000 
#    0.000    0.182    0.000    0.000    0.000    0.000 
#
# Total GULP energy -61330.400863 kJ/mol
# GULP energy per Si atom -5575.490988 kJ/mol
# Density = 2.677469 g / cm^3
# Si number density = 26.835770 Si / 1000 Ang^3
#
#
#
# Elastic Constant Matrix: (Units=GPa)
#
#
# Indices 1 2 3 4 5 6 
#
# 1 210.7230 69.5318 61.8459 8.8803 5.2776 -3.1037
# 2 69.5318 153.9783 31.4748 -10.8484 -3.2692 -1.5644
# 3 61.8459 31.4748 85.9678 -18.6375 -5.3939 -8.6452
# 4 8.8803 -10.8484 -18.6375 36.3724 4.7398 -9.5437
# 5 5.2776 -3.2692 -5.3939 4.7398 49.1366 2.9444
# 6 -3.1037 -1.5644 -8.6452 -9.5437 2.9444 67.5913
#
#
#
# Elastic Compliance Matrix: (Units=1/GPa)
#
#
# Indices 1 2 3 4 5 6 
#
# 1 0.007648 -0.002680 -0.006001 -0.005944 -0.001009 -0.001274
# 2 -0.002680 0.007985 -0.000286 0.002937 0.000479 0.000419
# 3 -0.006001 -0.000286 0.019122 0.012001 0.001339 0.003800
# 4 -0.005944 0.002937 0.012001 0.037999 -0.001920 0.006779
# 5 -0.001009 0.000479 0.001339 -0.001920 0.020887 -0.001045
# 6 -0.001274 0.000419 0.003800 0.006779 -0.001045 0.016235
#
#
# Mechanical properties :
#
#
# Convention : Reuss Voigt Hill
#
# Bulk Modulus (GPa) = 59.45392 86.26378 72.85885
# Shear Modulus (GPa) = 37.47657 49.80782 43.64220
#
# Velocity S-wave (km/s) = 3.74105 4.31283 4.03708
# Velocity P-wave (km/s) = 6.39245 7.55086 6.99568
#
# Compressibility (1/GPa) = 0.01681975
#
# Stress axis : x y z
#
# Youngs Moduli (GPa) = 130.74918 125.24157 52.29542
#
# Poissons Ratio (x) = 0.33567 0.31383
# Poissons Ratio (y) = 0.35043 0.01497
# Poissons Ratio (z) = 0.78463 0.03586
#
# Static dielectric constant tensor:
#      x y z
#    x 2.047240 0.001900 0.064060 
#    y 0.001900 2.171040 0.055730 
#    z 0.064060 0.055730 2.437540 
# 
# From -- ./inp_files/25631.got.cif
#   From: 2010.05.17/outbox.cif.g08.bks.cpg/sg2_13_cif.got.tgz:25631.got - 2010.06.03 11:33:40.
