data_PCOD9043191
_publ_section_title
;
Structure prediction by ZEFSAII (Michael W. Deem and Ramdas Pophale) SiO2 
 PCOD9043191
Probable space group: P -1
;
_chemical_formula_sum "Si O2"
_cell_formula_units_Z 16
_cell_length_a 20.937579
_cell_length_b 6.586469
_cell_length_c 5.998965
_cell_angle_alpha 102.994473
_cell_angle_beta 91.332490
_cell_angle_gamma 117.075460
_cell_volume 710.196905
_symmetry_space_group_name_H-M "P -1"
_symmetry_group_IT_number 2
_symmetry_cell_setting 'triclinic'
loop_
_space_group_symop_operation_xyz
x,y,z
-x,-y,-z
loop_
_atom_site_type_symbol
_atom_site_label
_atom_site_fract_x
_atom_site_fract_y
_atom_site_fract_z
Si Si1 0.981455 0.564116 0.263197
Si Si2 0.770723 0.045616 0.452475
Si Si3 0.791259 0.734508 0.997616
Si Si4 0.551614 0.755018 0.963297
Si Si5 0.553289 0.146667 0.342756
Si Si6 0.887763 0.975111 0.685383
Si Si7 0.662026 0.660595 0.656617
Si Si8 0.825834 0.485607 0.295081
O O1 0.895309 0.455464 0.232206
O O2 0.000000 0.500000 0.500000
O O3 0.030067 0.846999 0.320037
O O4 0.000000 0.500000 0.000000
O O5 0.838554 0.097386 0.634687
O O6 0.698257 0.866325 0.527516
O O7 0.776118 0.282616 0.410828
O O8 0.779628 0.902833 0.211057
O O9 0.867567 0.886465 0.915196
O O10 0.728293 0.658914 0.793954
O O11 0.788125 0.514911 0.078468
O O12 0.498576 0.803986 0.812874
O O13 0.613709 0.728642 0.830543
O O14 0.500000 0.500000 0.000000
O O15 0.580709 0.974719 0.190507
O O16 0.614715 0.401848 0.486819
O O17 0.500000 0.000000 0.500000
O O18 0.858600 0.737223 0.482172
#
# Coordination Sequence:
#
# PCOD9043191 Si02
#       8
#     2   2   2   2   2   2   2   2
#     4  12  26  44  81 107 146 200 253 310 391 442
#     4  10  23  47  66  99 147 186 237 296 364 444
#     4  10  25  45  68 103 144 188 244 299 359 452
#     4  11  25  47  75 105 145 183 236 305 366 433
#     4  11  25  47  74 108 141 181 241 302 356 442
#     4  10  23  45  69 105 142 185 247 305 362 442
#     4  11  25  48  72 103 149 191 239 298 375 442
#     4  11  24  46  74 102 145 189 245 305 369 436
#
# _framework density 22.528963999999998
#
# number of rings (size 3 to 8) (size 9 to 14) (size 15 to 20)
#    0.000    1.250    2.500    1.500    5.250    2.500 
#   18.000    0.000    0.000    0.000    0.000    0.000 
#    0.000    0.000    0.000    0.000    0.000    0.000 
#
# Total GULP energy -89460.051338 kJ/mol
# GULP energy per Si atom -5591.253209 kJ/mol
# Density = 2.247769 g / cm^3
# Si number density = 22.528964 Si / 1000 Ang^3
#
#
#
# Elastic Constant Matrix: (Units=GPa)
#
#
# Indices 1 2 3 4 5 6 
#
# 1 71.8446 55.7194 41.1276 -0.7080 -14.1649 5.9234
# 2 55.7194 189.7407 70.1662 -23.7397 -1.4495 13.9049
# 3 41.1276 70.1662 114.7496 -10.0857 -14.8899 0.3223
# 4 -0.7080 -23.7397 -10.0857 45.0697 -1.0500 -0.1689
# 5 -14.1649 -1.4495 -14.8899 -1.0500 41.9796 -7.9196
# 6 5.9234 13.9049 0.3223 -0.1689 -7.9196 38.7738
#
#
#
# Elastic Compliance Matrix: (Units=1/GPa)
#
#
# Indices 1 2 3 4 5 6 
#
# 1 0.021240 -0.005048 -0.004098 -0.003118 0.005402 -0.000311
# 2 -0.005048 0.008736 -0.003614 0.003629 -0.003151 -0.002960
# 3 -0.004098 -0.003614 0.012942 0.001021 0.003590 0.002552
# 4 -0.003118 0.003629 0.001021 0.024274 -0.000098 -0.000748
# 5 0.005402 -0.003151 0.003590 -0.000098 0.027934 0.005980
# 6 -0.000311 -0.002960 0.002552 -0.000748 0.005980 0.028096
#
#
# Mechanical properties :
#
#
# Convention : Reuss Voigt Hill
#
# Bulk Modulus (GPa) = 57.48018 78.92903 68.20461
# Shear Modulus (GPa) = 32.35370 39.11940 35.73655
#
# Velocity S-wave (km/s) = 3.79369 4.17154 3.98709
# Velocity P-wave (km/s) = 6.69020 7.63629 7.17884
#
# Compressibility (1/GPa) = 0.01739730
#
# Stress axis : x y z
#
# Youngs Moduli (GPa) = 47.08141 114.46693 77.26847
#
# Poissons Ratio (x) = 0.57781 0.31665
# Poissons Ratio (y) = 0.23766 0.27927
# Poissons Ratio (z) = 0.19294 0.41372
#
# Static dielectric constant tensor:
#      x y z
#    x 1.881290 -0.000980 -0.042030 
#    y -0.000980 1.823100 -0.015160 
#    z -0.042030 -0.015160 1.907900 
# 
# From -- ./inp_files/12806.got.cif
#   From: 2010.05.17/outbox.cif.g08.bks.cpg/sg2_7_cif.got.tgz:12806.got - 2010.06.03 11:33:40.
