data_PCOD9043117
_publ_section_title
;
Structure prediction by ZEFSAII (Michael W. Deem and Ramdas Pophale) SiO2 
 PCOD9043117
Probable space group: P -1
;
_chemical_formula_sum "Si O2"
_cell_formula_units_Z 14
_cell_length_a 9.236505
_cell_length_b 23.596782
_cell_length_c 8.530521
_cell_angle_alpha 135.450922
_cell_angle_beta 53.184736
_cell_angle_gamma 150.362137
_cell_volume 643.903790
_symmetry_space_group_name_H-M "P -1"
_symmetry_group_IT_number 2
_symmetry_cell_setting 'triclinic'
loop_
_space_group_symop_operation_xyz
x,y,z
-x,-y,-z
loop_
_atom_site_type_symbol
_atom_site_label
_atom_site_fract_x
_atom_site_fract_y
_atom_site_fract_z
Si Si1 0.312701 0.507607 0.729249
Si Si2 0.298446 0.901818 0.293798
Si Si3 0.304618 0.097159 0.090363
Si Si4 0.332543 0.662362 0.236427
Si Si5 0.291871 0.055320 0.382204
Si Si6 0.346521 0.624081 0.502767
Si Si7 0.705563 0.611828 0.218612
O O1 0.500000 0.500000 0.500000
O O2 0.192036 0.419811 0.790218
O O3 0.016047 0.442235 0.722144
O O4 0.442558 0.637648 0.981097
O O5 0.974186 0.759644 0.273529
O O6 0.500000 0.000000 0.500000
O O7 0.294261 0.969725 0.297136
O O8 0.468833 0.883126 0.094585
O O9 0.287643 0.055916 0.197308
O O10 0.476439 0.241572 0.270296
O O11 0.000000 0.000000 0.000000
O O12 0.464055 0.798958 0.416258
O O13 0.423480 0.656394 0.332141
O O14 0.000000 0.000000 0.500000
O O15 0.485517 0.592348 0.416720
O O16 0.000000 0.500000 0.500000
O O17 0.500000 0.500000 0.000000
#
# Coordination Sequence:
#
# PCOD9043117 Si02
#       7
#     2   2   2   2   2   2   2
#     4  11  24  44  70 104 138 181 232 283 352 422
#     4  12  25  46  69 100 142 184 235 290 348 426
#     4  11  25  45  70 103 136 185 237 288 354 423
#     4  10  23  45  68  98 143 179 227 289 348 412
#     4  11  24  47  70  97 140 185 233 287 353 419
#     4  11  22  43  68 101 137 176 228 285 353 418
#     4  12  24  43  70  99 137 178 227 286 352 411
#
# _framework density 21.742379
#
# number of rings (size 3 to 8) (size 9 to 14) (size 15 to 20)
#    0.000    0.857    1.429    6.429    0.000    1.143 
#   12.857    0.000    0.000    0.000    0.000    0.000 
#    0.000    0.000    0.000    0.000    0.000    0.000 
#
# Total GULP energy -77997.988955 kJ/mol
# GULP energy per Si atom -5571.284925 kJ/mol
# Density = 2.169289 g / cm^3
# Si number density = 21.742379 Si / 1000 Ang^3
#
#
#
# Elastic Constant Matrix: (Units=GPa)
#
#
# Indices 1 2 3 4 5 6 
#
# 1 137.2554 35.4386 45.1512 16.8427 -10.0707 2.6597
# 2 35.4386 108.8997 40.3773 19.9183 8.4405 17.8939
# 3 45.1512 40.3773 131.3897 6.2634 1.8971 18.1550
# 4 16.8427 19.9183 6.2634 42.5798 8.1496 -9.3800
# 5 -10.0707 8.4405 1.8971 8.1496 33.2952 -1.6601
# 6 2.6597 17.8939 18.1550 -9.3800 -1.6601 42.8738
#
#
#
# Elastic Compliance Matrix: (Units=1/GPa)
#
#
# Indices 1 2 3 4 5 6 
#
# 1 0.009327 -0.001984 -0.002635 -0.002995 0.004251 0.000874
# 2 -0.001984 0.012786 -0.002164 -0.005615 -0.002624 -0.005627
# 3 -0.002635 -0.002164 0.009602 0.000170 -0.000987 -0.003000
# 4 -0.002995 -0.005615 0.000170 0.030472 -0.006508 0.008872
# 5 0.004251 -0.002624 -0.000987 -0.006508 0.033691 0.001130
# 6 0.000874 -0.005627 -0.003000 0.008872 0.001130 0.028874
#
#
# Mechanical properties :
#
#
# Convention : Reuss Voigt Hill
#
# Bulk Modulus (GPa) = 55.09960 68.83102 61.96531
# Shear Modulus (GPa) = 34.63382 40.85495 37.74439
#
# Velocity S-wave (km/s) = 3.99547 4.33950 4.17103
# Velocity P-wave (km/s) = 6.83243 7.53887 7.19433
#
# Compressibility (1/GPa) = 0.01814895
#
# Stress axis : x y z
#
# Youngs Moduli (GPa) = 107.21431 78.21142 104.14142
#
# Poissons Ratio (x) = 0.15514 0.27442
# Poissons Ratio (y) = 0.21267 0.22541
# Poissons Ratio (z) = 0.28252 0.16929
#
# Static dielectric constant tensor:
#      x y z
#    x 1.753010 -0.013600 0.013550 
#    y -0.013600 1.761200 -0.071010 
#    z 0.013550 -0.071010 1.841500 
# 
# From -- ./inp_files/226603.got.cif
#   From: 2010.05.17/outbox.cif.g08.bks.cpg/sg2_114_cif.got.tgz:226603.got - 2010.06.03 11:33:40.
