data_PCOD9043235
_publ_section_title
;
Structure prediction by ZEFSAII (Michael W. Deem and Ramdas Pophale) SiO2 
 PCOD9043235
Probable space group: P -1
;
_chemical_formula_sum "Si O2"
_cell_formula_units_Z 14
_cell_length_a 8.199717
_cell_length_b 4.971728
_cell_length_c 16.219696
_cell_angle_alpha 94.703834
_cell_angle_beta 57.036129
_cell_angle_gamma 89.360656
_cell_volume 551.676473
_symmetry_space_group_name_H-M "P -1"
_symmetry_group_IT_number 2
_symmetry_cell_setting 'triclinic'
loop_
_space_group_symop_operation_xyz
x,y,z
-x,-y,-z
loop_
_atom_site_type_symbol
_atom_site_label
_atom_site_fract_x
_atom_site_fract_y
_atom_site_fract_z
Si Si1 0.042853 0.256756 0.546064
Si Si2 0.464911 0.327374 0.425752
Si Si3 0.575712 0.068536 0.842570
Si Si4 0.663930 0.497876 0.716076
Si Si5 0.893474 0.373752 0.864708
Si Si6 0.801916 0.187442 0.051083
Si Si7 0.156996 0.836749 0.775325
O O1 0.267943 0.194468 0.504504
O O2 0.000000 0.500000 0.500000
O O3 0.879279 0.338197 0.660601
O O4 0.000000 0.000000 0.500000
O O5 0.500000 0.500000 0.500000
O O6 0.396149 0.471555 0.362232
O O7 0.670788 0.183422 0.338930
O O8 0.663916 0.790981 0.767189
O O9 0.378751 0.975777 0.934843
O O10 0.525880 0.290284 0.791263
O O11 0.714446 0.235640 0.866754
O O12 0.979248 0.639821 0.809685
O O13 0.836238 0.410757 0.978056
O O14 0.067355 0.141138 0.808981
O O15 0.757446 0.252061 0.160494
O O16 0.000000 0.000000 0.000000
#
# Coordination Sequence:
#
# PCOD9043235 Si02
#       7
#     2   2   2   2   2   2   2
#     4  10  23  45  69  97 137 180 236 280 347 412
#     4  11  26  46  73 105 143 185 242 292 353 416
#     4  12  25  45  76 101 146 184 239 287 358 427
#     4  11  25  46  73 102 141 194 231 293 358 418
#     4  11  26  45  73 106 142 187 239 286 353 427
#     4  10  24  46  76 105 144 184 234 294 362 422
#     4  11  25  47  70 105 147 185 234 297 352 414
#
# _framework density 25.377193999999999
#
# number of rings (size 3 to 8) (size 9 to 14) (size 15 to 20)
#    0.000    1.143    1.429    3.429    8.000    3.429 
#    0.000   13.571    0.000    0.000    0.000    0.000 
#    0.000    0.000    0.000    0.000    0.000    0.000 
#
# Total GULP energy -78261.313967 kJ/mol
# GULP energy per Si atom -5590.093855 kJ/mol
# Density = 2.531943 g / cm^3
# Si number density = 25.377194 Si / 1000 Ang^3
#
#
#
# Elastic Constant Matrix: (Units=GPa)
#
#
# Indices 1 2 3 4 5 6 
#
# 1 85.7605 14.5119 29.9383 3.1509 2.6773 34.6118
# 2 14.5119 120.0792 2.5296 12.0181 2.5722 7.5855
# 3 29.9383 2.5296 101.0975 10.8360 -7.9684 -2.1816
# 4 3.1509 12.0181 10.8360 32.1846 6.7606 2.4322
# 5 2.6773 2.5722 -7.9684 6.7606 37.3718 -4.1230
# 6 34.6118 7.5855 -2.1816 2.4322 -4.1230 52.4947
#
#
#
# Elastic Compliance Matrix: (Units=1/GPa)
#
#
# Indices 1 2 3 4 5 6 
#
# 1 0.019881 -0.001591 -0.006845 0.003000 -0.004826 -0.013681
# 2 -0.001591 0.008844 0.000635 -0.003412 0.000255 -0.000024
# 3 -0.006845 0.000635 0.012977 -0.005367 0.004801 0.005586
# 4 0.003000 -0.003412 -0.005367 0.035852 -0.008051 -0.004001
# 5 -0.004826 0.000255 0.004801 -0.008051 0.030239 0.006093
# 6 -0.013681 -0.000024 0.005586 -0.004001 0.006093 0.028969
#
#
# Mechanical properties :
#
#
# Convention : Reuss Voigt Hill
#
# Bulk Modulus (GPa) = 38.31318 44.54411 41.42865
# Shear Modulus (GPa) = 31.04371 41.74071 36.39221
#
# Velocity S-wave (km/s) = 3.50135 4.06003 3.79100
# Velocity P-wave (km/s) = 5.61037 6.29042 5.96010
#
# Compressibility (1/GPa) = 0.02610068
#
# Stress axis : x y z
#
# Youngs Moduli (GPa) = 50.29945 113.06658 77.06145
#
# Poissons Ratio (x) = 0.17990 0.52747
# Poissons Ratio (y) = 0.08003 -0.04895
# Poissons Ratio (z) = 0.34429 -0.07182
#
# Static dielectric constant tensor:
#      x y z
#    x 2.039780 0.050250 -0.051620 
#    y 0.050250 1.968580 -0.028740 
#    z -0.051620 -0.028740 2.111950 
# 
# From -- ./inp_files/124993.got.cif
#   From: 2010.05.17/outbox.cif.g08.bks.cpg/sg2_63_cif.got.tgz:124993.got - 2010.06.03 11:33:40.
