data_PCOD9043939
_publ_section_title
;
Structure prediction by ZEFSAII (Michael W. Deem and Ramdas Pophale) SiO2 
 PCOD9043939
Probable space group: P -1
;
_chemical_formula_sum "Si O2"
_cell_formula_units_Z 12
_cell_length_a 13.505725
_cell_length_b 7.753716
_cell_length_c 9.263411
_cell_angle_alpha 44.138220
_cell_angle_beta 53.539573
_cell_angle_gamma 81.997607
_cell_volume 466.408525
_symmetry_space_group_name_H-M "P -1"
_symmetry_group_IT_number 2
_symmetry_cell_setting 'triclinic'
loop_
_space_group_symop_operation_xyz
x,y,z
-x,-y,-z
loop_
_atom_site_type_symbol
_atom_site_label
_atom_site_fract_x
_atom_site_fract_y
_atom_site_fract_z
Si Si1 0.249279 0.964082 0.231868
Si Si2 0.661168 0.686308 0.683087
Si Si3 0.945470 0.598315 0.850110
Si Si4 0.498989 0.587201 0.611863
Si Si5 0.695290 0.254319 0.421428
Si Si6 0.838267 0.368744 0.775637
O O1 0.296965 0.764712 0.401299
O O2 0.244205 0.895148 0.107295
O O3 0.088099 0.857366 0.496166
O O4 0.373825 0.284926 0.967331
O O5 0.634697 0.693723 0.530731
O O6 0.762118 0.557320 0.706861
O O7 0.725952 0.005642 0.496487
O O8 0.500000 0.500000 0.000000
O O9 0.865018 0.379016 0.918112
O O10 0.810328 0.572811 0.070038
O O11 0.000000 0.500000 0.000000
O O12 0.500000 0.500000 0.500000
O O13 0.448738 0.817670 0.493668
O O14 0.000000 0.500000 0.500000
#
# Coordination Sequence:
#
# PCOD9043939 Si02
#       6
#     2   2   2   2   2   2
#     4  10  23  46  67 103 146 182 238 292 357 420
#     4  12  25  44  73 104 146 189 237 296 354 419
#     4   9  21  44  73  98 134 184 238 295 344 419
#     4  12  27  42  70 105 145 193 230 292 359 429
#     4  11  24  45  68 107 140 187 245 288 352 424
#     4  10  23  46  71 102 140 192 233 292 359 417
#
# _framework density 25.72852
#
# number of rings (size 3 to 8) (size 9 to 14) (size 15 to 20)
#    0.000    1.333    1.667    2.500    4.667    2.000 
#   15.000    1.667    0.000    0.000    0.000    0.000 
#    0.000    0.000    0.000    0.000    0.000    0.000 
#
# Total GULP energy -66877.662028 kJ/mol
# GULP energy per Si atom -5573.138502 kJ/mol
# Density = 2.566996 g / cm^3
# Si number density = 25.728520 Si / 1000 Ang^3
#
#
#
# Elastic Constant Matrix: (Units=GPa)
#
#
# Indices 1 2 3 4 5 6 
#
# 1 164.4093 72.7479 41.2359 9.6549 13.5043 26.4044
# 2 72.7479 94.4389 5.5940 -5.6745 10.9830 15.7518
# 3 41.2359 5.5940 114.1194 8.1826 2.0539 8.3114
# 4 9.6549 -5.6745 8.1826 39.4720 20.0338 1.8839
# 5 13.5043 10.9830 2.0539 20.0338 33.4956 12.9097
# 6 26.4044 15.7518 8.3114 1.8839 12.9097 67.0175
#
#
#
# Elastic Compliance Matrix: (Units=1/GPa)
#
#
# Indices 1 2 3 4 5 6 
#
# 1 0.011035 -0.008393 -0.003157 -0.004042 0.001766 -0.002210
# 2 -0.008393 0.018335 0.001679 0.008231 -0.007667 0.000035
# 3 -0.003157 0.001679 0.009964 -0.001719 0.001372 -0.000602
# 4 -0.004042 0.008231 -0.001719 0.041553 -0.027347 0.003971
# 5 0.001766 -0.007667 0.001372 -0.027347 0.051063 -0.008131
# 6 -0.002210 0.000035 -0.000602 0.003971 -0.008131 0.017314
#
#
# Mechanical properties :
#
#
# Convention : Reuss Voigt Hill
#
# Bulk Modulus (GPa) = 51.04038 68.01368 59.52703
# Shear Modulus (GPa) = 28.48401 44.88967 36.68684
#
# Velocity S-wave (km/s) = 3.33092 4.18154 3.78023
# Velocity P-wave (km/s) = 5.88850 7.05736 6.49926
#
# Compressibility (1/GPa) = 0.01959233
#
# Stress axis : x y z
#
# Youngs Moduli (GPa) = 90.61747 54.53930 100.36467
#
# Poissons Ratio (x) = 0.45777 0.31686
# Poissons Ratio (y) = 0.76059 -0.16855
# Poissons Ratio (z) = 0.28609 -0.09159
#
# Static dielectric constant tensor:
#      x y z
#    x 2.352510 -0.201690 -0.187960 
#    y -0.201690 2.166970 0.127550 
#    z -0.187960 0.127550 2.343810 
# 
# From -- ./inp_files/26307.got.cif
#   From: 2010.05.17/outbox.cif.g08.bks.cpg/sg2_14_cif.got.tgz:26307.got - 2010.06.03 11:33:40.
