data_PCOD9043672
_publ_section_title
;
Structure prediction by ZEFSAII (Michael W. Deem and Ramdas Pophale) SiO2 
 PCOD9043672
Probable space group: P -1
;
_chemical_formula_sum "Si O2"
_cell_formula_units_Z 16
_cell_length_a 18.703956
_cell_length_b 5.009036
_cell_length_c 8.453848
_cell_angle_alpha 95.855998
_cell_angle_beta 59.535110
_cell_angle_gamma 78.608536
_cell_volume 649.796310
_symmetry_space_group_name_H-M "P -1"
_symmetry_group_IT_number 2
_symmetry_cell_setting 'triclinic'
loop_
_space_group_symop_operation_xyz
x,y,z
-x,-y,-z
loop_
_atom_site_type_symbol
_atom_site_label
_atom_site_fract_x
_atom_site_fract_y
_atom_site_fract_z
Si Si1 0.999546 0.270429 0.110648
Si Si2 0.889816 0.122086 0.611642
Si Si3 0.398459 0.662400 0.615520
Si Si4 0.560096 0.224766 0.755282
Si Si5 0.436577 0.844268 0.909330
Si Si6 0.840326 0.624982 0.493317
Si Si7 0.819177 0.018669 0.010807
Si Si8 0.253617 0.383633 0.718715
O O1 0.918847 0.385967 0.315447
O O2 0.086999 0.204064 0.101920
O O3 0.000000 0.500000 0.000000
O O4 0.000000 0.000000 0.000000
O O5 0.867572 0.907681 0.498318
O O6 0.845740 0.453768 0.640101
O O7 0.825196 0.096159 0.826823
O O8 0.000000 0.000000 0.500000
O O9 0.500000 0.500000 0.500000
O O10 0.388637 0.833768 0.471425
O O11 0.381544 0.805409 0.816818
O O12 0.345512 0.439544 0.644568
O O13 0.516859 0.560583 0.823011
O O14 0.480640 0.087545 0.836690
O O15 0.606695 0.125695 0.865772
O O16 0.765848 0.662438 0.446672
O O17 0.763373 0.853438 0.162196
O O18 0.808388 0.309048 0.136509
#
# Coordination Sequence:
#
# PCOD9043672 Si02
#       8
#     2   2   2   2   2   2   2   2
#     4  12  21  37  69  97 127 178 228 272 329 405
#     4  12  26  42  69 103 141 185 232 275 345 421
#     4  10  23  45  73  97 131 185 241 293 354 423
#     4   9  18  35  62  96 120 159 209 282 336 411
#     4   9  18  35  63  93 125 152 215 276 344 402
#     4  12  24  42  67 101 137 181 232 283 334 416
#     4  12  25  44  65 102 139 181 224 289 341 420
#     4  12  27  45  69  98 141 181 241 288 359 414
#
# _framework density 24.623100000000001
#
# number of rings (size 3 to 8) (size 9 to 14) (size 15 to 20)
#    0.000    1.000    3.750    3.000    1.750    4.000 
#    4.500    0.000    2.750    0.000    0.000    0.000 
#    0.000    0.000    0.000    0.000    0.000    0.000 
#
# Total GULP energy -89241.131709 kJ/mol
# GULP energy per Si atom -5577.570732 kJ/mol
# Density = 2.456706 g / cm^3
# Si number density = 24.623100 Si / 1000 Ang^3
#
#
#
# Elastic Constant Matrix: (Units=GPa)
#
#
# Indices 1 2 3 4 5 6 
#
# 1 125.1877 23.6995 39.0104 -11.3829 16.8393 19.6765
# 2 23.6995 120.2577 23.5060 -25.8633 14.7137 18.3340
# 3 39.0104 23.5060 143.5855 -27.9806 21.6906 10.4453
# 4 -11.3829 -25.8633 -27.9806 46.0810 -1.2291 2.9855
# 5 16.8393 14.7137 21.6906 -1.2291 35.8949 6.3217
# 6 19.6765 18.3340 10.4453 2.9855 6.3217 43.8403
#
#
#
# Elastic Compliance Matrix: (Units=1/GPa)
#
#
# Indices 1 2 3 4 5 6 
#
# 1 0.009598 -0.000445 -0.001629 0.001283 -0.002687 -0.003433
# 2 -0.000445 0.010783 0.000448 0.006403 -0.003497 -0.004348
# 3 -0.001629 0.000448 0.009166 0.005381 -0.004536 -0.001352
# 4 0.001283 0.006403 0.005381 0.029141 -0.004445 -0.005879
# 5 -0.002687 -0.003497 -0.004536 -0.004445 0.033273 -0.000746
# 6 -0.003433 -0.004348 -0.001352 -0.005879 -0.000746 0.027000
#
#
# Mechanical properties :
#
#
# Convention : Reuss Voigt Hill
#
# Bulk Modulus (GPa) = 38.03040 62.38473 50.20757
# Shear Modulus (GPa) = 38.17422 45.35089 41.76256
#
# Velocity S-wave (km/s) = 3.94171 4.29628 4.12281
# Velocity P-wave (km/s) = 6.01620 7.07118 6.56491
#
# Compressibility (1/GPa) = 0.02629476
#
# Stress axis : x y z
#
# Youngs Moduli (GPa) = 104.19285 92.73464 109.09896
#
# Poissons Ratio (x) = 0.04126 0.17773
# Poissons Ratio (y) = 0.04636 -0.04886
# Poissons Ratio (z) = 0.16974 -0.04154
#
# Static dielectric constant tensor:
#      x y z
#    x 2.043410 -0.156150 0.174710 
#    y -0.156150 2.358010 -0.751470 
#    z 0.174710 -0.751470 3.604690 
# 
# From -- ./inp_files/323683.got.cif
#   From: 2010.05.17/outbox.cif.g08.bks.cpg/sg2_162_cif.got.tgz:323683.got - 2010.06.03 11:33:40.
