data_PCOD9043894
_publ_section_title
;
Structure prediction by ZEFSAII (Michael W. Deem and Ramdas Pophale) SiO2 
 PCOD9043894
Probable space group: P -1
;
_chemical_formula_sum "Si O2"
_cell_formula_units_Z 16
_cell_length_a 16.750622
_cell_length_b 8.050207
_cell_length_c 12.324569
_cell_angle_alpha 107.714724
_cell_angle_beta 25.891311
_cell_angle_gamma 117.203299
_cell_volume 620.459737
_symmetry_space_group_name_H-M "P -1"
_symmetry_group_IT_number 2
_symmetry_cell_setting 'triclinic'
loop_
_space_group_symop_operation_xyz
x,y,z
-x,-y,-z
loop_
_atom_site_type_symbol
_atom_site_label
_atom_site_fract_x
_atom_site_fract_y
_atom_site_fract_z
Si Si1 0.305700 0.137154 0.032251
Si Si2 0.298867 0.735362 0.017197
Si Si3 0.886431 0.064617 0.434882
Si Si4 0.795342 0.997311 0.294054
Si Si5 0.457148 0.242576 0.080786
Si Si6 0.397367 0.642071 0.648924
Si Si7 0.710295 0.364333 0.455921
Si Si8 0.884022 0.456765 0.478181
O O1 0.081275 0.047295 0.240263
O O2 0.320409 0.257900 0.149548
O O3 0.365760 0.963566 0.958674
O O4 0.473870 0.265062 0.764074
O O5 0.444364 0.680952 0.905516
O O6 0.283206 0.641644 0.899178
O O7 0.073689 0.645087 0.327040
O O8 0.699751 0.974845 0.729992
O O9 0.798376 0.949116 0.407759
O O10 0.962141 0.289217 0.355623
O O11 0.793051 0.203286 0.331230
O O12 0.591617 0.853308 0.452294
O O13 0.000000 0.000000 0.000000
O O14 0.668446 0.336509 0.775066
O O15 0.500000 0.500000 0.500000
O O16 0.269780 0.582894 0.683133
O O17 0.826939 0.509940 0.439598
#
# Coordination Sequence:
#
# PCOD9043894 Si02
#       8
#     2   2   2   2   2   2   2   2
#     4  11  23  41  73  96 130 173 221 273 322 398
#     4  12  24  43  65  99 134 175 216 269 341 382
#     4  11  22  41  68 101 127 173 228 263 325 400
#     4  11  23  41  69  96 129 178 222 268 320 398
#     4  11  22  46  69  95 133 175 223 269 327 393
#     4  12  27  42  67  97 138 174 216 278 328 387
#     4  10  23  46  65  96 132 177 222 264 328 396
#     4  10  24  42  69  95 136 174 211 279 332 387
#
# _framework density 25.787329
#
# number of rings (size 3 to 8) (size 9 to 14) (size 15 to 20)
#    0.000    1.000    2.500    4.875    7.000    1.500 
#    0.000    1.250    0.000    0.000    0.000    0.000 
#    0.000    0.000    0.000    0.000    0.000    0.000 
#
# Total GULP energy -89312.839958 kJ/mol
# GULP energy per Si atom -5582.052497 kJ/mol
# Density = 2.572864 g / cm^3
# Si number density = 25.787329 Si / 1000 Ang^3
#
#
#
# Elastic Constant Matrix: (Units=GPa)
#
#
# Indices 1 2 3 4 5 6 
#
# 1 185.8307 1.6962 37.4355 14.0138 20.1954 -7.5028
# 2 1.6962 43.9669 14.5226 2.5637 -0.9104 3.1325
# 3 37.4355 14.5226 100.4890 -4.3248 -6.8012 -5.0736
# 4 14.0138 2.5637 -4.3248 21.9408 5.2487 -12.0263
# 5 20.1954 -0.9104 -6.8012 5.2487 37.3274 1.2034
# 6 -7.5028 3.1325 -5.0736 -12.0263 1.2034 27.3170
#
#
#
# Elastic Compliance Matrix: (Units=1/GPa)
#
#
# Indices 1 2 3 4 5 6 
#
# 1 0.006694 0.001012 -0.003109 -0.004556 -0.003500 -0.000707
# 2 0.001012 0.025322 -0.004741 -0.008751 0.000675 -0.007388
# 3 -0.003109 -0.004741 0.012538 0.007130 0.002686 0.005039
# 4 -0.004556 -0.008751 0.007130 0.070457 -0.007401 0.032421
# 5 -0.003500 0.000675 0.002686 -0.007401 0.030396 -0.005137
# 6 -0.000707 -0.007388 0.005039 0.032421 -0.005137 0.052696
#
#
# Mechanical properties :
#
#
# Convention : Reuss Voigt Hill
#
# Bulk Modulus (GPa) = 32.38435 48.62169 40.50302
# Shear Modulus (GPa) = 22.51564 35.75917 29.13740
#
# Velocity S-wave (km/s) = 2.95808 3.72788 3.36506
# Velocity P-wave (km/s) = 4.92468 6.11762 5.55327
#
# Compressibility (1/GPa) = 0.03087911
#
# Stress axis : x y z
#
# Youngs Moduli (GPa) = 149.39607 39.49165 79.76062
#
# Poissons Ratio (x) = -0.03997 0.24794
# Poissons Ratio (y) = -0.15120 0.37811
# Poissons Ratio (z) = 0.46440 0.18721
#
# Static dielectric constant tensor:
#      x y z
#    x 2.104170 0.007120 0.087090 
#    y 0.007120 1.953260 0.100730 
#    z 0.087090 0.100730 1.985330 
# 
# From -- ./inp_files/447474.got.cif
#   From: 2010.05.17/outbox.cif.g08.bks.cpg/sg2_224_cif.got.tgz:447474.got - 2010.06.03 11:33:40.
