data_PCOD9043744
_publ_section_title
;
Structure prediction by ZEFSAII (Michael W. Deem and Ramdas Pophale) SiO2 
 PCOD9043744
Probable space group: P -1
;
_chemical_formula_sum "Si O2"
_cell_formula_units_Z 14
_cell_length_a 6.910787
_cell_length_b 8.026463
_cell_length_c 11.482514
_cell_angle_alpha 99.411371
_cell_angle_beta 67.421547
_cell_angle_gamma 67.293539
_cell_volume 504.889716
_symmetry_space_group_name_H-M "P -1"
_symmetry_group_IT_number 2
_symmetry_cell_setting 'triclinic'
loop_
_space_group_symop_operation_xyz
x,y,z
-x,-y,-z
loop_
_atom_site_type_symbol
_atom_site_label
_atom_site_fract_x
_atom_site_fract_y
_atom_site_fract_z
Si Si1 0.474744 0.831173 0.051006
Si Si2 0.228137 0.784382 0.897351
Si Si3 0.637524 0.092785 0.544550
Si Si4 0.017284 0.528300 0.334955
Si Si5 0.941327 0.884504 0.670160
Si Si6 0.223067 0.395886 0.826838
Si Si7 0.412319 0.407909 0.407488
O O1 0.681378 0.719399 0.086800
O O2 0.218827 0.940489 0.187349
O O3 0.430333 0.720196 0.943931
O O4 0.500000 0.000000 0.000000
O O5 0.158266 0.615928 0.888991
O O6 0.372154 0.756863 0.739310
O O7 0.000000 0.000000 0.000000
O O8 0.457309 0.286383 0.678350
O O9 0.811560 0.123416 0.421431
O O10 0.500000 0.000000 0.500000
O O11 0.797481 0.947987 0.591058
O O12 0.058169 0.307139 0.302839
O O13 0.225033 0.537828 0.361741
O O14 0.974181 0.599753 0.218833
O O15 0.773150 0.632005 0.479599
O O16 0.500000 0.500000 0.500000
#
# Coordination Sequence:
#
# PCOD9043744 Si02
#       7
#     2   2   2   2   2   2   2
#     4  11  26  52  79 114 171 231 289 350 426 521
#     4  12  26  49  82 118 170 230 280 350 431 513
#     4  10  24  45  79 117 165 213 281 362 422 506
#     4  11  24  44  83 123 159 216 285 358 436 504
#     4  10  23  45  74 115 159 217 283 344 429 501
#     4  11  25  51  77 122 166 218 288 354 431 511
#     4  11  25  45  78 120 168 217 282 355 426 513
#
# _framework density 27.728829000000001
#
# number of rings (size 3 to 8) (size 9 to 14) (size 15 to 20)
#    0.000    1.143    1.429    3.000    4.000    0.000 
#   10.286    6.429    0.000    0.000    0.000    0.000 
#    0.000    0.000    0.000    0.000    0.000    0.000 
#
# Total GULP energy -78357.372024 kJ/mol
# GULP energy per Si atom -5596.955145 kJ/mol
# Density = 2.766572 g / cm^3
# Si number density = 27.728829 Si / 1000 Ang^3
#
#
#
# Elastic Constant Matrix: (Units=GPa)
#
#
# Indices 1 2 3 4 5 6 
#
# 1 174.5478 46.7772 106.3777 13.0569 25.5000 -12.8664
# 2 46.7772 141.6188 77.2745 -2.1845 13.4124 -33.4424
# 3 106.3777 77.2745 252.4357 -11.6844 32.2426 -28.8653
# 4 13.0569 -2.1845 -11.6844 69.1447 -32.3790 12.5124
# 5 25.5000 13.4124 32.2426 -32.3790 70.4760 7.0712
# 6 -12.8664 -33.4424 -28.8653 12.5124 7.0712 32.6929
#
#
#
# Elastic Compliance Matrix: (Units=1/GPa)
#
#
# Indices 1 2 3 4 5 6 
#
# 1 0.008828 -0.000123 -0.002931 -0.004896 -0.004440 0.003595
# 2 -0.000123 0.011394 -0.001550 -0.004458 -0.004765 0.012975
# 3 -0.002931 -0.001550 0.006252 0.000197 -0.001723 0.003078
# 4 -0.004896 -0.004458 0.000197 0.026858 0.016900 -0.020248
# 5 -0.004440 -0.004765 -0.001723 0.016900 0.027314 -0.020519
# 6 0.003595 0.012975 0.003078 -0.020248 -0.020519 0.060180
#
#
# Mechanical properties :
#
#
# Convention : Reuss Voigt Hill
#
# Bulk Modulus (GPa) = 57.91569 114.38455 86.15012
# Shear Modulus (GPa) = 32.09439 57.00758 44.55098
#
# Velocity S-wave (km/s) = 3.40580 4.53912 4.01267
# Velocity P-wave (km/s) = 6.03306 8.29531 7.25293
#
# Compressibility (1/GPa) = 0.01726648
#
# Stress axis : x y z
#
# Youngs Moduli (GPa) = 113.27287 87.76442 159.93929
#
# Poissons Ratio (x) = 0.01077 0.46880
# Poissons Ratio (y) = 0.01390 0.24796
# Poissons Ratio (z) = 0.33202 0.13606
#
# Static dielectric constant tensor:
#      x y z
#    x 2.240370 -0.068160 0.027520 
#    y -0.068160 2.273010 -0.011110 
#    z 0.027520 -0.011110 2.179130 
# 
# From -- ./inp_files/224503.got.cif
#   From: 2010.05.17/outbox.cif.g08.bks.cpg/sg2_113_cif.got.tgz:224503.got - 2010.06.03 11:33:40.
