data_PCOD9043317
_publ_section_title
;
Structure prediction by ZEFSAII (Michael W. Deem and Ramdas Pophale) SiO2 
 PCOD9043317
Probable space group: P -1
;
_chemical_formula_sum "Si O2"
_cell_formula_units_Z 14
_cell_length_a 11.743407
_cell_length_b 15.543349
_cell_length_c 5.806745
_cell_angle_alpha 82.507736
_cell_angle_beta 63.038269
_cell_angle_gamma 129.691208
_cell_volume 574.748265
_symmetry_space_group_name_H-M "P -1"
_symmetry_group_IT_number 2
_symmetry_cell_setting 'triclinic'
loop_
_space_group_symop_operation_xyz
x,y,z
-x,-y,-z
loop_
_atom_site_type_symbol
_atom_site_label
_atom_site_fract_x
_atom_site_fract_y
_atom_site_fract_z
Si Si1 0.208582 0.737435 0.679418
Si Si2 0.566769 0.497562 0.689114
Si Si3 0.800827 0.835692 0.183630
Si Si4 0.348001 0.078527 0.952270
Si Si5 0.413115 0.261593 0.137168
Si Si6 0.859799 0.460777 0.845372
Si Si7 0.021538 0.791936 0.085880
O O1 0.425347 0.844303 0.304926
O O2 0.997145 0.611201 0.772923
O O3 0.191800 0.645284 0.896319
O O4 0.182408 0.813719 0.806936
O O5 0.500000 0.500000 0.500000
O O6 0.818679 0.628057 0.409930
O O7 0.500000 0.500000 0.000000
O O8 0.437827 0.337689 0.868069
O O9 0.654129 0.839120 0.244717
O O10 0.710732 0.758723 0.540441
O O11 0.918260 0.809481 0.006801
O O12 0.000000 0.000000 0.000000
O O13 0.323681 0.119810 0.197774
O O14 0.159529 0.914461 0.112450
O O15 0.645250 0.377078 0.970702
O O16 0.000000 0.500000 0.500000
#
# Coordination Sequence:
#
# PCOD9043317 Si02
#       7
#     2   2   2   2   2   2   2
#     4  11  24  43  72 103 150 192 253 315 380 464
#     4  12  28  50  76 117 159 204 261 327 390 463
#     4  10  23  45  70 103 148 194 246 304 385 456
#     4  11  24  47  72 103 148 198 252 313 388 462
#     4  12  24  45  78 104 147 202 262 314 383 468
#     4  11  23  43  70 106 139 198 250 312 382 455
#     4  11  25  46  71 111 148 197 250 323 384 456
#
# _framework density 24.358488000000001
#
# number of rings (size 3 to 8) (size 9 to 14) (size 15 to 20)
#    0.000    0.857    4.286    2.143    4.000    2.286 
#    5.143    0.714    0.000    0.000    0.000    0.000 
#    0.000    0.000    0.000    0.000    0.000    0.000 
#
# Total GULP energy -78045.243733 kJ/mol
# GULP energy per Si atom -5574.660267 kJ/mol
# Density = 2.430305 g / cm^3
# Si number density = 24.358488 Si / 1000 Ang^3
#
#
#
# Elastic Constant Matrix: (Units=GPa)
#
#
# Indices 1 2 3 4 5 6 
#
# 1 68.4355 -7.0760 3.4435 2.2777 -18.5943 7.1013
# 2 -7.0760 59.6964 -15.6466 16.0108 -11.9638 -4.6730
# 3 3.4435 -15.6466 72.2300 6.6360 -6.2471 -2.9919
# 4 2.2777 16.0108 6.6360 35.8876 -6.0086 -2.4450
# 5 -18.5943 -11.9638 -6.2471 -6.0086 34.1807 3.6071
# 6 7.1013 -4.6730 -2.9919 -2.4450 3.6071 36.7281
#
#
#
# Elastic Compliance Matrix: (Units=1/GPa)
#
#
# Indices 1 2 3 4 5 6 
#
# 1 0.019014 0.005330 0.001343 -0.002022 0.012548 -0.004256
# 2 0.005330 0.024254 0.006934 -0.010590 0.010703 0.000864
# 3 0.001343 0.006934 0.016251 -0.005257 0.005088 0.001097
# 4 -0.002022 -0.010590 -0.005257 0.033761 0.000077 0.000855
# 5 0.012548 0.010703 0.005088 0.000077 0.041268 -0.004698
# 6 -0.004256 0.000864 0.001097 0.000855 -0.004698 0.028768
#
#
# Mechanical properties :
#
#
# Convention : Reuss Voigt Hill
#
# Bulk Modulus (GPa) = 11.52976 17.97819 14.75398
# Shear Modulus (GPa) = 30.30071 36.00202 33.15137
#
# Velocity S-wave (km/s) = 3.53079 3.84866 3.69315
# Velocity P-wave (km/s) = 4.62230 5.21021 4.92503
#
# Compressibility (1/GPa) = 0.08673210
#
# Stress axis : x y z
#
# Youngs Moduli (GPa) = 52.59256 41.23113 61.53386
#
# Poissons Ratio (x) = -0.21975 -0.08263
# Poissons Ratio (y) = -0.28030 -0.42669
# Poissons Ratio (z) = -0.07062 -0.28590
#
# Static dielectric constant tensor:
#      x y z
#    x 2.079290 0.032420 0.134980 
#    y 0.032420 1.817610 -0.035600 
#    z 0.134980 -0.035600 1.840700 
# 
# From -- ./inp_files/77810.got.cif
#   From: 2010.05.17/outbox.cif.g08.bks.cpg/sg2_39_cif.got.tgz:77810.got - 2010.06.03 11:33:40.
