data_PCOD9043228
_publ_section_title
;
Structure prediction by ZEFSAII (Michael W. Deem and Ramdas Pophale) SiO2 
 PCOD9043228
Probable space group: P -1
;
_chemical_formula_sum "Si O2"
_cell_formula_units_Z 16
_cell_length_a 7.957163
_cell_length_b 13.093265
_cell_length_c 16.517232
_cell_angle_alpha 29.175416
_cell_angle_beta 56.576174
_cell_angle_gamma 66.871950
_cell_volume 683.519958
_symmetry_space_group_name_H-M "P -1"
_symmetry_group_IT_number 2
_symmetry_cell_setting 'triclinic'
loop_
_space_group_symop_operation_xyz
x,y,z
-x,-y,-z
loop_
_atom_site_type_symbol
_atom_site_label
_atom_site_fract_x
_atom_site_fract_y
_atom_site_fract_z
Si Si1 0.829874 0.433742 0.659420
Si Si2 0.054458 0.160425 0.542098
Si Si3 0.586468 0.785650 0.144095
Si Si4 0.643434 0.900579 0.773885
Si Si5 0.031488 0.829758 0.922979
Si Si6 0.273060 0.953098 0.932686
Si Si7 0.952613 0.597927 0.859969
Si Si8 0.662897 0.014412 0.518754
O O1 0.869334 0.617930 0.587857
O O2 0.605506 0.401223 0.699622
O O3 0.000000 0.500000 0.500000
O O4 0.843975 0.216224 0.853410
O O5 0.192777 0.145093 0.437768
O O6 0.817760 0.102619 0.617770
O O7 0.072351 0.974450 0.731251
O O8 0.787284 0.782195 0.040222
O O9 0.653016 0.822937 0.194604
O O10 0.500000 0.000000 0.000000
O O11 0.470142 0.860545 0.915338
O O12 0.768487 0.717993 0.845585
O O13 0.554022 0.954388 0.674434
O O14 0.093932 0.601604 0.050822
O O15 0.143179 0.951346 0.887251
O O16 0.165545 0.766559 0.666650
O O17 0.000000 0.500000 0.000000
O O18 0.500000 0.000000 0.500000
#
# Coordination Sequence:
#
# PCOD9043228 Si02
#       8
#     2   2   2   2   2   2   2   2
#     4  11  24  43  71  99 126 176 230 285 349 407
#     4  11  22  42  65  97 137 181 223 279 337 399
#     4  10  23  45  69  94 132 176 225 283 342 406
#     4  11  24  45  69  99 145 186 227 277 347 405
#     4  12  24  44  69 103 139 181 230 280 340 415
#     4  11  25  44  71  98 134 181 229 287 345 414
#     4  11  24  42  69 100 144 186 227 277 339 411
#     4  11  25  42  66 100 143 181 227 281 334 409
#
# _framework density 23.408238999999998
#
# number of rings (size 3 to 8) (size 9 to 14) (size 15 to 20)
#    0.000    1.000    2.500    6.375    5.250    0.500 
#    0.000    1.250    0.000    0.000    0.000    0.000 
#    0.000    0.000    0.000    0.000    0.000    0.000 
#
# Total GULP energy -89535.010398 kJ/mol
# GULP energy per Si atom -5595.938150 kJ/mol
# Density = 2.335496 g / cm^3
# Si number density = 23.408239 Si / 1000 Ang^3
#
#
#
# Elastic Constant Matrix: (Units=GPa)
#
#
# Indices 1 2 3 4 5 6 
#
# 1 89.8516 21.1559 16.0893 3.1473 -17.2005 18.3796
# 2 21.1559 121.1497 41.1568 -7.5282 -13.1982 17.3639
# 3 16.0893 41.1568 51.0596 18.3878 -4.4524 -0.9121
# 4 3.1473 -7.5282 18.3878 48.0845 4.1506 -7.4540
# 5 -17.2005 -13.1982 -4.4524 4.1506 29.0064 10.8951
# 6 18.3796 17.3639 -0.9121 -7.4540 10.8951 50.7054
#
#
#
# Elastic Compliance Matrix: (Units=1/GPa)
#
#
# Indices 1 2 3 4 5 6 
#
# 1 0.016214 0.001511 -0.004729 -0.001665 0.013424 -0.009609
# 2 0.001511 0.014871 -0.014124 0.006005 0.007090 -0.006535
# 3 -0.004729 -0.014124 0.037714 -0.015138 -0.003432 0.005741
# 4 -0.001665 0.006005 -0.015138 0.028755 -0.006127 0.003818
# 5 0.013424 0.007090 -0.003432 -0.006127 0.053424 -0.019735
# 6 -0.009609 -0.006535 0.005741 0.003818 -0.019735 0.030348
#
#
# Mechanical properties :
#
#
# Convention : Reuss Voigt Hill
#
# Bulk Modulus (GPa) = 29.31182 46.54054 37.92618
# Shear Modulus (GPa) = 21.98947 37.80318 29.89632
#
# Velocity S-wave (km/s) = 3.06827 4.02301 3.57763
# Velocity P-wave (km/s) = 5.01015 6.44242 5.77089
#
# Compressibility (1/GPa) = 0.03411593
#
# Stress axis : x y z
#
# Youngs Moduli (GPa) = 61.67487 67.24666 26.51502
#
# Poissons Ratio (x) = -0.10163 0.12539
# Poissons Ratio (y) = -0.09321 0.37450
# Poissons Ratio (z) = 0.29166 0.94979
#
# Static dielectric constant tensor:
#      x y z
#    x 1.975540 -0.003900 -0.005190 
#    y -0.003900 1.910020 -0.016860 
#    z -0.005190 -0.016860 1.880560 
# 
# From -- ./inp_files/499862.got.cif
#   From: 2010.05.17/outbox.cif.g08.bks.cpg/sg2_250_cif.got.tgz:499862.got - 2010.06.03 11:33:40.
