data_PCOD9043551
_publ_section_title
;
Structure prediction by ZEFSAII (Michael W. Deem and Ramdas Pophale) SiO2 
 PCOD9043551
Probable space group: P -1
;
_chemical_formula_sum "Si O2"
_cell_formula_units_Z 14
_cell_length_a 9.668476
_cell_length_b 12.190156
_cell_length_c 7.563500
_cell_angle_alpha 91.613224
_cell_angle_beta 115.112684
_cell_angle_gamma 128.233765
_cell_volume 578.611231
_symmetry_space_group_name_H-M "P -1"
_symmetry_group_IT_number 2
_symmetry_cell_setting 'triclinic'
loop_
_space_group_symop_operation_xyz
x,y,z
-x,-y,-z
loop_
_atom_site_type_symbol
_atom_site_label
_atom_site_fract_x
_atom_site_fract_y
_atom_site_fract_z
Si Si1 0.499676 0.367428 0.002390
Si Si2 0.550849 0.695039 0.641907
Si Si3 0.076530 0.434146 0.922831
Si Si4 0.174132 0.359054 0.307168
Si Si5 0.418421 0.157570 0.674640
Si Si6 0.691721 0.181367 0.116454
Si Si7 0.291467 0.869536 0.498811
O O1 0.405539 0.268424 0.126256
O O2 0.750137 0.458036 0.130655
O O3 0.500000 0.500000 0.000000
O O4 0.373575 0.245427 0.767448
O O5 0.341592 0.512407 0.518947
O O6 0.747486 0.725188 0.667715
O O7 0.517779 0.774217 0.485382
O O8 0.889389 0.269494 0.729888
O O9 0.203135 0.423159 0.130175
O O10 0.000000 0.500000 0.000000
O O11 0.929917 0.257714 0.216392
O O12 0.251570 0.973389 0.560504
O O13 0.613655 0.209177 0.902267
O O14 0.500000 0.000000 0.000000
O O15 0.689738 0.204523 0.327751
O O16 0.500000 0.000000 0.500000
#
# Coordination Sequence:
#
# PCOD9043551 Si02
#       7
#     2   2   2   2   2   2   2
#     4  12  23  45  74 105 147 191 244 300 362 439
#     4  11  24  43  73 108 148 193 239 302 377 435
#     4  12  24  44  76 110 143 192 253 305 361 437
#     4  11  22  44  70 106 149 186 246 307 362 443
#     4  11  25  47  72 108 149 188 246 305 364 443
#     4  10  23  45  72 102 143 195 246 305 367 435
#     4  11  25  45  69 106 147 190 239 304 374 429
#
# _framework density 24.195865000000001
#
# number of rings (size 3 to 8) (size 9 to 14) (size 15 to 20)
#    0.000    0.857    2.857    5.143    2.000    0.000 
#    0.000   10.000    0.000    0.000    0.000    0.000 
#    0.000    0.000    0.000    0.000    0.000    0.000 
#
# Total GULP energy -78098.214088 kJ/mol
# GULP energy per Si atom -5578.443863 kJ/mol
# Density = 2.414079 g / cm^3
# Si number density = 24.195865 Si / 1000 Ang^3
#
#
#
# Elastic Constant Matrix: (Units=GPa)
#
#
# Indices 1 2 3 4 5 6 
#
# 1 97.0521 42.3220 40.0662 -12.1611 -6.0684 -7.8927
# 2 42.3220 99.4733 31.9599 -16.7200 -15.4991 -13.8379
# 3 40.0662 31.9599 125.5760 -8.5865 -32.2597 -8.7597
# 4 -12.1611 -16.7200 -8.5865 66.6718 2.9125 -15.1155
# 5 -6.0684 -15.4991 -32.2597 2.9125 46.0282 -0.2813
# 6 -7.8927 -13.8379 -8.7597 -15.1155 -0.2813 37.1495
#
#
#
# Elastic Compliance Matrix: (Units=1/GPa)
#
#
# Indices 1 2 3 4 5 6 
#
# 1 0.014012 -0.004854 -0.003744 0.001129 -0.002478 0.000727
# 2 -0.004854 0.014272 -0.000498 0.003771 0.003613 0.005729
# 3 -0.003744 -0.000498 0.011348 0.000808 0.007254 0.002079
# 4 0.001129 0.003771 0.000808 0.018324 0.000882 0.009297
# 5 -0.002478 0.003613 0.007254 0.000882 0.027663 0.003098
# 6 0.000727 0.005729 0.002079 0.009297 0.003098 0.033503
#
#
# Mechanical properties :
#
#
# Convention : Reuss Voigt Hill
#
# Bulk Modulus (GPa) = 46.64045 61.19973 53.92009
# Shear Modulus (GPa) = 34.61172 43.82013 39.21593
#
# Velocity S-wave (km/s) = 3.78627 4.26027 4.03025
# Velocity P-wave (km/s) = 6.19940 7.03905 6.63253
#
# Compressibility (1/GPa) = 0.02144061
#
# Stress axis : x y z
#
# Youngs Moduli (GPa) = 71.36949 70.06847 88.11867
#
# Poissons Ratio (x) = 0.34009 0.32991
# Poissons Ratio (y) = 0.34640 0.04388
# Poissons Ratio (z) = 0.26720 0.03489
#
# Static dielectric constant tensor:
#      x y z
#    x 1.977110 -0.040090 -0.183690 
#    y -0.040090 1.998410 0.017050 
#    z -0.183690 0.017050 1.806260 
# 
# From -- ./inp_files/180621.got.cif
#   From: 2010.05.17/outbox.cif.g08.bks.cpg/sg2_91_cif.got.tgz:180621.got - 2010.06.03 11:33:40.
