data_PCOD9043963
_publ_section_title
;
Structure prediction by ZEFSAII (Michael W. Deem and Ramdas Pophale) SiO2 
 PCOD9043963
Probable space group: P -1
;
_chemical_formula_sum "Si O2"
_cell_formula_units_Z 14
_cell_length_a 11.101920
_cell_length_b 12.662649
_cell_length_c 9.540655
_cell_angle_alpha 37.460451
_cell_angle_beta 122.661004
_cell_angle_gamma 130.120673
_cell_volume 622.650464
_symmetry_space_group_name_H-M "P -1"
_symmetry_group_IT_number 2
_symmetry_cell_setting 'triclinic'
loop_
_space_group_symop_operation_xyz
x,y,z
-x,-y,-z
loop_
_atom_site_type_symbol
_atom_site_label
_atom_site_fract_x
_atom_site_fract_y
_atom_site_fract_z
Si Si1 0.989814 0.287884 0.042668
Si Si2 0.328756 0.843734 0.514349
Si Si3 0.552555 0.288796 0.501321
Si Si4 0.300662 0.445897 0.248241
Si Si5 0.050269 0.832279 0.178606
Si Si6 0.841900 0.544192 0.584738
Si Si7 0.295421 0.854372 0.792529
O O1 0.847678 0.151302 0.195826
O O2 0.159199 0.342407 0.158816
O O3 0.973716 0.218885 0.945566
O O4 0.953860 0.474910 0.815892
O O5 0.367132 0.680364 0.635515
O O6 0.227468 0.891019 0.283997
O O7 0.243057 0.822307 0.630751
O O8 0.500000 0.000000 0.500000
O O9 0.448417 0.405537 0.339925
O O10 0.694597 0.361514 0.623482
O O11 0.440074 0.062506 0.683087
O O12 0.233139 0.362687 0.447968
O O13 0.337505 0.672496 0.038604
O O14 0.938127 0.660580 0.389645
O O15 0.000000 0.000000 0.000000
#
# Coordination Sequence:
#
# PCOD9043963 Si02
#       7
#     2   2   2   2   2   2   2
#     4  11  24  45  72  99 135 185 226 291 342 402
#     4  10  23  46  67  99 138 179 221 282 344 405
#     4  11  25  43  72  99 144 184 223 289 341 405
#     4  11  25  43  71 106 135 184 233 280 345 412
#     4  12  27  43  73 104 135 179 235 283 345 415
#     4  11  24  48  68  97 143 180 231 285 341 409
#     4  10  24  45  72  98 142 178 236 277 349 404
#
# _framework density 22.484524
#
# number of rings (size 3 to 8) (size 9 to 14) (size 15 to 20)
#    0.000    1.143    1.429    4.286    8.000    5.714 
#    0.000    0.000    0.000    0.000    0.000    0.000 
#    0.000    0.000    0.000    0.000    0.000    0.000 
#
# Total GULP energy -78206.609176 kJ/mol
# GULP energy per Si atom -5586.186370 kJ/mol
# Density = 2.243335 g / cm^3
# Si number density = 22.484524 Si / 1000 Ang^3
#
#
#
# Elastic Constant Matrix: (Units=GPa)
#
#
# Indices 1 2 3 4 5 6 
#
# 1 61.1439 37.8185 25.1845 18.8896 15.8132 -21.9881
# 2 37.8185 128.7854 32.6669 23.6237 -5.1798 12.3550
# 3 25.1845 32.6669 35.4824 7.8021 -9.5226 -0.9947
# 4 18.8896 23.6237 7.8021 33.1205 -12.0495 -9.7948
# 5 15.8132 -5.1798 -9.5226 -12.0495 38.9763 8.2776
# 6 -21.9881 12.3550 -0.9947 -9.7948 8.2776 50.6305
#
#
#
# Elastic Compliance Matrix: (Units=1/GPa)
#
#
# Indices 1 2 3 4 5 6 
#
# 1 0.179482 -0.018077 -0.129860 -0.088599 -0.152958 0.087674
# 2 -0.018077 0.014069 0.002873 0.000344 0.012828 -0.013258
# 3 -0.129860 0.002873 0.133471 0.065767 0.119008 -0.061209
# 4 -0.088599 0.000344 0.065767 0.086021 0.086020 -0.034691
# 5 -0.152958 0.012828 0.119008 0.086020 0.161434 -0.076971
# 6 0.087674 -0.013258 -0.061209 -0.034691 -0.076971 0.065732
#
#
# Mechanical properties :
#
#
# Convention : Reuss Voigt Hill
#
# Bulk Modulus (GPa) = 27.10429 46.30573 36.70501
# Shear Modulus (GPa) = 5.30428 33.19492 19.24960
#
# Velocity S-wave (km/s) = 1.53760 3.84649 2.92914
# Velocity P-wave (km/s) = 3.90296 6.35347 5.27255
#
# Compressibility (1/GPa) = 0.03689453
#
# Stress axis : x y z
#
# Youngs Moduli (GPa) = 5.57158 71.07680 7.49228
#
# Poissons Ratio (x) = 1.28488 0.97295
# Poissons Ratio (y) = 0.10072 -0.02153
# Poissons Ratio (z) = 0.72352 -0.20423
#
# Static dielectric constant tensor:
#      x y z
#    x 1.989320 -0.029860 -0.157880 
#    y -0.029860 1.830310 -0.000580 
#    z -0.157880 -0.000580 1.935380 
# 
# From -- ./inp_files/261333.got.cif
#   From: 2010.05.17/outbox.cif.g08.bks.cpg/sg2_131_cif.got.tgz:261333.got - 2010.06.03 11:33:40.
