data_PCOD9043406
_publ_section_title
;
Structure prediction by ZEFSAII (Michael W. Deem and Ramdas Pophale) SiO2 
 PCOD9043406
Probable space group: P -1
;
_chemical_formula_sum "Si O2"
_cell_formula_units_Z 11
_cell_length_a 5.206612
_cell_length_b 12.129355
_cell_length_c 8.970599
_cell_angle_alpha 124.295135
_cell_angle_beta 67.386159
_cell_angle_gamma 108.123905
_cell_volume 428.720528
_symmetry_space_group_name_H-M "P -1"
_symmetry_group_IT_number 2
_symmetry_cell_setting 'triclinic'
loop_
_space_group_symop_operation_xyz
x,y,z
-x,-y,-z
loop_
_atom_site_type_symbol
_atom_site_label
_atom_site_fract_x
_atom_site_fract_y
_atom_site_fract_z
Si Si1 0.305769 0.430344 0.278197
Si Si2 0.206236 0.736200 0.914937
Si Si3 0.967702 0.326621 0.539121
Si Si4 0.500000 0.000000 0.500000
Si Si5 0.228835 0.924413 0.807094
Si Si6 0.084095 0.158497 0.661453
O O1 0.591676 0.366961 0.148576
O O2 0.283332 0.581921 0.348181
O O3 0.060451 0.343101 0.170898
O O4 0.216412 0.415637 0.461202
O O5 0.368931 0.841882 0.841747
O O6 0.083166 0.818311 0.136392
O O7 0.928537 0.190615 0.349730
O O8 0.032620 0.272893 0.645103
O O9 0.414870 0.009255 0.707562
O O10 0.591553 0.850915 0.391369
O O11 0.000000 0.000000 0.000000
O O12 0.000000 0.000000 0.500000
#
# Coordination Sequence:
#
# PCOD9043406 Si02
#       6
#     2   2   2   1   2   2
#     4  10  25  46  72 102 137 204 238 304 361 429
#     4  11  25  45  72 105 146 187 253 295 368 437
#     4  10  23  45  70  99 147 183 249 298 364 434
#     4  12  24  40  72 100 146 186 240 288 382 420
#     4  11  22  44  71 109 141 194 238 306 364 443
#     4  12  25  42  67 106 142 190 235 308 364 433
#
# _framework density 25.657743
#
# number of rings (size 3 to 8) (size 9 to 14) (size 15 to 20)
#    0.000    1.091    3.636    1.091    2.545    9.455 
#    0.000    4.545    0.000    0.000    0.000    0.000 
#    0.000    0.000    0.000    0.000    0.000    0.000 
#
# Total GULP energy -61307.135085 kJ/mol
# GULP energy per Si atom -5573.375917 kJ/mol
# Density = 2.559935 g / cm^3
# Si number density = 25.657743 Si / 1000 Ang^3
#
#
#
# Elastic Constant Matrix: (Units=GPa)
#
#
# Indices 1 2 3 4 5 6 
#
# 1 92.1290 46.0593 46.5137 5.8720 -16.3953 -11.9625
# 2 46.0593 184.2358 53.2323 -17.8401 -0.2282 -46.1857
# 3 46.5137 53.2323 178.1929 -12.4501 -16.0583 -20.0573
# 4 5.8720 -17.8401 -12.4501 46.2404 -9.0238 2.2362
# 5 -16.3953 -0.2282 -16.0583 -9.0238 37.8953 20.0742
# 6 -11.9625 -46.1857 -20.0573 2.2362 20.0742 48.6997
#
#
#
# Elastic Compliance Matrix: (Units=1/GPa)
#
#
# Indices 1 2 3 4 5 6 
#
# 1 0.015290 -0.004369 -0.002728 -0.002780 0.007041 -0.004286
# 2 -0.004369 0.009690 -0.001085 0.002033 -0.007447 0.010646
# 3 -0.002728 -0.001085 0.007026 0.002248 0.002236 0.000170
# 4 -0.002780 0.002033 0.002248 0.024722 0.006525 -0.001654
# 5 0.007041 -0.007447 0.002236 0.006525 0.043993 -0.022846
# 6 -0.004286 0.010646 0.000170 -0.001654 -0.022846 0.039141
#
#
# Mechanical properties :
#
#
# Convention : Reuss Voigt Hill
#
# Bulk Modulus (GPa) = 63.93438 82.90759 73.42098
# Shear Modulus (GPa) = 30.97120 47.15059 39.06089
#
# Velocity S-wave (km/s) = 3.47809 4.29146 3.90600
# Velocity P-wave (km/s) = 6.41106 7.54576 7.00144
#
# Compressibility (1/GPa) = 0.01564104
#
# Stress axis : x y z
#
# Youngs Moduli (GPa) = 65.40319 103.19719 142.33380
#
# Poissons Ratio (x) = 0.45090 0.38829
# Poissons Ratio (y) = 0.28576 0.15443
# Poissons Ratio (z) = 0.17842 0.11197
#
# Static dielectric constant tensor:
#      x y z
#    x 1.864590 -0.009580 0.098770 
#    y -0.009580 2.084770 -0.016270 
#    z 0.098770 -0.016270 1.942370 
# 
# From -- ./inp_files/58793.got.cif
#   From: 2010.05.17/outbox.cif.g08.bks.cpg/sg2_30_cif.got.tgz:58793.got - 2010.06.03 11:33:40.
