data_PCOD9043945
_publ_section_title
;
Structure prediction by ZEFSAII (Michael W. Deem and Ramdas Pophale) SiO2 
 PCOD9043945
Probable space group: P -1
;
_chemical_formula_sum "Si O2"
_cell_formula_units_Z 16
_cell_length_a 14.445728
_cell_length_b 11.376783
_cell_length_c 12.974351
_cell_angle_alpha 106.939278
_cell_angle_beta 51.005946
_cell_angle_gamma 149.045149
_cell_volume 668.126635
_symmetry_space_group_name_H-M "P -1"
_symmetry_group_IT_number 2
_symmetry_cell_setting 'triclinic'
loop_
_space_group_symop_operation_xyz
x,y,z
-x,-y,-z
loop_
_atom_site_type_symbol
_atom_site_label
_atom_site_fract_x
_atom_site_fract_y
_atom_site_fract_z
Si Si1 0.325390 0.476202 0.889587
Si Si2 0.352454 0.025326 0.328866
Si Si3 0.201872 0.702872 0.808882
Si Si4 0.773199 0.300239 0.820528
Si Si5 0.888118 0.976960 0.389706
Si Si6 0.675658 0.901716 0.178446
Si Si7 0.399425 0.582439 0.085279
Si Si8 0.434628 0.517851 0.413929
O O1 0.417635 0.692514 0.833168
O O2 0.411036 0.450821 0.744456
O O3 0.484784 0.617048 0.921852
O O4 0.989868 0.159363 0.061023
O O5 0.539369 0.148529 0.322968
O O6 0.150519 0.945314 0.485680
O O7 0.209178 0.778653 0.306596
O O8 0.028784 0.527868 0.780184
O O9 0.329950 0.958097 0.787869
O O10 0.000000 0.500000 0.000000
O O11 0.728256 0.398673 0.838856
O O12 0.500000 0.000000 0.000000
O O13 0.622429 0.731357 0.434584
O O14 0.854398 0.814700 0.429268
O O15 0.164092 0.267504 0.207953
O O16 0.626614 0.805373 0.073365
O O17 0.448316 0.636724 0.350218
#
# Coordination Sequence:
#
# PCOD9043945 Si02
#       8
#     2   2   2   2   2   2   2   2
#     4  11  22  41  68  96 124 162 215 265 313 359
#     4  11  23  40  66  96 129 168 205 253 320 379
#     4  12  20  37  64  98 129 159 206 258 316 374
#     4  12  20  37  64  95 132 161 198 265 311 367
#     4  10  24  46  64  88 130 172 209 257 317 373
#     4  12  22  38  68  95 125 162 212 261 316 368
#     4  12  23  39  66  95 129 165 209 260 313 375
#     4  10  23  46  67  86 127 171 212 266 309 365
#
# _framework density 23.947555000000001
#
# number of rings (size 3 to 8) (size 9 to 14) (size 15 to 20)
#    0.000    0.750    7.500    0.375    0.000    1.500 
#    2.250    1.250    0.000    0.000    0.000    0.000 
#    0.000    0.000    0.000    0.000    0.000    0.000 
#
# Total GULP energy -89599.744781 kJ/mol
# GULP energy per Si atom -5599.984049 kJ/mol
# Density = 2.389305 g / cm^3
# Si number density = 23.947555 Si / 1000 Ang^3
#
#
#
# Elastic Constant Matrix: (Units=GPa)
#
#
# Indices 1 2 3 4 5 6 
#
# 1 108.1246 57.3939 32.3964 -17.1687 33.3188 -6.4105
# 2 57.3939 138.9030 30.8879 12.5813 8.6692 4.5125
# 3 32.3964 30.8879 49.1663 -2.8809 18.2608 -7.4353
# 4 -17.1687 12.5813 -2.8809 36.9774 -1.2339 13.5480
# 5 33.3188 8.6692 18.2608 -1.2339 24.4167 -3.8271
# 6 -6.4105 4.5125 -7.4353 13.5480 -3.8271 52.0252
#
#
#
# Elastic Compliance Matrix: (Units=1/GPa)
#
#
# Indices 1 2 3 4 5 6 
#
# 1 0.027983 -0.011348 0.002547 0.016656 -0.035558 -0.002157
# 2 -0.011348 0.013443 -0.007380 -0.009939 0.015751 0.000128
# 3 0.002547 -0.007380 0.033292 0.004459 -0.025104 0.002704
# 4 0.016656 -0.009939 0.004459 0.040974 -0.021832 -0.008724
# 5 -0.035558 0.015751 -0.025104 -0.021832 0.102164 0.003865
# 6 -0.002157 0.000128 0.002704 -0.008724 0.003865 0.021887
#
#
# Mechanical properties :
#
#
# Convention : Reuss Voigt Hill
#
# Bulk Modulus (GPa) = 23.61034 59.72782 41.66908
# Shear Modulus (GPa) = 17.46881 34.38490 25.92685
#
# Velocity S-wave (km/s) = 2.70378 3.79336 3.29394
# Velocity P-wave (km/s) = 4.43033 6.64691 5.64842
#
# Compressibility (1/GPa) = 0.04235432
#
# Stress axis : x y z
#
# Youngs Moduli (GPa) = 35.73535 74.39023 30.03757
#
# Poissons Ratio (x) = 0.84421 -0.07651
# Poissons Ratio (y) = 0.40554 0.22169
# Poissons Ratio (z) = -0.09102 0.54903
#
# Static dielectric constant tensor:
#      x y z
#    x 1.921380 -0.003810 0.009940 
#    y -0.003810 1.871580 -0.003910 
#    z 0.009940 -0.003910 1.931160 
# 
# From -- ./inp_files/399077.got.cif
#   From: 2010.05.17/outbox.cif.g08.bks.cpg/sg2_200_cif.got.tgz:399077.got - 2010.06.03 11:33:40.
