data_PCOD9043363
_publ_section_title
;
Structure prediction by ZEFSAII (Michael W. Deem and Ramdas Pophale) SiO2 
 PCOD9043363
Probable space group: P -1
;
_chemical_formula_sum "Si O2"
_cell_formula_units_Z 12
_cell_length_a 8.758945
_cell_length_b 9.967459
_cell_length_c 10.657312
_cell_angle_alpha 118.466892
_cell_angle_beta 138.066206
_cell_angle_gamma 84.796467
_cell_volume 488.350565
_symmetry_space_group_name_H-M "P -1"
_symmetry_group_IT_number 2
_symmetry_cell_setting 'triclinic'
loop_
_space_group_symop_operation_xyz
x,y,z
-x,-y,-z
loop_
_atom_site_type_symbol
_atom_site_label
_atom_site_fract_x
_atom_site_fract_y
_atom_site_fract_z
Si Si1 0.789541 0.099051 0.337298
Si Si2 0.599012 0.121680 0.495195
Si Si3 0.135548 0.377343 0.019774
Si Si4 0.314486 0.273886 0.865775
Si Si5 0.839148 0.327196 0.247930
Si Si6 0.833572 0.793379 0.783512
O O1 0.602344 0.064996 0.327975
O O2 0.715663 0.182659 0.214527
O O3 0.084497 0.236953 0.611841
O O4 0.784453 0.918779 0.225902
O O5 0.439005 0.230151 0.444100
O O6 0.895618 0.214493 0.745462
O O7 0.500000 0.000000 0.500000
O O8 0.339212 0.408820 0.049510
O O9 0.208718 0.318544 0.167112
O O10 0.000000 0.500000 0.000000
O O11 0.605654 0.329769 0.026472
O O12 0.000000 0.500000 0.500000
O O13 0.016407 0.272772 0.247577
O O14 0.000000 0.000000 0.000000
#
# Coordination Sequence:
#
# PCOD9043363 Si02
#       6
#     2   2   2   2   2   2
#     4  10  23  45  72  96 134 184 232 283 343 415
#     4  11  24  44  74 100 132 178 238 284 341 415
#     4  11  26  44  70 101 137 183 228 291 348 400
#     4  10  23  45  70  93 136 182 233 276 347 414
#     4  12  28  42  68 106 142 180 224 292 356 405
#     4  12  25  44  72 101 139 182 238 280 339 423
#
# _framework density 24.572510000000001
#
# number of rings (size 3 to 8) (size 9 to 14) (size 15 to 20)
#    0.000    1.000    1.667    3.500   11.667    1.333 
#    0.000    0.000    0.000    0.000    0.000    0.000 
#    0.000    0.000    0.000    0.000    0.000    0.000 
#
# Total GULP energy -67059.356164 kJ/mol
# GULP energy per Si atom -5588.279680 kJ/mol
# Density = 2.451658 g / cm^3
# Si number density = 24.572510 Si / 1000 Ang^3
#
#
#
# Elastic Constant Matrix: (Units=GPa)
#
#
# Indices 1 2 3 4 5 6 
#
# 1 157.2328 66.8247 31.5847 -18.3934 -7.5696 -45.2540
# 2 66.8247 132.2363 10.0586 -27.9359 -8.0263 2.2765
# 3 31.5847 10.0586 68.1680 -24.4461 8.1168 -10.9108
# 4 -18.3934 -27.9359 -24.4461 53.6753 -9.8853 -3.6504
# 5 -7.5696 -8.0263 8.1168 -9.8853 31.6309 -7.6736
# 6 -45.2540 2.2765 -10.9108 -3.6504 -7.6736 48.9770
#
#
#
# Elastic Compliance Matrix: (Units=1/GPa)
#
#
# Indices 1 2 3 4 5 6 
#
# 1 0.014413 -0.006369 -0.003493 0.002252 0.006848 0.014076
# 2 -0.006369 0.011777 0.001859 0.004622 0.001097 -0.005501
# 3 -0.003493 0.001859 0.019475 0.008270 -0.002473 0.001253
# 4 0.002252 0.004622 0.008270 0.027938 0.010110 0.007374
# 5 0.006848 0.001097 -0.002473 0.010110 0.040435 0.012814
# 6 0.014076 -0.005501 0.001253 0.007374 0.012814 0.036516
#
#
# Mechanical properties :
#
#
# Convention : Reuss Voigt Hill
#
# Bulk Modulus (GPa) = 33.71624 63.84147 48.77886
# Shear Modulus (GPa) = 28.33776 43.46791 35.90284
#
# Velocity S-wave (km/s) = 3.39961 4.21047 3.82658
# Velocity P-wave (km/s) = 5.40006 7.04803 6.27835
#
# Compressibility (1/GPa) = 0.02965930
#
# Stress axis : x y z
#
# Youngs Moduli (GPa) = 69.38342 84.91310 51.34888
#
# Poissons Ratio (x) = 0.54078 0.17937
# Poissons Ratio (y) = 0.44187 -0.09547
# Poissons Ratio (z) = 0.24236 -0.15788
#
# Static dielectric constant tensor:
#      x y z
#    x 2.421570 -0.202220 -0.086560 
#    y -0.202220 1.943660 0.099100 
#    z -0.086560 0.099100 2.068530 
# 
# From -- ./inp_files/175952.got.cif
#   From: 2010.05.17/outbox.cif.g08.bks.cpg/sg2_88_cif.got.tgz:175952.got - 2010.06.03 11:33:40.
