data_PCOD9043654
_publ_section_title
;
Structure prediction by ZEFSAII (Michael W. Deem and Ramdas Pophale) SiO2 
 PCOD9043654
Probable space group: P -1
;
_chemical_formula_sum "Si O2"
_cell_formula_units_Z 13
_cell_length_a 8.677951
_cell_length_b 7.752667
_cell_length_c 11.874881
_cell_angle_alpha 109.792196
_cell_angle_beta 81.035305
_cell_angle_gamma 131.066954
_cell_volume 564.245481
_symmetry_space_group_name_H-M "P -1"
_symmetry_group_IT_number 2
_symmetry_cell_setting 'triclinic'
loop_
_space_group_symop_operation_xyz
x,y,z
-x,-y,-z
loop_
_atom_site_type_symbol
_atom_site_label
_atom_site_fract_x
_atom_site_fract_y
_atom_site_fract_z
Si Si1 0.647678 0.581423 0.248663
Si Si2 0.209345 0.738916 0.579810
Si Si3 0.115269 0.928743 0.271075
Si Si4 0.402210 0.202355 0.504562
Si Si5 0.820577 0.999894 0.977817
Si Si6 0.500000 0.500000 0.000000
Si Si7 0.874727 0.390972 0.191463
O O1 0.561820 0.592839 0.377160
O O2 0.532500 0.558007 0.145811
O O3 0.689412 0.394672 0.197764
O O4 0.884974 0.832069 0.273656
O O5 0.385693 0.719527 0.546372
O O6 0.161476 0.739175 0.715948
O O7 0.000000 0.500000 0.500000
O O8 0.298347 0.974706 0.550534
O O9 0.072322 0.676847 0.237272
O O10 0.244027 0.101650 0.397953
O O11 0.204148 0.030848 0.160159
O O12 0.887029 0.254834 0.060671
O O13 0.621034 0.783444 0.018904
O O14 0.000000 0.000000 0.000000
#
# Coordination Sequence:
#
# PCOD9043654 Si02
#       7
#     2   2   2   2   2   1   2
#     4  10  24  47  68 110 144 187 248 296 355 441
#     4  11  23  44  68 106 143 190 243 298 352 438
#     4  10  23  45  73 108 145 192 239 300 366 433
#     4  11  24  46  72 104 147 196 237 295 376 422
#     4  12  25  49  72 102 147 190 246 304 361 436
#     4  12  26  46  70 106 136 198 246 296 368 424
#     4  10  24  46  72 104 146 186 243 304 359 423
#
# _framework density 23.039615000000001
#
# number of rings (size 3 to 8) (size 9 to 14) (size 15 to 20)
#    0.923    0.308    3.077    1.846    2.154    2.462 
#    8.308    0.000    0.000    0.000    0.000    0.000 
#    0.000    0.000    0.000    0.000    0.000    0.000 
#
# Total GULP energy -72412.497008 kJ/mol
# GULP energy per Si atom -5570.192078 kJ/mol
# Density = 2.298718 g / cm^3
# Si number density = 23.039615 Si / 1000 Ang^3
#
#
#
# Elastic Constant Matrix: (Units=GPa)
#
#
# Indices 1 2 3 4 5 6 
#
# 1 30.8842 6.5521 25.8887 9.9466 -10.4904 -12.0264
# 2 6.5521 98.6946 12.8978 -15.8334 8.1665 -6.7030
# 3 25.8887 12.8978 176.9379 -6.0379 13.4461 -18.1112
# 4 9.9466 -15.8334 -6.0379 42.9800 -7.2811 3.1727
# 5 -10.4904 8.1665 13.4461 -7.2811 27.3173 6.3469
# 6 -12.0264 -6.7030 -18.1112 3.1727 6.3469 26.1676
#
#
#
# Elastic Compliance Matrix: (Units=1/GPa)
#
#
# Indices 1 2 3 4 5 6 
#
# 1 0.059057 -0.005764 -0.008634 -0.014667 0.020935 0.016390
# 2 -0.005764 0.011716 0.000696 0.004767 -0.005137 0.001502
# 3 -0.008634 0.000696 0.007844 0.001817 -0.007662 0.003277
# 4 -0.014667 0.004767 0.001817 0.029602 0.001868 -0.008305
# 5 0.020935 -0.005137 -0.007662 0.001868 0.052781 -0.010026
# 6 0.016390 0.001502 0.003277 -0.008305 -0.010026 0.051839
#
#
# Mechanical properties :
#
#
# Convention : Reuss Voigt Hill
#
# Bulk Modulus (GPa) = 19.52698 44.13266 31.82982
# Shear Modulus (GPa) = 19.43151 36.70485 28.06818
#
# Velocity S-wave (km/s) = 2.90728 3.99572 3.49414
# Velocity P-wave (km/s) = 4.44561 6.36274 5.48853
#
# Compressibility (1/GPa) = 0.05121120
#
# Stress axis : x y z
#
# Youngs Moduli (GPa) = 16.93286 85.35530 127.48574
#
# Poissons Ratio (x) = 0.49202 1.10077
# Poissons Ratio (y) = 0.09761 -0.08875
# Poissons Ratio (z) = 0.14621 -0.05942
#
# Static dielectric constant tensor:
#      x y z
#    x 1.873000 0.014850 0.002140 
#    y 0.014850 1.905240 0.000580 
#    z 0.002140 0.000580 1.828410 
# 
# From -- ./inp_files/412946.got.cif
#   From: 2010.05.17/outbox.cif.g08.bks.cpg/sg2_207_cif.got.tgz:412946.got - 2010.06.03 11:33:40.
