data_PCOD9043375
_publ_section_title
;
Structure prediction by ZEFSAII (Michael W. Deem and Ramdas Pophale) SiO2 
 PCOD9043375
Probable space group: P -1
;
_chemical_formula_sum "Si O2"
_cell_formula_units_Z 16
_cell_length_a 11.598978
_cell_length_b 16.894108
_cell_length_c 8.726127
_cell_angle_alpha 135.800701
_cell_angle_beta 41.928792
_cell_angle_gamma 137.381898
_cell_volume 717.352110
_symmetry_space_group_name_H-M "P -1"
_symmetry_group_IT_number 2
_symmetry_cell_setting 'triclinic'
loop_
_space_group_symop_operation_xyz
x,y,z
-x,-y,-z
loop_
_atom_site_type_symbol
_atom_site_label
_atom_site_fract_x
_atom_site_fract_y
_atom_site_fract_z
Si Si1 0.819692 0.465016 0.239677
Si Si2 0.390698 0.651087 0.002171
Si Si3 0.409652 0.902286 0.317757
Si Si4 0.996959 0.181158 0.055533
Si Si5 0.672115 0.009960 0.952176
Si Si6 0.094891 0.959512 0.533038
Si Si7 0.057123 0.433656 0.212633
Si Si8 0.169404 0.265331 0.324973
O O1 0.822732 0.597118 0.467560
O O2 0.874117 0.395576 0.226642
O O3 0.640840 0.385515 0.197956
O O4 0.000000 0.500000 0.000000
O O5 0.319815 0.758085 0.256981
O O6 0.248370 0.530251 0.071016
O O7 0.614003 0.704882 0.894328
O O8 0.264146 0.941887 0.429332
O O9 0.500000 0.000000 0.500000
O O10 0.567590 0.906480 0.041815
O O11 0.096042 0.318494 0.073622
O O12 0.029160 0.196765 0.226517
O O13 0.784447 0.128045 0.117888
O O14 0.069729 0.077644 0.790487
O O15 0.830557 0.013786 0.679113
O O16 0.500000 0.000000 0.000000
O O17 0.912158 0.827975 0.576918
O O18 0.000000 0.500000 0.500000
#
# Coordination Sequence:
#
# PCOD9043375 Si02
#       8
#     2   2   2   2   2   2   2   2
#     4  10  23  45  70  96 134 191 234 290 351 421
#     4  11  26  45  72 103 139 188 241 291 356 425
#     4  11  23  45  73 102 138 182 243 290 354 427
#     4  12  25  44  71 102 144 183 237 292 370 418
#     4  10  25  43  67 105 136 182 232 294 353 421
#     4  11  24  44  70  99 141 182 231 299 357 422
#     4  11  25  47  70 101 141 186 239 294 355 430
#     4  12  24  46  71 103 141 187 242 295 357 430
#
# _framework density 22.30425
#
# number of rings (size 3 to 8) (size 9 to 14) (size 15 to 20)
#    0.000    1.000    1.250    4.875    8.750    0.500 
#    2.250    0.000    0.000    0.000    0.000    0.000 
#    0.000    0.000    0.000    0.000    0.000    0.000 
#
# Total GULP energy -89305.508807 kJ/mol
# GULP energy per Si atom -5581.594300 kJ/mol
# Density = 2.225348 g / cm^3
# Si number density = 22.304250 Si / 1000 Ang^3
#
#
#
# Elastic Constant Matrix: (Units=GPa)
#
#
# Indices 1 2 3 4 5 6 
#
# 1 86.3869 23.6314 46.8374 -5.0183 4.0309 10.9720
# 2 23.6314 109.1513 32.3561 -2.2774 -4.8546 -15.5072
# 3 46.8374 32.3561 97.0661 6.6443 -4.2611 -1.7458
# 4 -5.0183 -2.2774 6.6443 45.0563 -2.8062 -2.9823
# 5 4.0309 -4.8546 -4.2611 -2.8062 40.5962 9.1488
# 6 10.9720 -15.5072 -1.7458 -2.9823 9.1488 46.3535
#
#
#
# Elastic Compliance Matrix: (Units=1/GPa)
#
#
# Indices 1 2 3 4 5 6 
#
# 1 0.017270 -0.002041 -0.007983 0.002595 -0.001583 -0.004592
# 2 -0.002041 0.011008 -0.002663 0.001015 0.000396 0.004052
# 3 -0.007983 -0.002663 0.015346 -0.003115 0.001632 0.001054
# 4 0.002595 0.001015 -0.003115 0.023112 0.000929 0.000912
# 5 -0.001583 0.000396 0.001632 0.000929 0.026092 -0.004521
# 6 -0.004592 0.004052 0.001054 0.000912 -0.004521 0.025007
#
#
# Mechanical properties :
#
#
# Convention : Reuss Voigt Hill
#
# Bulk Modulus (GPa) = 54.79832 55.36158 55.07995
# Shear Modulus (GPa) = 33.49141 39.05317 36.27229
#
# Velocity S-wave (km/s) = 3.87921 4.18895 4.03705
# Velocity P-wave (km/s) = 6.68478 6.94776 6.81754
#
# Compressibility (1/GPa) = 0.01824873
#
# Stress axis : x y z
#
# Youngs Moduli (GPa) = 57.90359 90.84616 65.16453
#
# Poissons Ratio (x) = 0.18545 0.52018
# Poissons Ratio (y) = 0.11820 0.17356
# Poissons Ratio (z) = 0.46222 0.24196
#
# Static dielectric constant tensor:
#      x y z
#    x 1.901000 0.025810 0.008210 
#    y 0.025810 1.850190 -0.038780 
#    z 0.008210 -0.038780 1.818940 
# 
# From -- ./inp_files/280050.got.cif
#   From: 2010.05.17/outbox.cif.g08.bks.cpg/sg2_141_cif.got.tgz:280050.got - 2010.06.03 11:33:40.
