data_PCOD9043911
_publ_section_title
;
Structure prediction by ZEFSAII (Michael W. Deem and Ramdas Pophale) SiO2 
 PCOD9043911
Probable space group: P -1
;
_chemical_formula_sum "Si O2"
_cell_formula_units_Z 14
_cell_length_a 11.476391
_cell_length_b 10.434617
_cell_length_c 8.201059
_cell_angle_alpha 127.614994
_cell_angle_beta 113.094801
_cell_angle_gamma 46.649199
_cell_volume 565.083547
_symmetry_space_group_name_H-M "P -1"
_symmetry_group_IT_number 2
_symmetry_cell_setting 'triclinic'
loop_
_space_group_symop_operation_xyz
x,y,z
-x,-y,-z
loop_
_atom_site_type_symbol
_atom_site_label
_atom_site_fract_x
_atom_site_fract_y
_atom_site_fract_z
Si Si1 0.027850 0.685085 0.758261
Si Si2 0.845370 0.820992 0.071715
Si Si3 0.563548 0.407354 0.643965
Si Si4 0.425279 0.988698 0.692125
Si Si5 0.227828 0.766599 0.799845
Si Si6 0.898547 0.243552 0.616754
Si Si7 0.258423 0.215138 0.450737
O O1 0.121243 0.780010 0.898586
O O2 0.155621 0.457771 0.585462
O O3 0.871012 0.825539 0.668129
O O4 0.948705 0.668406 0.862763
O O5 0.973931 0.731922 0.221238
O O6 0.680952 0.886834 0.111962
O O7 0.800497 0.031965 0.129559
O O8 0.500000 0.500000 0.500000
O O9 0.584886 0.196901 0.491385
O O10 0.413369 0.588089 0.805840
O O11 0.735138 0.357620 0.721437
O O12 0.611991 0.887927 0.703352
O O13 0.347166 0.135801 0.608539
O O14 0.166385 0.704978 0.563760
O O15 0.000000 0.000000 0.500000
#
# Coordination Sequence:
#
# PCOD9043911 Si02
#       7
#     2   2   2   2   2   2   2
#     4  11  23  41  57  88 121 150 202 235 290 343
#     4  11  22  36  63  92 116 145 189 262 289 331
#     4  10  17  33  62  89 112 148 196 234 286 354
#     4  11  20  41  62  84 114 154 208 229 283 350
#     4  10  19  36  61  88 117 152 185 240 302 351
#     4   9  17  31  56  92 109 148 185 226 309 335
#     4  10  25  40  62  79 113 175 192 231 279 352
#
# _framework density 24.775098
#
# number of rings (size 3 to 8) (size 9 to 14) (size 15 to 20)
#    0.000    1.714    5.714    1.286    2.000    1.143 
#    0.000    3.571    0.000    0.000    0.000    0.000 
#    0.000    0.000    0.000    0.000    0.000    0.000 
#
# Total GULP energy -78154.909284 kJ/mol
# GULP energy per Si atom -5582.493520 kJ/mol
# Density = 2.471871 g / cm^3
# Si number density = 24.775098 Si / 1000 Ang^3
#
#
#
# Elastic Constant Matrix: (Units=GPa)
#
#
# Indices 1 2 3 4 5 6 
#
# 1 147.9146 55.2640 17.3295 18.9082 -40.2609 -36.2075
# 2 55.2640 115.6304 24.5778 10.2947 -13.7240 -27.3325
# 3 17.3295 24.5778 54.1415 0.2989 -22.5009 -8.8959
# 4 18.9082 10.2947 0.2989 16.8101 -0.3954 -9.0260
# 5 -40.2609 -13.7240 -22.5009 -0.3954 32.0466 13.0781
# 6 -36.2075 -27.3325 -8.8959 -9.0260 13.0781 50.6027
#
#
#
# Elastic Compliance Matrix: (Units=1/GPa)
#
#
# Indices 1 2 3 4 5 6 
#
# 1 0.015750 -0.004690 0.006314 -0.013401 0.021244 0.001965
# 2 -0.004690 0.012371 -0.006188 -0.000261 -0.006525 0.003878
# 3 0.006314 -0.006188 0.030304 -0.003837 0.026984 -0.001155
# 4 -0.013401 -0.000261 -0.003837 0.079410 -0.022578 0.009595
# 5 0.021244 -0.006525 0.026984 -0.022578 0.076811 -0.007459
# 6 0.001965 0.003878 -0.001155 0.009595 -0.007459 0.026699
#
#
# Mechanical properties :
#
#
# Convention : Reuss Voigt Hill
#
# Bulk Modulus (GPa) = 20.28574 56.89213 38.58893
# Shear Modulus (GPa) = 18.73327 34.59288 26.66307
#
# Velocity S-wave (km/s) = 2.75277 3.74073 3.28411
# Velocity P-wave (km/s) = 4.27895 6.45529 5.47632
#
# Compressibility (1/GPa) = 0.04929572
#
# Stress axis : x y z
#
# Youngs Moduli (GPa) = 63.49248 80.83664 32.99919
#
# Poissons Ratio (x) = 0.37916 -0.20835
# Poissons Ratio (y) = 0.29781 0.20419
# Poissons Ratio (z) = -0.40088 0.50019
#
# Static dielectric constant tensor:
#      x y z
#    x 2.026730 -0.023670 -0.038880 
#    y -0.023670 1.936730 0.034740 
#    z -0.038880 0.034740 2.111980 
# 
# From -- ./inp_files/175467.got.cif
#   From: 2010.05.17/outbox.cif.g08.bks.cpg/sg2_88_cif.got.tgz:175467.got - 2010.06.03 11:33:40.
