data_PCOD9043659
_publ_section_title
;
Structure prediction by ZEFSAII (Michael W. Deem and Ramdas Pophale) SiO2 
 PCOD9043659
Probable space group: P -1
;
_chemical_formula_sum "Si O2"
_cell_formula_units_Z 14
_cell_length_a 18.318483
_cell_length_b 11.909668
_cell_length_c 9.042140
_cell_angle_alpha 138.841551
_cell_angle_beta 127.899332
_cell_angle_gamma 27.747952
_cell_volume 595.694470
_symmetry_space_group_name_H-M "P -1"
_symmetry_group_IT_number 2
_symmetry_cell_setting 'triclinic'
loop_
_space_group_symop_operation_xyz
x,y,z
-x,-y,-z
loop_
_atom_site_type_symbol
_atom_site_label
_atom_site_fract_x
_atom_site_fract_y
_atom_site_fract_z
Si Si1 0.937124 0.984992 0.546011
Si Si2 0.825373 0.225068 0.950629
Si Si3 0.164583 0.221422 0.844745
Si Si4 0.578747 0.369266 0.808747
Si Si5 0.457292 0.913542 0.088452
Si Si6 0.304979 0.139061 0.655402
Si Si7 0.766133 0.590116 0.457735
O O1 0.087051 0.673501 0.511990
O O2 0.824023 0.001073 0.366883
O O3 0.000000 0.000000 0.500000
O O4 0.843889 0.226540 0.798646
O O5 0.768244 0.119128 0.800775
O O6 0.725936 0.480781 0.203942
O O7 0.000000 0.000000 0.000000
O O8 0.174409 0.278506 0.748935
O O9 0.000000 0.500000 0.000000
O O10 0.310444 0.099644 0.981660
O O11 0.566909 0.205588 0.553370
O O12 0.500000 0.500000 0.000000
O O13 0.524255 0.620861 0.903326
O O14 0.591428 0.851877 0.155153
O O15 0.374523 0.118951 0.333582
O O16 0.215870 0.311025 0.560897
#
# Coordination Sequence:
#
# PCOD9043659 Si02
#       7
#     2   2   2   2   2   2   2
#     4  11  26  49  75 112 152 196 257 316 376 452
#     4  10  23  45  73 109 144 193 255 305 373 441
#     4  12  28  51  73 110 149 207 252 308 385 451
#     4  12  24  45  74 112 153 193 251 310 378 445
#     4  12  26  48  76 113 156 196 253 312 382 452
#     4  12  26  48  79 109 156 196 257 314 375 455
#     4  11  23  47  77 108 147 200 248 312 383 435
#
# _framework density 23.501981000000001
#
# number of rings (size 3 to 8) (size 9 to 14) (size 15 to 20)
#    0.000    0.571    5.714    1.714    2.000    4.571 
#    5.143    0.000    0.000    0.000    0.000    0.000 
#    0.000    0.000    0.000    0.000    0.000    0.000 
#
# Total GULP energy -78091.074488 kJ/mol
# GULP energy per Si atom -5577.933892 kJ/mol
# Density = 2.344849 g / cm^3
# Si number density = 23.501981 Si / 1000 Ang^3
#
#
#
# Elastic Constant Matrix: (Units=GPa)
#
#
# Indices 1 2 3 4 5 6 
#
# 1 199.1087 48.3509 57.6253 -4.6024 -16.3065 2.4196
# 2 48.3509 84.8327 42.1210 9.8550 -1.3983 -4.5731
# 3 57.6253 42.1210 149.1272 4.2440 0.9864 7.4409
# 4 -4.6024 9.8550 4.2440 35.2542 0.6292 2.3437
# 5 -16.3065 -1.3983 0.9864 0.6292 48.6044 1.2207
# 6 2.4196 -4.5731 7.4409 2.3437 1.2207 26.2104
#
#
#
# Elastic Compliance Matrix: (Units=1/GPa)
#
#
# Indices 1 2 3 4 5 6 
#
# 1 0.006487 -0.003121 -0.001647 0.001943 0.002119 -0.000948
# 2 -0.003121 0.016050 -0.003413 -0.004773 -0.000568 0.004510
# 3 -0.001647 -0.003413 0.008453 -0.000079 -0.000751 -0.002801
# 4 0.001943 -0.004773 -0.000079 0.030205 0.000218 -0.003701
# 5 0.002119 -0.000568 -0.000751 0.000218 0.021309 -0.001093
# 6 -0.000948 0.004510 -0.002801 -0.003701 -0.001093 0.040204
#
#
# Mechanical properties :
#
#
# Convention : Reuss Voigt Hill
#
# Bulk Modulus (GPa) = 68.36371 81.02923 74.69647
# Shear Modulus (GPa) = 34.73542 41.01190 37.87366
#
# Velocity S-wave (km/s) = 3.84862 4.18190 4.01872
# Velocity P-wave (km/s) = 6.99291 7.60724 7.30654
#
# Compressibility (1/GPa) = 0.01462764
#
# Stress axis : x y z
#
# Youngs Moduli (GPa) = 154.15430 62.30677 118.30165
#
# Poissons Ratio (x) = 0.19449 0.19485
# Poissons Ratio (y) = 0.48118 0.40371
# Poissons Ratio (z) = 0.25390 0.21262
#
# Static dielectric constant tensor:
#      x y z
#    x 1.776100 0.060130 0.027550 
#    y 0.060130 2.093690 0.022150 
#    z 0.027550 0.022150 1.965010 
# 
# From -- ./inp_files/333940.got.cif
#   From: 2010.05.17/outbox.cif.g08.bks.cpg/sg2_167_cif.got.tgz:333940.got - 2010.06.03 11:33:40.
