data_PCOD9043386
_publ_section_title
;
Structure prediction by ZEFSAII (Michael W. Deem and Ramdas Pophale) SiO2 
 PCOD9043386
Probable space group: P -1
;
_chemical_formula_sum "Si O2"
_cell_formula_units_Z 14
_cell_length_a 7.642038
_cell_length_b 9.969562
_cell_length_c 12.288345
_cell_angle_alpha 79.935095
_cell_angle_beta 51.179006
_cell_angle_gamma 54.509493
_cell_volume 566.873726
_symmetry_space_group_name_H-M "P -1"
_symmetry_group_IT_number 2
_symmetry_cell_setting 'triclinic'
loop_
_space_group_symop_operation_xyz
x,y,z
-x,-y,-z
loop_
_atom_site_type_symbol
_atom_site_label
_atom_site_fract_x
_atom_site_fract_y
_atom_site_fract_z
Si Si1 0.018464 0.826620 0.260775
Si Si2 0.098521 0.220204 0.280854
Si Si3 0.705076 0.236461 0.617111
Si Si4 0.890595 0.565943 0.410994
Si Si5 0.371377 0.641186 0.709305
Si Si6 0.376631 0.085488 0.769209
Si Si7 0.821172 0.203686 0.019045
O O1 0.972408 0.686171 0.328428
O O2 0.720114 0.966205 0.292756
O O3 0.254962 0.764028 0.083343
O O4 0.117894 0.858819 0.327545
O O5 0.926770 0.208021 0.446276
O O6 0.025560 0.405327 0.301132
O O7 0.953094 0.229891 0.224097
O O8 0.423414 0.067847 0.202740
O O9 0.492373 0.442578 0.690325
O O10 0.532023 0.166073 0.665594
O O11 0.559540 0.651823 0.545673
O O12 0.000000 0.500000 0.500000
O O13 0.393045 0.690063 0.815795
O O14 0.068623 0.227680 0.921875
O O15 0.000000 0.000000 0.000000
#
# Coordination Sequence:
#
# PCOD9043386 Si02
#       7
#     2   2   2   2   2   2   2
#     4  10  23  45  70  97 138 175 232 276 338 410
#     4  11  23  40  71 102 139 174 226 290 338 401
#     4  11  22  44  68 106 131 179 228 287 340 401
#     4  11  21  43  70 105 130 174 229 280 343 395
#     4  11  24  43  71  97 143 175 230 282 336 410
#     4  10  25  43  64 100 141 178 228 272 348 397
#     4  10  27  47  65 101 138 186 226 280 341 407
#
# _framework density 24.696857000000001
#
# number of rings (size 3 to 8) (size 9 to 14) (size 15 to 20)
#    0.857    0.571    2.857    3.857    4.000    2.286 
#    0.000    0.000    0.000    0.000    0.000    0.000 
#    0.000    0.000    0.000    0.000    0.000    0.000 
#
# Total GULP energy -78251.702286 kJ/mol
# GULP energy per Si atom -5589.407306 kJ/mol
# Density = 2.464065 g / cm^3
# Si number density = 24.696857 Si / 1000 Ang^3
#
#
#
# Elastic Constant Matrix: (Units=GPa)
#
#
# Indices 1 2 3 4 5 6 
#
# 1 114.0833 2.3476 2.8100 -6.0680 5.4234 -27.4068
# 2 2.3476 70.0624 15.1377 -3.6208 1.3466 -6.1378
# 3 2.8100 15.1377 55.9722 -5.8498 9.7084 -0.4144
# 4 -6.0680 -3.6208 -5.8498 28.4033 -2.8165 5.6442
# 5 5.4234 1.3466 9.7084 -2.8165 31.5238 -5.5982
# 6 -27.4068 -6.1378 -0.4144 5.6442 -5.5982 35.9477
#
#
#
# Elastic Compliance Matrix: (Units=1/GPa)
#
#
# Indices 1 2 3 4 5 6 
#
# 1 0.010772 0.000501 -0.000515 0.000616 -0.000211 0.008162
# 2 0.000501 0.015470 -0.004319 0.000702 0.001187 0.003048
# 3 -0.000515 -0.004319 0.020466 0.003419 -0.006148 -0.002388
# 4 0.000616 0.000702 0.003419 0.037255 0.001247 -0.005026
# 5 -0.000211 0.001187 -0.006148 0.001247 0.034630 0.005168
# 6 0.008162 0.003048 -0.002388 -0.005026 0.005168 0.036128
#
#
# Mechanical properties :
#
#
# Convention : Reuss Voigt Hill
#
# Bulk Modulus (GPa) = 26.28647 31.18983 28.73815
# Shear Modulus (GPa) = 28.39828 33.82981 31.11404
#
# Velocity S-wave (km/s) = 3.39466 3.70510 3.55327
# Velocity P-wave (km/s) = 5.10213 5.56419 5.33816
#
# Compressibility (1/GPa) = 0.03804239
#
# Stress axis : x y z
#
# Youngs Moduli (GPa) = 92.83680 64.64183 48.86133
#
# Poissons Ratio (x) = -0.03240 0.02516
# Poissons Ratio (y) = -0.04654 0.21103
# Poissons Ratio (z) = 0.04780 0.27919
#
# Static dielectric constant tensor:
#      x y z
#    x 2.026880 -0.048720 -0.034630 
#    y -0.048720 1.994490 0.003340 
#    z -0.034630 0.003340 1.980640 
# 
# From -- ./inp_files/389941.got.cif
#   From: 2010.05.17/outbox.cif.g08.bks.cpg/sg2_195_cif.got.tgz:389941.got - 2010.06.03 11:33:40.
