data_PCOD9043505
_publ_section_title
;
Structure prediction by ZEFSAII (Michael W. Deem and Ramdas Pophale) SiO2 
 PCOD9043505
Probable space group: P -1
;
_chemical_formula_sum "Si O2"
_cell_formula_units_Z 16
_cell_length_a 10.613248
_cell_length_b 6.743451
_cell_length_c 16.932910
_cell_angle_alpha 103.401498
_cell_angle_beta 122.519597
_cell_angle_gamma 117.858540
_cell_volume 688.190392
_symmetry_space_group_name_H-M "P -1"
_symmetry_group_IT_number 2
_symmetry_cell_setting 'triclinic'
loop_
_space_group_symop_operation_xyz
x,y,z
-x,-y,-z
loop_
_atom_site_type_symbol
_atom_site_label
_atom_site_fract_x
_atom_site_fract_y
_atom_site_fract_z
Si Si1 0.874071 0.960002 0.563840
Si Si2 0.287694 0.737115 0.291432
Si Si3 0.873589 0.387877 0.029654
Si Si4 0.502864 0.851192 0.214023
Si Si5 0.239278 0.187239 0.800122
Si Si6 0.602969 0.883701 0.002696
Si Si7 0.839428 0.519147 0.415783
Si Si8 0.523395 0.294256 0.517667
O O1 0.805784 0.674214 0.478763
O O2 0.673117 0.907337 0.504362
O O3 0.000351 0.032941 0.693045
O O4 0.042682 0.249874 0.594595
O O5 0.380612 0.712070 0.243358
O O6 0.276514 0.583115 0.351071
O O7 0.059530 0.611409 0.177318
O O8 0.456385 0.077218 0.405465
O O9 0.755358 0.071260 0.995550
O O10 0.674100 0.337732 0.933652
O O11 0.000000 0.500000 0.000000
O O12 0.687672 0.871625 0.257576
O O13 0.621540 0.187584 0.286609
O O14 0.264238 0.072365 0.874591
O O15 0.408555 0.537085 0.892513
O O16 0.500000 0.000000 0.000000
O O17 0.000000 0.500000 0.500000
O O18 0.500000 0.500000 0.500000
#
# Coordination Sequence:
#
# PCOD9043505 Si02
#       8
#     2   2   2   2   2   2   2   2
#     4  11  25  38  66 103 129 175 231 272 346 408
#     4  10  25  45  67  92 136 178 230 277 335 407
#     4  10  23  45  71  98 132 186 227 278 347 407
#     4  11  21  45  69 100 137 174 225 282 346 404
#     4  11  25  40  69 105 134 175 227 285 350 414
#     4  11  24  44  68 100 140 178 224 286 344 414
#     4  11  22  40  66 100 138 172 218 289 338 403
#     4  11  25  45  64  93 133 182 225 281 330 407
#
# _framework density 23.249381
#
# number of rings (size 3 to 8) (size 9 to 14) (size 15 to 20)
#    0.000    1.250    2.500    2.250    5.250    1.000 
#    4.500    1.250    0.000    0.000    0.000    0.000 
#    0.000    0.000    0.000    0.000    0.000    0.000 
#
# Total GULP energy -89389.972894 kJ/mol
# GULP energy per Si atom -5586.873306 kJ/mol
# Density = 2.319646 g / cm^3
# Si number density = 23.249381 Si / 1000 Ang^3
#
#
#
# Elastic Constant Matrix: (Units=GPa)
#
#
# Indices 1 2 3 4 5 6 
#
# 1 61.9680 15.7398 21.1712 2.5259 -2.8712 -9.0836
# 2 15.7398 129.7214 37.3225 -9.6253 -6.0883 -6.6136
# 3 21.1712 37.3225 142.3835 -20.7600 8.1115 -11.5211
# 4 2.5259 -9.6253 -20.7600 30.9555 -1.4288 4.6967
# 5 -2.8712 -6.0883 8.1115 -1.4288 29.3239 2.2157
# 6 -9.0836 -6.6136 -11.5211 4.6967 2.2157 36.1145
#
#
#
# Elastic Compliance Matrix: (Units=1/GPa)
#
#
# Indices 1 2 3 4 5 6 
#
# 1 0.018275 -0.001467 -0.002743 -0.004299 0.001739 0.003905
# 2 -0.001467 0.008680 -0.001933 0.001587 0.002251 0.000260
# 3 -0.002743 -0.001933 0.008990 0.005314 -0.002997 0.001317
# 4 -0.004299 0.001587 0.005314 0.037343 0.000559 -0.003986
# 5 0.001739 0.002251 -0.002997 0.000559 0.035775 -0.002374
# 6 0.003905 0.000260 0.001317 -0.003986 -0.002374 0.029804
#
#
# Mechanical properties :
#
#
# Convention : Reuss Voigt Hill
#
# Bulk Modulus (GPa) = 42.26547 53.61554 47.94050
# Shear Modulus (GPa) = 31.43914 36.60141 34.02028
#
# Velocity S-wave (km/s) = 3.68129 3.97204 3.82943
# Velocity P-wave (km/s) = 6.02394 6.64434 6.34173
#
# Compressibility (1/GPa) = 0.02365998
#
# Stress axis : x y z
#
# Youngs Moduli (GPa) = 54.71884 115.21391 111.23662
#
# Poissons Ratio (x) = 0.16897 0.30510
# Poissons Ratio (y) = 0.08025 0.21502
# Poissons Ratio (z) = 0.15008 0.22270
#
# Static dielectric constant tensor:
#      x y z
#    x 1.865000 0.055450 -0.009450 
#    y 0.055450 1.882320 -0.013650 
#    z -0.009450 -0.013650 1.911890 
# 
# From -- ./inp_files/69387.got.cif
#   From: 2010.05.17/outbox.cif.g08.bks.cpg/sg2_35_cif.got.tgz:69387.got - 2010.06.03 11:33:40.
