data_PCOD9043052
_publ_section_title
;
Structure prediction by ZEFSAII (Michael W. Deem and Ramdas Pophale) SiO2 
 PCOD9043052
Probable space group: P -1
;
_chemical_formula_sum "Si O2"
_cell_formula_units_Z 13
_cell_length_a 18.187939
_cell_length_b 9.693121
_cell_length_c 5.645941
_cell_angle_alpha 84.320357
_cell_angle_beta 121.533172
_cell_angle_gamma 134.444115
_cell_volume 544.157849
_symmetry_space_group_name_H-M "P -1"
_symmetry_group_IT_number 2
_symmetry_cell_setting 'triclinic'
loop_
_space_group_symop_operation_xyz
x,y,z
-x,-y,-z
loop_
_atom_site_type_symbol
_atom_site_label
_atom_site_fract_x
_atom_site_fract_y
_atom_site_fract_z
Si Si1 0.896891 0.673672 0.871647
Si Si2 0.341601 0.637007 0.837092
Si Si3 0.512197 0.596754 0.254717
Si Si4 0.108114 0.091699 0.860531
Si Si5 0.752248 0.002329 0.839420
Si Si6 0.581007 0.012444 0.827374
Si Si7 0.000000 0.500000 0.000000
O O1 0.789898 0.553765 0.501307
O O2 0.925743 0.548343 0.983197
O O3 0.841875 0.701142 0.986127
O O4 0.032535 0.915813 0.974516
O O5 0.467253 0.821020 0.844971
O O6 0.398626 0.574834 0.078531
O O7 0.323105 0.757503 0.925996
O O8 0.500000 0.500000 0.500000
O O9 0.659790 0.847440 0.485270
O O10 0.500000 0.500000 0.000000
O O11 0.000000 0.000000 0.500000
O O12 0.206761 0.090897 0.945902
O O13 0.660211 0.983779 0.853636
O O14 0.879460 0.250901 0.939746
O O15 0.500000 0.000000 0.500000
#
# Coordination Sequence:
#
# PCOD9043052 Si02
#       7
#     2   2   2   2   2   2   1
#     4  10  23  45  68 102 143 191 247 309 384 457
#     4  11  25  43  73 106 152 194 250 328 393 463
#     4  12  27  47  77 115 155 210 260 324 398 477
#     4  10  24  44  69  98 139 193 248 308 364 459
#     4  11  24  48  76 109 150 196 260 317 390 472
#     4  11  23  44  71 110 147 193 247 321 392 468
#     4  10  24  46  76 104 148 202 250 326 386 456
#
# _framework density 23.890127
#
# number of rings (size 3 to 8) (size 9 to 14) (size 15 to 20)
#    0.000    1.231    1.538    2.769    4.308    3.692 
#    5.538    3.077    0.000    0.000    0.000    0.000 
#    0.000    0.000    0.000    0.000    0.000    0.000 
#
# Total GULP energy -72466.282228 kJ/mol
# GULP energy per Si atom -5574.329402 kJ/mol
# Density = 2.383575 g / cm^3
# Si number density = 23.890127 Si / 1000 Ang^3
#
#
#
# Elastic Constant Matrix: (Units=GPa)
#
#
# Indices 1 2 3 4 5 6 
#
# 1 193.1973 62.3782 67.1069 -16.4375 19.3001 -52.9386
# 2 62.3782 130.5111 20.0833 -9.1828 1.8642 -30.0526
# 3 67.1069 20.0833 82.4326 0.5442 -6.3697 -32.7580
# 4 -16.4375 -9.1828 0.5442 32.3615 -5.0963 5.0892
# 5 19.3001 1.8642 -6.3697 -5.0963 36.8503 -6.5185
# 6 -52.9386 -30.0526 -32.7580 5.0892 -6.5185 55.2239
#
#
#
# Elastic Compliance Matrix: (Units=1/GPa)
#
#
# Indices 1 2 3 4 5 6 
#
# 1 0.010060 -0.002731 -0.006633 0.003096 -0.005262 0.003316
# 2 -0.002731 0.009623 0.001465 0.001061 0.001985 0.003625
# 3 -0.006633 0.001465 0.021073 -0.003332 0.008031 0.008194
# 4 0.003096 0.001061 -0.003332 0.033365 0.002142 -0.001253
# 5 -0.005262 0.001985 0.008031 0.002142 0.032257 0.004410
# 6 0.003316 0.003625 0.008194 -0.001253 0.004410 0.028756
#
#
# Mechanical properties :
#
#
# Convention : Reuss Voigt Hill
#
# Bulk Modulus (GPa) = 40.06749 78.36420 59.21585
# Shear Modulus (GPa) = 31.39725 41.99198 36.69462
#
# Velocity S-wave (km/s) = 3.62917 4.19706 3.92340
# Velocity P-wave (km/s) = 5.86252 7.50734 6.73533
#
# Compressibility (1/GPa) = 0.02495789
#
# Stress axis : x y z
#
# Youngs Moduli (GPa) = 99.40821 103.91967 47.45425
#
# Poissons Ratio (x) = 0.28377 0.31478
# Poissons Ratio (y) = 0.27145 -0.06954
# Poissons Ratio (z) = 0.65941 -0.15228
#
# Static dielectric constant tensor:
#      x y z
#    x 1.938460 0.039980 0.061430 
#    y 0.039980 2.005470 -0.002810 
#    z 0.061430 -0.002810 1.849170 
# 
# From -- ./inp_files/46172.got.cif
#   From: 2010.05.17/outbox.cif.g08.bks.cpg/sg2_24_cif.got.tgz:46172.got - 2010.06.03 11:33:40.
