data_PCOD9043415
_publ_section_title
;
Structure prediction by ZEFSAII (Michael W. Deem and Ramdas Pophale) SiO2 
 PCOD9043415
Probable space group: P -1
;
_chemical_formula_sum "Si O2"
_cell_formula_units_Z 13
_cell_length_a 6.202289
_cell_length_b 4.847038
_cell_length_c 20.716628
_cell_angle_alpha 118.802736
_cell_angle_beta 118.057766
_cell_angle_gamma 80.272051
_cell_volume 480.268271
_symmetry_space_group_name_H-M "P -1"
_symmetry_group_IT_number 2
_symmetry_cell_setting 'triclinic'
loop_
_space_group_symop_operation_xyz
x,y,z
-x,-y,-z
loop_
_atom_site_type_symbol
_atom_site_label
_atom_site_fract_x
_atom_site_fract_y
_atom_site_fract_z
Si Si1 0.888456 0.994211 0.554262
Si Si2 0.288608 0.928254 0.705980
Si Si3 0.595640 0.521003 0.635583
Si Si4 0.439768 0.159490 0.076152
Si Si5 0.500000 0.500000 0.500000
Si Si6 0.251617 0.774886 0.129302
Si Si7 0.935504 0.218563 0.204713
O O1 0.738304 0.661855 0.509248
O O2 0.103382 0.046670 0.641567
O O3 0.691134 0.268382 0.564965
O O4 0.000000 0.000000 0.500000
O O5 0.370153 0.583277 0.656948
O O6 0.149442 0.902165 0.750891
O O7 0.547301 0.126765 0.775671
O O8 0.560988 0.769976 0.600073
O O9 0.823777 0.558105 0.720478
O O10 0.230883 0.403074 0.074841
O O11 0.697828 0.348167 0.153881
O O12 0.363731 0.917665 0.094960
O O13 0.500000 0.000000 0.000000
O O14 0.015819 0.939810 0.138496
#
# Coordination Sequence:
#
# PCOD9043415 Si02
#       7
#     2   2   2   2   1   2   2
#     4  12  27  46  74 100 145 196 240 318 380 432
#     4  10  23  46  70  98 140 188 244 299 366 440
#     4  11  24  44  69  99 134 186 244 296 366 443
#     4  11  24  44  73 109 146 187 237 297 369 447
#     4  12  26  48  66 108 142 180 260 300 372 456
#     4  10  24  44  72 106 143 189 244 294 364 453
#     4  10  23  45  71 100 142 191 240 303 367 439
#
# _framework density 27.068204999999999
#
# number of rings (size 3 to 8) (size 9 to 14) (size 15 to 20)
#    0.000    1.231    1.538    2.769    2.154    8.615 
#    2.769    0.769    0.000    0.000    0.000    0.000 
#    0.000    0.000    0.000    0.000    0.000    0.000 
#
# Total GULP energy -72588.148400 kJ/mol
# GULP energy per Si atom -5583.703723 kJ/mol
# Density = 2.700660 g / cm^3
# Si number density = 27.068205 Si / 1000 Ang^3
#
#
#
# Elastic Constant Matrix: (Units=GPa)
#
#
# Indices 1 2 3 4 5 6 
#
# 1 114.3220 37.8882 43.4344 -17.2998 -21.8007 -10.8196
# 2 37.8882 86.8414 34.3359 0.8510 -11.5023 -9.0402
# 3 43.4344 34.3359 124.8759 -11.9429 -38.0415 -1.6571
# 4 -17.2998 0.8510 -11.9429 30.1518 -3.4330 -6.3385
# 5 -21.8007 -11.5023 -38.0415 -3.4330 43.8054 -3.4274
# 6 -10.8196 -9.0402 -1.6571 -6.3385 -3.4274 55.5074
#
#
#
# Elastic Compliance Matrix: (Units=1/GPa)
#
#
# Indices 1 2 3 4 5 6 
#
# 1 0.013221 -0.004470 -0.000765 0.008722 0.005674 0.003173
# 2 -0.004470 0.014720 -0.003369 -0.004316 -0.001558 0.000837
# 3 -0.000765 -0.003369 0.013057 0.006264 0.010648 0.001065
# 4 0.008722 -0.004316 0.006264 0.043670 0.012614 0.006950
# 5 0.005674 -0.001558 0.010648 0.012614 0.035856 0.004824
# 6 0.003173 0.000837 0.001065 0.006950 0.004824 0.019894
#
#
# Mechanical properties :
#
#
# Convention : Reuss Voigt Hill
#
# Bulk Modulus (GPa) = 42.03147 61.92847 51.97997
# Shear Modulus (GPa) = 30.20118 39.91830 35.05974
#
# Velocity S-wave (km/s) = 3.34390 3.84439 3.60284
# Velocity P-wave (km/s) = 5.52002 6.52948 6.04585
#
# Compressibility (1/GPa) = 0.02379170
#
# Stress axis : x y z
#
# Youngs Moduli (GPa) = 75.63624 67.93286 76.58443
#
# Poissons Ratio (x) = 0.30363 0.05859
# Poissons Ratio (y) = 0.33806 0.25802
# Poissons Ratio (z) = 0.05787 0.22887
#
# Static dielectric constant tensor:
#      x y z
#    x 2.109790 0.037690 0.134060 
#    y 0.037690 3.141310 -0.100200 
#    z 0.134060 -0.100200 2.411620 
# 
# From -- ./inp_files/581274.got.cif
#   From: 2010.05.17/outbox.cif.g08.bks.cpg/sg2_291_cif.got.tgz:581274.got - 2010.06.03 11:33:40.
