data_PCOD9043686
_publ_section_title
;
Structure prediction by ZEFSAII (Michael W. Deem and Ramdas Pophale) SiO2 
 PCOD9043686
Probable space group: P -1
;
_chemical_formula_sum "Si O2"
_cell_formula_units_Z 14
_cell_length_a 12.322942
_cell_length_b 8.726338
_cell_length_c 8.619908
_cell_angle_alpha 129.550665
_cell_angle_beta 106.370153
_cell_angle_gamma 51.427010
_cell_volume 548.486108
_symmetry_space_group_name_H-M "P -1"
_symmetry_group_IT_number 2
_symmetry_cell_setting 'triclinic'
loop_
_space_group_symop_operation_xyz
x,y,z
-x,-y,-z
loop_
_atom_site_type_symbol
_atom_site_label
_atom_site_fract_x
_atom_site_fract_y
_atom_site_fract_z
Si Si1 0.224851 0.518689 0.229520
Si Si2 0.346191 0.650973 0.110058
Si Si3 0.653212 0.912738 0.563759
Si Si4 0.628285 0.989458 0.968639
Si Si5 0.873622 0.339107 0.189283
Si Si6 0.338862 0.686244 0.611042
Si Si7 0.954802 0.917902 0.190573
O O1 0.332977 0.493025 0.129862
O O2 0.236498 0.271661 0.077228
O O3 0.077975 0.758578 0.262842
O O4 0.190616 0.958034 0.692910
O O5 0.317849 0.888259 0.341509
O O6 0.500000 0.500000 0.000000
O O7 0.229876 0.706187 0.972651
O O8 0.635360 0.955242 0.767360
O O9 0.776090 0.630304 0.381757
O O10 0.500000 0.000000 0.500000
O O11 0.500000 0.000000 0.000000
O O12 0.633140 0.215129 0.159237
O O13 0.718141 0.465330 0.571270
O O14 0.992225 0.261218 0.056700
O O15 0.934277 0.154447 0.243645
O O16 0.500000 0.500000 0.500000
#
# Coordination Sequence:
#
# PCOD9043686 Si02
#       7
#     2   2   2   2   2   2   2
#     4  11  26  46  73 107 152 194 247 305 376 447
#     4  11  23  41  72 111 147 189 253 305 366 443
#     4  12  26  43  76 111 148 193 250 309 372 438
#     4  12  27  45  73 115 147 189 252 311 367 447
#     4  10  23  45  74 100 156 195 244 311 372 439
#     4  12  26  44  75 102 147 193 246 308 376 435
#     4  10  24  48  70 108 150 201 246 308 377 449
#
# _framework density 25.524802999999999
#
# number of rings (size 3 to 8) (size 9 to 14) (size 15 to 20)
#    0.000    0.857    2.857    3.000    6.000    0.571 
#    0.000   15.714    0.000    0.000    0.000    0.000 
#    0.000    0.000    0.000    0.000    0.000    0.000 
#
# Total GULP energy -77984.808330 kJ/mol
# GULP energy per Si atom -5570.343452 kJ/mol
# Density = 2.546671 g / cm^3
# Si number density = 25.524803 Si / 1000 Ang^3
#
#
#
# Elastic Constant Matrix: (Units=GPa)
#
#
# Indices 1 2 3 4 5 6 
#
# 1 101.5391 44.1789 46.2181 2.1761 -24.6839 -17.3771
# 2 44.1789 133.5872 53.4635 18.5570 1.1245 -13.2654
# 3 46.2181 53.4635 196.9643 35.6547 -10.0558 2.3642
# 4 2.1761 18.5570 35.6547 35.5978 -4.8389 -9.9231
# 5 -24.6839 1.1245 -10.0558 -4.8389 61.1631 7.4126
# 6 -17.3771 -13.2654 2.3642 -9.9231 7.4126 43.2163
#
#
#
# Elastic Compliance Matrix: (Units=1/GPa)
#
#
# Indices 1 2 3 4 5 6 
#
# 1 0.015504 -0.004155 -0.003601 0.007218 0.005603 0.005852
# 2 -0.004155 0.009985 -0.001182 -0.003824 -0.002479 0.001006
# 3 -0.003601 -0.001182 0.007738 -0.008082 -0.000309 -0.004037
# 4 0.007218 -0.003824 -0.008082 0.041303 0.003584 0.011040
# 5 0.005603 -0.002479 -0.000309 0.003584 0.019002 -0.000927
# 6 0.005852 0.001006 -0.004037 0.011040 -0.000927 0.028716
#
#
# Mechanical properties :
#
#
# Convention : Reuss Voigt Hill
#
# Bulk Modulus (GPa) = 65.13785 79.97907 72.55846
# Shear Modulus (GPa) = 34.42542 47.21080 40.81811
#
# Velocity S-wave (km/s) = 3.67646 4.30537 4.00328
# Velocity P-wave (km/s) = 6.60277 7.49112 7.06093
#
# Compressibility (1/GPa) = 0.01535206
#
# Stress axis : x y z
#
# Youngs Moduli (GPa) = 64.49820 100.15281 129.22422
#
# Poissons Ratio (x) = 0.41613 0.46535
# Poissons Ratio (y) = 0.26799 0.15270
# Poissons Ratio (z) = 0.23226 0.11835
#
# Static dielectric constant tensor:
#      x y z
#    x 2.397350 0.297730 0.109160 
#    y 0.297730 2.391480 0.160190 
#    z 0.109160 0.160190 2.139580 
# 
# From -- ./inp_files/296767.got.cif
#   From: 2010.05.17/outbox.cif.g08.bks.cpg/sg2_149_cif.got.tgz:296767.got - 2010.06.03 11:33:40.
