data_PCOD9043131
_publ_section_title
;
Structure prediction by ZEFSAII (Michael W. Deem and Ramdas Pophale) SiO2 
 PCOD9043131
Probable space group: P -1
;
_chemical_formula_sum "Si O2"
_cell_formula_units_Z 14
_cell_length_a 5.132128
_cell_length_b 23.751343
_cell_length_c 10.120282
_cell_angle_alpha 145.142112
_cell_angle_beta 132.840612
_cell_angle_gamma 55.425930
_cell_volume 516.851886
_symmetry_space_group_name_H-M "P -1"
_symmetry_group_IT_number 2
_symmetry_cell_setting 'triclinic'
loop_
_space_group_symop_operation_xyz
x,y,z
-x,-y,-z
loop_
_atom_site_type_symbol
_atom_site_label
_atom_site_fract_x
_atom_site_fract_y
_atom_site_fract_z
Si Si1 0.531237 0.400307 0.230995
Si Si2 0.904136 0.780854 0.300598
Si Si3 0.610716 0.460393 0.765330
Si Si4 0.068920 0.344630 0.502748
Si Si5 0.638597 0.035397 0.259696
Si Si6 0.983299 0.837003 0.717625
Si Si7 0.726319 0.096639 0.780199
O O1 0.500000 0.500000 0.500000
O O2 0.583211 0.447142 0.194880
O O3 0.879696 0.341570 0.289406
O O4 0.183937 0.332030 0.985264
O O5 0.075011 0.782130 0.507956
O O6 0.498730 0.824773 0.229939
O O7 0.128813 0.865162 0.466587
O O8 0.381769 0.418740 0.724735
O O9 0.730361 0.375053 0.537122
O O10 0.000000 0.500000 0.000000
O O11 0.221739 0.245641 0.428932
O O12 0.261022 0.074981 0.258064
O O13 0.885107 0.942866 0.210394
O O14 0.500000 0.000000 0.000000
O O15 0.234827 0.872503 0.992040
O O16 0.500000 0.000000 0.500000
#
# Coordination Sequence:
#
# PCOD9043131 Si02
#       7
#     2   2   2   2   2   2   2
#     4  10  23  45  68  99 144 190 240 300 360 434
#     4  11  22  43  70  97 139 186 239 292 368 431
#     4  11  24  43  70 100 140 186 242 298 364 428
#     4  11  24  44  67 102 141 189 235 302 358 435
#     4   9  22  41  66 101 137 176 231 303 356 438
#     4  11  23  40  68 100 136 182 239 292 362 435
#     4   9  20  42  66  97 139 176 233 301 365 435
#
# _framework density 27.087063000000001
#
# number of rings (size 3 to 8) (size 9 to 14) (size 15 to 20)
#    0.000    1.714    1.429    1.714    4.000    5.714 
#    7.714    4.286    0.000    0.000    0.000    0.000 
#    0.000    0.000    0.000    0.000    0.000    0.000 
#
# Total GULP energy -78023.090417 kJ/mol
# GULP energy per Si atom -5573.077887 kJ/mol
# Density = 2.702541 g / cm^3
# Si number density = 27.087063 Si / 1000 Ang^3
#
#
#
# Elastic Constant Matrix: (Units=GPa)
#
#
# Indices 1 2 3 4 5 6 
#
# 1 95.2283 34.7289 50.3811 1.3653 22.2752 -0.2757
# 2 34.7289 119.4315 -17.0912 -7.0690 -7.2843 10.5330
# 3 50.3811 -17.0912 185.3366 5.5659 -0.5356 15.3357
# 4 1.3653 -7.0690 5.5659 43.0828 15.5019 4.7297
# 5 22.2752 -7.2843 -0.5356 15.5019 35.2758 4.4547
# 6 -0.2757 10.5330 15.3357 4.7297 4.4547 27.3523
#
#
#
# Elastic Compliance Matrix: (Units=1/GPa)
#
#
# Indices 1 2 3 4 5 6 
#
# 1 0.023302 -0.009928 -0.008385 0.004834 -0.020437 0.011252
# 2 -0.009928 0.013382 0.004779 -0.000916 0.010710 -0.009519
# 3 -0.008385 0.004779 0.008859 -0.002253 0.008400 -0.007870
# 4 0.004834 -0.000916 -0.002253 0.029014 -0.015930 -0.000758
# 5 -0.020437 0.010710 0.008400 -0.015930 0.052465 -0.014830
# 6 0.011252 -0.009519 -0.007870 -0.000758 -0.014830 0.047298
#
#
# Mechanical properties :
#
#
# Convention : Reuss Voigt Hill
#
# Bulk Modulus (GPa) = 54.12970 59.55934 56.84452
# Shear Modulus (GPa) = 24.09083 43.27403 33.68243
#
# Velocity S-wave (km/s) = 2.98549 4.00132 3.53014
# Velocity P-wave (km/s) = 5.64900 6.58660 6.13574
#
# Compressibility (1/GPa) = 0.01847415
#
# Stress axis : x y z
#
# Youngs Moduli (GPa) = 42.91508 74.72449 112.88135
#
# Poissons Ratio (x) = 0.74190 0.94653
# Poissons Ratio (y) = 0.42608 -0.53947
# Poissons Ratio (z) = 0.35985 -0.35712
#
# Static dielectric constant tensor:
#      x y z
#    x 2.566620 -0.205280 -0.258180 
#    y -0.205280 2.258940 0.111610 
#    z -0.258180 0.111610 2.353720 
# 
# From -- ./inp_files/137268.got.cif
#   From: 2010.05.17/outbox.cif.g08.bks.cpg/sg2_69_cif.got.tgz:137268.got - 2010.06.03 11:33:40.
