data_PCOD9043599
_publ_section_title
;
Structure prediction by ZEFSAII (Michael W. Deem and Ramdas Pophale) SiO2 
 PCOD9043599
Probable space group: P -1
;
_chemical_formula_sum "Si O2"
_cell_formula_units_Z 16
_cell_length_a 18.219187
_cell_length_b 12.961383
_cell_length_c 9.283879
_cell_angle_alpha 100.003237
_cell_angle_beta 137.769895
_cell_angle_gamma 45.792431
_cell_volume 742.651204
_symmetry_space_group_name_H-M "P -1"
_symmetry_group_IT_number 2
_symmetry_cell_setting 'triclinic'
loop_
_space_group_symop_operation_xyz
x,y,z
-x,-y,-z
loop_
_atom_site_type_symbol
_atom_site_label
_atom_site_fract_x
_atom_site_fract_y
_atom_site_fract_z
Si Si1 0.852207 0.972474 0.562618
Si Si2 0.474300 0.642502 0.033300
Si Si3 0.745298 0.826913 0.286912
Si Si4 0.906649 0.613447 0.184662
Si Si5 0.133813 0.888877 0.815509
Si Si6 0.809159 0.493285 0.630970
Si Si7 0.889846 0.922063 0.930606
Si Si8 0.463998 0.153535 0.463464
O O1 0.804265 0.889639 0.455120
O O2 0.850072 0.001814 0.734789
O O3 0.675250 0.178960 0.259570
O O4 0.079755 0.821512 0.790773
O O5 0.691575 0.527598 0.340220
O O6 0.500000 0.500000 0.000000
O O7 0.365206 0.729234 0.054530
O O8 0.806298 0.775479 0.194191
O O9 0.894752 0.613802 0.518566
O O10 0.500000 0.000000 0.000000
O O11 0.998713 0.597549 0.177197
O O12 0.718854 0.689710 0.885974
O O13 0.000000 0.000000 0.500000
O O14 0.064163 0.030412 0.867699
O O15 0.639588 0.707865 0.513501
O O16 0.914727 0.320877 0.847513
O O17 0.677960 0.034436 0.697768
O O18 0.500000 0.000000 0.500000
#
# Coordination Sequence:
#
# PCOD9043599 Si02
#       8
#     2   2   2   2   2   2   2   2
#     4  11  25  44  74  96 145 182 232 297 365 414
#     4  11  25  46  71 106 137 183 243 295 355 438
#     4  11  25  45  69 105 145 186 237 295 359 422
#     4  11  26  41  69 103 143 190 240 287 356 429
#     4  10  23  45  72  99 134 184 232 291 363 424
#     4  12  25  43  73 103 141 190 244 290 356 431
#     4  12  25  47  72 106 144 184 238 300 361 421
#     4  12  26  42  68 103 146 188 239 289 354 422
#
# _framework density 21.544435
#
# number of rings (size 3 to 8) (size 9 to 14) (size 15 to 20)
#    0.000    0.750    2.500    4.500   10.500    1.000 
#    2.250    1.250    0.000    0.000    0.000    0.000 
#    0.000    0.000    0.000    0.000    0.000    0.000 
#
# Total GULP energy -89450.057085 kJ/mol
# GULP energy per Si atom -5590.628568 kJ/mol
# Density = 2.149540 g / cm^3
# Si number density = 21.544435 Si / 1000 Ang^3
#
#
#
# Elastic Constant Matrix: (Units=GPa)
#
#
# Indices 1 2 3 4 5 6 
#
# 1 95.0300 24.4909 22.5053 1.5539 2.7888 -9.4924
# 2 24.4909 111.2552 26.4915 9.4249 -1.0056 -10.4370
# 3 22.5053 26.4915 97.9336 4.0731 5.5650 -0.6837
# 4 1.5539 9.4249 4.0731 41.6770 0.8428 0.4021
# 5 2.7888 -1.0056 5.5650 0.8428 33.1284 9.0958
# 6 -9.4924 -10.4370 -0.6837 0.4021 9.0958 20.8570
#
#
#
# Elastic Compliance Matrix: (Units=1/GPa)
#
#
# Indices 1 2 3 4 5 6 
#
# 1 0.012083 -0.001651 -0.002169 0.000126 -0.002237 0.005575
# 2 -0.001651 0.010517 -0.002324 -0.002127 -0.000371 0.004638
# 3 -0.002169 -0.002324 0.011434 -0.000470 -0.001490 -0.001116
# 4 0.000126 -0.002127 -0.000470 0.024535 -0.000238 -0.001391
# 5 -0.002237 -0.000371 -0.001490 -0.000238 0.035173 -0.016587
# 6 0.005575 0.004638 -0.001116 -0.001391 -0.016587 0.060027
#
#
# Mechanical properties :
#
#
# Convention : Reuss Voigt Hill
#
# Bulk Modulus (GPa) = 45.98501 50.13269 48.05885
# Shear Modulus (GPa) = 28.85077 34.51456 31.68267
#
# Velocity S-wave (km/s) = 3.66338 4.00686 3.83897
# Velocity P-wave (km/s) = 6.26773 6.68779 6.48116
#
# Compressibility (1/GPa) = 0.02174622
#
# Stress axis : x y z
#
# Youngs Moduli (GPa) = 82.76306 95.08410 87.45490
#
# Poissons Ratio (x) = 0.15701 0.18971
# Poissons Ratio (y) = 0.13666 0.20321
# Poissons Ratio (z) = 0.17953 0.22093
#
# Static dielectric constant tensor:
#      x y z
#    x 1.783660 -0.021530 -0.006650 
#    y -0.021530 1.778080 0.005390 
#    z -0.006650 0.005390 1.818530 
# 
# From -- ./inp_files/333457.got.cif
#   From: 2010.05.17/outbox.cif.g08.bks.cpg/sg2_167_cif.got.tgz:333457.got - 2010.06.03 11:33:40.
