data_PCOD9043600
_publ_section_title
;
Structure prediction by ZEFSAII (Michael W. Deem and Ramdas Pophale) SiO2 
 PCOD9043600
Probable space group: P -1
;
_chemical_formula_sum "Si O2"
_cell_formula_units_Z 13
_cell_length_a 11.532434
_cell_length_b 11.841395
_cell_length_c 9.364807
_cell_angle_alpha 102.479411
_cell_angle_beta 122.053431
_cell_angle_gamma 128.294791
_cell_volume 487.777609
_symmetry_space_group_name_H-M "P -1"
_symmetry_group_IT_number 2
_symmetry_cell_setting 'triclinic'
loop_
_space_group_symop_operation_xyz
x,y,z
-x,-y,-z
loop_
_atom_site_type_symbol
_atom_site_label
_atom_site_fract_x
_atom_site_fract_y
_atom_site_fract_z
Si Si1 0.095150 0.989547 0.850594
Si Si2 0.467800 0.339236 0.947699
Si Si3 0.448073 0.325888 0.434396
Si Si4 0.996499 0.661203 0.591583
Si Si5 0.752974 0.256578 0.483625
Si Si6 0.500000 0.000000 0.500000
Si Si7 0.264649 0.582252 0.115607
O O1 0.849558 0.893067 0.724285
O O2 0.030393 0.805090 0.740194
O O3 0.172369 0.086134 0.768373
O O4 0.366341 0.212592 0.197692
O O5 0.724883 0.478699 0.254635
O O6 0.500000 0.500000 0.000000
O O7 0.519504 0.318590 0.826038
O O8 0.500000 0.500000 0.500000
O O9 0.711883 0.467698 0.734854
O O10 0.927813 0.499481 0.603564
O O11 0.255296 0.827976 0.687567
O O12 0.467201 0.056467 0.340834
O O13 0.939105 0.335287 0.760562
O O14 0.624830 0.206785 0.726972
#
# Coordination Sequence:
#
# PCOD9043600 Si02
#       7
#     2   2   2   2   2   1   2
#     4  11  24  42  73 100 135 186 228 288 351 418
#     4  11  24  45  72 103 138 181 235 294 347 420
#     4  11  26  45  67 104 141 180 229 289 353 415
#     4  10  23  45  72  99 141 182 240 283 355 415
#     4  10  25  46  68 102 139 188 231 296 338 424
#     4  12  26  42  68 104 140 184 238 282 356 406
#     4  11  26  44  68 101 142 179 230 290 349 415
#
# _framework density 26.651491
#
# number of rings (size 3 to 8) (size 9 to 14) (size 15 to 20)
#    0.000    1.231    0.000    4.154    6.462    7.385 
#    0.000    4.615    0.000    0.000    0.000    0.000 
#    0.000    0.000    0.000    0.000    0.000    0.000 
#
# Total GULP energy -72599.537694 kJ/mol
# GULP energy per Si atom -5584.579823 kJ/mol
# Density = 2.659083 g / cm^3
# Si number density = 26.651491 Si / 1000 Ang^3
#
#
#
# Elastic Constant Matrix: (Units=GPa)
#
#
# Indices 1 2 3 4 5 6 
#
# 1 122.8042 8.3155 11.2503 -11.8008 -37.3980 23.8547
# 2 8.3155 111.6089 16.9379 -36.8058 -7.0700 -11.1874
# 3 11.2503 16.9379 136.8919 -38.0738 -14.1715 -13.0857
# 4 -11.8008 -36.8058 -38.0738 41.6510 -3.8228 -4.7702
# 5 -37.3980 -7.0700 -14.1715 -3.8228 40.1899 -3.7391
# 6 23.8547 -11.1874 -13.0857 -4.7702 -3.7391 58.8759
#
#
#
# Elastic Compliance Matrix: (Units=1/GPa)
#
#
# Indices 1 2 3 4 5 6 
#
# 1 0.013598 0.002172 0.002281 0.008841 0.014406 -0.002959
# 2 0.002172 0.016110 0.005182 0.021078 0.009211 0.005625
# 3 0.002281 0.005182 0.013242 0.018837 0.009975 0.005163
# 4 0.008841 0.021078 0.018837 0.066069 0.025941 0.011610
# 5 0.014406 0.009211 0.009975 0.025941 0.046187 0.003166
# 6 -0.002959 0.005625 0.005163 0.011610 0.003166 0.021542
#
#
# Mechanical properties :
#
#
# Convention : Reuss Voigt Hill
#
# Bulk Modulus (GPa) = 16.07214 49.36801 32.72007
# Shear Modulus (GPa) = 28.05565 50.46344 39.25954
#
# Velocity S-wave (km/s) = 3.24803 4.35611 3.84222
# Velocity P-wave (km/s) = 4.48440 6.62304 5.65573
#
# Compressibility (1/GPa) = 0.06221948
#
# Stress axis : x y z
#
# Youngs Moduli (GPa) = 73.53861 62.07384 75.51917
#
# Poissons Ratio (x) = -0.13483 -0.17226
# Poissons Ratio (y) = -0.15973 -0.39132
# Poissons Ratio (z) = -0.16774 -0.32165
#
# Static dielectric constant tensor:
#      x y z
#    x -2.353630 -0.562610 -2.342310 
#    y -0.562610 1.703910 -0.442700 
#    z -2.342310 -0.442700 0.742800 
# 
# From -- ./inp_files/25303.got.cif
#   From: 2010.05.17/outbox.cif.g08.bks.cpg/sg2_13_cif.got.tgz:25303.got - 2010.06.03 11:33:40.
