data_PCOD9043813
_publ_section_title
;
Structure prediction by ZEFSAII (Michael W. Deem and Ramdas Pophale) SiO2 
 PCOD9043813
Probable space group: P -1
;
_chemical_formula_sum "Si O2"
_cell_formula_units_Z 14
_cell_length_a 7.019660
_cell_length_b 8.886593
_cell_length_c 12.501768
_cell_angle_alpha 66.479019
_cell_angle_beta 92.375978
_cell_angle_gamma 128.559808
_cell_volume 535.275985
_symmetry_space_group_name_H-M "P -1"
_symmetry_group_IT_number 2
_symmetry_cell_setting 'triclinic'
loop_
_space_group_symop_operation_xyz
x,y,z
-x,-y,-z
loop_
_atom_site_type_symbol
_atom_site_label
_atom_site_fract_x
_atom_site_fract_y
_atom_site_fract_z
Si Si1 0.333225 0.671055 0.169500
Si Si2 0.240029 0.768610 0.515057
Si Si3 0.319718 0.418748 0.416102
Si Si4 0.569538 0.042113 0.754794
Si Si5 0.753397 0.757013 0.030935
Si Si6 0.436360 0.656788 0.717859
Si Si7 0.001247 0.323152 0.109314
O O1 0.435906 0.630489 0.285328
O O2 0.518738 0.747120 0.051363
O O3 0.090837 0.428035 0.197981
O O4 0.288949 0.827408 0.168696
O O5 0.026423 0.288496 0.472398
O O6 0.234821 0.611816 0.639128
O O7 0.500000 0.000000 0.500000
O O8 0.306794 0.782771 0.388512
O O9 0.500000 0.500000 0.500000
O O10 0.342309 0.278549 0.374978
O O11 0.544335 0.848714 0.752788
O O12 0.278637 0.907947 0.821218
O O13 0.688657 0.563609 0.158338
O O14 0.816153 0.705563 0.934082
O O15 0.000000 0.000000 0.000000
O O16 0.000000 0.500000 0.000000
#
# Coordination Sequence:
#
# PCOD9043813 Si02
#       7
#     2   2   2   2   2   2   2
#     4  11  25  45  73 106 149 201 252 319 388 457
#     4  10  23  45  77 110 158 202 259 312 393 463
#     4  11  25  46  75 114 158 204 258 323 387 465
#     4  11  23  44  74 112 143 199 248 311 383 460
#     4  11  23  47  74 108 149 197 258 320 385 459
#     4  10  23  45  76 111 155 204 255 322 387 462
#     4  12  25  47  74 105 152 197 260 319 382 461
#
# _framework density 26.154731000000002
#
# number of rings (size 3 to 8) (size 9 to 14) (size 15 to 20)
#    0.000    1.143    2.857    3.000    0.000    6.286 
#    0.000    5.714    0.000    0.000    0.000    0.000 
#    0.000    0.000    0.000    0.000    0.000    0.000 
#
# Total GULP energy -78244.867703 kJ/mol
# GULP energy per Si atom -5588.919122 kJ/mol
# Density = 2.609520 g / cm^3
# Si number density = 26.154731 Si / 1000 Ang^3
#
#
#
# Elastic Constant Matrix: (Units=GPa)
#
#
# Indices 1 2 3 4 5 6 
#
# 1 139.4921 40.8088 66.2944 16.6590 -28.1502 3.4691
# 2 40.8088 171.9014 49.7125 25.4967 -14.7877 -12.2174
# 3 66.2944 49.7125 123.7423 6.6083 -18.2931 -20.8007
# 4 16.6590 25.4967 6.6083 49.4412 -14.6042 -16.8150
# 5 -28.1502 -14.7877 -18.2931 -14.6042 62.7797 5.4568
# 6 3.4691 -12.2174 -20.8007 -16.8150 5.4568 45.2384
#
#
#
# Elastic Compliance Matrix: (Units=1/GPa)
#
#
# Indices 1 2 3 4 5 6 
#
# 1 0.011464 -0.000495 -0.006278 -0.003876 0.002786 -0.005676
# 2 -0.000495 0.007115 -0.002487 -0.003313 -0.000005 -0.000415
# 3 -0.006278 -0.002487 0.013626 0.004444 0.000941 0.007613
# 4 -0.003876 -0.003313 0.004444 0.027724 0.004249 0.011238
# 5 0.002786 -0.000005 0.000941 0.004249 0.018477 -0.000432
# 6 -0.005676 -0.000415 0.007613 0.011238 -0.000432 0.030158
#
#
# Mechanical properties :
#
#
# Convention : Reuss Voigt Hill
#
# Bulk Modulus (GPa) = 73.07397 83.19635 78.13516
# Shear Modulus (GPa) = 37.98099 50.04653 44.01376
#
# Velocity S-wave (km/s) = 3.81486 4.37908 4.10667
# Velocity P-wave (km/s) = 6.88506 7.57937 7.24054
#
# Compressibility (1/GPa) = 0.01368476
#
# Stress axis : x y z
#
# Youngs Moduli (GPa) = 87.23277 140.53971 73.39171
#
# Poissons Ratio (x) = 0.06953 0.46076
# Poissons Ratio (y) = 0.04316 0.18253
# Poissons Ratio (z) = 0.54765 0.34953
#
# Static dielectric constant tensor:
#      x y z
#    x 2.200690 -0.066000 0.078770 
#    y -0.066000 2.109340 0.013190 
#    z 0.078770 0.013190 2.098460 
# 
# From -- ./inp_files/201159.got.cif
#   From: 2010.05.17/outbox.cif.g08.bks.cpg/sg2_101_cif.got.tgz:201159.got - 2010.06.03 11:33:40.
