data_PCOD9043957
_publ_section_title
;
Structure prediction by ZEFSAII (Michael W. Deem and Ramdas Pophale) SiO2 
 PCOD9043957
Probable space group: P -1
;
_chemical_formula_sum "Si O2"
_cell_formula_units_Z 16
_cell_length_a 9.454803
_cell_length_b 18.470477
_cell_length_c 6.029721
_cell_angle_alpha 44.571928
_cell_angle_beta 75.625131
_cell_angle_gamma 76.482184
_cell_volume 713.351308
_symmetry_space_group_name_H-M "P -1"
_symmetry_group_IT_number 2
_symmetry_cell_setting 'triclinic'
loop_
_space_group_symop_operation_xyz
x,y,z
-x,-y,-z
loop_
_atom_site_type_symbol
_atom_site_label
_atom_site_fract_x
_atom_site_fract_y
_atom_site_fract_z
Si Si1 0.061705 0.920270 0.460633
Si Si2 0.701683 0.643628 0.171357
Si Si3 0.437729 0.608004 0.682166
Si Si4 0.946829 0.742662 0.133653
Si Si5 0.826873 0.903847 0.200323
Si Si6 0.489186 0.054616 0.632334
Si Si7 0.566391 0.273201 0.164869
Si Si8 0.205939 0.588020 0.475983
O O1 0.950770 0.907659 0.328918
O O2 0.000000 0.000000 0.500000
O O3 0.065076 0.810288 0.818731
O O4 0.184962 0.984704 0.163914
O O5 0.567531 0.633757 0.413224
O O6 0.821532 0.712890 0.077474
O O7 0.780293 0.529880 0.350814
O O8 0.602817 0.683066 0.914031
O O9 0.412271 0.707650 0.628132
O O10 0.280481 0.589071 0.684378
O O11 0.500000 0.500000 0.000000
O O12 0.871630 0.813883 0.202532
O O13 0.043652 0.642809 0.404792
O O14 0.676420 0.895248 0.400186
O O15 0.586768 0.152594 0.362341
O O16 0.500000 0.000000 0.500000
O O17 0.500000 0.000000 0.000000
O O18 0.678334 0.346529 0.846507
#
# Coordination Sequence:
#
# PCOD9043957 Si02
#       8
#     2   2   2   2   2   2   2   2
#     4   9  21  41  70  90 131 186 230 285 362 439
#     4  11  22  42  68  98 141 188 235 293 366 435
#     4  11  20  43  70  94 137 191 242 291 359 435
#     4  11  24  40  69 100 144 181 235 301 364 432
#     4  10  23  46  67  97 138 186 235 293 373 431
#     4  12  31  47  74 112 144 187 251 312 362 443
#     4  11  24  44  71  97 141 191 233 300 367 429
#     4  11  24  40  66 107 136 183 245 291 359 436
#
# _framework density 22.429341000000001
#
# number of rings (size 3 to 8) (size 9 to 14) (size 15 to 20)
#    0.000    1.250    2.500    2.625   10.500    3.000 
#    0.000    0.625    0.000    0.000    0.000    0.000 
#    0.000    0.000    0.000    0.000    0.000    0.000 
#
# Total GULP energy -89191.082605 kJ/mol
# GULP energy per Si atom -5574.442663 kJ/mol
# Density = 2.237829 g / cm^3
# Si number density = 22.429341 Si / 1000 Ang^3
#
#
#
# Elastic Constant Matrix: (Units=GPa)
#
#
# Indices 1 2 3 4 5 6 
#
# 1 94.6682 38.7812 -0.0804 -2.8064 6.3088 1.9304
# 2 38.7812 155.6894 30.2242 -4.9806 5.6997 28.3620
# 3 -0.0804 30.2242 53.6331 -6.9235 -1.0951 1.7386
# 4 -2.8064 -4.9806 -6.9235 28.9098 0.0837 -0.3176
# 5 6.3088 5.6997 -1.0951 0.0837 38.5109 -3.2595
# 6 1.9304 28.3620 1.7386 -0.3176 -3.2595 33.9374
#
#
#
# Elastic Compliance Matrix: (Units=1/GPa)
#
#
# Indices 1 2 3 4 5 6 
#
# 1 0.012185 -0.003797 0.002200 0.001084 -0.001182 0.002264
# 2 -0.003797 0.009924 -0.005378 -0.000029 -0.001674 -0.007963
# 3 0.002200 -0.005378 0.022195 0.004636 0.001345 0.003405
# 4 0.001084 -0.000029 0.004636 0.035802 -0.000115 0.000049
# 5 -0.001182 -0.001674 0.001345 -0.000115 0.026782 0.003968
# 6 0.002264 -0.007963 0.003405 0.000049 0.003968 0.036199
#
#
# Mechanical properties :
#
#
# Convention : Reuss Voigt Hill
#
# Bulk Modulus (GPa) = 32.94368 49.09340 41.01854
# Shear Modulus (GPa) = 29.91247 35.94266 32.92757
#
# Velocity S-wave (km/s) = 3.65585 4.00745 3.83568
# Velocity P-wave (km/s) = 5.70438 6.58395 6.15989
#
# Compressibility (1/GPa) = 0.03035483
#
# Stress axis : x y z
#
# Youngs Moduli (GPa) = 82.06641 100.76770 45.05570
#
# Poissons Ratio (x) = 0.38260 -0.09914
# Poissons Ratio (y) = 0.31160 0.24231
# Poissons Ratio (z) = -0.18058 0.54193
#
# Static dielectric constant tensor:
#      x y z
#    x 1.825670 0.026640 0.060020 
#    y 0.026640 1.817220 0.013740 
#    z 0.060020 0.013740 1.957860 
# 
# From -- ./inp_files/39768.got.cif
#   From: 2010.05.17/outbox.cif.g08.bks.cpg/sg2_20_cif.got.tgz:39768.got - 2010.06.03 11:33:40.
