data_PCOD9043031
_publ_section_title
;
Structure prediction by ZEFSAII (Michael W. Deem and Ramdas Pophale) SiO2 
 PCOD9043031
Probable space group: P -1
;
_chemical_formula_sum "Si O2"
_cell_formula_units_Z 12
_cell_length_a 7.111538
_cell_length_b 7.951383
_cell_length_c 10.549183
_cell_angle_alpha 114.912067
_cell_angle_beta 106.153825
_cell_angle_gamma 99.636848
_cell_volume 491.143883
_symmetry_space_group_name_H-M "P -1"
_symmetry_group_IT_number 2
_symmetry_cell_setting 'triclinic'
loop_
_space_group_symop_operation_xyz
x,y,z
-x,-y,-z
loop_
_atom_site_type_symbol
_atom_site_label
_atom_site_fract_x
_atom_site_fract_y
_atom_site_fract_z
Si Si1 0.603650 0.868282 0.563276
Si Si2 0.584943 0.567605 0.251349
Si Si3 0.568997 0.145843 0.205118
Si Si4 0.987391 0.862843 0.331276
Si Si5 0.882580 0.479359 0.838636
Si Si6 0.858605 0.106650 0.073374
O O1 0.615947 0.682558 0.427769
O O2 0.464900 0.814113 0.643868
O O3 0.500000 0.000000 0.500000
O O4 0.843070 0.990092 0.683633
O O5 0.599747 0.350317 0.200806
O O6 0.749032 0.717042 0.235109
O O7 0.348544 0.541980 0.170967
O O8 0.766820 0.078466 0.189887
O O9 0.360344 0.974415 0.068855
O O10 0.098731 0.695793 0.300352
O O11 0.000000 0.000000 0.500000
O O12 0.998796 0.672071 0.844298
O O13 0.000000 0.500000 0.000000
O O14 0.000000 0.000000 0.000000
#
# Coordination Sequence:
#
# PCOD9043031 Si02
#       6
#     2   2   2   2   2   2
#     4  11  23  45  70 104 142 182 234 294 352 420
#     4  11  23  45  71  99 140 186 233 288 354 420
#     4  11  24  46  69 102 142 184 235 289 352 424
#     4  10  23  45  68 100 143 181 238 288 352 419
#     4  12  24  44  70 105 142 182 240 295 352 424
#     4  11  24  46  69 103 139 185 237 290 354 422
#
# _framework density 24.432759000000001
#
# number of rings (size 3 to 8) (size 9 to 14) (size 15 to 20)
#    0.000    1.000    5.000    1.500    0.000    0.667 
#   15.000    1.667    0.000    0.000    0.000    0.000 
#    0.000    0.000    0.000    0.000    0.000    0.000 
#
# Total GULP energy -66970.456424 kJ/mol
# GULP energy per Si atom -5580.871369 kJ/mol
# Density = 2.437715 g / cm^3
# Si number density = 24.432759 Si / 1000 Ang^3
#
#
#
# Elastic Constant Matrix: (Units=GPa)
#
#
# Indices 1 2 3 4 5 6 
#
# 1 219.7327 49.3747 39.8823 5.6210 -3.0307 40.0667
# 2 49.3747 80.6328 41.0615 21.4300 2.1489 22.8525
# 3 39.8823 41.0615 69.0796 28.9402 -16.5446 7.3142
# 4 5.6210 21.4300 28.9402 42.6490 6.4381 -11.3198
# 5 -3.0307 2.1489 -16.5446 6.4381 56.8572 14.5577
# 6 40.0667 22.8525 7.3142 -11.3198 14.5577 44.1352
#
#
#
# Elastic Compliance Matrix: (Units=1/GPa)
#
#
# Indices 1 2 3 4 5 6 
#
# 1 0.006124 -0.001319 -0.001638 -0.000605 0.001297 -0.005188
# 2 -0.001319 0.023032 -0.006918 -0.010298 0.001466 -0.012706
# 3 -0.001638 -0.006918 0.036772 -0.027598 0.017557 -0.013894
# 4 -0.000605 -0.010298 -0.027598 0.059753 -0.022981 0.033361
# 5 0.001297 0.001466 0.017557 -0.022981 0.030651 -0.020850
# 6 -0.005188 -0.012706 -0.013894 0.033361 -0.020850 0.051683
#
#
# Mechanical properties :
#
#
# Convention : Reuss Voigt Hill
#
# Bulk Modulus (GPa) = 21.65567 70.00911 45.83239
# Shear Modulus (GPa) = 20.56291 44.67004 32.61647
#
# Velocity S-wave (km/s) = 2.90420 4.28048 3.65766
# Velocity P-wave (km/s) = 4.48648 7.29013 6.05287
#
# Compressibility (1/GPa) = 0.04617729
#
# Stress axis : x y z
#
# Youngs Moduli (GPa) = 163.28989 43.41864 27.19481
#
# Poissons Ratio (x) = 0.05727 0.04455
# Poissons Ratio (y) = 0.21540 0.18813
# Poissons Ratio (z) = 0.26748 0.30036
#
# Static dielectric constant tensor:
#      x y z
#    x 1.974100 -0.036620 0.016730 
#    y -0.036620 2.094240 -0.163180 
#    z 0.016730 -0.163180 2.200450 
# 
# From -- ./inp_files/31061.got.cif
#   From: 2010.05.17/outbox.cif.g08.bks.cpg/sg2_16_cif.got.tgz:31061.got - 2010.06.03 11:33:40.
