data_PCOD9043715
_publ_section_title
;
Structure prediction by ZEFSAII (Michael W. Deem and Ramdas Pophale) SiO2 
 PCOD9043715
Probable space group: P -1
;
_chemical_formula_sum "Si O2"
_cell_formula_units_Z 12
_cell_length_a 11.914443
_cell_length_b 9.894759
_cell_length_c 7.715335
_cell_angle_alpha 83.916697
_cell_angle_beta 120.134154
_cell_angle_gamma 137.267900
_cell_volume 477.287902
_symmetry_space_group_name_H-M "P -1"
_symmetry_group_IT_number 2
_symmetry_cell_setting 'triclinic'
loop_
_space_group_symop_operation_xyz
x,y,z
-x,-y,-z
loop_
_atom_site_type_symbol
_atom_site_label
_atom_site_fract_x
_atom_site_fract_y
_atom_site_fract_z
Si Si1 0.745717 0.240716 0.660613
Si Si2 0.710403 0.531483 0.604420
Si Si3 0.312871 0.208468 0.562265
Si Si4 0.141959 0.864191 0.936365
Si Si5 0.984616 0.271228 0.548603
Si Si6 0.526510 0.358674 0.050591
O O1 0.752206 0.407427 0.635866
O O2 0.866198 0.278171 0.582986
O O3 0.500000 0.000000 0.500000
O O4 0.822774 0.235335 0.899761
O O5 0.466877 0.333985 0.501011
O O6 0.727681 0.665479 0.457227
O O7 0.920507 0.747773 0.848972
O O8 0.099248 0.946062 0.422099
O O9 0.460547 0.264856 0.816180
O O10 0.096387 0.790854 0.706509
O O11 0.345317 0.133378 0.055630
O O12 0.236819 0.495053 0.743235
O O13 0.500000 0.500000 0.000000
#
# Coordination Sequence:
#
# PCOD9043715 Si02
#       6
#     2   2   2   2   2   2
#     4  12  27  48  73 105 145 192 241 291 361 424
#     4  11  23  47  71 104 147 187 236 304 349 424
#     4  10  23  45  74 105 143 186 244 294 357 422
#     4  11  27  46  73 106 145 186 241 295 356 425
#     4  11  25  49  75 107 144 188 238 297 358 423
#     4  11  24  44  75 108 145 190 238 294 361 427
#
# _framework density 25.142057000000001
#
# number of rings (size 3 to 8) (size 9 to 14) (size 15 to 20)
#    0.000    1.000    1.667    3.500    4.667    4.000 
#    0.000    4.167    0.000    0.000    0.000    0.000 
#    0.000    0.000    0.000    0.000    0.000    0.000 
#
# Total GULP energy -66995.585168 kJ/mol
# GULP energy per Si atom -5582.965431 kJ/mol
# Density = 2.508483 g / cm^3
# Si number density = 25.142057 Si / 1000 Ang^3
#
#
#
# Elastic Constant Matrix: (Units=GPa)
#
#
# Indices 1 2 3 4 5 6 
#
# 1 86.0127 46.0010 32.9879 7.4337 16.4411 -1.2581
# 2 46.0010 189.0110 47.5590 10.3602 14.2432 9.7767
# 3 32.9879 47.5590 170.6890 -2.2691 20.8416 6.0154
# 4 7.4337 10.3602 -2.2691 48.4049 8.9292 25.6666
# 5 16.4411 14.2432 20.8416 8.9292 33.3341 11.7311
# 6 -1.2581 9.7767 6.0154 25.6666 11.7311 25.6387
#
#
#
# Elastic Compliance Matrix: (Units=1/GPa)
#
#
# Indices 1 2 3 4 5 6 
#
# 1 0.016621 -0.003233 -0.001880 -0.008030 -0.008576 0.014453
# 2 -0.003233 0.006450 -0.001107 0.000733 0.000504 -0.003323
# 3 -0.001880 -0.001107 0.007007 0.002971 -0.002703 -0.003052
# 4 -0.008030 0.000733 0.002971 0.049121 0.007652 -0.054047
# 5 -0.008576 0.000504 -0.002703 0.007652 0.043318 -0.027460
# 6 0.014453 -0.003323 -0.003052 -0.054047 -0.027460 0.108366
#
#
# Mechanical properties :
#
#
# Convention : Reuss Voigt Hill
#
# Bulk Modulus (GPa) = 56.69720 77.64536 67.17128
# Shear Modulus (GPa) = 20.06395 42.75319 31.40857
#
# Velocity S-wave (km/s) = 2.82800 4.12814 3.53830
# Velocity P-wave (km/s) = 5.76742 7.32610 6.59298
#
# Compressibility (1/GPa) = 0.01763755
#
# Stress axis : x y z
#
# Youngs Moduli (GPa) = 60.16406 155.04247 142.70457
#
# Poissons Ratio (x) = 0.50129 0.26833
# Poissons Ratio (y) = 0.19453 0.15796
# Poissons Ratio (z) = 0.11313 0.17162
#
# Static dielectric constant tensor:
#      x y z
#    x 2.104110 0.058710 -0.082180 
#    y 0.058710 2.010410 0.058680 
#    z -0.082180 0.058680 2.205530 
# 
# From -- ./inp_files/243755.got.cif
#   From: 2010.05.17/outbox.cif.g08.bks.cpg/sg2_122_cif.got.tgz:243755.got - 2010.06.03 11:33:40.
