data_PCOD9043082
_publ_section_title
;
Structure prediction by ZEFSAII (Michael W. Deem and Ramdas Pophale) SiO2 
 PCOD9043082
Probable space group: P -1
;
_chemical_formula_sum "Si O2"
_cell_formula_units_Z 14
_cell_length_a 6.318460
_cell_length_b 15.090589
_cell_length_c 9.640584
_cell_angle_alpha 137.122862
_cell_angle_beta 83.191311
_cell_angle_gamma 89.222345
_cell_volume 614.151791
_symmetry_space_group_name_H-M "P -1"
_symmetry_group_IT_number 2
_symmetry_cell_setting 'triclinic'
loop_
_space_group_symop_operation_xyz
x,y,z
-x,-y,-z
loop_
_atom_site_type_symbol
_atom_site_label
_atom_site_fract_x
_atom_site_fract_y
_atom_site_fract_z
Si Si1 0.957675 0.035890 0.772871
Si Si2 0.779289 0.214198 0.423480
Si Si3 0.477091 0.649180 0.833378
Si Si4 0.820771 0.421465 0.473328
Si Si5 0.454704 0.656948 0.152955
Si Si6 0.715248 0.892626 0.392797
Si Si7 0.443940 0.860813 0.891826
O O1 0.109751 0.108935 0.746117
O O2 0.824021 0.950404 0.584268
O O3 0.785140 0.113272 0.978983
O O4 0.116465 0.934010 0.734863
O O5 0.920116 0.300512 0.422562
O O6 0.718516 0.277662 0.648086
O O7 0.575109 0.217008 0.339610
O O8 0.652534 0.520503 0.690534
O O9 0.308328 0.614150 0.692756
O O10 0.580130 0.767946 0.888258
O O11 0.379637 0.683021 0.030002
O O12 0.000000 0.500000 0.500000
O O13 0.645548 0.748671 0.255830
O O14 0.500000 0.500000 0.000000
O O15 0.500000 0.000000 0.500000
O O16 0.500000 0.000000 0.000000
#
# Coordination Sequence:
#
# PCOD9043082 Si02
#       7
#     2   2   2   2   2   2   2
#     4  11  25  44  72 105 136 187 245 293 360 422
#     4  11  24  44  65 104 138 172 245 290 342 435
#     4  10  24  43  67  96 137 176 235 280 348 422
#     4  10  23  45  68  93 134 188 226 288 347 418
#     4  12  24  44  71 104 143 188 233 291 363 424
#     4  11  24  45  73 100 146 188 235 299 356 427
#     4  11  25  43  72 102 138 186 234 297 356 418
#
# _framework density 22.795667000000002
#
# number of rings (size 3 to 8) (size 9 to 14) (size 15 to 20)
#    0.000    1.143    2.857    2.143    6.000    3.429 
#    0.000    1.429    0.000    0.000    0.000    0.000 
#    0.000    0.000    0.000    0.000    0.000    0.000 
#
# Total GULP energy -78198.118690 kJ/mol
# GULP energy per Si atom -5585.579906 kJ/mol
# Density = 2.274378 g / cm^3
# Si number density = 22.795667 Si / 1000 Ang^3
#
#
#
# Elastic Constant Matrix: (Units=GPa)
#
#
# Indices 1 2 3 4 5 6 
#
# 1 48.1699 14.0628 14.9788 -1.7609 1.0694 20.3021
# 2 14.0628 133.1403 28.4527 3.4529 12.1042 22.7893
# 3 14.9788 28.4527 100.1346 -14.0103 -8.8698 10.5148
# 4 -1.7609 3.4529 -14.0103 52.0520 2.3920 4.9336
# 5 1.0694 12.1042 -8.8698 2.3920 28.1191 0.2130
# 6 20.3021 22.7893 10.5148 4.9336 0.2130 40.1297
#
#
#
# Elastic Compliance Matrix: (Units=1/GPa)
#
#
# Indices 1 2 3 4 5 6 
#
# 1 0.027282 0.000111 -0.002667 0.001553 -0.001957 -0.013347
# 2 0.000111 0.009302 -0.002705 -0.000694 -0.004768 -0.004519
# 3 -0.002667 -0.002705 0.012101 0.003192 0.004817 -0.000703
# 4 0.001553 -0.000694 0.003192 0.020546 -0.000473 -0.003751
# 5 -0.001957 -0.004768 0.004817 -0.000473 0.039232 0.002286
# 6 -0.013347 -0.004519 -0.000703 -0.003751 0.002286 0.034871
#
#
# Mechanical properties :
#
#
# Convention : Reuss Voigt Hill
#
# Bulk Modulus (GPa) = 26.20308 44.04815 35.12562
# Shear Modulus (GPa) = 30.01568 38.99019 34.50293
#
# Velocity S-wave (km/s) = 3.63261 4.14021 3.89469
# Velocity P-wave (km/s) = 5.39576 6.49770 5.97220
#
# Compressibility (1/GPa) = 0.03816345
#
# Stress axis : x y z
#
# Youngs Moduli (GPa) = 36.65359 107.50090 82.63703
#
# Poissons Ratio (x) = -0.01189 0.22040
# Poissons Ratio (y) = -0.00405 0.22350
# Poissons Ratio (z) = 0.09776 0.29075
#
# Static dielectric constant tensor:
#      x y z
#    x 1.883850 0.009640 0.004140 
#    y 0.009640 1.920430 0.049860 
#    z 0.004140 0.049860 1.887410 
# 
# From -- ./inp_files/70232.got.cif
#   From: 2010.05.17/outbox.cif.g08.bks.cpg/sg2_36_cif.got.tgz:70232.got - 2010.06.03 11:33:40.
