data_PCOD9043214
_publ_section_title
;
Structure prediction by ZEFSAII (Michael W. Deem and Ramdas Pophale) SiO2 
 PCOD9043214
Probable space group: P -1
;
_chemical_formula_sum "Si O2"
_cell_formula_units_Z 12
_cell_length_a 12.193964
_cell_length_b 7.383254
_cell_length_c 8.838357
_cell_angle_alpha 53.559970
_cell_angle_beta 129.276615
_cell_angle_gamma 106.455734
_cell_volume 490.008714
_symmetry_space_group_name_H-M "P -1"
_symmetry_group_IT_number 2
_symmetry_cell_setting 'triclinic'
loop_
_space_group_symop_operation_xyz
x,y,z
-x,-y,-z
loop_
_atom_site_type_symbol
_atom_site_label
_atom_site_fract_x
_atom_site_fract_y
_atom_site_fract_z
Si Si1 0.791673 0.818487 0.720551
Si Si2 0.649697 0.064224 0.038932
Si Si3 0.906306 0.699972 0.570242
Si Si4 0.220433 0.556329 0.861942
Si Si5 0.480004 0.815144 0.445370
Si Si6 0.265935 0.645232 0.529662
O O1 0.907171 0.747627 0.726488
O O2 0.640035 0.763615 0.546165
O O3 0.778364 0.085981 0.609563
O O4 0.804148 0.667810 0.957056
O O5 0.216363 0.120634 0.703272
O O6 0.628045 0.092914 0.826677
O O7 0.685870 0.295076 0.031463
O O8 0.500000 0.000000 0.000000
O O9 0.855838 0.458030 0.614419
O O10 0.061740 0.699232 0.635853
O O11 0.287438 0.522208 0.771593
O O12 0.409777 0.623985 0.566638
O O13 0.500000 0.000000 0.500000
#
# Coordination Sequence:
#
# PCOD9043214 Si02
#       6
#     2   2   2   2   2   2
#     4  11  25  48  73 105 150 185 250 296 360 429
#     4  12  24  46  80 106 143 197 241 301 363 427
#     4  12  26  48  74 110 147 191 244 296 367 432
#     4  12  27  48  74 107 150 193 237 303 363 434
#     4  10  23  45  69 111 140 187 244 299 352 425
#     4  11  26  46  71 107 148 190 242 296 358 432
#
# _framework density 24.489360999999999
#
# number of rings (size 3 to 8) (size 9 to 14) (size 15 to 20)
#    0.000    0.667    3.333    3.500    7.000    2.667 
#    0.000    0.000    0.000    0.000    0.000    0.000 
#    0.000    0.000    0.000    0.000    0.000    0.000 
#
# Total GULP energy -67228.537584 kJ/mol
# GULP energy per Si atom -5602.378132 kJ/mol
# Density = 2.443362 g / cm^3
# Si number density = 24.489361 Si / 1000 Ang^3
#
#
#
# Elastic Constant Matrix: (Units=GPa)
#
#
# Indices 1 2 3 4 5 6 
#
# 1 81.0671 12.5907 25.8473 -2.4543 -6.5217 18.7206
# 2 12.5907 124.4174 8.3548 6.2356 -3.5959 7.6431
# 3 25.8473 8.3548 124.3515 -16.9163 -8.5846 1.0816
# 4 -2.4543 6.2356 -16.9163 27.0452 8.5274 -2.3581
# 5 -6.5217 -3.5959 -8.5846 8.5274 46.6284 8.3767
# 6 18.7206 7.6431 1.0816 -2.3581 8.3767 32.4480
#
#
#
# Elastic Compliance Matrix: (Units=1/GPa)
#
#
# Indices 1 2 3 4 5 6 
#
# 1 0.016070 -0.000532 -0.003300 -0.002611 0.003915 -0.010237
# 2 -0.000532 0.008479 -0.000767 -0.003126 0.001416 -0.002257
# 3 -0.003300 -0.000767 0.009577 0.006160 -0.000296 0.002290
# 4 -0.002611 -0.003126 0.006160 0.044828 -0.009041 0.007629
# 5 0.003915 0.001416 -0.000296 -0.009041 0.025465 -0.009814
# 6 -0.010237 -0.002257 0.002290 0.007629 -0.009814 0.040268
#
#
# Mechanical properties :
#
#
# Convention : Reuss Voigt Hill
#
# Bulk Modulus (GPa) = 40.11568 47.04683 43.58126
# Shear Modulus (GPa) = 30.82716 40.09388 35.46052
#
# Velocity S-wave (km/s) = 3.55180 4.05062 3.80938
# Velocity P-wave (km/s) = 5.76514 6.41323 6.09780
#
# Compressibility (1/GPa) = 0.02492791
#
# Stress axis : x y z
#
# Youngs Moduli (GPa) = 62.22673 117.93762 104.41701
#
# Poissons Ratio (x) = 0.06272 0.34461
# Poissons Ratio (y) = 0.03309 0.08009
# Poissons Ratio (z) = 0.20537 0.09047
#
# Static dielectric constant tensor:
#      x y z
#    x 1.944410 -0.013930 0.019080 
#    y -0.013930 1.921630 -0.053530 
#    z 0.019080 -0.053530 1.976960 
# 
# From -- ./inp_files/236958.got.cif
#   From: 2010.05.17/outbox.cif.g08.bks.cpg/sg2_119_cif.got.tgz:236958.got - 2010.06.03 11:33:40.
