data_PCOD9043502
_publ_section_title
;
Structure prediction by ZEFSAII (Michael W. Deem and Ramdas Pophale) SiO2 
 PCOD9043502
Probable space group: P -1
;
_chemical_formula_sum "Si O2"
_cell_formula_units_Z 16
_cell_length_a 11.764591
_cell_length_b 11.543749
_cell_length_c 9.843563
_cell_angle_alpha 129.982023
_cell_angle_beta 104.936875
_cell_angle_gamma 113.436885
_cell_volume 642.169519
_symmetry_space_group_name_H-M "P -1"
_symmetry_group_IT_number 2
_symmetry_cell_setting 'triclinic'
loop_
_space_group_symop_operation_xyz
x,y,z
-x,-y,-z
loop_
_atom_site_type_symbol
_atom_site_label
_atom_site_fract_x
_atom_site_fract_y
_atom_site_fract_z
Si Si1 0.897339 0.698534 0.829732
Si Si2 0.037674 0.519947 0.684956
Si Si3 0.555491 0.432364 0.357886
Si Si4 0.786543 0.859385 0.598495
Si Si5 0.525813 0.862529 0.474741
Si Si6 0.764699 0.656683 0.045936
Si Si7 0.959361 0.123045 0.478990
Si Si8 0.419038 0.014989 0.111475
O O1 0.756525 0.565934 0.561683
O O2 0.945889 0.571024 0.769680
O O3 0.796791 0.670439 0.906380
O O4 0.092177 0.976322 0.106441
O O5 0.960222 0.286438 0.535462
O O6 0.000000 0.500000 0.500000
O O7 0.252963 0.758604 0.931121
O O8 0.500000 0.500000 0.500000
O O9 0.604232 0.581760 0.356352
O O10 0.404428 0.157717 0.129403
O O11 0.715856 0.954568 0.598085
O O12 0.910469 0.863581 0.556371
O O13 0.482749 0.841954 0.608552
O O14 0.500000 0.000000 0.500000
O O15 0.392785 0.613514 0.172996
O O16 0.938562 0.762012 0.260298
O O17 0.774376 0.845351 0.224227
O O18 0.500000 0.000000 0.000000
#
# Coordination Sequence:
#
# PCOD9043502 Si02
#       8
#     2   2   2   2   2   2   2   2
#     4  11  22  42  68 103 137 184 228 285 357 422
#     4  12  25  43  67 104 142 184 232 291 356 414
#     4  12  22  42  70 100 140 180 234 286 349 429
#     4  11  23  43  69 100 136 184 233 289 357 417
#     4  12  25  47  73 104 141 190 236 295 362 431
#     4  10  23  45  71  97 138 181 240 281 359 418
#     4  10  24  46  67 102 137 182 237 297 341 432
#     4  12  25  45  69 108 143 185 237 295 353 422
#
# _framework density 24.915538000000002
#
# number of rings (size 3 to 8) (size 9 to 14) (size 15 to 20)
#    0.000    0.750    3.750    3.375    0.000    5.000 
#    4.500    2.500    0.000    0.000    0.000    0.000 
#    0.000    0.000    0.000    0.000    0.000    0.000 
#
# Total GULP energy -89184.400706 kJ/mol
# GULP energy per Si atom -5574.025044 kJ/mol
# Density = 2.485883 g / cm^3
# Si number density = 24.915538 Si / 1000 Ang^3
#
#
#
# Elastic Constant Matrix: (Units=GPa)
#
#
# Indices 1 2 3 4 5 6 
#
# 1 94.5059 0.5417 14.4796 8.2422 -12.4127 -15.1459
# 2 0.5417 101.2321 29.8471 22.4015 -5.1852 -41.5555
# 3 14.4796 29.8471 146.0515 21.7445 0.2140 -20.5859
# 4 8.2422 22.4015 21.7445 48.4657 -1.9211 -12.5894
# 5 -12.4127 -5.1852 0.2140 -1.9211 34.7348 8.3791
# 6 -15.1459 -41.5555 -20.5859 -12.5894 8.3791 40.2441
#
#
#
# Elastic Compliance Matrix: (Units=1/GPa)
#
#
# Indices 1 2 3 4 5 6 
#
# 1 0.012280 0.003334 -0.000764 -0.001459 0.003231 0.006545
# 2 0.003334 0.018821 -0.000888 -0.003918 -0.000838 0.019184
# 3 -0.000764 -0.000888 0.007783 -0.002410 -0.001132 0.002258
# 4 -0.001459 -0.003918 -0.002410 0.024231 -0.000183 0.001791
# 5 0.003231 -0.000838 -0.001132 -0.000183 0.031465 -0.006836
# 6 0.006545 0.019184 0.002258 0.001791 -0.006836 0.050259
#
#
# Mechanical properties :
#
#
# Convention : Reuss Voigt Hill
#
# Bulk Modulus (GPa) = 23.66965 47.94737 35.80851
# Shear Modulus (GPa) = 32.14229 44.48367 38.31298
#
# Velocity S-wave (km/s) = 3.59562 4.22996 3.92562
# Velocity P-wave (km/s) = 5.17287 6.56829 5.91190
#
# Compressibility (1/GPa) = 0.04224819
#
# Stress axis : x y z
#
# Youngs Moduli (GPa) = 81.43466 53.13094 128.48730
#
# Poissons Ratio (x) = -0.17716 0.09816
# Poissons Ratio (y) = -0.27154 0.11415
# Poissons Ratio (z) = 0.06221 0.04720
#
# Static dielectric constant tensor:
#      x y z
#    x 2.272090 0.052050 0.441340 
#    y 0.052050 2.112200 0.150390 
#    z 0.441340 0.150390 2.667150 
# 
# From -- ./inp_files/399711.got.cif
#   From: 2010.05.17/outbox.cif.g08.bks.cpg/sg2_200_cif.got.tgz:399711.got - 2010.06.03 11:33:40.
