data_PCOD9043844
_publ_section_title
;
Structure prediction by ZEFSAII (Michael W. Deem and Ramdas Pophale) SiO2 
 PCOD9043844
Probable space group: P -1
;
_chemical_formula_sum "Si O2"
_cell_formula_units_Z 13
_cell_length_a 10.286719
_cell_length_b 7.476055
_cell_length_c 10.036380
_cell_angle_alpha 78.253974
_cell_angle_beta 59.958593
_cell_angle_gamma 50.035246
_cell_volume 503.936585
_symmetry_space_group_name_H-M "P -1"
_symmetry_group_IT_number 2
_symmetry_cell_setting 'triclinic'
loop_
_space_group_symop_operation_xyz
x,y,z
-x,-y,-z
loop_
_atom_site_type_symbol
_atom_site_label
_atom_site_fract_x
_atom_site_fract_y
_atom_site_fract_z
Si Si1 0.775398 0.156603 0.122280
Si Si2 0.509278 0.411133 0.654058
Si Si3 0.500000 0.500000 0.000000
Si Si4 0.792797 0.744136 0.226939
Si Si5 0.774108 0.521323 0.525693
Si Si6 0.222981 0.134249 0.334462
Si Si7 0.741224 0.668978 0.963670
O O1 0.705921 0.381944 0.212074
O O2 0.732762 0.999963 0.244600
O O3 0.662734 0.247448 0.027812
O O4 0.000000 0.000000 0.000000
O O5 0.500000 0.500000 0.500000
O O6 0.637082 0.466383 0.659596
O O7 0.276891 0.342884 0.610498
O O8 0.612393 0.598962 0.990748
O O9 0.028069 0.558079 0.137834
O O10 0.361275 0.868333 0.357856
O O11 0.722376 0.747846 0.114394
O O12 0.765925 0.692746 0.607575
O O13 0.991643 0.269959 0.436921
O O14 0.286326 0.143012 0.153406
#
# Coordination Sequence:
#
# PCOD9043844 Si02
#       7
#     2   2   1   2   2   2   2
#     4  12  28  50  74 115 168 212 268 339 406 487
#     4  12  28  46  77 116 153 211 268 326 405 485
#     4  12  26  46  76 114 154 214 272 322 408 480
#     4  10  23  47  77 111 162 208 258 336 414 472
#     4  10  23  48  79 113 155 208 262 334 405 485
#     4  10  23  48  78 111 158 202 268 334 402 483
#     4  10  23  45  77 115 154 210 269 333 403 480
#
# _framework density 25.796897999999999
#
# number of rings (size 3 to 8) (size 9 to 14) (size 15 to 20)
#    0.000    1.231    1.538    2.308    4.308    5.538 
#    2.769    0.000    0.000    0.000    0.000    0.000 
#    0.000    0.000    0.000    0.000    0.000    0.000 
#
# Total GULP energy -72610.533226 kJ/mol
# GULP energy per Si atom -5585.425633 kJ/mol
# Density = 2.573818 g / cm^3
# Si number density = 25.796898 Si / 1000 Ang^3
#
#
#
# Elastic Constant Matrix: (Units=GPa)
#
#
# Indices 1 2 3 4 5 6 
#
# 1 101.5464 32.3973 22.5464 7.7505 -5.1109 -9.9063
# 2 32.3973 212.2644 50.5692 5.1920 -0.8047 -5.0165
# 3 22.5464 50.5692 92.6801 18.3035 3.4799 -10.9586
# 4 7.7505 5.1920 18.3035 30.2151 -3.8059 7.5321
# 5 -5.1109 -0.8047 3.4799 -3.8059 45.8271 -6.7480
# 6 -9.9063 -5.0165 -10.9586 7.5321 -6.7480 55.4117
#
#
#
# Elastic Compliance Matrix: (Units=1/GPa)
#
#
# Indices 1 2 3 4 5 6 
#
# 1 0.010983 -0.001239 -0.001398 -0.002083 0.001436 0.002033
# 2 -0.001239 0.005592 -0.003088 0.001378 0.000238 -0.000484
# 3 -0.001398 -0.003088 0.015145 -0.009372 -0.001617 0.003543
# 4 -0.002083 0.001378 -0.009372 0.041265 0.002846 -0.007364
# 5 0.001436 0.000238 -0.001617 0.002846 0.022688 0.002334
# 6 0.002033 -0.000484 0.003543 -0.007364 0.002334 0.020352
#
#
# Mechanical properties :
#
#
# Convention : Reuss Voigt Hill
#
# Bulk Modulus (GPa) = 49.33306 68.61298 58.97302
# Shear Modulus (GPa) = 37.24897 46.35597 41.80247
#
# Velocity S-wave (km/s) = 3.80403 4.24365 4.02984
# Velocity P-wave (km/s) = 6.20156 7.11805 6.67555
#
# Compressibility (1/GPa) = 0.02027038
#
# Stress axis : x y z
#
# Youngs Moduli (GPa) = 91.05044 178.84003 66.02697
#
# Poissons Ratio (x) = 0.22155 0.09230
# Poissons Ratio (y) = 0.11279 0.20389
# Poissons Ratio (z) = 0.12729 0.55225
#
# Static dielectric constant tensor:
#      x y z
#    x 2.315860 0.074770 -0.035080 
#    y 0.074770 2.078260 -0.118420 
#    z -0.035080 -0.118420 2.240720 
# 
# From -- ./inp_files/376321.got.cif
#   From: 2010.05.17/outbox.cif.g08.bks.cpg/sg2_189_cif.got.tgz:376321.got - 2010.06.03 11:33:40.
