data_PCOD9043624
_publ_section_title
;
Structure prediction by ZEFSAII (Michael W. Deem and Ramdas Pophale) SiO2 
 PCOD9043624
Probable space group: P -1
;
_chemical_formula_sum "Si O2"
_cell_formula_units_Z 16
_cell_length_a 5.250090
_cell_length_b 19.435648
_cell_length_c 8.899062
_cell_angle_alpha 124.090880
_cell_angle_beta 63.423225
_cell_angle_gamma 126.954678
_cell_volume 592.507681
_symmetry_space_group_name_H-M "P -1"
_symmetry_group_IT_number 2
_symmetry_cell_setting 'triclinic'
loop_
_space_group_symop_operation_xyz
x,y,z
-x,-y,-z
loop_
_atom_site_type_symbol
_atom_site_label
_atom_site_fract_x
_atom_site_fract_y
_atom_site_fract_z
Si Si1 0.364634 0.086388 0.304987
Si Si2 0.701269 0.610663 0.609621
Si Si3 0.052953 0.906135 0.994306
Si Si4 0.298584 0.257185 0.489121
Si Si5 0.668098 0.195162 0.984907
Si Si6 0.581962 0.105726 0.573667
Si Si7 0.819299 0.386086 0.055610
Si Si8 0.766206 0.396171 0.732935
O O1 0.658438 0.063461 0.164910
O O2 0.474299 0.192412 0.354889
O O3 0.320201 0.094795 0.503889
O O4 0.084199 0.998630 0.184804
O O5 0.500000 0.500000 0.500000
O O6 0.642820 0.673693 0.579213
O O7 0.533787 0.622792 0.819859
O O8 0.049385 0.624237 0.479667
O O9 0.134686 0.844326 0.017320
O O10 0.714515 0.849048 0.931550
O O11 0.403853 0.323931 0.691298
O O12 0.928038 0.176406 0.496843
O O13 0.609978 0.155350 0.782861
O O14 0.837201 0.306949 0.056133
O O15 0.500000 0.000000 0.500000
O O16 0.097558 0.491058 0.156214
O O17 0.830813 0.372696 0.856430
#
# Coordination Sequence:
#
# PCOD9043624 Si02
#       8
#     2   2   2   2   2   2   2   2
#     4  11  26  45  73 103 147 197 250 316 387 457
#     4  10  23  46  70 105 147 195 249 320 384 461
#     4  11  28  46  74 108 151 194 254 319 380 465
#     4  12  25  44  78 105 148 202 255 317 392 468
#     4  12  26  48  72 112 148 198 257 310 394 459
#     4  12  27  47  73 106 153 199 258 318 393 463
#     4  10  23  45  73 103 153 196 258 321 385 466
#     4  10  24  48  67 109 146 198 258 319 390 464
#
# _framework density 27.003872000000001
#
# number of rings (size 3 to 8) (size 9 to 14) (size 15 to 20)
#    0.000    1.000    1.250    3.750    8.750    4.000 
#    4.500    3.750    0.000    0.000    0.000    0.000 
#    0.000    0.000    0.000    0.000    0.000    0.000 
#
# Total GULP energy -89514.814752 kJ/mol
# GULP energy per Si atom -5594.675922 kJ/mol
# Density = 2.694241 g / cm^3
# Si number density = 27.003872 Si / 1000 Ang^3
#
#
#
# Elastic Constant Matrix: (Units=GPa)
#
#
# Indices 1 2 3 4 5 6 
#
# 1 78.3970 58.3638 24.9572 20.7083 19.7043 15.9731
# 2 58.3638 209.0243 27.2760 39.1885 20.3727 -9.0528
# 3 24.9572 27.2760 85.1989 9.4194 14.7381 23.9837
# 4 20.7083 39.1885 9.4194 46.1344 15.4604 -3.8632
# 5 19.7043 20.3727 14.7381 15.4604 46.9439 2.6731
# 6 15.9731 -9.0528 23.9837 -3.8632 2.6731 26.6104
#
#
#
# Elastic Compliance Matrix: (Units=1/GPa)
#
#
# Indices 1 2 3 4 5 6 
#
# 1 0.022762 -0.005817 0.001481 -0.005446 -0.004716 -0.017294
# 2 -0.005817 0.007596 -0.002801 -0.002742 0.000463 0.008156
# 3 0.001481 -0.002801 0.018169 -0.002426 -0.003273 -0.018241
# 4 -0.005446 -0.002742 -0.002426 0.029784 -0.006111 0.009461
# 5 -0.004716 0.000463 -0.003273 -0.006111 0.025982 0.002441
# 6 -0.017294 0.008156 -0.018241 0.009461 0.002441 0.068303
#
#
# Mechanical properties :
#
#
# Convention : Reuss Voigt Hill
#
# Bulk Modulus (GPa) = 29.19411 65.97935 47.58673
# Shear Modulus (GPa) = 25.21580 41.40594 33.31087
#
# Velocity S-wave (km/s) = 3.05910 3.92003 3.51602
# Velocity P-wave (km/s) = 4.82825 6.70635 5.84325
#
# Compressibility (1/GPa) = 0.03425348
#
# Stress axis : x y z
#
# Youngs Moduli (GPa) = 43.93214 131.64896 55.03815
#
# Poissons Ratio (x) = 0.76583 -0.08150
# Poissons Ratio (y) = 0.25556 0.15414
# Poissons Ratio (z) = -0.06505 0.36869
#
# Static dielectric constant tensor:
#      x y z
#    x 2.174930 0.034530 -0.111980 
#    y 0.034530 2.063290 -0.088420 
#    z -0.111980 -0.088420 2.202670 
# 
# From -- ./inp_files/139342.got.cif
#   From: 2010.05.17/outbox.cif.g08.bks.cpg/sg2_70_cif.got.tgz:139342.got - 2010.06.03 11:33:40.
