data_PCOD9043171
_publ_section_title
;
Structure prediction by ZEFSAII (Michael W. Deem and Ramdas Pophale) SiO2 
 PCOD9043171
Probable space group: P -1
;
_chemical_formula_sum "Si O2"
_cell_formula_units_Z 12
_cell_length_a 7.143831
_cell_length_b 11.561434
_cell_length_c 6.602864
_cell_angle_alpha 104.056632
_cell_angle_beta 66.522940
_cell_angle_gamma 115.541904
_cell_volume 449.651456
_symmetry_space_group_name_H-M "P -1"
_symmetry_group_IT_number 2
_symmetry_cell_setting 'triclinic'
loop_
_space_group_symop_operation_xyz
x,y,z
-x,-y,-z
loop_
_atom_site_type_symbol
_atom_site_label
_atom_site_fract_x
_atom_site_fract_y
_atom_site_fract_z
Si Si1 0.045096 0.355632 0.954685
Si Si2 0.763472 0.794866 0.460151
Si Si3 0.100010 0.741449 0.604706
Si Si4 0.416562 0.583528 0.724712
Si Si5 0.220301 0.018357 0.786678
Si Si6 0.606708 0.270679 0.866050
O O1 0.025733 0.353706 0.203262
O O2 0.801718 0.276711 0.939539
O O3 0.194503 0.275651 0.788678
O O4 0.166790 0.487359 0.832871
O O5 0.524301 0.721201 0.627152
O O6 0.795937 0.932222 0.413850
O O7 0.927772 0.772711 0.544510
O O8 0.237348 0.880702 0.700552
O O9 0.253350 0.689422 0.383162
O O10 0.500000 0.500000 0.500000
O O11 0.483684 0.628667 0.948107
O O12 0.424917 0.129613 0.851700
O O13 0.000000 0.000000 0.000000
#
# Coordination Sequence:
#
# PCOD9043171 Si02
#       6
#     2   2   2   2   2   2
#     4  10  23  46  69 101 143 178 231 280 349 409
#     4  10  23  45  69 103 136 183 238 276 336 409
#     4  11  24  45  69 104 144 184 223 282 346 410
#     4  10  23  47  74  99 137 182 234 289 337 410
#     4  12  24  46  71 101 141 184 233 282 338 410
#     4  11  26  44  69 106 138 184 227 285 350 406
#
# _framework density 26.687335000000001
#
# number of rings (size 3 to 8) (size 9 to 14) (size 15 to 20)
#    0.000    1.333    1.667    2.500    2.333    2.000 
#    9.000    0.000    0.000    0.000    0.000    0.000 
#    0.000    0.000    0.000    0.000    0.000    0.000 
#
# Total GULP energy -67056.404376 kJ/mol
# GULP energy per Si atom -5588.033698 kJ/mol
# Density = 2.662659 g / cm^3
# Si number density = 26.687335 Si / 1000 Ang^3
#
#
#
# Elastic Constant Matrix: (Units=GPa)
#
#
# Indices 1 2 3 4 5 6 
#
# 1 94.2515 61.5710 69.9230 -13.7514 5.6545 17.0725
# 2 61.5710 144.6770 80.0925 -25.0367 0.7988 9.9809
# 3 69.9230 80.0925 230.1782 -21.1700 -34.0537 13.2400
# 4 -13.7514 -25.0367 -21.1700 70.2042 8.7464 0.4778
# 5 5.6545 0.7988 -34.0537 8.7464 55.5717 -8.3282
# 6 17.0725 9.9809 13.2400 0.4778 -8.3282 49.9973
#
#
#
# Elastic Compliance Matrix: (Units=1/GPa)
#
#
# Indices 1 2 3 4 5 6 
#
# 1 0.018391 -0.004851 -0.004286 0.001287 -0.005393 -0.005087
# 2 -0.004851 0.010621 -0.002205 0.002348 -0.001400 -0.000135
# 3 -0.004286 -0.002205 0.007088 -0.000112 0.004957 0.000854
# 4 0.001287 0.002348 -0.000112 0.015675 -0.002927 -0.001516
# 5 -0.005393 -0.001400 0.004957 -0.002927 0.022755 0.004627
# 6 -0.005087 -0.000135 0.000854 -0.001516 0.004627 0.022324
#
#
# Mechanical properties :
#
#
# Convention : Reuss Voigt Hill
#
# Bulk Modulus (GPa) = 74.54180 99.14220 86.84200
# Shear Modulus (GPa) = 40.31955 52.32264 46.32110
#
# Velocity S-wave (km/s) = 3.89113 4.43265 4.17069
# Velocity P-wave (km/s) = 6.94119 7.96417 7.47021
#
# Compressibility (1/GPa) = 0.01341529
#
# Stress axis : x y z
#
# Youngs Moduli (GPa) = 54.37437 94.15653 141.08998
#
# Poissons Ratio (x) = 0.45674 0.60468
# Poissons Ratio (y) = 0.26376 0.31116
# Poissons Ratio (z) = 0.23304 0.20765
#
# Static dielectric constant tensor:
#      x y z
#    x 2.273420 -0.033000 -0.034800 
#    y -0.033000 2.069540 0.072910 
#    z -0.034800 0.072910 2.114950 
# 
# From -- ./inp_files/35280.got.cif
#   From: 2010.05.17/outbox.cif.g08.bks.cpg/sg2_18_cif.got.tgz:35280.got - 2010.06.03 11:33:40.
