data_PCOD9043994
_publ_section_title
;
Structure prediction by ZEFSAII (Michael W. Deem and Ramdas Pophale) SiO2 
 PCOD9043994
Probable space group: P -1
;
_chemical_formula_sum "Si O2"
_cell_formula_units_Z 12
_cell_length_a 6.810852
_cell_length_b 7.446934
_cell_length_c 18.518352
_cell_angle_alpha 50.668740
_cell_angle_beta 140.132421
_cell_angle_gamma 120.564030
_cell_volume 465.240528
_symmetry_space_group_name_H-M "P -1"
_symmetry_group_IT_number 2
_symmetry_cell_setting 'triclinic'
loop_
_space_group_symop_operation_xyz
x,y,z
-x,-y,-z
loop_
_atom_site_type_symbol
_atom_site_label
_atom_site_fract_x
_atom_site_fract_y
_atom_site_fract_z
Si Si1 0.111415 0.264232 0.819962
Si Si2 0.063934 0.017719 0.596892
Si Si3 0.697772 0.670024 0.299781
Si Si4 0.669981 0.923974 0.860404
Si Si5 0.773984 0.421672 0.020720
Si Si6 0.204149 0.325591 0.289386
O O1 0.096878 0.294424 0.721757
O O2 0.914132 0.464100 0.748839
O O3 0.465935 0.304006 0.931846
O O4 0.956380 0.028314 0.869026
O O5 0.516925 0.423028 0.316971
O O6 0.805460 0.889677 0.605130
O O7 0.000000 0.000000 0.500000
O O8 0.143385 0.262782 0.596097
O O9 0.441689 0.870352 0.171899
O O10 0.712822 0.677478 0.971795
O O11 0.379779 0.886368 0.734776
O O12 0.000000 0.500000 0.000000
O O13 0.954373 0.281859 0.166945
#
# Coordination Sequence:
#
# PCOD9043994 Si02
#       6
#     2   2   2   2   2   2
#     4  11  21  41  64  93 133 163 207 257 308 380
#     4  10  23  46  68  86 125 170 212 265 315 363
#     4   9  22  41  64  95 122 166 213 257 313 367
#     4   9  24  41  61  92 130 159 212 254 317 363
#     4  12  24  39  65  96 132 173 200 249 319 381
#     4  11  23  42  63  92 131 164 209 258 311 375
#
# _framework density 25.793109999999999
#
# number of rings (size 3 to 8) (size 9 to 14) (size 15 to 20)
#    1.000    0.667    3.333    0.500    2.333    5.333 
#    0.000    1.667    0.000    0.000    0.000    0.000 
#    0.000    0.000    0.000    0.000    0.000    0.000 
#
# Total GULP energy -67220.294747 kJ/mol
# GULP energy per Si atom -5601.691229 kJ/mol
# Density = 2.573440 g / cm^3
# Si number density = 25.793110 Si / 1000 Ang^3
#
#
#
# Elastic Constant Matrix: (Units=GPa)
#
#
# Indices 1 2 3 4 5 6 
#
# 1 97.1297 23.2900 31.3820 0.2600 -13.6736 14.5526
# 2 23.2900 106.4795 11.9966 -4.5220 2.8225 37.2108
# 3 31.3820 11.9966 125.5303 16.6965 -17.7794 15.7078
# 4 0.2600 -4.5220 16.6965 28.6428 -3.3773 -14.7070
# 5 -13.6736 2.8225 -17.7794 -3.3773 36.9161 -1.4782
# 6 14.5526 37.2108 15.7078 -14.7070 -1.4782 40.4614
#
#
#
# Elastic Compliance Matrix: (Units=1/GPa)
#
#
# Indices 1 2 3 4 5 6 
#
# 1 0.012215 -0.002045 -0.002284 0.000681 0.003593 -0.001247
# 2 -0.002045 0.015265 0.001827 -0.007575 -0.002412 -0.016854
# 3 -0.002284 0.001827 0.011332 -0.010531 0.003149 -0.008971
# 4 0.000681 -0.007575 -0.010531 0.056180 0.002152 0.031309
# 5 0.003593 -0.002412 0.003149 0.002152 0.030381 0.001596
# 6 -0.001247 -0.016854 -0.008971 0.031309 0.001596 0.055585
#
#
# Mechanical properties :
#
#
# Convention : Reuss Voigt Hill
#
# Bulk Modulus (GPa) = 29.57814 51.38631 40.48223
# Shear Modulus (GPa) = 25.35118 38.70211 32.02664
#
# Velocity S-wave (km/s) = 3.13847 3.87781 3.52756
# Velocity P-wave (km/s) = 4.96243 6.32579 5.68513
#
# Compressibility (1/GPa) = 0.03380875
#
# Stress axis : x y z
#
# Youngs Moduli (GPa) = 81.86953 65.50941 88.24649
#
# Poissons Ratio (x) = 0.13395 0.20153
# Poissons Ratio (y) = 0.16741 -0.16124
# Poissons Ratio (z) = 0.18697 -0.11970
#
# Static dielectric constant tensor:
#      x y z
#    x 2.090420 -0.052140 0.045710 
#    y -0.052140 2.052890 -0.017990 
#    z 0.045710 -0.017990 2.007840 
# 
# From -- ./inp_files/360598.got.cif
#   From: 2010.05.17/outbox.cif.g08.bks.cpg/sg2_181_cif.got.tgz:360598.got - 2010.06.03 11:33:40.
