data_PCOD9043490
_publ_section_title
;
Structure prediction by ZEFSAII (Michael W. Deem and Ramdas Pophale) SiO2 
 PCOD9043490
Probable space group: P -1
;
_chemical_formula_sum "Si O2"
_cell_formula_units_Z 16
_cell_length_a 7.951905
_cell_length_b 12.088556
_cell_length_c 9.273166
_cell_angle_alpha 119.086156
_cell_angle_beta 88.182125
_cell_angle_gamma 76.947376
_cell_volume 748.302685
_symmetry_space_group_name_H-M "P -1"
_symmetry_group_IT_number 2
_symmetry_cell_setting 'triclinic'
loop_
_space_group_symop_operation_xyz
x,y,z
-x,-y,-z
loop_
_atom_site_type_symbol
_atom_site_label
_atom_site_fract_x
_atom_site_fract_y
_atom_site_fract_z
Si Si1 0.852989 0.261416 0.986513
Si Si2 0.331641 0.053323 0.942285
Si Si3 0.343427 0.963440 0.404191
Si Si4 0.060674 0.403208 0.301512
Si Si5 0.847546 0.861847 0.732519
Si Si6 0.515062 0.731771 0.062850
Si Si7 0.886514 0.018961 0.311667
Si Si8 0.827962 0.484566 0.911896
O O1 0.652793 0.262755 0.031273
O O2 0.823353 0.347619 0.894538
O O3 0.979128 0.118780 0.839570
O O4 0.937053 0.334972 0.157729
O O5 0.176197 0.064540 0.067677
O O6 0.356382 0.187026 0.956174
O O7 0.291822 0.965140 0.761698
O O8 0.500000 0.000000 0.000000
O O9 0.421408 0.815788 0.254364
O O10 0.500000 0.000000 0.500000
O O11 0.289972 0.055538 0.324488
O O12 0.176766 0.985346 0.526138
O O13 0.177586 0.275990 0.303606
O O14 0.139795 0.486220 0.237283
O O15 0.000000 0.500000 0.500000
O O16 0.029643 0.864317 0.657307
O O17 0.644045 0.592717 0.016233
O O18 0.000000 0.500000 0.000000
#
# Coordination Sequence:
#
# PCOD9043490 Si02
#       8
#     2   2   2   2   2   2   2   2
#     4  11  24  44  73 100 139 184 233 284 338 424
#     4  12  21  39  65 100 138 178 219 279 346 412
#     4  12  26  41  65 106 144 180 222 288 342 415
#     4  11  26  44  68 102 131 186 237 283 346 404
#     4  12  24  42  69  99 141 181 230 287 341 415
#     4  12  23  42  68 104 142 176 239 272 351 410
#     4  12  24  43  70 107 139 182 232 276 359 404
#     4  10  23  45  71  94 135 190 229 281 339 416
#
# _framework density 21.381723000000001
#
# number of rings (size 3 to 8) (size 9 to 14) (size 15 to 20)
#    0.000    0.500    6.250    1.875    3.500    1.000 
#    0.000    0.625    0.000    0.000    0.000    0.000 
#    0.000    0.000    0.000    0.000    0.000    0.000 
#
# Total GULP energy -89108.962874 kJ/mol
# GULP energy per Si atom -5569.310180 kJ/mol
# Density = 2.133306 g / cm^3
# Si number density = 21.381723 Si / 1000 Ang^3
#
#
#
# Elastic Constant Matrix: (Units=GPa)
#
#
# Indices 1 2 3 4 5 6 
#
# 1 103.7082 8.2996 30.9905 -5.1363 -5.3237 -2.4566
# 2 8.2996 88.5784 36.9835 -19.4485 -12.7260 -6.3124
# 3 30.9905 36.9835 121.3303 -9.7255 -15.2905 -6.4481
# 4 -5.1363 -19.4485 -9.7255 31.1288 6.9490 -9.0229
# 5 -5.3237 -12.7260 -15.2905 6.9490 29.2041 -2.5624
# 6 -2.4566 -6.3124 -6.4481 -9.0229 -2.5624 38.4241
#
#
#
# Elastic Compliance Matrix: (Units=1/GPa)
#
#
# Indices 1 2 3 4 5 6 
#
# 1 0.010495 0.000526 -0.002637 0.001314 0.000507 0.000657
# 2 0.000526 0.015493 -0.003479 0.009231 0.003213 0.004377
# 3 -0.002637 -0.003479 0.010517 0.000265 0.003562 0.001325
# 4 0.001314 0.009231 0.000265 0.042526 -0.004725 0.011316
# 5 0.000507 0.003213 0.003562 -0.004725 0.038956 0.002646
# 6 0.000657 0.004377 0.001325 0.011316 0.002646 0.029842
#
#
# Mechanical properties :
#
#
# Convention : Reuss Voigt Hill
#
# Bulk Modulus (GPa) = 39.48876 51.79601 45.64239
# Shear Modulus (GPa) = 29.85933 35.57429 32.71681
#
# Velocity S-wave (km/s) = 3.74102 4.08336 3.91593
# Velocity P-wave (km/s) = 6.09662 6.81974 6.46829
#
# Compressibility (1/GPa) = 0.02532366
#
# Stress axis : x y z
#
# Youngs Moduli (GPa) = 95.28402 64.54459 95.08728
#
# Poissons Ratio (x) = -0.03393 0.25072
# Poissons Ratio (y) = -0.05008 0.33085
# Poissons Ratio (z) = 0.25124 0.22458
#
# Static dielectric constant tensor:
#      x y z
#    x 1.916440 0.008010 -0.028510 
#    y 0.008010 1.801440 0.026340 
#    z -0.028510 0.026340 1.832460 
# 
# From -- ./inp_files/189291.got.cif
#   From: 2010.05.17/outbox.cif.g08.bks.cpg/sg2_95_cif.got.tgz:189291.got - 2010.06.03 11:33:40.
