data_PCOD9043816
_publ_section_title
;
Structure prediction by ZEFSAII (Michael W. Deem and Ramdas Pophale) SiO2 
 PCOD9043816
Probable space group: P -1
;
_chemical_formula_sum "Si O2"
_cell_formula_units_Z 14
_cell_length_a 8.967461
_cell_length_b 9.525346
_cell_length_c 9.146204
_cell_angle_alpha 129.196582
_cell_angle_beta 78.099551
_cell_angle_gamma 104.878467
_cell_volume 584.149335
_symmetry_space_group_name_H-M "P -1"
_symmetry_group_IT_number 2
_symmetry_cell_setting 'triclinic'
loop_
_space_group_symop_operation_xyz
x,y,z
-x,-y,-z
loop_
_atom_site_type_symbol
_atom_site_label
_atom_site_fract_x
_atom_site_fract_y
_atom_site_fract_z
Si Si1 0.398641 0.409076 0.253894
Si Si2 0.100414 0.932587 0.559941
Si Si3 0.335946 0.097394 0.825085
Si Si4 0.644905 0.293261 0.763091
Si Si5 0.108698 0.388899 0.498672
Si Si6 0.361669 0.831065 0.877940
Si Si7 0.841704 0.432764 0.075026
O O1 0.420495 0.595570 0.280058
O O2 0.271792 0.411491 0.403179
O O3 0.549187 0.342195 0.245069
O O4 0.328244 0.251170 0.048612
O O5 0.214594 0.800752 0.385738
O O6 0.980137 0.818105 0.618828
O O7 0.209651 0.096387 0.726009
O O8 0.000000 0.000000 0.500000
O O9 0.507248 0.142920 0.753914
O O10 0.308089 0.897777 0.777539
O O11 0.709848 0.428940 0.973430
O O12 0.133392 0.451202 0.703544
O O13 0.000000 0.500000 0.500000
O O14 0.218400 0.774128 0.980851
O O15 0.500000 0.000000 0.000000
O O16 0.000000 0.500000 0.000000
#
# Coordination Sequence:
#
# PCOD9043816 Si02
#       7
#     2   2   2   2   2   2   2
#     4  11  25  46  79 107 148 198 257 298 377 455
#     4  12  29  46  73 111 153 195 251 314 382 436
#     4  11  26  50  76 110 153 198 251 316 376 446
#     4  12  25  50  76 111 149 202 256 306 373 461
#     4  12  26  47  70 110 150 196 254 311 378 446
#     4  10  23  45  76 112 149 193 251 307 378 436
#     4  12  24  45  79 105 154 197 251 313 373 447
#
# _framework density 23.966473000000001
#
# number of rings (size 3 to 8) (size 9 to 14) (size 15 to 20)
#    0.000    0.571    5.714    1.714    4.000    2.286 
#    0.000    0.000    0.000    0.000    0.000    0.000 
#    0.000    0.000    0.000    0.000    0.000    0.000 
#
# Total GULP energy -78304.261052 kJ/mol
# GULP energy per Si atom -5593.161504 kJ/mol
# Density = 2.391192 g / cm^3
# Si number density = 23.966473 Si / 1000 Ang^3
#
#
#
# Elastic Constant Matrix: (Units=GPa)
#
#
# Indices 1 2 3 4 5 6 
#
# 1 106.2976 59.2835 33.8564 -13.0872 18.8105 10.6308
# 2 59.2835 160.9605 12.4990 -26.6005 -21.1153 8.7429
# 3 33.8564 12.4990 99.2322 -14.9872 -1.7261 3.7889
# 4 -13.0872 -26.6005 -14.9872 37.0225 10.7725 -5.6305
# 5 18.8105 -21.1153 -1.7261 10.7725 41.2627 1.4190
# 6 10.6308 8.7429 3.7889 -5.6305 1.4190 54.5755
#
#
#
# Elastic Compliance Matrix: (Units=1/GPa)
#
#
# Indices 1 2 3 4 5 6 
#
# 1 0.017741 -0.007326 -0.004923 0.002488 -0.012645 -0.001355
# 2 -0.007326 0.010353 0.001834 0.003267 0.007869 -0.000226
# 3 -0.004923 0.001834 0.012129 0.003719 0.002715 0.000136
# 4 0.002488 0.003267 0.003719 0.034577 -0.008420 0.002520
# 5 -0.012645 0.007869 0.002715 -0.008420 0.036366 -0.000800
# 6 -0.001355 -0.000226 0.000136 0.002520 -0.000800 0.018895
#
#
# Mechanical properties :
#
#
# Convention : Reuss Voigt Hill
#
# Bulk Modulus (GPa) = 51.55881 64.19647 57.87764
# Shear Modulus (GPa) = 31.77559 43.96222 37.86890
#
# Velocity S-wave (km/s) = 3.64515 4.28754 3.97933
# Velocity P-wave (km/s) = 6.26704 7.16623 6.73166
#
# Compressibility (1/GPa) = 0.01939533
#
# Stress axis : x y z
#
# Youngs Moduli (GPa) = 56.36750 96.59003 82.44370
#
# Poissons Ratio (x) = 0.70761 0.40583
# Poissons Ratio (y) = 0.41294 -0.15124
# Poissons Ratio (z) = 0.27747 -0.17719
#
# Static dielectric constant tensor:
#      x y z
#    x 1.907810 -0.028850 -0.002660 
#    y -0.028850 1.989770 0.037030 
#    z -0.002660 0.037030 1.972920 
# 
# From -- ./inp_files/153573.got.cif
#   From: 2010.05.17/outbox.cif.g08.bks.cpg/sg2_77_cif.got.tgz:153573.got - 2010.06.03 11:33:40.
