data_PCOD9043674
_publ_section_title
;
Structure prediction by ZEFSAII (Michael W. Deem and Ramdas Pophale) SiO2 
 PCOD9043674
Probable space group: P -1
;
_chemical_formula_sum "Si O2"
_cell_formula_units_Z 16
_cell_length_a 13.978607
_cell_length_b 14.427308
_cell_length_c 9.210231
_cell_angle_alpha 103.714471
_cell_angle_beta 114.183693
_cell_angle_gamma 28.209849
_cell_volume 767.181217
_symmetry_space_group_name_H-M "P -1"
_symmetry_group_IT_number 2
_symmetry_cell_setting 'triclinic'
loop_
_space_group_symop_operation_xyz
x,y,z
-x,-y,-z
loop_
_atom_site_type_symbol
_atom_site_label
_atom_site_fract_x
_atom_site_fract_y
_atom_site_fract_z
Si Si1 0.709200 0.444517 0.696770
Si Si2 0.074408 0.632799 0.920726
Si Si3 0.386937 0.095047 0.228059
Si Si4 0.835934 0.932480 0.636066
Si Si5 0.644170 0.752976 0.450293
Si Si6 0.997012 0.671772 0.391176
Si Si7 0.806671 0.152798 0.557611
Si Si8 0.801672 0.670745 0.059224
O O1 0.830955 0.405266 0.629053
O O2 0.780208 0.277149 0.661491
O O3 0.440389 0.670008 0.596786
O O4 0.794217 0.417738 0.891457
O O5 0.201681 0.429048 0.901592
O O6 0.822679 0.808300 0.885467
O O7 0.023195 0.737221 0.786570
O O8 0.320620 0.214881 0.367714
O O9 0.594953 0.866510 0.333007
O O10 0.404079 0.140115 0.106994
O O11 0.850218 0.860574 0.468491
O O12 0.589741 0.113758 0.618480
O O13 0.865867 0.019013 0.652669
O O14 0.853133 0.515225 0.479007
O O15 0.871908 0.701407 0.215019
O O16 0.000000 0.000000 0.500000
O O17 0.000000 0.500000 0.000000
#
# Coordination Sequence:
#
# PCOD9043674 Si02
#       8
#     2   2   2   2   2   2   2   2
#     4  11  22  41  72  85 115 168 196 250 322 349
#     4  10  20  39  60  94 126 158 202 248 297 359
#     4   9  17  33  59  85 123 166 197 236 283 358
#     4  11  25  38  61  94 124 156 206 257 293 357
#     4  10  19  36  58  87 128 164 198 241 297 351
#     4  12  20  38  65  88 124 165 197 242 306 359
#     4  11  24  43  66  94 115 150 213 259 303 368
#     4  10  17  33  61  90 124 162 199 236 288 366
#
# _framework density 20.855568000000002
#
# number of rings (size 3 to 8) (size 9 to 14) (size 15 to 20)
#    0.000    1.500    7.500    0.000    0.000    1.000 
#    0.000    5.000    0.000    0.000    0.000    0.000 
#    0.000    0.000    0.000    0.000    0.000    0.000 
#
# Total GULP energy -89419.699950 kJ/mol
# GULP energy per Si atom -5588.731247 kJ/mol
# Density = 2.080810 g / cm^3
# Si number density = 20.855568 Si / 1000 Ang^3
#
#
#
# Elastic Constant Matrix: (Units=GPa)
#
#
# Indices 1 2 3 4 5 6 
#
# 1 110.1890 39.4143 40.3473 -14.8910 -8.6413 27.8694
# 2 39.4143 96.8217 26.6719 -12.4923 -9.1918 22.3982
# 3 40.3473 26.6719 99.2567 -23.0440 -0.9958 28.8871
# 4 -14.8910 -12.4923 -23.0440 29.2612 8.3108 -9.5544
# 5 -8.6413 -9.1918 -0.9958 8.3108 31.3840 -5.2612
# 6 27.8694 22.3982 28.8871 -9.5544 -5.2612 46.7819
#
#
#
# Elastic Compliance Matrix: (Units=1/GPa)
#
#
# Indices 1 2 3 4 5 6 
#
# 1 0.012460 -0.003129 -0.002858 0.001098 0.001501 -0.003767
# 2 -0.003129 0.012993 -0.000864 0.001659 0.001929 -0.003267
# 3 -0.002858 -0.000864 0.015341 0.009491 -0.004051 -0.005874
# 4 0.001098 0.001659 0.009491 0.046349 -0.011030 0.000916
# 5 0.001501 0.001929 -0.004051 -0.011030 0.036051 0.002485
# 6 -0.003767 -0.003267 -0.005874 0.000916 0.002485 0.029278
#
#
# Mechanical properties :
#
#
# Convention : Reuss Voigt Hill
#
# Bulk Modulus (GPa) = 36.91099 57.68159 47.29629
# Shear Modulus (GPa) = 28.53811 34.80768 31.67289
#
# Velocity S-wave (km/s) = 3.70316 4.08976 3.90125
# Velocity P-wave (km/s) = 6.00178 7.07242 6.55898
#
# Compressibility (1/GPa) = 0.02709220
#
# Stress axis : x y z
#
# Youngs Moduli (GPa) = 80.25745 76.96289 65.18451
#
# Poissons Ratio (x) = 0.24085 0.18628
# Poissons Ratio (y) = 0.25116 0.05631
# Poissons Ratio (z) = 0.22935 0.06649
#
# Static dielectric constant tensor:
#      x y z
#    x 1.766560 0.006780 -0.025420 
#    y 0.006780 1.813820 -0.045120 
#    z -0.025420 -0.045120 1.754670 
# 
# From -- ./inp_files/315667.got.cif
#   From: 2010.05.17/outbox.cif.g08.bks.cpg/sg2_158_cif.got.tgz:315667.got - 2010.06.03 11:33:40.
