data_PCOD9043512
_publ_section_title
;
Structure prediction by ZEFSAII (Michael W. Deem and Ramdas Pophale) SiO2 
 PCOD9043512
Probable space group: P -1
;
_chemical_formula_sum "Si O2"
_cell_formula_units_Z 14
_cell_length_a 5.287026
_cell_length_b 11.524945
_cell_length_c 12.106693
_cell_angle_alpha 53.023421
_cell_angle_beta 82.598043
_cell_angle_gamma 79.567005
_cell_volume 579.400210
_symmetry_space_group_name_H-M "P -1"
_symmetry_group_IT_number 2
_symmetry_cell_setting 'triclinic'
loop_
_space_group_symop_operation_xyz
x,y,z
-x,-y,-z
loop_
_atom_site_type_symbol
_atom_site_label
_atom_site_fract_x
_atom_site_fract_y
_atom_site_fract_z
Si Si1 0.683704 0.142688 0.094662
Si Si2 0.148376 0.195410 0.739448
Si Si3 0.227311 0.897012 0.640564
Si Si4 0.661821 0.805048 0.506324
Si Si5 0.774281 0.405067 0.525725
Si Si6 0.035911 0.630260 0.710366
Si Si7 0.172700 0.302063 0.919854
O O1 0.627912 0.133691 0.233581
O O2 0.787777 0.977651 0.143598
O O3 0.428573 0.217181 0.007038
O O4 0.920243 0.233258 0.009750
O O5 0.325636 0.221130 0.608851
O O6 0.196501 0.280789 0.798452
O O7 0.859928 0.257201 0.677366
O O8 0.403501 0.878440 0.533160
O O9 0.056646 0.766121 0.712174
O O10 0.141470 0.071449 0.556068
O O11 0.750297 0.661314 0.656345
O O12 0.500000 0.500000 0.500000
O O13 0.808059 0.368611 0.414893
O O14 0.000000 0.500000 0.500000
O O15 0.122544 0.474777 0.848452
#
# Coordination Sequence:
#
# PCOD9043512 Si02
#       7
#     2   2   2   2   2   2   2
#     4  11  28  48  69 100 139 198 234 279 332 417
#     4  10  23  48  73 102 142 180 233 293 346 413
#     4  10  23  45  71  98 139 177 242 278 349 413
#     4   9  22  45  70 105 129 182 226 297 351 410
#     4  11  25  42  69 107 139 174 223 292 359 408
#     4  11  25  39  71  98 141 176 227 293 350 405
#     4  12  27  45  71 102 141 187 238 279 345 411
#
# _framework density 24.162918000000001
#
# number of rings (size 3 to 8) (size 9 to 14) (size 15 to 20)
#    0.000    1.429    1.429    1.286   10.000    2.286 
#   12.857    0.000    0.000    0.000    0.000    0.000 
#    0.000    0.000    0.000    0.000    0.000    0.000 
#
# Total GULP energy -78218.885841 kJ/mol
# GULP energy per Si atom -5587.063274 kJ/mol
# Density = 2.410792 g / cm^3
# Si number density = 24.162918 Si / 1000 Ang^3
#
#
#
# Elastic Constant Matrix: (Units=GPa)
#
#
# Indices 1 2 3 4 5 6 
#
# 1 122.0675 26.9445 45.8257 -9.4763 26.0435 -14.7856
# 2 26.9445 92.5343 38.0398 -1.6195 5.7638 10.9301
# 3 45.8257 38.0398 97.1256 -23.5200 27.8960 -10.0580
# 4 -9.4763 -1.6195 -23.5200 56.1569 -9.2003 -4.1612
# 5 26.0435 5.7638 27.8960 -9.2003 43.1946 -5.2878
# 6 -14.7856 10.9301 -10.0580 -4.1612 -5.2878 34.6884
#
#
#
# Elastic Compliance Matrix: (Units=1/GPa)
#
#
# Indices 1 2 3 4 5 6 
#
# 1 0.011105 -0.002387 -0.002612 0.000345 -0.004110 0.004143
# 2 -0.002387 0.015118 -0.007031 -0.003109 0.002342 -0.007836
# 3 -0.002612 -0.007031 0.018582 0.006385 -0.007377 0.006132
# 4 0.000345 -0.003109 0.006385 0.021081 0.001271 0.005701
# 5 -0.004110 0.002342 -0.007377 0.001271 0.030370 0.000153
# 6 0.004143 -0.007836 0.006132 0.005701 0.000153 0.035548
#
#
# Mechanical properties :
#
#
# Convention : Reuss Voigt Hill
#
# Bulk Modulus (GPa) = 48.20642 59.26081 53.73361
# Shear Modulus (GPa) = 30.71635 40.20247 35.45941
#
# Velocity S-wave (km/s) = 3.56928 4.08341 3.83497
# Velocity P-wave (km/s) = 6.08114 6.84186 6.47269
#
# Compressibility (1/GPa) = 0.02074413
#
# Stress axis : x y z
#
# Youngs Moduli (GPa) = 90.04908 66.14705 53.81546
#
# Poissons Ratio (x) = 0.15792 0.14054
# Poissons Ratio (y) = 0.21499 0.37840
# Poissons Ratio (z) = 0.23516 0.46511
#
# Static dielectric constant tensor:
#      x y z
#    x 2.063190 0.064640 -0.041410 
#    y 0.064640 1.942390 -0.059630 
#    z -0.041410 -0.059630 1.980980 
# 
# From -- ./inp_files/64112.got.cif
#   From: 2010.05.17/outbox.cif.g08.bks.cpg/sg2_33_cif.got.tgz:64112.got - 2010.06.03 11:33:40.
