data_PCOD9043589
_publ_section_title
;
Structure prediction by ZEFSAII (Michael W. Deem and Ramdas Pophale) SiO2 
 PCOD9043589
Probable space group: P -1
;
_chemical_formula_sum "Si O2"
_cell_formula_units_Z 14
_cell_length_a 15.064851
_cell_length_b 9.395286
_cell_length_c 5.993827
_cell_angle_alpha 123.383904
_cell_angle_beta 82.712941
_cell_angle_gamma 121.490317
_cell_volume 588.493973
_symmetry_space_group_name_H-M "P -1"
_symmetry_group_IT_number 2
_symmetry_cell_setting 'triclinic'
loop_
_space_group_symop_operation_xyz
x,y,z
-x,-y,-z
loop_
_atom_site_type_symbol
_atom_site_label
_atom_site_fract_x
_atom_site_fract_y
_atom_site_fract_z
Si Si1 0.917956 0.802017 0.990364
Si Si2 0.210896 0.130931 0.563144
Si Si3 0.285909 0.795764 0.874005
Si Si4 0.072634 0.689577 0.985633
Si Si5 0.617387 0.776534 0.033741
Si Si6 0.461329 0.893509 0.176682
Si Si7 0.697950 0.551628 0.584882
O O1 0.805728 0.674059 0.795632
O O2 0.882610 0.858047 0.277350
O O3 0.982409 0.695601 0.887630
O O4 0.000000 0.000000 0.000000
O O5 0.303904 0.159145 0.723755
O O6 0.270950 0.324076 0.547450
O O7 0.148826 0.910472 0.272681
O O8 0.325546 0.671889 0.617204
O O9 0.322873 0.016423 0.956919
O O10 0.158498 0.665628 0.807796
O O11 0.337210 0.811093 0.114215
O O12 0.000000 0.500000 0.000000
O O13 0.500342 0.738843 0.049539
O O14 0.612989 0.587114 0.758615
O O15 0.500000 0.000000 0.500000
O O16 0.500000 0.000000 0.000000
#
# Coordination Sequence:
#
# PCOD9043589 Si02
#       7
#     2   2   2   2   2   2   2
#     4  11  23  40  60  89 129 185 228 281 346 409
#     4  11  22  43  63  92 139 175 229 292 348 412
#     4  11  24  45  68 102 136 178 235 286 348 430
#     4  12  24  37  64  97 132 183 230 282 347 414
#     4  10  23  45  72  96 137 180 223 294 355 418
#     4  10  23  46  78 107 141 186 234 295 363 426
#     4  11  24  43  66  98 137 176 233 284 350 417
#
# _framework density 23.789536999999999
#
# number of rings (size 3 to 8) (size 9 to 14) (size 15 to 20)
#    0.000    1.143    2.857    3.000    6.000    1.143 
#   10.286    0.714    0.000    0.000    0.000    0.000 
#    0.000    0.000    0.000    0.000    0.000    0.000 
#
# Total GULP energy -78108.989446 kJ/mol
# GULP energy per Si atom -5579.213532 kJ/mol
# Density = 2.373539 g / cm^3
# Si number density = 23.789537 Si / 1000 Ang^3
#
#
#
# Elastic Constant Matrix: (Units=GPa)
#
#
# Indices 1 2 3 4 5 6 
#
# 1 157.8554 23.9344 27.5351 -10.7037 -11.4019 -46.0632
# 2 23.9344 76.8077 7.4098 -3.3956 -6.2002 -9.0602
# 3 27.5351 7.4098 88.6924 2.8247 -11.7846 -13.8006
# 4 -10.7037 -3.3956 2.8247 28.0027 -8.9674 3.5424
# 5 -11.4019 -6.2002 -11.7846 -8.9674 39.3234 -1.7784
# 6 -46.0632 -9.0602 -13.8006 3.5424 -1.7784 35.0813
#
#
#
# Elastic Compliance Matrix: (Units=1/GPa)
#
#
# Indices 1 2 3 4 5 6 
#
# 1 0.011362 -0.001275 -0.000765 0.003885 0.004389 0.014119
# 2 -0.001275 0.013903 -0.000252 0.001711 0.002216 0.001756
# 3 -0.000765 -0.000252 0.012684 -0.001013 0.003499 0.004200
# 4 0.003885 0.001711 -0.001013 0.040648 0.010433 0.001569
# 5 0.004389 0.002216 0.003499 0.010433 0.030852 0.008222
# 6 0.014119 0.001756 0.004200 0.001569 0.008222 0.049408
#
#
# Mechanical properties :
#
#
# Convention : Reuss Voigt Hill
#
# Bulk Modulus (GPa) = 29.97178 49.01270 39.49224
# Shear Modulus (GPa) = 28.64293 38.11323 33.37808
#
# Velocity S-wave (km/s) = 3.47365 4.00697 3.74980
# Velocity P-wave (km/s) = 5.35859 6.48499 5.94851
#
# Compressibility (1/GPa) = 0.03336472
#
# Stress axis : x y z
#
# Youngs Moduli (GPa) = 88.01236 71.92670 78.83896
#
# Poissons Ratio (x) = 0.09173 0.06028
# Poissons Ratio (y) = 0.11225 0.01989
# Poissons Ratio (z) = 0.06729 0.01815
#
# Static dielectric constant tensor:
#      x y z
#    x 1.893910 0.040370 -0.025150 
#    y 0.040370 1.844100 -0.016830 
#    z -0.025150 -0.016830 2.030760 
# 
# From -- ./inp_files/44161.got.cif
#   From: 2010.05.17/outbox.cif.g08.bks.cpg/sg2_23_cif.got.tgz:44161.got - 2010.06.03 11:33:40.
