data_PCOD9043467
_publ_section_title
;
Structure prediction by ZEFSAII (Michael W. Deem and Ramdas Pophale) SiO2 
 PCOD9043467
Probable space group: P -1
;
_chemical_formula_sum "Si O2"
_cell_formula_units_Z 14
_cell_length_a 14.285883
_cell_length_b 8.076258
_cell_length_c 8.609211
_cell_angle_alpha 58.734926
_cell_angle_beta 50.636201
_cell_angle_gamma 52.726145
_cell_volume 596.231635
_symmetry_space_group_name_H-M "P -1"
_symmetry_group_IT_number 2
_symmetry_cell_setting 'triclinic'
loop_
_space_group_symop_operation_xyz
x,y,z
-x,-y,-z
loop_
_atom_site_type_symbol
_atom_site_label
_atom_site_fract_x
_atom_site_fract_y
_atom_site_fract_z
Si Si1 0.765054 0.904210 0.959069
Si Si2 0.778451 0.443050 0.168536
Si Si3 0.144897 0.887905 0.973259
Si Si4 0.467303 0.049005 0.188842
Si Si5 0.584933 0.274866 0.398146
Si Si6 0.154054 0.850338 0.452871
Si Si7 0.388283 0.454182 0.237182
O O1 0.800312 0.655230 0.065022
O O2 0.849192 0.995552 0.932065
O O3 0.611664 0.020274 0.114919
O O4 0.781497 0.979539 0.730725
O O5 0.826376 0.355767 0.985256
O O6 0.626129 0.465161 0.312946
O O7 0.837416 0.268637 0.331924
O O8 0.274069 0.885818 0.750065
O O9 0.000000 0.000000 0.000000
O O10 0.366183 0.280043 0.240402
O O11 0.432132 0.868495 0.382683
O O12 0.500000 0.000000 0.000000
O O13 0.465101 0.351747 0.365226
O O14 0.252029 0.653096 0.334392
O O15 0.000000 0.000000 0.500000
O O16 0.500000 0.500000 0.000000
#
# Coordination Sequence:
#
# PCOD9043467 Si02
#       7
#     2   2   2   2   2   2   2
#     4  12  25  47  76 107 149 201 250 315 385 449
#     4  10  26  46  74 107 146 200 251 308 383 454
#     4  10  23  45  71 105 151 196 253 312 375 460
#     4  12  25  43  76 111 154 196 259 320 382 456
#     4  10  24  46  71 111 151 194 258 316 383 453
#     4  12  27  46  72 110 152 195 254 313 376 460
#     4  12  25  46  74 109 151 199 252 318 382 451
#
# _framework density 23.480806999999999
#
# number of rings (size 3 to 8) (size 9 to 14) (size 15 to 20)
#    0.857    0.000    2.857    3.000    4.000    3.429 
#    0.000    1.429    0.000    6.857    0.000    0.000 
#    0.000    0.000    0.000    0.000    0.000    0.000 
#
# Total GULP energy -77955.273354 kJ/mol
# GULP energy per Si atom -5568.233811 kJ/mol
# Density = 2.342736 g / cm^3
# Si number density = 23.480807 Si / 1000 Ang^3
#
#
#
# Elastic Constant Matrix: (Units=GPa)
#
#
# Indices 1 2 3 4 5 6 
#
# 1 130.7242 79.0269 32.9841 1.0896 16.5479 1.1584
# 2 79.0269 170.3984 73.2036 -5.8827 7.4918 10.1799
# 3 32.9841 73.2036 122.8246 -12.2645 10.7544 5.8166
# 4 1.0896 -5.8827 -12.2645 45.1661 -9.9448 -0.8271
# 5 16.5479 7.4918 10.7544 -9.9448 29.6551 15.6966
# 6 1.1584 10.1799 5.8166 -0.8271 15.6966 43.2817
#
#
#
# Elastic Compliance Matrix: (Units=1/GPa)
#
#
# Indices 1 2 3 4 5 6 
#
# 1 0.012073 -0.005763 0.000475 -0.002705 -0.008472 0.003989
# 2 -0.005763 0.010711 -0.004957 0.001099 0.004411 -0.003277
# 3 0.000475 -0.004957 0.011370 0.001803 -0.002910 0.000715
# 4 -0.002705 0.001099 0.001803 0.025220 0.011147 -0.003989
# 5 -0.008472 0.004411 -0.002910 0.011147 0.052271 -0.019163
# 6 0.003989 -0.003277 0.000715 -0.003989 -0.019163 0.030546
#
#
# Mechanical properties :
#
#
# Convention : Reuss Voigt Hill
#
# Bulk Modulus (GPa) = 73.18616 88.26406 80.72511
# Shear Modulus (GPa) = 29.89824 39.53608 34.71716
#
# Velocity S-wave (km/s) = 3.57221 4.10782 3.84934
# Velocity P-wave (km/s) = 6.94625 7.75696 7.36277
#
# Compressibility (1/GPa) = 0.01366379
#
# Stress axis : x y z
#
# Youngs Moduli (GPa) = 82.82859 93.36530 87.95398
#
# Poissons Ratio (x) = 0.53802 -0.04178
# Poissons Ratio (y) = 0.47730 0.43601
# Poissons Ratio (z) = -0.03935 0.46284
#
# Static dielectric constant tensor:
#      x y z
#    x 2.227880 0.100690 0.105750 
#    y 0.100690 2.102230 0.145420 
#    z 0.105750 0.145420 1.998850 
# 
# From -- ./inp_files/294417.got.cif
#   From: 2010.05.17/outbox.cif.g08.bks.cpg/sg2_148_cif.got.tgz:294417.got - 2010.06.03 11:33:40.
