data_PCOD9043943
_publ_section_title
;
Structure prediction by ZEFSAII (Michael W. Deem and Ramdas Pophale) SiO2 
 PCOD9043943
Probable space group: P -1
;
_chemical_formula_sum "Si O2"
_cell_formula_units_Z 12
_cell_length_a 15.857474
_cell_length_b 5.714316
_cell_length_c 14.780005
_cell_angle_alpha 116.384471
_cell_angle_beta 155.465484
_cell_angle_gamma 57.055923
_cell_volume 461.809335
_symmetry_space_group_name_H-M "P -1"
_symmetry_group_IT_number 2
_symmetry_cell_setting 'triclinic'
loop_
_space_group_symop_operation_xyz
x,y,z
-x,-y,-z
loop_
_atom_site_type_symbol
_atom_site_label
_atom_site_fract_x
_atom_site_fract_y
_atom_site_fract_z
Si Si1 0.172729 0.582793 0.624450
Si Si2 0.796007 0.872881 0.169641
Si Si3 0.888092 0.900872 0.062640
Si Si4 0.651842 0.509468 0.517306
Si Si5 0.233841 0.015908 0.233889
Si Si6 0.442063 0.507934 0.125915
O O1 0.405264 0.391732 0.774408
O O2 0.000000 0.500000 0.500000
O O3 0.026441 0.716228 0.417206
O O4 0.234937 0.808859 0.781698
O O5 0.820458 0.807206 0.075662
O O6 0.620379 0.749074 0.013524
O O7 0.150905 0.746393 0.288716
O O8 0.765672 0.856259 0.845820
O O9 0.786462 0.238449 0.031821
O O10 0.750500 0.754454 0.642278
O O11 0.575560 0.418644 0.334180
O O12 0.425193 0.711327 0.378043
O O13 0.000000 0.000000 0.000000
#
# Coordination Sequence:
#
# PCOD9043943 Si02
#       6
#     2   2   2   2   2   2
#     4  11  25  47  75 105 147 192 242 301 366 432
#     4  11  25  45  71 108 145 188 247 298 360 435
#     4  11  24  44  72 104 141 193 239 296 363 423
#     4  10  23  46  67 107 141 184 245 294 354 431
#     4  10  24  45  72 103 146 190 242 298 357 435
#     4  11  25  47  73 106 147 189 245 301 359 433
#
# _framework density 25.984749000000001
#
# number of rings (size 3 to 8) (size 9 to 14) (size 15 to 20)
#    0.000    1.333    1.667    2.000    4.667    7.333 
#   12.000    0.000    0.000    0.000    0.000    0.000 
#    0.000    0.000    0.000    0.000    0.000    0.000 
#
# Total GULP energy -67037.370049 kJ/mol
# GULP energy per Si atom -5586.447504 kJ/mol
# Density = 2.592561 g / cm^3
# Si number density = 25.984749 Si / 1000 Ang^3
#
#
#
# Elastic Constant Matrix: (Units=GPa)
#
#
# Indices 1 2 3 4 5 6 
#
# 1 76.7569 26.1290 46.7967 -8.8166 9.1698 -0.6322
# 2 26.1290 97.8806 68.5617 -12.6649 11.0452 -16.8003
# 3 46.7967 68.5617 181.9463 -9.8020 -1.1641 -16.4099
# 4 -8.8166 -12.6649 -9.8020 66.8593 9.1813 -2.8305
# 5 9.1698 11.0452 -1.1641 9.1813 45.0623 -7.6941
# 6 -0.6322 -16.8003 -16.4099 -2.8305 -7.6941 34.2540
#
#
#
# Elastic Compliance Matrix: (Units=1/GPa)
#
#
# Indices 1 2 3 4 5 6 
#
# 1 0.016575 -0.001557 -0.003885 0.001736 -0.003969 -0.003067
# 2 -0.001557 0.015637 -0.004941 0.002698 -0.003384 0.004736
# 3 -0.003885 -0.004941 0.008544 -0.000473 0.002688 0.002163
# 4 0.001736 0.002698 -0.000473 0.016253 -0.004072 0.001557
# 5 -0.003969 -0.003384 0.002688 -0.004072 0.025575 0.004963
# 6 -0.003067 0.004736 0.002163 0.001557 0.004963 0.033739
#
#
# Mechanical properties :
#
#
# Convention : Reuss Voigt Hill
#
# Bulk Modulus (GPa) = 50.02552 71.06206 60.54379
# Shear Modulus (GPa) = 34.78186 43.57488 39.17837
#
# Velocity S-wave (km/s) = 3.66259 4.09949 3.88718
# Velocity P-wave (km/s) = 6.09752 7.05795 6.59524
#
# Compressibility (1/GPa) = 0.01998980
#
# Stress axis : x y z
#
# Youngs Moduli (GPa) = 60.33165 63.94999 117.04222
#
# Poissons Ratio (x) = 0.09960 0.45467
# Poissons Ratio (y) = 0.09397 0.57831
# Poissons Ratio (z) = 0.23437 0.31598
#
# Static dielectric constant tensor:
#      x y z
#    x 2.155010 0.037200 0.043440 
#    y 0.037200 2.069230 -0.008580 
#    z 0.043440 -0.008580 1.964050 
# 
# From -- ./inp_files/574922.got.cif
#   From: 2010.05.17/outbox.cif.g08.bks.cpg/sg2_288_cif.got.tgz:574922.got - 2010.06.03 11:33:40.
