data_PCOD9043745
_publ_section_title
;
Structure prediction by ZEFSAII (Michael W. Deem and Ramdas Pophale) SiO2 
 PCOD9043745
Probable space group: P -1
;
_chemical_formula_sum "Si O2"
_cell_formula_units_Z 14
_cell_length_a 16.795768
_cell_length_b 7.670281
_cell_length_c 10.397730
_cell_angle_alpha 64.805248
_cell_angle_beta 153.261083
_cell_angle_gamma 119.778774
_cell_volume 522.553697
_symmetry_space_group_name_H-M "P -1"
_symmetry_group_IT_number 2
_symmetry_cell_setting 'triclinic'
loop_
_space_group_symop_operation_xyz
x,y,z
-x,-y,-z
loop_
_atom_site_type_symbol
_atom_site_label
_atom_site_fract_x
_atom_site_fract_y
_atom_site_fract_z
Si Si1 0.060871 0.188571 0.717459
Si Si2 0.665176 0.706625 0.674356
Si Si3 0.179662 0.821287 0.941271
Si Si4 0.979520 0.602733 0.071289
Si Si5 0.657203 0.171400 0.100969
Si Si6 0.644183 0.138057 0.533863
Si Si7 0.403948 0.431225 0.019914
O O1 0.862178 0.218479 0.443714
O O2 0.185933 0.314988 0.743526
O O3 0.197431 0.256552 0.015054
O O4 0.045366 0.957701 0.734757
O O5 0.500000 0.500000 0.500000
O O6 0.602841 0.905425 0.511033
O O7 0.812970 0.698920 0.781539
O O8 0.288688 0.886643 0.945313
O O9 0.297524 0.848078 0.235822
O O10 0.085993 0.583809 0.868726
O O11 0.176490 0.757832 0.326007
O O12 0.000000 0.500000 0.000000
O O13 0.586311 0.369508 0.945266
O O14 0.504412 0.272002 0.271818
O O15 0.500000 0.000000 0.000000
O O16 0.500000 0.500000 0.000000
#
# Coordination Sequence:
#
# PCOD9043745 Si02
#       7
#     2   2   2   2   2   2   2
#     4  11  27  50  82 117 168 218 280 352 427 494
#     4  11  26  49  81 119 162 224 281 350 421 500
#     4  10  24  49  84 121 162 211 280 351 425 511
#     4  10  23  45  74 119 161 208 265 343 419 506
#     4  12  28  53  83 120 165 232 282 341 431 515
#     4  10  26  49  82 122 165 217 279 352 423 497
#     4  12  29  50  78 118 175 224 279 346 419 510
#
# _framework density 26.791505999999998
#
# number of rings (size 3 to 8) (size 9 to 14) (size 15 to 20)
#    0.000    1.143    0.000    3.000   12.000    1.714 
#    2.571    0.000    0.000    0.000    0.000    0.000 
#    0.000    0.000    0.000    0.000    0.000    0.000 
#
# Total GULP energy -78441.490448 kJ/mol
# GULP energy per Si atom -5602.963603 kJ/mol
# Density = 2.673053 g / cm^3
# Si number density = 26.791506 Si / 1000 Ang^3
#
#
#
# Elastic Constant Matrix: (Units=GPa)
#
#
# Indices 1 2 3 4 5 6 
#
# 1 138.8298 42.0042 41.8413 -17.0723 19.6757 -6.0863
# 2 42.0042 230.2750 79.1439 -9.6826 17.6502 -25.8530
# 3 41.8413 79.1439 178.9959 -12.9449 26.0294 -1.2938
# 4 -17.0723 -9.6826 -12.9449 53.3122 4.9231 8.4021
# 5 19.6757 17.6502 26.0294 4.9231 62.9602 1.3376
# 6 -6.0863 -25.8530 -1.2938 8.4021 1.3376 48.9993
#
#
#
# Elastic Compliance Matrix: (Units=1/GPa)
#
#
# Indices 1 2 3 4 5 6 
#
# 1 0.008405 -0.000870 -0.001094 0.002433 -0.002125 0.000197
# 2 -0.000870 0.005602 -0.002205 -0.000204 -0.000431 0.002836
# 3 -0.001094 -0.002205 0.007215 0.001399 -0.002105 -0.001291
# 4 0.002433 -0.000204 0.001399 0.020608 -0.002825 -0.003225
# 5 -0.002125 -0.000431 -0.002105 -0.002825 0.017771 -0.000548
# 6 0.000197 0.002836 -0.001291 -0.003225 -0.000548 0.022463
#
#
# Mechanical properties :
#
#
# Convention : Reuss Voigt Hill
#
# Bulk Modulus (GPa) = 77.61038 97.11995 87.36516
# Shear Modulus (GPa) = 52.79979 58.72844 55.76412
#
# Velocity S-wave (km/s) = 4.44415 4.68702 4.56720
# Velocity P-wave (km/s) = 7.44077 8.10061 7.77769
#
# Compressibility (1/GPa) = 0.01288488
#
# Stress axis : x y z
#
# Youngs Moduli (GPa) = 118.97825 178.50328 138.59339
#
# Poissons Ratio (x) = 0.15529 0.15157
# Poissons Ratio (y) = 0.10351 0.30562
# Poissons Ratio (z) = 0.13012 0.39363
#
# Static dielectric constant tensor:
#      x y z
#    x 2.198620 0.010650 -0.042400 
#    y 0.010650 2.094260 0.061360 
#    z -0.042400 0.061360 2.276360 
# 
# From -- ./inp_files/540466.got.cif
#   From: 2010.05.17/outbox.cif.g08.bks.cpg/sg2_271_cif.got.tgz:540466.got - 2010.06.03 11:33:40.
