data_PCOD9043373
_publ_section_title
;
Structure prediction by ZEFSAII (Michael W. Deem and Ramdas Pophale) SiO2 
 PCOD9043373
Probable space group: P -1
;
_chemical_formula_sum "Si O2"
_cell_formula_units_Z 16
_cell_length_a 16.357126
_cell_length_b 7.386124
_cell_length_c 14.068962
_cell_angle_alpha 77.446987
_cell_angle_beta 35.231212
_cell_angle_gamma 104.538523
_cell_volume 620.819036
_symmetry_space_group_name_H-M "P -1"
_symmetry_group_IT_number 2
_symmetry_cell_setting 'triclinic'
loop_
_space_group_symop_operation_xyz
x,y,z
-x,-y,-z
loop_
_atom_site_type_symbol
_atom_site_label
_atom_site_fract_x
_atom_site_fract_y
_atom_site_fract_z
Si Si1 0.878753 0.919183 0.839479
Si Si2 0.558647 0.096148 0.741745
Si Si3 0.065834 0.325710 0.782320
Si Si4 0.876234 0.573340 0.602433
Si Si5 0.872386 0.092698 0.509418
Si Si6 0.381385 0.579236 0.618054
Si Si7 0.593306 0.780516 0.991286
Si Si8 0.684914 0.219894 0.176794
O O1 0.911145 0.036915 0.899558
O O2 0.977454 0.164108 0.640867
O O3 0.049354 0.923820 0.659537
O O4 0.638633 0.676086 0.045351
O O5 0.712894 0.412487 0.516753
O O6 0.734800 0.136906 0.614982
O O7 0.391036 0.010620 0.986405
O O8 0.425567 0.868706 0.810141
O O9 0.160949 0.356788 0.789441
O O10 0.927118 0.375875 0.921856
O O11 0.641484 0.396140 0.808230
O O12 0.000000 0.500000 0.500000
O O13 0.902841 0.662214 0.675331
O O14 0.725290 0.859399 0.760939
O O15 0.500000 0.500000 0.500000
O O16 0.325297 0.600200 0.774242
O O17 0.541934 0.906663 0.393071
#
# Coordination Sequence:
#
# PCOD9043373 Si02
#       8
#     2   2   2   2   2   2   2   2
#     4  11  24  38  57  91 124 159 214 270 317 371
#     4  11  22  40  63  90 124 172 219 254 316 385
#     4  11  22  43  66  91 131 167 205 258 324 388
#     4  11  21  37  58  80 116 166 218 260 310 379
#     4  11  25  37  56  92 124 166 222 271 313 362
#     4  10  24  45  72 104 125 161 210 255 326 399
#     4  11  21  39  62  80 124 177 216 262 315 361
#     4  10  23  45  70  96 134 167 202 264 322 389
#
# _framework density 25.772406
#
# number of rings (size 3 to 8) (size 9 to 14) (size 15 to 20)
#    0.000    1.250    3.750    2.250    3.500    3.500 
#    2.250    0.000    0.000    0.000    0.000    0.000 
#    0.000    0.000    0.000    0.000    0.000    0.000 
#
# Total GULP energy -89256.867024 kJ/mol
# GULP energy per Si atom -5578.554189 kJ/mol
# Density = 2.571375 g / cm^3
# Si number density = 25.772406 Si / 1000 Ang^3
#
#
#
# Elastic Constant Matrix: (Units=GPa)
#
#
# Indices 1 2 3 4 5 6 
#
# 1 71.5745 41.5379 22.2584 1.0726 -28.5781 25.6780
# 2 41.5379 112.4428 40.4813 43.2355 -13.3777 15.2734
# 3 22.2584 40.4813 131.0664 26.5346 -22.1341 12.8861
# 4 1.0726 43.2355 26.5346 46.4660 -5.6941 -2.4418
# 5 -28.5781 -13.3777 -22.1341 -5.6941 44.4378 -3.8510
# 6 25.6780 15.2734 12.8861 -2.4418 -3.8510 44.7113
#
#
#
# Elastic Compliance Matrix: (Units=1/GPa)
#
#
# Indices 1 2 3 4 5 6 
#
# 1 0.033227 -0.013713 0.000085 0.013508 0.017961 -0.012138
# 2 -0.013713 0.021333 -0.001172 -0.019576 -0.005543 -0.000621
# 3 0.000085 -0.001172 0.009677 -0.004095 0.003794 -0.002334
# 4 0.013508 -0.019576 -0.004095 0.042716 0.006487 0.003001
# 5 0.017961 -0.005543 0.003794 0.006487 0.034571 -0.006184
# 6 -0.012138 -0.000621 -0.002334 0.003001 -0.006184 0.029853
#
#
# Mechanical properties :
#
#
# Convention : Reuss Voigt Hill
#
# Bulk Modulus (GPa) = 28.87172 58.18208 43.52690
# Shear Modulus (GPa) = 23.52683 41.17677 32.35180
#
# Velocity S-wave (km/s) = 3.02465 4.00147 3.54685
# Velocity P-wave (km/s) = 4.83993 6.63124 5.80510
#
# Compressibility (1/GPa) = 0.03463597
#
# Stress axis : x y z
#
# Youngs Moduli (GPa) = 30.09569 46.87499 103.34175
#
# Poissons Ratio (x) = 0.64281 -0.00875
# Poissons Ratio (y) = 0.41271 0.12111
# Poissons Ratio (z) = -0.00255 0.05494
#
# Static dielectric constant tensor:
#      x y z
#    x 2.104200 -0.076500 -0.017510 
#    y -0.076500 2.261750 -0.123290 
#    z -0.017510 -0.123290 2.185110 
# 
# From -- ./inp_files/537635.got.cif
#   From: 2010.05.17/outbox.cif.g08.bks.cpg/sg2_269_cif.got.tgz:537635.got - 2010.06.03 11:33:40.
