data_PCOD9043523
_publ_section_title
;
Structure prediction by ZEFSAII (Michael W. Deem and Ramdas Pophale) SiO2 
 PCOD9043523
Probable space group: P -1
;
_chemical_formula_sum "Si O2"
_cell_formula_units_Z 12
_cell_length_a 9.285082
_cell_length_b 14.895151
_cell_length_c 13.014590
_cell_angle_alpha 139.632826
_cell_angle_beta 48.994706
_cell_angle_gamma 157.184381
_cell_volume 444.355229
_symmetry_space_group_name_H-M "P -1"
_symmetry_group_IT_number 2
_symmetry_cell_setting 'triclinic'
loop_
_space_group_symop_operation_xyz
x,y,z
-x,-y,-z
loop_
_atom_site_type_symbol
_atom_site_label
_atom_site_fract_x
_atom_site_fract_y
_atom_site_fract_z
Si Si1 0.475414 0.318883 0.868899
Si Si2 0.456379 0.771161 0.022119
Si Si3 0.461534 0.544185 0.668096
Si Si4 0.703037 0.191800 0.171464
Si Si5 0.328076 0.011012 0.519511
Si Si6 0.549923 0.743775 0.503001
O O1 0.199684 0.056792 0.695476
O O2 0.879295 0.519893 0.812942
O O3 0.500000 0.500000 0.000000
O O4 0.436368 0.245444 0.939998
O O5 0.575182 0.756792 0.853881
O O6 0.000000 0.500000 0.000000
O O7 0.651964 0.041823 0.151326
O O8 0.500000 0.500000 0.500000
O O9 0.608490 0.510116 0.640860
O O10 0.000585 0.262293 0.634070
O O11 0.525572 0.219642 0.325622
O O12 0.500000 0.000000 0.000000
O O13 0.585925 0.249123 0.522117
O O14 0.500000 0.000000 0.500000
O O15 0.000000 0.000000 0.500000
#
# Coordination Sequence:
#
# PCOD9043523 Si02
#       6
#     2   2   2   2   2   2
#     4  12  29  47  71 109 152 185 236 309 361 417
#     4  12  24  48  76 104 141 190 245 296 350 438
#     4  11  25  44  75 102 137 189 241 286 356 435
#     4  12  26  44  80 104 141 197 247 284 364 436
#     4  11  25  46  69 102 147 178 231 305 360 405
#     4  10  23  45  72 100 139 189 239 291 348 432
#
# _framework density 27.005420999999998
#
# number of rings (size 3 to 8) (size 9 to 14) (size 15 to 20)
#    0.000    0.667    1.667    6.000    9.333    1.333 
#    6.000    0.000    0.000    0.000    0.000    0.000 
#    0.000    0.000    0.000    0.000    0.000    0.000 
#
# Total GULP energy -67215.941664 kJ/mol
# GULP energy per Si atom -5601.328472 kJ/mol
# Density = 2.694396 g / cm^3
# Si number density = 27.005421 Si / 1000 Ang^3
#
#
#
# Elastic Constant Matrix: (Units=GPa)
#
#
# Indices 1 2 3 4 5 6 
#
# 1 173.8599 9.9560 41.3918 5.3058 -11.7035 -30.9023
# 2 9.9560 71.9269 20.3372 -23.8665 -1.8513 2.3151
# 3 41.3918 20.3372 188.2758 -18.6412 -21.7592 10.6031
# 4 5.3058 -23.8665 -18.6412 56.6042 -2.0046 -1.4796
# 5 -11.7035 -1.8513 -21.7592 -2.0046 59.2250 6.7336
# 6 -30.9023 2.3151 10.6031 -1.4796 6.7336 42.2082
#
#
#
# Elastic Compliance Matrix: (Units=1/GPa)
#
#
# Indices 1 2 3 4 5 6 
#
# 1 0.007404 -0.001219 -0.002005 -0.001715 -0.000045 0.005938
# 2 -0.001219 0.016607 -0.000718 0.006857 0.000411 -0.001448
# 3 -0.002005 -0.000718 0.006500 0.002023 0.002422 -0.003377
# 4 -0.001715 0.006857 0.002023 0.021396 0.001529 -0.001634
# 5 -0.000045 0.000411 0.002422 0.001529 0.018230 -0.003519
# 6 0.005938 -0.001448 -0.003377 -0.001634 -0.003519 0.029472
#
#
# Mechanical properties :
#
#
# Convention : Reuss Voigt Hill
#
# Bulk Modulus (GPa) = 44.19624 64.15917 54.17771
# Shear Modulus (GPa) = 43.46454 55.76598 49.61526
#
# Velocity S-wave (km/s) = 4.01618 4.54915 4.29095
# Velocity P-wave (km/s) = 6.15690 7.16955 6.68244
#
# Compressibility (1/GPa) = 0.02262636
#
# Stress axis : x y z
#
# Youngs Moduli (GPa) = 135.06547 60.21514 153.84068
#
# Poissons Ratio (x) = 0.07341 0.30852
# Poissons Ratio (y) = 0.16466 0.11044
# Poissons Ratio (z) = 0.27087 0.04323
#
# Static dielectric constant tensor:
#      x y z
#    x 2.213850 0.038460 0.046370 
#    y 0.038460 2.490720 0.020990 
#    z 0.046370 0.020990 2.059520 
# 
# From -- ./inp_files/208652.got.cif
#   From: 2010.05.17/outbox.cif.g08.bks.cpg/sg2_105_cif.got.tgz:208652.got - 2010.06.03 11:33:40.
