data_PCOD9043035
_publ_section_title
;
Structure prediction by ZEFSAII (Michael W. Deem and Ramdas Pophale) SiO2 
 PCOD9043035
Probable space group: P -1
;
_chemical_formula_sum "Si O2"
_cell_formula_units_Z 16
_cell_length_a 9.331070
_cell_length_b 14.718223
_cell_length_c 5.108575
_cell_angle_alpha 112.792944
_cell_angle_beta 101.415301
_cell_angle_gamma 68.572233
_cell_volume 600.798888
_symmetry_space_group_name_H-M "P -1"
_symmetry_group_IT_number 2
_symmetry_cell_setting 'triclinic'
loop_
_space_group_symop_operation_xyz
x,y,z
-x,-y,-z
loop_
_atom_site_type_symbol
_atom_site_label
_atom_site_fract_x
_atom_site_fract_y
_atom_site_fract_z
Si Si1 0.685831 0.132588 0.800050
Si Si2 0.659909 0.431026 0.608933
Si Si3 0.331780 0.994523 0.853513
Si Si4 0.653814 0.726624 0.243490
Si Si5 0.130321 0.773285 0.404256
Si Si6 0.761958 0.515086 0.254812
Si Si7 0.945002 0.637732 0.912716
Si Si8 0.864933 0.819254 0.707893
O O1 0.709728 0.082431 0.038728
O O2 0.521072 0.223102 0.846439
O O3 0.815775 0.173354 0.761484
O O4 0.669920 0.048042 0.485476
O O5 0.500000 0.500000 0.500000
O O6 0.715186 0.305448 0.494990
O O7 0.768791 0.461488 0.475072
O O8 0.676354 0.468483 0.950281
O O9 0.205707 0.104946 0.992650
O O10 0.500000 0.000000 0.000000
O O11 0.670925 0.636801 0.363078
O O12 0.775189 0.663460 0.999132
O O13 0.721703 0.815233 0.471621
O O14 0.039246 0.696261 0.186345
O O15 0.001740 0.844868 0.632616
O O16 0.940941 0.478750 0.197111
O O17 0.928040 0.702737 0.712019
#
# Coordination Sequence:
#
# PCOD9043035 Si02
#       8
#     2   2   2   2   2   2   2   2
#     4  12  28  46  74 106 136 178 240 291 339 427
#     4  11  23  43  67  99 149 187 223 284 344 410
#     4  12  27  48  74 103 140 178 233 292 360 402
#     4  11  25  42  70 105 136 187 234 288 344 411
#     4  10  25  45  68 104 141 184 231 282 352 409
#     4  11  24  41  68 105 136 186 236 278 338 414
#     4  10  23  45  68 100 146 186 226 286 346 414
#     4  11  24  45  73  94 146 186 226 294 350 410
#
# _framework density 26.631207
#
# number of rings (size 3 to 8) (size 9 to 14) (size 15 to 20)
#    0.000    1.000    2.500    2.625    7.000    3.500 
#    0.000    0.000    0.000    0.000    0.000    0.000 
#    0.000    0.000    0.000    0.000    0.000    0.000 
#
# Total GULP energy -89642.745468 kJ/mol
# GULP energy per Si atom -5602.671592 kJ/mol
# Density = 2.657059 g / cm^3
# Si number density = 26.631207 Si / 1000 Ang^3
#
#
#
# Elastic Constant Matrix: (Units=GPa)
#
#
# Indices 1 2 3 4 5 6 
#
# 1 96.3259 3.8015 16.6611 11.1586 -19.5468 -17.5485
# 2 3.8015 98.3938 3.1539 2.3434 -5.5708 -7.8958
# 3 16.6611 3.1539 80.8655 1.5323 5.9512 -3.9894
# 4 11.1586 2.3434 1.5323 41.2123 6.0852 -15.5683
# 5 -19.5468 -5.5708 5.9512 6.0852 35.0992 -3.4559
# 6 -17.5485 -7.8958 -3.9894 -15.5683 -3.4559 42.0673
#
#
#
# Elastic Compliance Matrix: (Units=1/GPa)
#
#
# Indices 1 2 3 4 5 6 
#
# 1 0.014243 0.000610 -0.003346 -0.003170 0.009673 0.005360
# 2 0.000610 0.010481 -0.000592 -0.000229 0.002367 0.002275
# 3 -0.003346 -0.000592 0.013374 0.001009 -0.004422 -0.000228
# 4 -0.003170 -0.000229 0.001009 0.029458 -0.006182 0.009124
# 5 0.009673 0.002367 -0.004422 -0.006182 0.036545 0.004775
# 6 0.005360 0.002275 -0.000228 0.009124 0.004775 0.030182
#
#
# Mechanical properties :
#
#
# Convention : Reuss Voigt Hill
#
# Bulk Modulus (GPa) = 31.80457 35.86869 33.83663
# Shear Modulus (GPa) = 33.02125 40.47369 36.74747
#
# Velocity S-wave (km/s) = 3.52511 3.90267 3.71868
# Velocity P-wave (km/s) = 5.34201 5.81427 5.58313
#
# Compressibility (1/GPa) = 0.03144202
#
# Stress axis : x y z
#
# Youngs Moduli (GPa) = 70.21151 95.41328 74.77371
#
# Poissons Ratio (x) = -0.05823 0.25017
# Poissons Ratio (y) = -0.04285 0.04428
# Poissons Ratio (z) = 0.23490 0.05650
#
# Static dielectric constant tensor:
#      x y z
#    x 2.164540 0.037230 0.018230 
#    y 0.037230 2.069120 -0.005150 
#    z 0.018230 -0.005150 2.141470 
# 
# From -- ./inp_files/39344.got.cif
#   From: 2010.05.17/outbox.cif.g08.bks.cpg/sg2_20_cif.got.tgz:39344.got - 2010.06.03 11:33:40.
