data_PCOD9043041
_publ_section_title
;
Structure prediction by ZEFSAII (Michael W. Deem and Ramdas Pophale) SiO2 
 PCOD9043041
Probable space group: P -1
;
_chemical_formula_sum "Si O2"
_cell_formula_units_Z 14
_cell_length_a 10.656534
_cell_length_b 8.559126
_cell_length_c 9.054947
_cell_angle_alpha 110.349720
_cell_angle_beta 59.208597
_cell_angle_gamma 91.835561
_cell_volume 654.185664
_symmetry_space_group_name_H-M "P -1"
_symmetry_group_IT_number 2
_symmetry_cell_setting 'triclinic'
loop_
_space_group_symop_operation_xyz
x,y,z
-x,-y,-z
loop_
_atom_site_type_symbol
_atom_site_label
_atom_site_fract_x
_atom_site_fract_y
_atom_site_fract_z
Si Si1 0.707078 0.240518 0.576906
Si Si2 0.359949 0.442387 0.484109
Si Si3 0.922422 0.940758 0.172116
Si Si4 0.136371 0.914034 0.291991
Si Si5 0.590010 0.629197 0.068509
Si Si6 0.633811 0.847817 0.840663
Si Si7 0.168171 0.404771 0.868794
O O1 0.709198 0.412423 0.542745
O O2 0.805850 0.090270 0.372399
O O3 0.773426 0.223976 0.697460
O O4 0.531122 0.247756 0.715850
O O5 0.500000 0.500000 0.500000
O O6 0.403039 0.270030 0.309146
O O7 0.239901 0.416102 0.669416
O O8 0.835509 0.788335 0.147021
O O9 0.059557 0.866415 0.174240
O O10 0.000000 0.000000 0.000000
O O11 0.230330 0.059715 0.247894
O O12 0.000000 0.000000 0.500000
O O13 0.719809 0.534109 0.062943
O O14 0.500000 0.500000 0.000000
O O15 0.654312 0.733467 0.936780
O O16 0.500000 0.000000 0.000000
O O17 0.000000 0.500000 0.000000
#
# Coordination Sequence:
#
# PCOD9043041 Si02
#       7
#     2   2   2   2   2   2   2
#     4  11  23  45  71  99 143 185 233 295 351 427
#     4  12  25  46  70 107 144 190 241 300 363 424
#     4  11  25  47  72 106 143 187 234 297 367 421
#     4  10  23  45  68 101 142 182 233 291 352 422
#     4  12  25  48  71 108 140 190 241 294 363 433
#     4  12  25  42  73 107 138 190 243 294 355 438
#     4  12  28  46  73 107 145 188 239 302 364 428
#
# _framework density 21.400652000000001
#
# number of rings (size 3 to 8) (size 9 to 14) (size 15 to 20)
#    0.000    0.571    4.286    3.429    2.000    5.143 
#    0.000    4.286    0.000    0.000    0.000    0.000 
#    0.000    0.000    0.000    0.000    0.000    0.000 
#
# Total GULP energy -78247.937220 kJ/mol
# GULP energy per Si atom -5589.138373 kJ/mol
# Density = 2.135194 g / cm^3
# Si number density = 21.400652 Si / 1000 Ang^3
#
#
#
# Elastic Constant Matrix: (Units=GPa)
#
#
# Indices 1 2 3 4 5 6 
#
# 1 126.0505 41.5193 55.1198 5.0167 1.1596 -9.7911
# 2 41.5193 105.8788 60.8450 -11.1904 2.8699 -1.1064
# 3 55.1198 60.8450 172.0414 -12.6115 -11.8288 0.2280
# 4 5.0167 -11.1904 -12.6115 58.7223 -2.3648 1.8152
# 5 1.1596 2.8699 -11.8288 -2.3648 42.3768 -3.7564
# 6 -9.7911 -1.1064 0.2280 1.8152 -3.7564 44.0660
#
#
#
# Elastic Compliance Matrix: (Units=1/GPa)
#
#
# Indices 1 2 3 4 5 6 
#
# 1 0.010185 -0.002730 -0.002497 -0.002024 -0.000706 0.002231
# 2 -0.002730 0.012854 -0.003656 0.001842 -0.001757 -0.000491
# 3 -0.002497 -0.003656 0.008190 0.001398 0.002634 -0.000522
# 4 -0.002024 0.001842 0.001398 0.017935 0.001229 -0.001045
# 5 -0.000706 -0.001757 0.002634 0.001229 0.024703 0.001841
# 6 0.002231 -0.000491 -0.000522 -0.001045 0.001841 0.023379
#
#
# Mechanical properties :
#
#
# Convention : Reuss Voigt Hill
#
# Bulk Modulus (GPa) = 74.28979 79.88212 77.08596
# Shear Modulus (GPa) = 41.84056 45.46546 43.65301
#
# Velocity S-wave (km/s) = 4.42646 4.61422 4.52131
# Velocity P-wave (km/s) = 7.80473 8.11147 7.95958
#
# Compressibility (1/GPa) = 0.01346080
#
# Stress axis : x y z
#
# Youngs Moduli (GPa) = 98.18315 77.79837 122.09922
#
# Poissons Ratio (x) = 0.21241 0.30494
# Poissons Ratio (y) = 0.26806 0.44643
# Poissons Ratio (z) = 0.24521 0.28446
#
# Static dielectric constant tensor:
#      x y z
#    x 1.798010 -0.009850 0.013970 
#    y -0.009850 1.781940 0.025930 
#    z 0.013970 0.025930 1.765860 
# 
# From -- ./inp_files/159071.got.cif
#   From: 2010.05.17/outbox.cif.g08.bks.cpg/sg2_80_cif.got.tgz:159071.got - 2010.06.03 11:33:40.
