data_PCOD9043801
_publ_section_title
;
Structure prediction by ZEFSAII (Michael W. Deem and Ramdas Pophale) SiO2 
 PCOD9043801
Probable space group: P -1
;
_chemical_formula_sum "Si O2"
_cell_formula_units_Z 16
_cell_length_a 8.918075
_cell_length_b 5.726018
_cell_length_c 15.361759
_cell_angle_alpha 93.892712
_cell_angle_beta 60.986437
_cell_angle_gamma 116.559626
_cell_volume 602.378770
_symmetry_space_group_name_H-M "P -1"
_symmetry_group_IT_number 2
_symmetry_cell_setting 'triclinic'
loop_
_space_group_symop_operation_xyz
x,y,z
-x,-y,-z
loop_
_atom_site_type_symbol
_atom_site_label
_atom_site_fract_x
_atom_site_fract_y
_atom_site_fract_z
Si Si1 0.262298 0.634856 0.386753
Si Si2 0.120354 0.027297 0.351658
Si Si3 0.347141 0.265433 0.979362
Si Si4 0.321027 0.175174 0.790651
Si Si5 0.278012 0.303100 0.588847
Si Si6 0.722943 0.204667 0.419589
Si Si7 0.916567 0.156055 0.839916
Si Si8 0.012735 0.637459 0.907898
O O1 0.232000 0.866914 0.352346
O O2 0.492832 0.717615 0.321396
O O3 0.199750 0.666644 0.503608
O O4 0.177045 0.333767 0.364674
O O5 0.126487 0.988188 0.244078
O O6 0.892294 0.842926 0.439104
O O7 0.409857 0.302037 0.862830
O O8 0.500000 0.500000 0.000000
O O9 0.137375 0.252723 0.035222
O O10 0.271075 0.992575 0.047037
O O11 0.131258 0.209098 0.817986
O O12 0.226741 0.864415 0.832001
O O13 0.500000 0.500000 0.500000
O O14 0.241673 0.541744 0.641088
O O15 0.227164 0.016613 0.638478
O O16 0.500000 0.000000 0.500000
O O17 0.935524 0.445919 0.842426
O O18 0.000000 0.500000 0.000000
#
# Coordination Sequence:
#
# PCOD9043801 Si02
#       8
#     2   2   2   2   2   2   2   2
#     4  12  29  48  71 112 151 182 237 304 364 417
#     4  12  29  47  71 111 151 183 236 305 363 417
#     4  11  23  41  65  99 139 183 243 301 357 414
#     4  11  25  42  70  98 143 192 244 292 358 435
#     4  10  23  45  76 105 140 185 241 278 361 436
#     4  10  23  45  77 104 139 186 239 277 360 435
#     4  11  25  43  70  95 142 193 241 291 357 431
#     4  11  21  42  66  97 129 187 251 299 347 422
#
# _framework density 26.561358999999999
#
# number of rings (size 3 to 8) (size 9 to 14) (size 15 to 20)
#    0.000    1.000    2.500    3.000   10.500    6.500 
#    0.000    0.000    0.000    0.000    0.000    0.000 
#    0.000    0.000    0.000    0.000    0.000    0.000 
#
# Total GULP energy -89098.030609 kJ/mol
# GULP energy per Si atom -5568.626913 kJ/mol
# Density = 2.650090 g / cm^3
# Si number density = 26.561359 Si / 1000 Ang^3
#
#
#
# Elastic Constant Matrix: (Units=GPa)
#
#
# Indices 1 2 3 4 5 6 
#
# 1 60.1418 43.5848 4.5782 0.3826 14.7842 10.4408
# 2 43.5848 226.2507 24.8619 9.9647 11.3832 -7.0637
# 3 4.5782 24.8619 105.3227 11.3450 14.4992 1.6347
# 4 0.3826 9.9647 11.3450 45.4996 8.5887 0.3152
# 5 14.7842 11.3832 14.4992 8.5887 38.4979 3.6885
# 6 10.4408 -7.0637 1.6347 0.3152 3.6885 52.8481
#
#
#
# Elastic Compliance Matrix: (Units=1/GPa)
#
#
# Indices 1 2 3 4 5 6 
#
# 1 0.022275 -0.004236 0.000943 0.001984 -0.007671 -0.004472
# 2 -0.004236 0.005422 -0.001083 -0.000987 0.000501 0.001566
# 3 0.000943 -0.001083 0.010384 -0.001689 -0.003538 -0.000395
# 4 0.001984 -0.000987 -0.001689 0.023557 -0.005064 -0.000259
# 5 -0.007671 0.000501 -0.003538 -0.005064 0.031280 -0.000461
# 6 -0.004472 0.001566 -0.000395 -0.000259 -0.000461 0.020061
#
#
# Mechanical properties :
#
#
# Convention : Reuss Voigt Hill
#
# Bulk Modulus (GPa) = 34.09377 59.75168 46.92273
# Shear Modulus (GPa) = 38.02114 48.61513 43.31814
#
# Velocity S-wave (km/s) = 3.78755 4.28284 4.04278
# Velocity P-wave (km/s) = 5.65607 6.85576 6.28461
#
# Compressibility (1/GPa) = 0.02933087
#
# Stress axis : x y z
#
# Youngs Moduli (GPa) = 44.89398 184.43499 96.29797
#
# Poissons Ratio (x) = 0.78121 -0.09084
# Poissons Ratio (y) = 0.19016 0.10427
# Poissons Ratio (z) = -0.04235 0.19970
#
# Static dielectric constant tensor:
#      x y z
#    x 2.315650 -0.040280 0.035720 
#    y -0.040280 2.081030 0.063500 
#    z 0.035720 0.063500 2.023230 
# 
# From -- ./inp_files/104575.got.cif
#   From: 2010.05.17/outbox.cif.g08.bks.cpg/sg2_53_cif.got.tgz:104575.got - 2010.06.03 11:33:40.
