data_PCOD9043608
_publ_section_title
;
Structure prediction by ZEFSAII (Michael W. Deem and Ramdas Pophale) SiO2 
 PCOD9043608
Probable space group: P -1
;
_chemical_formula_sum "Si O2"
_cell_formula_units_Z 16
_cell_length_a 7.969508
_cell_length_b 9.078401
_cell_length_c 13.965222
_cell_angle_alpha 125.861045
_cell_angle_beta 53.300252
_cell_angle_gamma 104.345321
_cell_volume 648.351147
_symmetry_space_group_name_H-M "P -1"
_symmetry_group_IT_number 2
_symmetry_cell_setting 'triclinic'
loop_
_space_group_symop_operation_xyz
x,y,z
-x,-y,-z
loop_
_atom_site_type_symbol
_atom_site_label
_atom_site_fract_x
_atom_site_fract_y
_atom_site_fract_z
Si Si1 0.941250 0.429875 0.219361
Si Si2 0.589037 0.108766 0.716473
Si Si3 0.081703 0.769268 0.208999
Si Si4 0.431288 0.514095 0.917166
Si Si5 0.444267 0.708467 0.807699
Si Si6 0.202937 0.544358 0.504390
Si Si7 0.771631 0.936431 0.050712
Si Si8 0.277068 0.930683 0.541860
O O1 0.759045 0.382747 0.191948
O O2 0.856509 0.416497 0.350378
O O3 0.988531 0.635153 0.263992
O O4 0.154817 0.280805 0.073084
O O5 0.730595 0.138916 0.771891
O O6 0.476397 0.305730 0.789519
O O7 0.754354 0.041028 0.551118
O O8 0.385730 0.023348 0.788798
O O9 0.193732 0.623015 0.038966
O O10 0.905856 0.928495 0.291761
O O11 0.539205 0.627037 0.844701
O O12 0.500000 0.500000 0.000000
O O13 0.619051 0.634280 0.640275
O O14 0.363256 0.925743 0.925520
O O15 0.275587 0.726226 0.502748
O O16 0.000000 0.500000 0.500000
O O17 0.000000 0.000000 0.000000
O O18 0.500000 0.000000 0.500000
#
# Coordination Sequence:
#
# PCOD9043608 Si02
#       8
#     2   2   2   2   2   2   2   2
#     4  11  25  46  70 106 149 186 243 298 359 435
#     4  11  23  47  71  97 146 185 238 299 355 430
#     4  11  25  43  73 104 139 191 236 301 364 424
#     4  10  23  45  73 101 140 181 238 299 360 427
#     4  11  25  46  72 102 141 196 237 293 369 424
#     4  12  28  46  71 104 153 193 244 301 357 433
#     4  10  25  43  71 106 142 185 241 296 361 432
#     4  12  28  44  71 107 144 192 251 295 356 429
#
# _framework density 24.677983999999999
#
# number of rings (size 3 to 8) (size 9 to 14) (size 15 to 20)
#    0.000    1.000    2.500    2.250   10.500    1.500 
#    0.000    3.125    0.000    0.000    0.000    0.000 
#    0.000    0.000    0.000    0.000    0.000    0.000 
#
# Total GULP energy -89387.602566 kJ/mol
# GULP energy per Si atom -5586.725160 kJ/mol
# Density = 2.462182 g / cm^3
# Si number density = 24.677984 Si / 1000 Ang^3
#
#
#
# Elastic Constant Matrix: (Units=GPa)
#
#
# Indices 1 2 3 4 5 6 
#
# 1 93.7570 17.1909 27.8410 4.4400 -1.4954 9.5491
# 2 17.1909 70.1349 6.6015 -6.0550 5.9572 5.8930
# 3 27.8410 6.6015 90.4752 3.0425 -20.2457 -13.3784
# 4 4.4400 -6.0550 3.0425 50.9362 -17.3649 -4.7720
# 5 -1.4954 5.9572 -20.2457 -17.3649 42.5320 -4.3704
# 6 9.5491 5.8930 -13.3784 -4.7720 -4.3704 36.1612
#
#
#
# Elastic Compliance Matrix: (Units=1/GPa)
#
#
# Indices 1 2 3 4 5 6 
#
# 1 0.013434 -0.002190 -0.005610 -0.002935 -0.003717 -0.006103
# 2 -0.002190 0.015494 -0.001544 0.000876 -0.002908 -0.002754
# 3 -0.005610 -0.001544 0.016511 0.003764 0.010401 0.009595
# 4 -0.002935 0.000876 0.003764 0.024594 0.012302 0.006757
# 5 -0.003717 -0.002908 0.010401 0.012302 0.034907 0.011146
# 6 -0.006103 -0.002754 0.009595 0.006757 0.011146 0.035503
#
#
# Mechanical properties :
#
#
# Convention : Reuss Voigt Hill
#
# Bulk Modulus (GPa) = 37.37858 39.73710 38.55784
# Shear Modulus (GPa) = 29.75319 39.44146 34.59733
#
# Velocity S-wave (km/s) = 3.47602 4.00214 3.74833
# Velocity P-wave (km/s) = 5.59372 6.12319 5.86443
#
# Compressibility (1/GPa) = 0.02675329
#
# Stress axis : x y z
#
# Youngs Moduli (GPa) = 74.43560 64.53999 60.56430
#
# Poissons Ratio (x) = 0.14133 0.33974
# Poissons Ratio (y) = 0.16301 0.09351
# Poissons Ratio (z) = 0.41755 0.09964
#
# Static dielectric constant tensor:
#      x y z
#    x 2.516690 0.018720 0.171640 
#    y 0.018720 2.042250 -0.071390 
#    z 0.171640 -0.071390 2.119350 
# 
# From -- ./inp_files/493772.got.cif
#   From: 2010.05.17/outbox.cif.g08.bks.cpg/sg2_247_cif.got.tgz:493772.got - 2010.06.03 11:33:40.
