data_PCOD9043237
_publ_section_title
;
Structure prediction by ZEFSAII (Michael W. Deem and Ramdas Pophale) SiO2 
 PCOD9043237
Probable space group: P -1
;
_chemical_formula_sum "Si O2"
_cell_formula_units_Z 14
_cell_length_a 12.513656
_cell_length_b 9.688168
_cell_length_c 15.947394
_cell_angle_alpha 127.728442
_cell_angle_beta 23.989724
_cell_angle_gamma 127.043123
_cell_volume 616.031466
_symmetry_space_group_name_H-M "P -1"
_symmetry_group_IT_number 2
_symmetry_cell_setting 'triclinic'
loop_
_space_group_symop_operation_xyz
x,y,z
-x,-y,-z
loop_
_atom_site_type_symbol
_atom_site_label
_atom_site_fract_x
_atom_site_fract_y
_atom_site_fract_z
Si Si1 0.710017 0.502781 0.088439
Si Si2 0.109432 0.347716 0.416834
Si Si3 0.999077 0.193000 0.610815
Si Si4 0.386205 0.775410 0.808328
Si Si5 0.268372 0.606448 0.670638
Si Si6 0.901073 0.037109 0.796475
Si Si7 0.607970 0.822660 0.382089
O O1 0.424801 0.411790 0.226694
O O2 0.750207 0.391168 0.102258
O O3 0.695179 0.704380 0.200307
O O4 0.971913 0.505749 0.844841
O O5 0.960454 0.312723 0.601303
O O6 0.000000 0.500000 0.500000
O O7 0.075845 0.160893 0.322201
O O8 0.309101 0.245097 0.427660
O O9 0.853387 0.147028 0.787122
O O10 0.000000 0.000000 0.500000
O O11 0.268331 0.764273 0.796636
O O12 0.335346 0.943264 0.961529
O O13 0.500000 0.500000 0.500000
O O14 0.367929 0.690747 0.544472
O O15 0.161657 0.126360 0.694136
O O16 0.500000 0.000000 0.500000
#
# Coordination Sequence:
#
# PCOD9043237 Si02
#       7
#     2   2   2   2   2   2   2
#     4  11  24  41  68 105 135 173 228 276 341 401
#     4  10  23  45  69  97 141 181 221 276 340 404
#     4   9  21  38  65  95 123 177 220 270 332 391
#     4  11  21  39  68 102 127 168 231 282 331 387
#     4  12  23  42  71  99 134 178 226 282 339 400
#     4  11  22  43  68  95 136 172 227 283 326 401
#     4  12  25  42  68  99 138 179 222 283 340 403
#
# _framework density 22.726109999999998
#
# number of rings (size 3 to 8) (size 9 to 14) (size 15 to 20)
#    0.000    1.143    4.286    2.143    0.000    5.714 
#    0.000    0.000    0.000   12.000    0.000    0.000 
#    0.000    0.000    0.000    0.000    0.000    0.000 
#
# Total GULP energy -78179.637825 kJ/mol
# GULP energy per Si atom -5584.259845 kJ/mol
# Density = 2.267438 g / cm^3
# Si number density = 22.726110 Si / 1000 Ang^3
#
#
#
# Elastic Constant Matrix: (Units=GPa)
#
#
# Indices 1 2 3 4 5 6 
#
# 1 70.0274 26.5345 13.0737 6.1332 -1.6629 6.6848
# 2 26.5345 122.3120 23.5063 14.9563 -8.7894 0.6218
# 3 13.0737 23.5063 103.5734 -2.4901 5.2551 -5.9572
# 4 6.1332 14.9563 -2.4901 39.4999 9.9398 2.6330
# 5 -1.6629 -8.7894 5.2551 9.9398 29.0394 0.2053
# 6 6.6848 0.6218 -5.9572 2.6330 0.2053 51.6989
#
#
#
# Elastic Compliance Matrix: (Units=1/GPa)
#
#
# Indices 1 2 3 4 5 6 
#
# 1 0.016039 -0.002914 -0.001568 -0.001562 0.000870 -0.002143
# 2 -0.002914 0.010197 -0.002303 -0.004823 0.004986 0.000215
# 3 -0.001568 -0.002303 0.010700 0.002613 -0.003627 0.001345
# 4 -0.001562 -0.004823 0.002613 0.030771 -0.012548 -0.000956
# 5 0.000870 0.004986 -0.003627 -0.012548 0.040947 -0.000114
# 6 -0.002143 0.000215 0.001345 -0.000956 -0.000114 0.019821
#
#
# Mechanical properties :
#
#
# Convention : Reuss Voigt Hill
#
# Bulk Modulus (GPa) = 42.79693 46.90466 44.85080
# Shear Modulus (GPa) = 33.37002 39.56752 36.46877
#
# Velocity S-wave (km/s) = 3.83607 4.17713 4.01023
# Velocity P-wave (km/s) = 6.20428 6.62936 6.42034
#
# Compressibility (1/GPa) = 0.02336616
#
# Stress axis : x y z
#
# Youngs Moduli (GPa) = 62.34782 98.06366 93.45918
#
# Poissons Ratio (x) = 0.28573 0.14657
# Poissons Ratio (y) = 0.18166 0.21525
# Poissons Ratio (z) = 0.09778 0.22585
#
# Static dielectric constant tensor:
#      x y z
#    x 1.970250 0.199370 -0.010130 
#    y 0.199370 2.028470 -0.027420 
#    z -0.010130 -0.027420 1.984370 
# 
# From -- ./inp_files/514556.got.cif
#   From: 2010.05.17/outbox.cif.g08.bks.cpg/sg2_258_cif.got.tgz:514556.got - 2010.06.03 11:33:40.
