data_PCOD9043917
_publ_section_title
;
Structure prediction by ZEFSAII (Michael W. Deem and Ramdas Pophale) SiO2 
 PCOD9043917
Probable space group: P -1
;
_chemical_formula_sum "Si O2"
_cell_formula_units_Z 12
_cell_length_a 6.668104
_cell_length_b 11.750847
_cell_length_c 12.442974
_cell_angle_alpha 39.251287
_cell_angle_beta 116.840590
_cell_angle_gamma 113.098709
_cell_volume 548.856948
_symmetry_space_group_name_H-M "P -1"
_symmetry_group_IT_number 2
_symmetry_cell_setting 'triclinic'
loop_
_space_group_symop_operation_xyz
x,y,z
-x,-y,-z
loop_
_atom_site_type_symbol
_atom_site_label
_atom_site_fract_x
_atom_site_fract_y
_atom_site_fract_z
Si Si1 0.404774 0.027134 0.136310
Si Si2 0.665567 0.769691 0.244892
Si Si3 0.589962 0.537516 0.694076
Si Si4 0.990557 0.191044 0.414123
Si Si5 0.153061 0.747825 0.435271
Si Si6 0.365536 0.634382 0.941348
O O1 0.498883 0.175428 0.136403
O O2 0.598806 0.918919 0.205161
O O3 0.238005 0.886292 0.261889
O O4 0.302593 0.132486 0.934740
O O5 0.453589 0.622467 0.286071
O O6 0.895395 0.682791 0.393895
O O7 0.766646 0.702115 0.587523
O O8 0.341569 0.606888 0.596810
O O9 0.671310 0.455903 0.885004
O O10 0.864870 0.162169 0.518086
O O11 0.851940 0.317609 0.211923
O O12 0.000000 0.000000 0.500000
O O13 0.500000 0.500000 0.000000
#
# Coordination Sequence:
#
# PCOD9043917 Si02
#       6
#     2   2   2   2   2   2
#     4  10  24  44  69  97 134 178 220 281 329 397
#     4  10  23  46  66  98 135 173 231 268 337 393
#     4  11  25  43  69  98 134 178 220 281 328 398
#     4  12  27  44  68 100 137 180 221 275 336 395
#     4  12  23  41  68 100 132 178 222 275 335 394
#     4  11  23  47  68  98 134 176 227 269 333 396
#
# _framework density 21.863620000000001
#
# number of rings (size 3 to 8) (size 9 to 14) (size 15 to 20)
#    0.000    1.000    1.667    4.500    2.333    5.333 
#    9.000    0.000    0.000    0.000    0.000    0.000 
#    0.000    0.000    0.000    0.000    0.000    0.000 
#
# Total GULP energy -67101.415125 kJ/mol
# GULP energy per Si atom -5591.784594 kJ/mol
# Density = 2.181386 g / cm^3
# Si number density = 21.863620 Si / 1000 Ang^3
#
#
#
# Elastic Constant Matrix: (Units=GPa)
#
#
# Indices 1 2 3 4 5 6 
#
# 1 76.0882 42.6996 34.9464 3.8915 15.1983 0.4905
# 2 42.6996 115.7917 26.9650 -4.7936 6.3522 -12.4005
# 3 34.9464 26.9650 105.0043 19.8317 10.5386 9.6711
# 4 3.8915 -4.7936 19.8317 35.8357 3.9881 5.4812
# 5 15.1983 6.3522 10.5386 3.9881 49.1438 -2.2393
# 6 0.4905 -12.4005 9.6711 5.4812 -2.2393 31.7693
#
#
#
# Elastic Compliance Matrix: (Units=1/GPa)
#
#
# Indices 1 2 3 4 5 6 
#
# 1 0.019430 -0.006084 -0.004352 0.000232 -0.004386 -0.001699
# 2 -0.006084 0.011960 -0.002070 0.002551 0.000801 0.005009
# 3 -0.004352 -0.002070 0.013141 -0.006417 -0.000852 -0.003694
# 4 0.000232 0.002551 -0.006417 0.032394 -0.001781 -0.002769
# 5 -0.004386 0.000801 -0.000852 -0.001781 0.022043 0.002501
# 6 -0.001699 0.005009 -0.003694 -0.002769 0.002501 0.035237
#
#
# Mechanical properties :
#
#
# Convention : Reuss Voigt Hill
#
# Bulk Modulus (GPa) = 51.22756 56.23402 53.73079
# Shear Modulus (GPa) = 30.17113 36.16798 33.16955
#
# Velocity S-wave (km/s) = 3.71882 4.07166 3.89924
# Velocity P-wave (km/s) = 6.47464 6.91960 6.70081
#
# Compressibility (1/GPa) = 0.01952074
#
# Stress axis : x y z
#
# Youngs Moduli (GPa) = 51.46569 83.61409 76.09825
#
# Poissons Ratio (x) = 0.50867 0.33115
# Poissons Ratio (y) = 0.31310 0.15752
# Poissons Ratio (z) = 0.22396 0.17308
#
# Static dielectric constant tensor:
#      x y z
#    x 1.772940 0.012610 0.004020 
#    y 0.012610 1.803310 0.005430 
#    z 0.004020 0.005430 1.809670 
# 
# From -- ./inp_files/21031.got.cif
#   From: 2010.05.17/outbox.cif.g08.bks.cpg/sg2_11_cif.got.tgz:21031.got - 2010.06.03 11:33:40.
