data_PCOD9043469
_publ_section_title
;
Structure prediction by ZEFSAII (Michael W. Deem and Ramdas Pophale) SiO2 
 PCOD9043469
Probable space group: P -1
;
_chemical_formula_sum "Si O2"
_cell_formula_units_Z 12
_cell_length_a 11.294761
_cell_length_b 5.086617
_cell_length_c 13.485644
_cell_angle_alpha 117.643843
_cell_angle_beta 45.891026
_cell_angle_gamma 122.140244
_cell_volume 465.423109
_symmetry_space_group_name_H-M "P -1"
_symmetry_group_IT_number 2
_symmetry_cell_setting 'triclinic'
loop_
_space_group_symop_operation_xyz
x,y,z
-x,-y,-z
loop_
_atom_site_type_symbol
_atom_site_label
_atom_site_fract_x
_atom_site_fract_y
_atom_site_fract_z
Si Si1 0.407434 0.152059 0.453593
Si Si2 0.251709 0.262527 0.049851
Si Si3 0.635837 0.304603 0.773658
Si Si4 0.246330 0.778875 0.644258
Si Si5 0.938579 0.444153 0.914710
Si Si6 0.127732 0.337641 0.455219
O O1 0.500000 0.500000 0.500000
O O2 0.574321 0.042330 0.370503
O O3 0.362471 0.994030 0.344753
O O4 0.244849 0.027606 0.602617
O O5 0.248686 0.556813 0.172485
O O6 0.192474 0.362627 0.997539
O O7 0.142891 0.934760 0.107602
O O8 0.442775 0.246228 0.915895
O O9 0.712652 0.595478 0.703472
O O10 0.222839 0.494495 0.529504
O O11 0.096103 0.627828 0.782623
O O12 0.000000 0.500000 0.000000
O O13 0.000000 0.500000 0.500000
O O14 0.000000 0.000000 0.500000
#
# Coordination Sequence:
#
# PCOD9043469 Si02
#       6
#     2   2   2   2   2   2
#     4  10  23  45  71 106 139 192 236 301 365 423
#     4  11  26  48  72 110 142 198 239 295 367 430
#     4  10  24  47  72 107 147 188 242 300 358 443
#     4  10  24  43  65 105 136 184 241 295 356 428
#     4  12  26  47  74 105 147 192 246 300 358 433
#     4  11  24  41  69 104 138 182 228 296 362 420
#
# _framework density 25.782990000000002
#
# number of rings (size 3 to 8) (size 9 to 14) (size 15 to 20)
#    0.000    1.333    0.000    3.500    7.000    4.000 
#   21.000    0.000    0.000    0.000    0.000    0.000 
#    0.000    0.000    0.000    0.000    0.000    0.000 
#
# Total GULP energy -66901.036257 kJ/mol
# GULP energy per Si atom -5575.086355 kJ/mol
# Density = 2.572431 g / cm^3
# Si number density = 25.782990 Si / 1000 Ang^3
#
#
#
# Elastic Constant Matrix: (Units=GPa)
#
#
# Indices 1 2 3 4 5 6 
#
# 1 53.5393 30.7960 23.0811 -13.4320 8.8470 2.9511
# 2 30.7960 198.6228 63.3072 -25.0674 10.4053 3.0922
# 3 23.0811 63.3072 134.5499 -22.9939 21.9926 16.2731
# 4 -13.4320 -25.0674 -22.9939 40.8819 2.9703 0.7102
# 5 8.8470 10.4053 21.9926 2.9703 33.2253 -2.4819
# 6 2.9511 3.0922 16.2731 0.7102 -2.4819 45.1453
#
#
#
# Elastic Compliance Matrix: (Units=1/GPa)
#
#
# Indices 1 2 3 4 5 6 
#
# 1 0.022810 -0.002212 -0.000733 0.006155 -0.005556 -0.001477
# 2 -0.002212 0.006352 -0.002371 0.001822 0.000046 0.000538
# 3 -0.000733 -0.002371 0.011299 0.005269 -0.007337 -0.004349
# 4 0.006155 0.001822 0.005269 0.031259 -0.008746 -0.003399
# 5 -0.005556 0.000046 -0.007337 -0.008746 0.037590 0.005209
# 6 -0.001477 0.000538 -0.004349 -0.003399 0.005209 0.024118
#
#
# Mechanical properties :
#
#
# Convention : Reuss Voigt Hill
#
# Bulk Modulus (GPa) = 33.52370 69.00896 51.26633
# Shear Modulus (GPa) = 32.46675 41.81902 37.14289
#
# Velocity S-wave (km/s) = 3.55241 4.03173 3.79964
# Velocity P-wave (km/s) = 5.46413 6.96394 6.25912
#
# Compressibility (1/GPa) = 0.02982964
#
# Stress axis : x y z
#
# Youngs Moduli (GPa) = 43.84017 157.42044 88.50208
#
# Poissons Ratio (x) = 0.34822 0.06491
# Poissons Ratio (y) = 0.09698 0.20980
# Poissons Ratio (z) = 0.03215 0.37318
#
# Static dielectric constant tensor:
#      x y z
#    x 2.248170 -0.122440 -0.111650 
#    y -0.122440 2.382400 0.037970 
#    z -0.111650 0.037970 2.058890 
# 
# From -- ./inp_files/511143.got.cif
#   From: 2010.05.17/outbox.cif.g08.bks.cpg/sg2_256_cif.got.tgz:511143.got - 2010.06.03 11:33:40.
