data_PCOD9043914
_publ_section_title
;
Structure prediction by ZEFSAII (Michael W. Deem and Ramdas Pophale) SiO2 
 PCOD9043914
Probable space group: P -1
;
_chemical_formula_sum "Si O2"
_cell_formula_units_Z 16
_cell_length_a 14.542334
_cell_length_b 14.434567
_cell_length_c 9.506445
_cell_angle_alpha 36.407259
_cell_angle_beta 40.858393
_cell_angle_gamma 50.178481
_cell_volume 772.228211
_symmetry_space_group_name_H-M "P -1"
_symmetry_group_IT_number 2
_symmetry_cell_setting 'triclinic'
loop_
_space_group_symop_operation_xyz
x,y,z
-x,-y,-z
loop_
_atom_site_type_symbol
_atom_site_label
_atom_site_fract_x
_atom_site_fract_y
_atom_site_fract_z
Si Si1 0.379736 0.451932 0.597874
Si Si2 0.465989 0.855492 0.810069
Si Si3 0.105163 0.505506 0.003529
Si Si4 0.595196 0.895564 0.912359
Si Si5 0.868100 0.857135 0.486935
Si Si6 0.431063 0.472718 0.966533
Si Si7 0.108659 0.616716 0.162723
Si Si8 0.159578 0.880037 0.018012
O O1 0.500000 0.500000 0.500000
O O2 0.446269 0.480739 0.336605
O O3 0.243679 0.543602 0.710860
O O4 0.366596 0.269378 0.855297
O O5 0.497457 0.882436 0.903697
O O6 0.500000 0.000000 0.500000
O O7 0.575773 0.710528 0.823348
O O8 0.307242 0.822379 0.989920
O O9 0.133347 0.330937 0.256674
O O10 0.066093 0.621319 0.039156
O O11 0.000000 0.500000 0.000000
O O12 0.748255 0.940050 0.626570
O O13 0.500000 0.000000 0.000000
O O14 0.033262 0.885057 0.271195
O O15 0.831139 0.947489 0.271611
O O16 0.500000 0.500000 0.000000
O O17 0.274453 0.554268 0.036246
O O18 0.116244 0.764539 0.081054
O O19 0.000000 0.500000 0.500000
#
# Coordination Sequence:
#
# PCOD9043914 Si02
#       8
#     2   2   2   2   2   2   2   2
#     4  11  23  43  66  93 136 182 219 287 341 390
#     4  12  25  43  71 101 139 177 227 286 336 406
#     4  11  25  44  67  98 140 180 222 277 346 406
#     4  11  25  44  67  98 140 180 222 277 346 406
#     4  10  23  46  66  97 138 176 221 283 341 404
#     4  12  26  43  70 107 133 177 241 283 336 417
#     4  12  25  43  71 101 139 177 227 286 336 406
#     4  11  24  43  72 100 132 179 226 283 346 396
#
# _framework density 20.719263999999999
#
# number of rings (size 3 to 8) (size 9 to 14) (size 15 to 20)
#    0.000    0.750    6.250    0.750    7.000    0.000 
#    0.000    6.250    0.000    0.000    0.000    0.000 
#    0.000    0.000    0.000    0.000    0.000    0.000 
#
# Total GULP energy -89107.486855 kJ/mol
# GULP energy per Si atom -5569.217928 kJ/mol
# Density = 2.067211 g / cm^3
# Si number density = 20.719264 Si / 1000 Ang^3
#
#
#
# Elastic Constant Matrix: (Units=GPa)
#
#
# Indices 1 2 3 4 5 6 
#
# 1 126.7440 30.9791 23.5519 20.6484 2.4380 18.5554
# 2 30.9791 89.8044 31.0044 24.5384 1.8713 12.1344
# 3 23.5519 31.0044 131.1062 25.7639 0.5430 5.8834
# 4 20.6484 24.5384 25.7639 41.7733 -7.7751 4.5567
# 5 2.4380 1.8713 0.5430 -7.7751 37.8968 13.1730
# 6 18.5554 12.1344 5.8834 4.5567 13.1730 38.3852
#
#
#
# Elastic Compliance Matrix: (Units=1/GPa)
#
#
# Indices 1 2 3 4 5 6 
#
# 1 0.009421 -0.001800 -0.000548 -0.002835 0.000168 -0.003622
# 2 -0.001800 0.014456 -0.001710 -0.006506 -0.001115 -0.002283
# 3 -0.000548 -0.001710 0.009006 -0.004509 -0.001045 0.000319
# 4 -0.002835 -0.006506 -0.004509 0.033828 0.008485 -0.002810
# 5 0.000168 -0.001115 -0.001045 0.008485 0.032233 -0.011637
# 6 -0.003622 -0.002283 0.000319 -0.002810 -0.011637 0.032803
#
#
# Mechanical properties :
#
#
# Convention : Reuss Voigt Hill
#
# Bulk Modulus (GPa) = 40.37502 57.63615 49.00558
# Shear Modulus (GPa) = 33.75704 41.08568 37.42136
#
# Velocity S-wave (km/s) = 4.04079 4.45789 4.25445
# Velocity P-wave (km/s) = 6.42648 7.37394 6.91645
#
# Compressibility (1/GPa) = 0.02476779
#
# Stress axis : x y z
#
# Youngs Moduli (GPa) = 106.15062 69.17590 111.03500
#
# Poissons Ratio (x) = 0.12452 0.06081
# Poissons Ratio (y) = 0.19108 0.18983
# Poissons Ratio (z) = 0.05814 0.11827
#
# Static dielectric constant tensor:
#      x y z
#    x 1.735530 0.012660 -0.019200 
#    y 0.012660 1.782880 -0.031550 
#    z -0.019200 -0.031550 1.767550 
# 
# From -- ./inp_files/312292.got.cif
#   From: 2010.05.17/outbox.cif.g08.bks.cpg/sg2_157_cif.got.tgz:312292.got - 2010.06.03 11:33:40.
