data_PCOD9043929
_publ_section_title
;
Structure prediction by ZEFSAII (Michael W. Deem and Ramdas Pophale) SiO2 
 PCOD9043929
Probable space group: P -1
;
_chemical_formula_sum "Si O2"
_cell_formula_units_Z 13
_cell_length_a 24.707644
_cell_length_b 5.162216
_cell_length_c 11.102223
_cell_angle_alpha 116.676598
_cell_angle_beta 23.372156
_cell_angle_gamma 121.757677
_cell_volume 475.184575
_symmetry_space_group_name_H-M "P -1"
_symmetry_group_IT_number 2
_symmetry_cell_setting 'triclinic'
loop_
_space_group_symop_operation_xyz
x,y,z
-x,-y,-z
loop_
_atom_site_type_symbol
_atom_site_label
_atom_site_fract_x
_atom_site_fract_y
_atom_site_fract_z
Si Si1 0.598739 0.588018 0.572791
Si Si2 0.662047 0.919266 0.885404
Si Si3 0.637783 0.251337 0.218720
Si Si4 0.500000 0.000000 0.000000
Si Si5 0.938580 0.279660 0.690859
Si Si6 0.955066 0.876487 0.199790
Si Si7 0.837348 0.348688 0.160395
O O1 0.629942 0.556660 0.361558
O O2 0.701200 0.431553 0.401968
O O3 0.436537 0.389644 0.909733
O O4 0.604569 0.926988 0.665113
O O5 0.829362 0.955417 0.543003
O O6 0.645850 0.208508 0.051926
O O7 0.597688 0.904415 0.881879
O O8 0.500000 0.000000 0.500000
O O9 0.769373 0.160347 0.985072
O O10 0.000000 0.500000 0.500000
O O11 0.947453 0.443143 0.837325
O O12 0.000000 0.000000 0.500000
O O13 0.868474 0.525149 0.262099
O O14 0.102285 0.930768 0.984661
O O15 0.000000 0.000000 0.000000
#
# Coordination Sequence:
#
# PCOD9043929 Si02
#       7
#     2   2   2   1   2   2   2
#     4  10  23  46  67 101 133 183 236 295 366 424
#     4  11  24  43  69  99 136 181 236 294 358 433
#     4   9  22  49  71 103 141 187 249 302 369 436
#     4  12  24  38  70  96 138 176 230 284 360 424
#     4  11  25  48  75 108 146 198 247 307 376 448
#     4  11  25  41  68 101 139 185 235 292 363 430
#     4  10  24  44  68  99 142 179 241 303 354 437
#
# _framework density 27.357793000000001
#
# number of rings (size 3 to 8) (size 9 to 14) (size 15 to 20)
#    0.000    1.538    1.538    1.385    6.462    1.846 
#   19.385    0.000    0.000    0.000    0.000    0.000 
#    0.000    0.000    0.000    0.000    0.000    0.000 
#
# Total GULP energy -72402.536336 kJ/mol
# GULP energy per Si atom -5569.425872 kJ/mol
# Density = 2.729553 g / cm^3
# Si number density = 27.357793 Si / 1000 Ang^3
#
#
#
# Elastic Constant Matrix: (Units=GPa)
#
#
# Indices 1 2 3 4 5 6 
#
# 1 76.3695 12.3051 21.9402 9.0253 17.6365 -0.8660
# 2 12.3051 61.2064 36.1901 7.4204 -7.7869 -18.3508
# 3 21.9402 36.1901 210.5460 27.9531 -16.9304 -5.3777
# 4 9.0253 7.4204 27.9531 40.6475 18.0327 0.5936
# 5 17.6365 -7.7869 -16.9304 18.0327 56.4823 8.8546
# 6 -0.8660 -18.3508 -5.3777 0.5936 8.8546 42.1651
#
#
#
# Elastic Compliance Matrix: (Units=1/GPa)
#
#
# Indices 1 2 3 4 5 6 
#
# 1 0.015335 -0.002939 -0.001706 0.000978 -0.006028 0.000071
# 2 -0.002939 0.021721 -0.002616 -0.002833 0.002695 0.008533
# 3 -0.001706 -0.002616 0.006361 -0.005244 0.003927 -0.001113
# 4 0.000978 -0.002833 -0.005244 0.034412 -0.013322 0.000431
# 5 -0.006028 0.002695 0.003927 -0.013322 0.025971 -0.003717
# 6 0.000071 0.008533 -0.001113 0.000431 -0.003717 0.028064
#
#
# Mechanical properties :
#
#
# Convention : Reuss Voigt Hill
#
# Bulk Modulus (GPa) = 34.60835 54.33252 44.47044
# Shear Modulus (GPa) = 32.04788 46.37140 39.20964
#
# Velocity S-wave (km/s) = 3.42634 4.12150 3.78989
# Velocity P-wave (km/s) = 5.32267 6.52320 5.95327
#
# Compressibility (1/GPa) = 0.02889476
#
# Stress axis : x y z
#
# Youngs Moduli (GPa) = 65.20996 46.03887 157.21919
#
# Poissons Ratio (x) = 0.13530 0.26815
# Poissons Ratio (y) = 0.19164 0.41136
# Poissons Ratio (z) = 0.11122 0.12046
#
# Static dielectric constant tensor:
#      x y z
#    x 2.187620 0.145370 -0.020230 
#    y 0.145370 2.834540 -0.039740 
#    z -0.020230 -0.039740 2.146880 
# 
# From -- ./inp_files/408833.got.cif
#   From: 2010.05.17/outbox.cif.g08.bks.cpg/sg2_205_cif.got.tgz:408833.got - 2010.06.03 11:33:40.
