data_PCOD9043689
_publ_section_title
;
Structure prediction by ZEFSAII (Michael W. Deem and Ramdas Pophale) SiO2 
 PCOD9043689
Probable space group: P -1
;
_chemical_formula_sum "Si O2"
_cell_formula_units_Z 15
_cell_length_a 10.463283
_cell_length_b 19.327794
_cell_length_c 12.626096
_cell_angle_alpha 157.481908
_cell_angle_beta 133.751050
_cell_angle_gamma 36.462433
_cell_volume 566.139785
_symmetry_space_group_name_H-M "P -1"
_symmetry_group_IT_number 2
_symmetry_cell_setting 'triclinic'
loop_
_space_group_symop_operation_xyz
x,y,z
-x,-y,-z
loop_
_atom_site_type_symbol
_atom_site_label
_atom_site_fract_x
_atom_site_fract_y
_atom_site_fract_z
Si Si1 0.834603 0.441909 0.802174
Si Si2 0.298079 0.706595 0.294188
Si Si3 0.573285 0.103460 0.879906
Si Si4 0.505955 0.025831 0.164519
Si Si5 0.998795 0.309613 0.288172
Si Si6 0.759685 0.335812 0.387068
Si Si7 0.500000 0.000000 0.500000
Si Si8 0.746800 0.196267 0.827669
O O1 0.838506 0.296405 0.693052
O O2 0.862593 0.322080 0.538191
O O3 0.595242 0.695702 0.020201
O O4 0.000000 0.500000 0.000000
O O5 0.399649 0.836628 0.568576
O O6 0.179854 0.810215 0.260900
O O7 0.510321 0.444996 0.040994
O O8 0.636878 0.902454 0.554816
O O9 0.399048 0.167318 0.965686
O O10 0.762788 0.131071 0.052781
O O11 0.256838 0.140798 0.226280
O O12 0.500000 0.000000 0.000000
O O13 0.843927 0.404340 0.435690
O O14 0.000000 0.500000 0.500000
O O15 0.909329 0.208374 0.016079
O O16 0.500000 0.500000 0.500000
O O17 0.692247 0.027425 0.596088
#
# Coordination Sequence:
#
# PCOD9043689 Si02
#       8
#     2   2   2   2   2   2   1   2
#     4  11  25  43  72 101 139 191 254 298 367 444
#     4  11  23  45  68 104 140 198 236 298 378 436
#     4  11  24  45  68  99 146 195 236 299 379 430
#     4  12  28  46  71 106 152 194 236 308 376 430
#     4  12  26  44  76 112 141 189 257 297 361 449
#     4  10  23  45  74 101 147 190 241 300 368 437
#     4  12  20  44  72 102 146 190 234 302 374 430
#     4  11  23  43  74 102 144 183 248 304 358 440
#
# _framework density 26.495222999999999
#
# number of rings (size 3 to 8) (size 9 to 14) (size 15 to 20)
#    0.000    0.800    5.333    1.600    5.600    1.600 
#    4.800    1.333    0.000    0.000    0.000    0.000 
#    0.000    0.000    0.000    0.000    0.000    0.000 
#
# Total GULP energy -83734.907868 kJ/mol
# GULP energy per Si atom -5582.327191 kJ/mol
# Density = 2.643492 g / cm^3
# Si number density = 26.495223 Si / 1000 Ang^3
#
#
#
# Elastic Constant Matrix: (Units=GPa)
#
#
# Indices 1 2 3 4 5 6 
#
# 1 262.2408 59.9554 89.3231 -33.0212 26.9245 58.4759
# 2 59.9554 46.1990 37.8728 -25.6477 13.6464 6.9010
# 3 89.3231 37.8728 113.3209 -46.2748 38.0278 13.3238
# 4 -33.0212 -25.6477 -46.2748 62.2655 9.6837 -2.2488
# 5 26.9245 13.6464 38.0278 9.6837 54.0100 -0.5196
# 6 58.4759 6.9010 13.3238 -2.2488 -0.5196 63.9549
#
#
#
# Elastic Compliance Matrix: (Units=1/GPa)
#
#
# Indices 1 2 3 4 5 6 
#
# 1 0.007869 -0.007714 -0.005019 -0.003255 0.002092 -0.005415
# 2 -0.007714 0.042074 0.002631 0.017101 -0.011680 0.002472
# 3 -0.005019 0.002631 0.029811 0.024187 -0.023501 -0.001245
# 4 -0.003255 0.017101 0.024187 0.043545 -0.027560 -0.002600
# 5 0.002092 -0.011680 -0.023501 -0.027560 0.041946 0.003615
# 6 -0.005415 0.002472 -0.001245 -0.002600 0.003615 0.020517
#
#
# Mechanical properties :
#
#
# Convention : Reuss Voigt Hill
#
# Bulk Modulus (GPa) = 16.79284 88.45149 52.62216
# Shear Modulus (GPa) = 22.14169 51.68670 36.91419
#
# Velocity S-wave (km/s) = 2.89396 4.42157 3.73666
# Velocity P-wave (km/s) = 4.18551 7.71514 6.20653
#
# Compressibility (1/GPa) = 0.05954920
#
# Stress axis : x y z
#
# Youngs Moduli (GPa) = 127.07632 23.76756 33.54445
#
# Poissons Ratio (x) = 0.18334 0.16837
# Poissons Ratio (y) = 0.98027 -0.08825
# Poissons Ratio (z) = 0.63785 -0.06253
#
# Static dielectric constant tensor:
#      x y z
#    x 1.665460 -0.933870 -0.162310 
#    y -0.933870 0.911160 0.074800 
#    z -0.162310 0.074800 1.927200 
# 
# From -- ./inp_files/260815.got.cif
#   From: 2010.05.17/outbox.cif.g08.bks.cpg/sg2_131_cif.got.tgz:260815.got - 2010.06.03 11:33:40.
