data_PCOD9043774
_publ_section_title
;
Structure prediction by ZEFSAII (Michael W. Deem and Ramdas Pophale) SiO2 
 PCOD9043774
Probable space group: P -1
;
_chemical_formula_sum "Si O2"
_cell_formula_units_Z 14
_cell_length_a 13.386251
_cell_length_b 7.966878
_cell_length_c 21.475433
_cell_angle_alpha 41.290682
_cell_angle_beta 19.535624
_cell_angle_gamma 43.915221
_cell_volume 504.592214
_symmetry_space_group_name_H-M "P -1"
_symmetry_group_IT_number 2
_symmetry_cell_setting 'triclinic'
loop_
_space_group_symop_operation_xyz
x,y,z
-x,-y,-z
loop_
_atom_site_type_symbol
_atom_site_label
_atom_site_fract_x
_atom_site_fract_y
_atom_site_fract_z
Si Si1 0.190277 0.177435 0.147518
Si Si2 0.461899 0.896643 0.243433
Si Si3 0.830263 0.083160 0.170642
Si Si4 0.639846 0.549003 0.807212
Si Si5 0.632043 0.517060 0.676788
Si Si6 0.098173 0.141620 0.684290
Si Si7 0.393134 0.748795 0.455077
O O1 0.927782 0.140199 0.362434
O O2 0.011359 0.122943 0.204901
O O3 0.308668 0.449467 0.020863
O O4 0.500000 0.000000 0.000000
O O5 0.324073 0.176151 0.262359
O O6 0.359623 0.765278 0.277184
O O7 0.379037 0.710562 0.400321
O O8 0.815772 0.927178 0.029789
O O9 0.653128 0.946779 0.258066
O O10 0.733579 0.928138 0.332194
O O11 0.712677 0.374679 0.152690
O O12 0.744278 0.539873 0.675448
O O13 0.810698 0.337682 0.808868
O O14 0.756664 0.710965 0.499031
O O15 0.500000 0.500000 0.500000
#
# Coordination Sequence:
#
# PCOD9043774 Si02
#       7
#     2   2   2   2   2   2   2
#     4  10  23  45  75 106 148 202 252 301 382 451
#     4  12  27  46  73 112 153 194 248 319 375 443
#     4  12  25  45  73 110 152 193 251 309 376 450
#     4  11  25  48  75 104 152 196 251 306 377 447
#     4  12  25  45  75 107 149 198 253 305 376 448
#     4  11  24  46  74 109 146 197 254 301 375 456
#     4  12  25  43  76 114 152 194 252 318 381 445
#
# _framework density 27.745177000000002
#
# number of rings (size 3 to 8) (size 9 to 14) (size 15 to 20)
#    0.000    0.571    2.857    4.286    4.000    2.286 
#    0.000    4.286    0.000    0.000    0.000    0.000 
#    0.000    0.000    0.000    0.000    0.000    0.000 
#
# Total GULP energy -78398.183160 kJ/mol
# GULP energy per Si atom -5599.870226 kJ/mol
# Density = 2.768203 g / cm^3
# Si number density = 27.745177 Si / 1000 Ang^3
#
#
#
# Elastic Constant Matrix: (Units=GPa)
#
#
# Indices 1 2 3 4 5 6 
#
# 1 143.4214 78.3218 22.5078 3.0386 -1.1831 3.0861
# 2 78.3218 171.8602 20.3438 -9.1849 -8.8221 9.6771
# 3 22.5078 20.3438 115.9199 -4.1151 -1.0970 2.2715
# 4 3.0386 -9.1849 -4.1151 40.3994 3.8469 -13.0053
# 5 -1.1831 -8.8221 -1.0970 3.8469 41.1955 -8.0234
# 6 3.0861 9.6771 2.2715 -13.0053 -8.0234 58.0444
#
#
#
# Elastic Compliance Matrix: (Units=1/GPa)
#
#
# Indices 1 2 3 4 5 6 
#
# 1 0.009561 -0.004334 -0.001162 -0.001844 -0.000557 -0.000231
# 2 -0.004334 0.008044 -0.000483 0.001818 0.001318 -0.000502
# 3 -0.001162 -0.000483 0.008969 0.000887 0.000018 -0.000007
# 4 -0.001844 0.001818 0.000887 0.027345 -0.001076 0.005738
# 5 -0.000557 0.001318 0.000018 -0.001076 0.025237 0.003057
# 6 -0.000231 -0.000502 -0.000007 0.005738 0.003057 0.019033
#
#
# Mechanical properties :
#
#
# Convention : Reuss Voigt Hill
#
# Bulk Modulus (GPa) = 68.42090 74.83870 71.62980
# Shear Modulus (GPa) = 43.47111 48.59639 46.03375
#
# Velocity S-wave (km/s) = 3.96258 4.18966 4.07770
# Velocity P-wave (km/s) = 6.75648 7.10187 6.93132
#
# Compressibility (1/GPa) = 0.01461542
#
# Stress axis : x y z
#
# Youngs Moduli (GPa) = 104.59228 124.31539 111.49621
#
# Poissons Ratio (x) = 0.53876 0.12956
# Poissons Ratio (y) = 0.45328 0.05389
# Poissons Ratio (z) = 0.12154 0.06009
#
# Static dielectric constant tensor:
#      x y z
#    x 2.048330 0.060490 0.066170 
#    y 0.060490 2.199010 0.075970 
#    z 0.066170 0.075970 2.321690 
# 
# From -- ./inp_files/611587.got.cif
#   From: 2010.05.17/outbox.cif.g08.bks.cpg/sg2_306_cif.got.tgz:611587.got - 2010.06.03 11:33:40.
