data_PCOD9043567
_publ_section_title
;
Structure prediction by ZEFSAII (Michael W. Deem and Ramdas Pophale) SiO2 
 PCOD9043567
Probable space group: P -1
;
_chemical_formula_sum "Si O2"
_cell_formula_units_Z 12
_cell_length_a 19.968783
_cell_length_b 5.348565
_cell_length_c 16.765038
_cell_angle_alpha 52.205148
_cell_angle_beta 20.408553
_cell_angle_gamma 52.305434
_cell_volume 488.915693
_symmetry_space_group_name_H-M "P -1"
_symmetry_group_IT_number 2
_symmetry_cell_setting 'triclinic'
loop_
_space_group_symop_operation_xyz
x,y,z
-x,-y,-z
loop_
_atom_site_type_symbol
_atom_site_label
_atom_site_fract_x
_atom_site_fract_y
_atom_site_fract_z
Si Si1 0.111417 0.791600 0.847201
Si Si2 0.337909 0.278375 0.790909
Si Si3 0.899838 0.156307 0.323817
Si Si4 0.470633 0.406032 0.337433
Si Si5 0.535538 0.358181 0.878102
Si Si6 0.814318 0.569434 0.636689
O O1 0.297293 0.587080 0.718909
O O2 0.131199 0.972408 0.706438
O O3 0.000000 0.500000 0.000000
O O4 0.000000 0.000000 0.000000
O O5 0.439614 0.391945 0.733984
O O6 0.441652 0.964480 0.690916
O O7 0.125187 0.193439 0.072103
O O8 0.759415 0.492505 0.416217
O O9 0.827096 0.922744 0.516903
O O10 0.510268 0.529084 0.181499
O O11 0.751412 0.398290 0.659383
O O12 0.360059 0.528939 0.094589
O O13 0.500000 0.000000 0.000000
O O14 0.000000 0.500000 0.500000
#
# Coordination Sequence:
#
# PCOD9043567 Si02
#       6
#     2   2   2   2   2   2
#     4  10  23  45  72 105 147 186 236 306 362 424
#     4  11  26  46  72 108 145 192 242 302 362 437
#     4  11  25  46  73 105 144 191 245 300 363 438
#     4  12  26  45  75 105 146 193 244 296 369 432
#     4  11  25  45  66 101 149 180 238 314 353 418
#     4  11  25  44  72 101 140 195 245 294 368 438
#
# _framework density 24.544108999999999
#
# number of rings (size 3 to 8) (size 9 to 14) (size 15 to 20)
#    0.000    1.000    1.667    4.000    4.667   11.333 
#    0.000    0.000    0.000    0.000    0.000    0.000 
#    0.000    0.000    0.000    0.000    0.000    0.000 
#
# Total GULP energy -67023.457635 kJ/mol
# GULP energy per Si atom -5585.288136 kJ/mol
# Density = 2.448825 g / cm^3
# Si number density = 24.544109 Si / 1000 Ang^3
#
#
#
# Elastic Constant Matrix: (Units=GPa)
#
#
# Indices 1 2 3 4 5 6 
#
# 1 185.2487 42.9379 52.2087 5.9680 -9.0007 3.1709
# 2 42.9379 123.4295 50.2716 26.6404 -14.6871 14.6909
# 3 52.2087 50.2716 119.4251 4.4008 -15.6627 4.9578
# 4 5.9680 26.6404 4.4008 41.8954 -1.8282 4.4773
# 5 -9.0007 -14.6871 -15.6627 -1.8282 62.5736 -5.1193
# 6 3.1709 14.6909 4.9578 4.4773 -5.1193 49.8381
#
#
#
# Elastic Compliance Matrix: (Units=1/GPa)
#
#
# Indices 1 2 3 4 5 6 
#
# 1 0.006327 -0.001360 -0.002201 0.000175 0.000062 0.000208
# 2 -0.001360 0.012085 -0.003982 -0.006768 0.001255 -0.002343
# 3 -0.002201 -0.003982 0.011150 0.001721 0.001608 0.000215
# 4 0.000175 -0.006768 0.001721 0.028030 -0.000374 -0.000744
# 5 0.000062 0.001255 0.001608 -0.000374 0.016776 0.001223
# 6 0.000208 -0.002343 0.000215 -0.000744 0.001223 0.020913
#
#
# Mechanical properties :
#
#
# Convention : Reuss Voigt Hill
#
# Bulk Modulus (GPa) = 69.06727 79.88220 74.47474
# Shear Modulus (GPa) = 43.40550 49.70710 46.55630
#
# Velocity S-wave (km/s) = 4.20988 4.50512 4.36000
# Velocity P-wave (km/s) = 7.19944 7.72519 7.46694
#
# Compressibility (1/GPa) = 0.01447864
#
# Stress axis : x y z
#
# Youngs Moduli (GPa) = 158.04318 82.74405 89.68627
#
# Poissons Ratio (x) = 0.11253 0.19736
# Poissons Ratio (y) = 0.21494 0.35709
# Poissons Ratio (z) = 0.34778 0.32945
#
# Static dielectric constant tensor:
#      x y z
#    x 2.110750 0.051010 0.061030 
#    y 0.051010 2.128040 0.298010 
#    z 0.061030 0.298010 2.452860 
# 
# From -- ./inp_files/576678.got.cif
#   From: 2010.05.17/outbox.cif.g08.bks.cpg/sg2_289_cif.got.tgz:576678.got - 2010.06.03 11:33:40.
