data_PCOD9043255
_publ_section_title
;
Structure prediction by ZEFSAII (Michael W. Deem and Ramdas Pophale) SiO2 
 PCOD9043255
Probable space group: P -1
;
_chemical_formula_sum "Si O2"
_cell_formula_units_Z 14
_cell_length_a 5.277992
_cell_length_b 10.908747
_cell_length_c 11.994094
_cell_angle_alpha 107.782224
_cell_angle_beta 90.456810
_cell_angle_gamma 60.363278
_cell_volume 562.954910
_symmetry_space_group_name_H-M "P -1"
_symmetry_group_IT_number 2
_symmetry_cell_setting 'triclinic'
loop_
_space_group_symop_operation_xyz
x,y,z
-x,-y,-z
loop_
_atom_site_type_symbol
_atom_site_label
_atom_site_fract_x
_atom_site_fract_y
_atom_site_fract_z
Si Si1 0.781079 0.839167 0.814727
Si Si2 0.358024 0.513966 0.278441
Si Si3 0.121048 0.089233 0.950759
Si Si4 0.337426 0.410822 0.014654
Si Si5 0.299783 0.355515 0.419350
Si Si6 0.286589 0.878325 0.202327
Si Si7 0.348528 0.293076 0.644953
O O1 0.785426 0.724722 0.696480
O O2 0.448946 0.962311 0.884815
O O3 0.864329 0.946431 0.777488
O O4 0.931402 0.786736 0.921926
O O5 0.371796 0.411886 0.147929
O O6 0.471013 0.417757 0.365872
O O7 0.556572 0.587802 0.282560
O O8 0.004124 0.638793 0.324119
O O9 0.970478 0.152046 0.847515
O O10 0.000000 0.000000 0.000000
O O11 0.500000 0.500000 0.000000
O O12 0.472008 0.244466 0.916826
O O13 0.000000 0.500000 0.000000
O O14 0.436429 0.262382 0.506336
O O15 0.000000 0.500000 0.500000
O O16 0.442795 0.844138 0.311663
#
# Coordination Sequence:
#
# PCOD9043255 Si02
#       7
#     2   2   2   2   2   2   2
#     4  10  23  45  69  99 140 184 238 287 365 420
#     4  11  23  44  68 101 143 180 239 289 350 416
#     4   9  22  42  64 102 138 182 225 287 357 433
#     4  12  24  40  67 107 142 182 227 290 358 420
#     4  10  25  47  72  98 137 190 246 293 346 422
#     4  11  24  40  69 101 147 174 235 288 364 420
#     4  11  24  46  68 103 137 187 235 292 347 419
#
# _framework density 24.868780000000001
#
# number of rings (size 3 to 8) (size 9 to 14) (size 15 to 20)
#    0.000    1.429    2.857    0.429   10.000    2.857 
#   15.429    0.714    0.000    0.000    0.000    0.000 
#    0.000    0.000    0.000    0.000    0.000    0.000 
#
# Total GULP energy -78178.388978 kJ/mol
# GULP energy per Si atom -5584.170641 kJ/mol
# Density = 2.481218 g / cm^3
# Si number density = 24.868780 Si / 1000 Ang^3
#
#
#
# Elastic Constant Matrix: (Units=GPa)
#
#
# Indices 1 2 3 4 5 6 
#
# 1 77.5989 9.4108 4.5293 0.8313 17.7324 -7.9318
# 2 9.4108 58.6213 24.6117 -12.9819 4.2968 -6.7216
# 3 4.5293 24.6117 147.8328 -23.9970 19.9639 -3.3592
# 4 0.8313 -12.9819 -23.9970 55.0859 6.0250 10.7241
# 5 17.7324 4.2968 19.9639 6.0250 27.7971 -3.3866
# 6 -7.9318 -6.7216 -3.3592 10.7241 -3.3866 38.5735
#
#
#
# Elastic Compliance Matrix: (Units=1/GPa)
#
#
# Indices 1 2 3 4 5 6 
#
# 1 0.015658 -0.001964 0.001448 0.000734 -0.010657 0.001864
# 2 -0.001964 0.019388 -0.002563 0.003164 -0.000365 0.001840
# 3 0.001448 -0.002563 0.008916 0.004390 -0.008041 -0.001299
# 4 0.000734 0.003164 0.004390 0.023087 -0.009870 -0.006201
# 5 -0.010657 -0.000365 -0.008041 -0.009870 0.051267 0.004290
# 6 0.001864 0.001840 -0.001299 -0.006201 0.004290 0.028616
#
#
# Mechanical properties :
#
#
# Convention : Reuss Voigt Hill
#
# Bulk Modulus (GPa) = 26.45202 40.12854 33.29028
# Shear Modulus (GPa) = 30.17648 40.65806 35.41727
#
# Velocity S-wave (km/s) = 3.48721 4.04778 3.77791
# Velocity P-wave (km/s) = 5.18400 6.16581 5.69610
#
# Compressibility (1/GPa) = 0.03780429
#
# Stress axis : x y z
#
# Youngs Moduli (GPa) = 63.86330 51.57719 112.16143
#
# Poissons Ratio (x) = 0.10131 -0.16241
# Poissons Ratio (y) = 0.12544 0.28747
# Poissons Ratio (z) = -0.09248 0.13219
#
# Static dielectric constant tensor:
#      x y z
#    x 2.133520 0.013430 0.028200 
#    y 0.013430 2.091110 -0.087250 
#    z 0.028200 -0.087250 2.002570 
# 
# From -- ./inp_files/365047.got.cif
#   From: 2010.05.17/outbox.cif.g08.bks.cpg/sg2_183_cif.got.tgz:365047.got - 2010.06.03 11:33:40.
