data_PCOD9043440
_publ_section_title
;
Structure prediction by ZEFSAII (Michael W. Deem and Ramdas Pophale) SiO2 
 PCOD9043440
Probable space group: P -1
;
_chemical_formula_sum "Si O2"
_cell_formula_units_Z 14
_cell_length_a 19.932056
_cell_length_b 7.371239
_cell_length_c 10.436087
_cell_angle_alpha 49.810372
_cell_angle_beta 32.958064
_cell_angle_gamma 51.449111
_cell_volume 624.777540
_symmetry_space_group_name_H-M "P -1"
_symmetry_group_IT_number 2
_symmetry_cell_setting 'triclinic'
loop_
_space_group_symop_operation_xyz
x,y,z
-x,-y,-z
loop_
_atom_site_type_symbol
_atom_site_label
_atom_site_fract_x
_atom_site_fract_y
_atom_site_fract_z
Si Si1 0.401180 0.104266 0.499751
Si Si2 0.288440 0.426825 0.149691
Si Si3 0.446030 0.053096 0.919114
Si Si4 0.853158 0.043358 0.941064
Si Si5 0.321663 0.597089 0.286389
Si Si6 0.025919 0.608557 0.771678
Si Si7 0.960717 0.696216 0.359246
O O1 0.384397 0.394624 0.379886
O O2 0.500000 0.000000 0.500000
O O3 0.261129 0.060781 0.769291
O O4 0.454546 0.972214 0.342943
O O5 0.364391 0.321285 0.950807
O O6 0.211167 0.696071 0.127797
O O7 0.359632 0.463501 0.149919
O O8 0.190629 0.249243 0.415866
O O9 0.363480 0.851891 0.111428
O O10 0.500000 0.000000 0.000000
O O11 0.963387 0.091803 0.836810
O O12 0.927031 0.860055 0.802506
O O13 0.170721 0.635397 0.521076
O O14 0.004642 0.433062 0.771707
O O15 0.000000 0.500000 0.000000
O O16 0.000000 0.500000 0.500000
#
# Coordination Sequence:
#
# PCOD9043440 Si02
#       7
#     2   2   2   2   2   2   2
#     4  12  27  45  69 101 141 183 226 283 338 393
#     4  10  23  45  71 103 133 181 226 281 339 404
#     4  12  26  44  71  95 132 190 234 266 336 403
#     4  11  24  44  70 105 142 169 227 289 335 405
#     4  11  24  48  70  98 142 176 230 283 334 411
#     4  11  23  43  71 103 136 178 213 279 362 393
#     4   9  22  41  68 100 134 168 225 273 335 402
#
# _framework density 22.407976999999999
#
# number of rings (size 3 to 8) (size 9 to 14) (size 15 to 20)
#    0.000    1.143    2.857    2.143    2.000   12.000 
#    0.000    0.000    0.000    0.000    0.000    0.000 
#    0.000    0.000    0.000    0.000    0.000    0.000 
#
# Total GULP energy -78263.401730 kJ/mol
# GULP energy per Si atom -5590.242981 kJ/mol
# Density = 2.235698 g / cm^3
# Si number density = 22.407977 Si / 1000 Ang^3
#
#
#
# Elastic Constant Matrix: (Units=GPa)
#
#
# Indices 1 2 3 4 5 6 
#
# 1 54.0761 5.2713 13.1500 -2.6713 9.6947 7.6077
# 2 5.2713 62.1057 26.8667 18.0789 -2.9045 -6.4291
# 3 13.1500 26.8667 125.8108 10.8277 -11.3595 13.9276
# 4 -2.6713 18.0789 10.8277 45.7170 11.7645 -4.0947
# 5 9.6947 -2.9045 -11.3595 11.7645 30.3660 -0.9321
# 6 7.6077 -6.4291 13.9276 -4.0947 -0.9321 48.8955
#
#
#
# Elastic Compliance Matrix: (Units=1/GPa)
#
#
# Indices 1 2 3 4 5 6 
#
# 1 0.022055 -0.003103 -0.002786 0.005671 -0.010663 -0.002774
# 2 -0.003103 0.020949 -0.003321 -0.008708 0.005235 0.003554
# 3 -0.002786 -0.003321 0.010007 -0.002860 0.005332 -0.002992
# 4 0.005671 -0.008708 -0.002860 0.030397 -0.015458 0.001038
# 5 -0.010663 0.005235 0.005332 -0.015458 0.044832 0.000389
# 6 -0.002774 0.003554 -0.002992 0.001038 0.000389 0.022297
#
#
# Mechanical properties :
#
#
# Convention : Reuss Voigt Hill
#
# Bulk Modulus (GPa) = 28.90927 36.95206 32.93067
# Shear Modulus (GPa) = 27.70283 38.10934 32.90608
#
# Velocity S-wave (km/s) = 3.51991 4.12843 3.83626
# Velocity P-wave (km/s) = 5.42670 6.26512 5.86092
#
# Compressibility (1/GPa) = 0.03459099
#
# Stress axis : x y z
#
# Youngs Moduli (GPa) = 45.34218 47.73482 99.92562
#
# Poissons Ratio (x) = 0.14814 0.27841
# Poissons Ratio (y) = 0.14071 0.33181
# Poissons Ratio (z) = 0.12633 0.15851
#
# Static dielectric constant tensor:
#      x y z
#    x 1.792660 -0.035470 -0.084790 
#    y -0.035470 1.846350 0.009430 
#    z -0.084790 0.009430 1.836120 
# 
# From -- ./inp_files/323498.got.cif
#   From: 2010.05.17/outbox.cif.g08.bks.cpg/sg2_162_cif.got.tgz:323498.got - 2010.06.03 11:33:40.
