data_PCOD9043438
_publ_section_title
;
Structure prediction by ZEFSAII (Michael W. Deem and Ramdas Pophale) SiO2 
 PCOD9043438
Probable space group: P -1
;
_chemical_formula_sum "Si O2"
_cell_formula_units_Z 14
_cell_length_a 9.076777
_cell_length_b 19.556894
_cell_length_c 5.231149
_cell_angle_alpha 109.969381
_cell_angle_beta 124.247169
_cell_angle_gamma 46.225463
_cell_volume 552.475722
_symmetry_space_group_name_H-M "P -1"
_symmetry_group_IT_number 2
_symmetry_cell_setting 'triclinic'
loop_
_space_group_symop_operation_xyz
x,y,z
-x,-y,-z
loop_
_atom_site_type_symbol
_atom_site_label
_atom_site_fract_x
_atom_site_fract_y
_atom_site_fract_z
Si Si1 0.702926 0.002237 0.277026
Si Si2 0.167245 0.568453 0.206124
Si Si3 0.581931 0.369621 0.593520
Si Si4 0.614578 0.115063 0.849494
Si Si5 0.105461 0.267211 0.467934
Si Si6 0.121363 0.810565 0.713030
Si Si7 0.814127 0.606276 0.568448
O O1 0.625824 0.070216 0.533968
O O2 0.745522 0.039101 0.111515
O O3 0.921438 0.899690 0.460420
O O4 0.500000 0.000000 0.000000
O O5 0.375807 0.461032 0.342765
O O6 0.260121 0.603242 0.134597
O O7 0.098105 0.638790 0.458250
O O8 0.930205 0.589998 0.936322
O O9 0.718267 0.276702 0.436862
O O10 0.435142 0.365650 0.656514
O O11 0.342650 0.190122 0.760203
O O12 0.731395 0.162792 0.991134
O O13 0.192784 0.309091 0.425567
O O14 0.999974 0.215041 0.242082
O O15 0.000000 0.500000 0.500000
#
# Coordination Sequence:
#
# PCOD9043438 Si02
#       7
#     2   2   2   2   2   2   2
#     4  12  27  55  82 114 156 201 256 329 397 463
#     4  10  23  46  65 101 152 189 251 305 378 450
#     4  10  23  45  71 102 146 197 246 312 373 458
#     4  12  28  50  81 115 156 202 261 321 396 464
#     4  11  26  46  72 109 147 201 254 314 382 456
#     4  11  26  49  78 108 152 202 258 316 389 466
#     4  12  25  41  71 103 147 200 248 310 375 447
#
# _framework density 25.340478000000001
#
# number of rings (size 3 to 8) (size 9 to 14) (size 15 to 20)
#    0.000    0.857    2.857    2.571    6.000    1.714 
#    2.571    0.000    0.000    0.000    0.000    0.000 
#    0.000    0.000    0.000    0.000    0.000    0.000 
#
# Total GULP energy -78311.812964 kJ/mol
# GULP energy per Si atom -5593.700926 kJ/mol
# Density = 2.528280 g / cm^3
# Si number density = 25.340478 Si / 1000 Ang^3
#
#
#
# Elastic Constant Matrix: (Units=GPa)
#
#
# Indices 1 2 3 4 5 6 
#
# 1 138.6832 42.2398 27.1891 6.9497 34.3583 35.1932
# 2 42.2398 156.3568 43.6190 4.1677 10.0655 5.2439
# 3 27.1891 43.6190 93.6978 19.2230 10.8190 5.2554
# 4 6.9497 4.1677 19.2230 31.4300 5.6066 3.7946
# 5 34.3583 10.0655 10.8190 5.6066 44.8707 -0.6608
# 6 35.1932 5.2439 5.2554 3.7946 -0.6608 58.4720
#
#
#
# Elastic Compliance Matrix: (Units=1/GPa)
#
#
# Indices 1 2 3 4 5 6 
#
# 1 0.011986 -0.002115 -0.001267 0.000791 -0.008601 -0.007059
# 2 -0.002115 0.007820 -0.003404 0.001321 0.000533 0.000798
# 3 -0.001267 -0.003404 0.014320 -0.007932 -0.000724 0.000287
# 4 0.000791 0.001321 -0.007932 0.037257 -0.003680 -0.002341
# 5 -0.008601 0.000533 -0.000724 -0.003680 0.029472 0.005766
# 6 -0.007059 0.000798 0.000287 -0.002341 0.005766 0.021471
#
#
# Mechanical properties :
#
#
# Convention : Reuss Voigt Hill
#
# Bulk Modulus (GPa) = 48.65303 68.31483 58.48393
# Shear Modulus (GPa) = 35.02663 45.33388 40.18026
#
# Velocity S-wave (km/s) = 3.72188 4.23423 3.98630
# Velocity P-wave (km/s) = 6.14095 7.13599 6.65709
#
# Compressibility (1/GPa) = 0.02055370
#
# Stress axis : x y z
#
# Youngs Moduli (GPa) = 83.43267 127.86974 69.83361
#
# Poissons Ratio (x) = 0.27048 0.08845
# Poissons Ratio (y) = 0.17648 0.23773
# Poissons Ratio (z) = 0.10568 0.43530
#
# Static dielectric constant tensor:
#      x y z
#    x 2.167230 0.094310 -0.029640 
#    y 0.094310 2.021110 -0.044790 
#    z -0.029640 -0.044790 2.013240 
# 
# From -- ./inp_files/48710.got.cif
#   From: 2010.05.17/outbox.cif.g08.bks.cpg/sg2_25_cif.got.tgz:48710.got - 2010.06.03 11:33:40.
