data_PCOD9043324
_publ_section_title
;
Structure prediction by ZEFSAII (Michael W. Deem and Ramdas Pophale) SiO2 
 PCOD9043324
Probable space group: P -1
;
_chemical_formula_sum "Si O2"
_cell_formula_units_Z 16
_cell_length_a 12.037146
_cell_length_b 7.919633
_cell_length_c 18.972180
_cell_angle_alpha 53.155285
_cell_angle_beta 143.271072
_cell_angle_gamma 99.260717
_cell_volume 644.151045
_symmetry_space_group_name_H-M "P -1"
_symmetry_group_IT_number 2
_symmetry_cell_setting 'triclinic'
loop_
_space_group_symop_operation_xyz
x,y,z
-x,-y,-z
loop_
_atom_site_type_symbol
_atom_site_label
_atom_site_fract_x
_atom_site_fract_y
_atom_site_fract_z
Si Si1 0.937863 0.371745 0.942553
Si Si2 0.250833 0.911522 0.745604
Si Si3 0.478144 0.635389 0.221814
Si Si4 0.898546 0.120531 0.640111
Si Si5 0.811181 0.418667 0.313043
Si Si6 0.253942 0.254101 0.918642
Si Si7 0.312738 0.832750 0.334982
Si Si8 0.774760 0.745028 0.629208
O O1 0.704827 0.411149 0.837945
O O2 0.882587 0.535789 0.802622
O O3 0.166491 0.031963 0.143514
O O4 0.000000 0.500000 0.000000
O O5 0.199301 0.740085 0.716902
O O6 0.539032 0.756697 0.934340
O O7 0.146577 0.969717 0.757957
O O8 0.075723 0.211427 0.539847
O O9 0.702794 0.452971 0.438352
O O10 0.613197 0.493954 0.251356
O O11 0.334052 0.963001 0.056993
O O12 0.884144 0.086764 0.724603
O O13 0.794332 0.979051 0.590831
O O14 0.737673 0.697177 0.172191
O O15 0.968712 0.527025 0.722808
O O16 0.500000 0.500000 0.500000
O O17 0.493556 0.882694 0.440576
#
# Coordination Sequence:
#
# PCOD9043324 Si02
#       8
#     2   2   2   2   2   2   2   2
#     4  12  26  45  75 103 133 194 238 281 351 421
#     4  10  24  45  72 104 135 187 232 281 347 412
#     4  11  26  45  69 106 145 175 231 297 343 413
#     4  11  23  48  70  98 144 180 228 293 338 412
#     4  10  23  45  70 104 140 177 239 281 338 425
#     4  12  26  44  72 103 142 183 224 292 350 408
#     4  12  27  45  69 102 140 185 226 290 357 402
#     4  12  26  48  70 104 140 180 243 288 335 426
#
# _framework density 24.838896999999999
#
# number of rings (size 3 to 8) (size 9 to 14) (size 15 to 20)
#    0.000    0.750    3.750    2.625    5.250    4.000 
#    4.500    0.000    0.000    0.000    0.000    0.000 
#    0.000    0.000    0.000    0.000    0.000    0.000 
#
# Total GULP energy -89635.769224 kJ/mol
# GULP energy per Si atom -5602.235576 kJ/mol
# Density = 2.478236 g / cm^3
# Si number density = 24.838897 Si / 1000 Ang^3
#
#
#
# Elastic Constant Matrix: (Units=GPa)
#
#
# Indices 1 2 3 4 5 6 
#
# 1 83.4385 18.1331 8.2112 4.4236 -5.7771 6.4348
# 2 18.1331 50.2938 18.1619 -5.5496 -7.0773 12.7342
# 3 8.2112 18.1619 116.3957 -16.5873 -9.8229 -0.0643
# 4 4.4236 -5.5496 -16.5873 43.4640 3.2621 -3.6729
# 5 -5.7771 -7.0773 -9.8229 3.2621 36.6330 -11.3148
# 6 6.4348 12.7342 -0.0643 -3.6729 -11.3148 20.3590
#
#
#
# Elastic Compliance Matrix: (Units=1/GPa)
#
#
# Indices 1 2 3 4 5 6 
#
# 1 0.013276 -0.004384 -0.000504 -0.002286 0.000891 -0.001373
# 2 -0.004384 0.026834 -0.003858 0.001161 -0.001618 -0.016100
# 3 -0.000504 -0.003858 0.009998 0.003563 0.003068 0.004952
# 4 -0.002286 0.001161 0.003563 0.025132 -0.000020 0.004531
# 5 0.000891 -0.001618 0.003068 -0.000020 0.034017 0.019642
# 6 -0.001373 -0.016100 0.004952 0.004531 0.019642 0.071372
#
#
# Mechanical properties :
#
#
# Convention : Reuss Voigt Hill
#
# Bulk Modulus (GPa) = 30.65877 37.68225 34.17051
# Shear Modulus (GPa) = 23.92425 33.79931 28.86178
#
# Velocity S-wave (km/s) = 3.10688 3.69282 3.41245
# Velocity P-wave (km/s) = 5.02395 5.77808 5.41416
#
# Compressibility (1/GPa) = 0.03261710
#
# Stress axis : x y z
#
# Youngs Moduli (GPa) = 75.32421 37.26635 100.01751
#
# Poissons Ratio (x) = 0.16337 0.05039
# Poissons Ratio (y) = 0.33021 0.38584
# Poissons Ratio (z) = 0.03795 0.14376
#
# Static dielectric constant tensor:
#      x y z
#    x 1.955380 -0.021060 0.014310 
#    y -0.021060 2.000470 -0.032710 
#    z 0.014310 -0.032710 1.978350 
# 
# From -- ./inp_files/593976.got.cif
#   From: 2010.05.17/outbox.cif.g08.bks.cpg/sg2_297_cif.got.tgz:593976.got - 2010.06.03 11:33:40.
