data_PCOD9043989
_publ_section_title
;
Structure prediction by ZEFSAII (Michael W. Deem and Ramdas Pophale) SiO2 
 PCOD9043989
Probable space group: P -1
;
_chemical_formula_sum "Si O2"
_cell_formula_units_Z 13
_cell_length_a 15.185885
_cell_length_b 4.770587
_cell_length_c 14.183821
_cell_angle_alpha 111.198124
_cell_angle_beta 148.791349
_cell_angle_gamma 82.493742
_cell_volume 461.224514
_symmetry_space_group_name_H-M "P -1"
_symmetry_group_IT_number 2
_symmetry_cell_setting 'triclinic'
loop_
_space_group_symop_operation_xyz
x,y,z
-x,-y,-z
loop_
_atom_site_type_symbol
_atom_site_label
_atom_site_fract_x
_atom_site_fract_y
_atom_site_fract_z
Si Si1 0.325385 0.771315 0.254596
Si Si2 0.074282 0.943841 0.901838
Si Si3 0.449642 0.296400 0.708867
Si Si4 0.214910 0.552880 0.843612
Si Si5 0.846056 0.349183 0.718543
Si Si6 0.690257 0.249758 0.249419
Si Si7 0.000000 0.000000 0.500000
O O1 0.410305 0.580845 0.236401
O O2 0.199014 0.622290 0.210602
O O3 0.500000 0.000000 0.500000
O O4 0.231416 0.962355 0.124647
O O5 0.113407 0.748656 0.827623
O O6 0.891203 0.693930 0.753607
O O7 0.023473 0.246159 0.861729
O O8 0.352804 0.531160 0.685223
O O9 0.314436 0.941599 0.513531
O O10 0.578442 0.295510 0.914887
O O11 0.197604 0.534381 0.711442
O O12 0.128596 0.169997 0.732604
O O13 0.832400 0.102988 0.399673
O O14 0.500000 0.000000 0.000000
#
# Coordination Sequence:
#
# PCOD9043989 Si02
#       7
#     2   2   2   2   2   2   1
#     4   9  21  45  72 104 144 191 245 309 374 447
#     4  11  25  44  73 107 147 192 248 308 376 447
#     4  10  23  46  68 104 142 196 250 303 381 441
#     4  11  26  43  68 102 144 193 246 306 371 448
#     4  11  24  45  73 106 146 192 251 309 375 443
#     4  12  26  46  73 104 149 193 247 311 374 450
#     4  12  26  44  70 102 146 186 250 298 372 444
#
# _framework density 28.185839000000001
#
# number of rings (size 3 to 8) (size 9 to 14) (size 15 to 20)
#    0.000    1.231    1.538    2.769    4.308    1.231 
#    0.000   18.462    0.000    0.000    0.000    0.000 
#    0.000    0.000    0.000    0.000    0.000    0.000 
#
# Total GULP energy -72700.361001 kJ/mol
# GULP energy per Si atom -5592.335462 kJ/mol
# Density = 2.812169 g / cm^3
# Si number density = 28.185839 Si / 1000 Ang^3
#
#
#
# Elastic Constant Matrix: (Units=GPa)
#
#
# Indices 1 2 3 4 5 6 
#
# 1 177.5471 47.6260 26.1602 -12.0284 -10.1594 -31.2684
# 2 47.6260 83.8071 -2.4826 -2.0832 -12.8029 -17.0948
# 3 26.1602 -2.4826 167.1968 9.5074 -12.0126 -18.4700
# 4 -12.0284 -2.0832 9.5074 27.3031 -20.7864 -6.7560
# 5 -10.1594 -12.8029 -12.0126 -20.7864 49.0207 -5.0174
# 6 -31.2684 -17.0948 -18.4700 -6.7560 -5.0174 59.4695
#
#
#
# Elastic Compliance Matrix: (Units=1/GPa)
#
#
# Indices 1 2 3 4 5 6 
#
# 1 0.008182 -0.002798 -0.000955 0.008518 0.004811 0.004574
# 2 -0.002798 0.015707 0.001347 0.005847 0.006813 0.004702
# 3 -0.000955 0.001347 0.006529 -0.000923 0.001561 0.001940
# 4 0.008518 0.005847 -0.000923 0.072424 0.035526 0.017098
# 5 0.004811 0.006813 0.001561 0.035526 0.039890 0.012374
# 6 0.004574 0.004702 0.001940 0.017098 0.012374 0.024161
#
#
# Mechanical properties :
#
#
# Convention : Reuss Voigt Hill
#
# Bulk Modulus (GPa) = 39.05168 63.46201 51.25685
# Shear Modulus (GPa) = 27.74088 50.97515 39.35801
#
# Velocity S-wave (km/s) = 3.14062 4.25730 3.74086
# Velocity P-wave (km/s) = 5.19966 6.83598 6.07318
#
# Compressibility (1/GPa) = 0.02560709
#
# Stress axis : x y z
#
# Youngs Moduli (GPa) = 122.22632 63.66478 153.15433
#
# Poissons Ratio (x) = 0.17813 0.14627
# Poissons Ratio (y) = 0.34198 -0.20636
# Poissons Ratio (z) = 0.11673 -0.08578
#
# Static dielectric constant tensor:
#      x y z
#    x 2.164870 -0.013960 0.082330 
#    y -0.013960 1.876400 -0.013900 
#    z 0.082330 -0.013900 2.221530 
# 
# From -- ./inp_files/134539.got.cif
#   From: 2010.05.17/outbox.cif.g08.bks.cpg/sg2_68_cif.got.tgz:134539.got - 2010.06.03 11:33:40.
