data_PCOD9043053
_publ_section_title
;
Structure prediction by ZEFSAII (Michael W. Deem and Ramdas Pophale) SiO2 
 PCOD9043053
Probable space group: P -1
;
_chemical_formula_sum "Si O2"
_cell_formula_units_Z 13
_cell_length_a 7.546329
_cell_length_b 13.350008
_cell_length_c 7.146640
_cell_angle_alpha 59.605438
_cell_angle_beta 103.719560
_cell_angle_gamma 68.192745
_cell_volume 488.635296
_symmetry_space_group_name_H-M "P -1"
_symmetry_group_IT_number 2
_symmetry_cell_setting 'triclinic'
loop_
_space_group_symop_operation_xyz
x,y,z
-x,-y,-z
loop_
_atom_site_type_symbol
_atom_site_label
_atom_site_fract_x
_atom_site_fract_y
_atom_site_fract_z
Si Si1 0.632579 0.470064 0.865920
Si Si2 0.294219 0.228578 0.811501
Si Si3 0.343508 0.729343 0.254183
Si Si4 0.000000 0.000000 0.500000
Si Si5 0.476346 0.147380 0.334424
Si Si6 0.924318 0.903525 0.251895
Si Si7 0.933592 0.678133 0.680011
O O1 0.491263 0.599555 0.564816
O O2 0.678762 0.338727 0.876078
O O3 0.500000 0.500000 0.000000
O O4 0.868352 0.435521 0.029058
O O5 0.507650 0.213566 0.798245
O O6 0.081959 0.353127 0.513419
O O7 0.269850 0.100491 0.885517
O O8 0.322749 0.233285 0.033339
O O9 0.118280 0.831063 0.219380
O O10 0.729796 0.099471 0.424115
O O11 0.097824 0.969207 0.766018
O O12 0.311731 0.246056 0.366567
O O13 0.500000 0.000000 0.500000
O O14 0.975085 0.804144 0.546738
#
# Coordination Sequence:
#
# PCOD9043053 Si02
#       7
#     2   2   2   1   2   2   2
#     4  11  23  44  77 111 146 193 243 292 366 433
#     4  10  25  43  69 102 141 187 237 298 357 424
#     4  11  24  45  74 110 149 191 241 300 355 434
#     4  12  26  42  78 102 132 198 242 292 370 422
#     4  12  25  46  70 100 141 188 244 302 362 424
#     4  10  23  46  68 107 147 188 241 297 355 425
#     4  10  23  45  68 102 150 185 234 301 350 430
#
# _framework density 26.604710000000001
#
# number of rings (size 3 to 8) (size 9 to 14) (size 15 to 20)
#    0.923    0.308    3.077    1.846    2.154    5.538 
#    0.000   13.077    0.000    0.000    0.000    0.000 
#    0.000    0.000    0.000    0.000    0.000    0.000 
#
# Total GULP energy -72435.520822 kJ/mol
# GULP energy per Si atom -5571.963140 kJ/mol
# Density = 2.654416 g / cm^3
# Si number density = 26.604710 Si / 1000 Ang^3
#
#
#
# Elastic Constant Matrix: (Units=GPa)
#
#
# Indices 1 2 3 4 5 6 
#
# 1 120.8985 47.1420 36.2545 19.4584 0.8838 -15.5454
# 2 47.1420 114.1001 35.5975 27.2095 -16.3985 -9.8840
# 3 36.2545 35.5975 129.9887 53.1460 12.2334 9.4642
# 4 19.4584 27.2095 53.1460 45.8033 3.8328 -4.2847
# 5 0.8838 -16.3985 12.2334 3.8328 49.8279 9.8461
# 6 -15.5454 -9.8840 9.4642 -4.2847 9.8461 27.0687
#
#
#
# Elastic Compliance Matrix: (Units=1/GPa)
#
#
# Indices 1 2 3 4 5 6 
#
# 1 0.011419 -0.003887 -0.003383 0.002281 -0.002313 0.007524
# 2 -0.003887 0.012544 -0.000481 -0.005653 0.004773 -0.000115
# 3 -0.003383 -0.000481 0.017797 -0.019918 -0.000716 -0.011233
# 4 0.002281 -0.005653 -0.019918 0.049091 -0.003824 0.015371
# 5 -0.002313 0.004773 -0.000716 -0.003824 0.023854 -0.008617
# 6 0.007524 -0.000115 -0.011233 0.015371 -0.008617 0.050717
#
#
# Mechanical properties :
#
#
# Convention : Reuss Voigt Hill
#
# Bulk Modulus (GPa) = 38.08248 66.99725 52.53987
# Shear Modulus (GPa) = 26.36081 40.93954 33.65017
#
# Velocity S-wave (km/s) = 3.15116 3.92702 3.56029
# Velocity P-wave (km/s) = 5.25215 6.76751 6.05740
#
# Compressibility (1/GPa) = 0.02625879
#
# Stress axis : x y z
#
# Youngs Moduli (GPa) = 87.57544 79.71764 56.18966
#
# Poissons Ratio (x) = 0.30986 0.19008
# Poissons Ratio (y) = 0.34041 0.02701
# Poissons Ratio (z) = 0.29625 0.03833
#
# Static dielectric constant tensor:
#      x y z
#    x 2.067590 0.034040 0.008160 
#    y 0.034040 2.286550 -0.237210 
#    z 0.008160 -0.237210 2.292930 
# 
# From -- ./inp_files/34629.got.cif
#   From: 2010.05.17/outbox.cif.g08.bks.cpg/sg2_18_cif.got.tgz:34629.got - 2010.06.03 11:33:40.
