data_PCOD9043877
_publ_section_title
;
Structure prediction by ZEFSAII (Michael W. Deem and Ramdas Pophale) SiO2 
 PCOD9043877
Probable space group: P -1
;
_chemical_formula_sum "Si O2"
_cell_formula_units_Z 16
_cell_length_a 9.903998
_cell_length_b 12.821679
_cell_length_c 13.751118
_cell_angle_alpha 41.311663
_cell_angle_beta 146.414398
_cell_angle_gamma 119.409166
_cell_volume 592.726490
_symmetry_space_group_name_H-M "P -1"
_symmetry_group_IT_number 2
_symmetry_cell_setting 'triclinic'
loop_
_space_group_symop_operation_xyz
x,y,z
-x,-y,-z
loop_
_atom_site_type_symbol
_atom_site_label
_atom_site_fract_x
_atom_site_fract_y
_atom_site_fract_z
Si Si1 0.045987 0.297349 0.619739
Si Si2 0.290874 0.230952 0.005563
Si Si3 0.439027 0.113187 0.499463
Si Si4 0.616772 0.712900 0.354106
Si Si5 0.464679 0.400553 0.172938
Si Si6 0.053847 0.385000 0.209212
Si Si7 0.735639 0.047041 0.249625
Si Si8 0.924881 0.083755 0.133071
O O1 0.752723 0.401580 0.332747
O O2 0.256365 0.326927 0.650746
O O3 0.078183 0.098724 0.769644
O O4 0.056757 0.322462 0.725521
O O5 0.367340 0.331938 0.066549
O O6 0.515503 0.164058 0.105747
O O7 0.321275 0.050732 0.202448
O O8 0.500183 0.257953 0.377257
O O9 0.257962 0.207758 0.415609
O O10 0.223919 0.069952 0.334622
O O11 0.794060 0.577487 0.633588
O O12 0.672834 0.885859 0.287932
O O13 0.310200 0.764719 0.165477
O O14 0.236040 0.573118 0.950138
O O15 0.000000 0.500000 0.000000
O O16 0.795053 0.126310 0.131930
O O17 0.000000 0.000000 0.500000
#
# Coordination Sequence:
#
# PCOD9043877 Si02
#       8
#     2   2   2   2   2   2   2   2
#     4  11  22  38  65  96 131 159 203 267 316 366
#     4  12  20  38  65  95 126 159 205 261 317 364
#     4  11  22  42  66  90 123 174 211 251 313 373
#     4  11  20  39  62  95 124 160 212 257 308 373
#     4  11  26  43  58  92 134 165 212 258 312 372
#     4  10  23  46  64  83 124 172 213 253 307 380
#     4  11  17  31  62  96 122 154 202 258 313 361
#     4  11  19  35  64  99 126 154 207 268 303 370
#
# _framework density 26.993901999999999
#
# number of rings (size 3 to 8) (size 9 to 14) (size 15 to 20)
#    0.000    1.000    6.250    1.875    0.000    1.000 
#    6.750    1.875    0.000    0.000    0.000    0.000 
#    0.000    0.000    0.000    0.000    0.000    0.000 
#
# Total GULP energy -89416.254995 kJ/mol
# GULP energy per Si atom -5588.515937 kJ/mol
# Density = 2.693246 g / cm^3
# Si number density = 26.993902 Si / 1000 Ang^3
#
#
#
# Elastic Constant Matrix: (Units=GPa)
#
#
# Indices 1 2 3 4 5 6 
#
# 1 78.8450 24.7524 4.7145 -9.5897 -19.2386 -25.7822
# 2 24.7524 92.0566 15.1531 -3.4717 -0.5145 -14.2682
# 3 4.7145 15.1531 121.9085 -1.6116 -2.4076 -15.5838
# 4 -9.5897 -3.4717 -1.6116 28.6268 -7.6304 -1.0673
# 5 -19.2386 -0.5145 -2.4076 -7.6304 52.6561 -1.5195
# 6 -25.7822 -14.2682 -15.5838 -1.0673 -1.5195 48.3850
#
#
#
# Elastic Compliance Matrix: (Units=1/GPa)
#
#
# Indices 1 2 3 4 5 6 
#
# 1 0.020747 -0.003704 0.001360 0.009461 0.009292 0.010902
# 2 -0.003704 0.012238 -0.001253 -0.000123 -0.001275 0.001189
# 3 0.001360 -0.001253 0.008759 0.001226 0.001156 0.003240
# 4 0.009461 -0.000123 0.001226 0.040971 0.009639 0.006606
# 5 0.009292 -0.001275 0.001156 0.009639 0.023994 0.005914
# 6 0.010902 0.001189 0.003240 0.006606 0.005914 0.028202
#
#
# Mechanical properties :
#
#
# Convention : Reuss Voigt Hill
#
# Bulk Modulus (GPa) = 28.94272 42.45001 35.69637
# Shear Modulus (GPa) = 32.54748 42.47960 37.51354
#
# Velocity S-wave (km/s) = 3.47614 3.97126 3.73192
# Velocity P-wave (km/s) = 5.18233 6.06529 5.64112
#
# Compressibility (1/GPa) = 0.03455100
#
# Stress axis : x y z
#
# Youngs Moduli (GPa) = 48.19868 81.71570 114.16591
#
# Poissons Ratio (x) = 0.30268 -0.15529
# Poissons Ratio (y) = 0.17853 0.14302
# Poissons Ratio (z) = -0.06556 0.10237
#
# Static dielectric constant tensor:
#      x y z
#    x 2.113370 0.003780 -0.082000 
#    y 0.003780 2.226660 0.117390 
#    z -0.082000 0.117390 2.465780 
# 
# From -- ./inp_files/522362.got.cif
#   From: 2010.05.17/outbox.cif.g08.bks.cpg/sg2_262_cif.got.tgz:522362.got - 2010.06.03 11:33:40.
