data_PCOD9043859
_publ_section_title
;
Structure prediction by ZEFSAII (Michael W. Deem and Ramdas Pophale) SiO2 
 PCOD9043859
Probable space group: P -1
;
_chemical_formula_sum "Si O2"
_cell_formula_units_Z 16
_cell_length_a 14.333509
_cell_length_b 11.739137
_cell_length_c 7.128863
_cell_angle_alpha 122.259236
_cell_angle_beta 105.985062
_cell_angle_gamma 119.008748
_cell_volume 613.449294
_symmetry_space_group_name_H-M "P -1"
_symmetry_group_IT_number 2
_symmetry_cell_setting 'triclinic'
loop_
_space_group_symop_operation_xyz
x,y,z
-x,-y,-z
loop_
_atom_site_type_symbol
_atom_site_label
_atom_site_fract_x
_atom_site_fract_y
_atom_site_fract_z
Si Si1 0.815851 0.781255 0.224029
Si Si2 0.998310 0.565478 0.849226
Si Si3 0.715968 0.959472 0.446181
Si Si4 0.500562 0.895706 0.741550
Si Si5 0.810934 0.128060 0.215902
Si Si6 0.628003 0.328976 0.880769
Si Si7 0.165610 0.147992 0.133286
Si Si8 0.726832 0.463138 0.443611
O O1 0.753954 0.840868 0.361701
O O2 0.749025 0.568625 0.075731
O O3 0.779946 0.756227 0.963231
O O4 0.000000 0.000000 0.500000
O O5 0.953661 0.384429 0.543022
O O6 0.866816 0.535228 0.690807
O O7 0.000000 0.500000 0.000000
O O8 0.156440 0.819905 0.172723
O O9 0.541859 0.793566 0.275010
O O10 0.744108 0.032672 0.307205
O O11 0.839693 0.017494 0.036387
O O12 0.405539 0.816368 0.429546
O O13 0.410124 0.679563 0.607927
O O14 0.500000 0.000000 0.000000
O O15 0.674921 0.044884 0.948301
O O16 0.688506 0.342274 0.124437
O O17 0.258179 0.368393 0.478101
O O18 0.000000 0.000000 0.000000
#
# Coordination Sequence:
#
# PCOD9043859 Si02
#       8
#     2   2   2   2   2   2   2   2
#     4  11  23  43  75 113 163 213 264 336 405 478
#     4  10  23  49  81 115 158 213 270 335 402 480
#     4  10  23  45  78 117 158 208 275 333 402 482
#     4  12  26  49  78 113 163 212 270 334 403 478
#     4  10  23  48  78 114 164 215 269 341 401 478
#     4  12  27  47  78 119 159 211 266 338 410 483
#     4  11  25  47  77 115 157 209 273 335 400 481
#     4  12  25  49  82 115 158 211 272 330 403 488
#
# _framework density 26.082024000000001
#
# number of rings (size 3 to 8) (size 9 to 14) (size 15 to 20)
#    0.000    1.000    3.750    1.875    0.000    5.000 
#    4.500    1.250    0.000    0.000    0.000    0.000 
#    0.000    0.000    0.000    0.000    0.000    0.000 
#
# Total GULP energy -89330.796345 kJ/mol
# GULP energy per Si atom -5583.174772 kJ/mol
# Density = 2.602266 g / cm^3
# Si number density = 26.082024 Si / 1000 Ang^3
#
#
#
# Elastic Constant Matrix: (Units=GPa)
#
#
# Indices 1 2 3 4 5 6 
#
# 1 141.6360 30.4678 61.4106 11.5814 -17.5671 0.2798
# 2 30.4678 137.1817 57.0588 -12.9097 -7.8777 -4.4279
# 3 61.4106 57.0588 178.3339 5.1587 -8.9911 -10.2891
# 4 11.5814 -12.9097 5.1587 44.0523 -0.8649 -5.4252
# 5 -17.5671 -7.8777 -8.9911 -0.8649 40.3458 8.0432
# 6 0.2798 -4.4279 -10.2891 -5.4252 8.0432 39.2058
#
#
#
# Elastic Compliance Matrix: (Units=1/GPa)
#
#
# Indices 1 2 3 4 5 6 
#
# 1 0.009078 -0.001009 -0.002666 -0.002541 0.003495 -0.001947
# 2 -0.001009 0.008936 -0.002534 0.003276 0.000679 0.000666
# 3 -0.002666 -0.002534 0.007435 -0.000715 -0.000344 0.001656
# 4 -0.002541 0.003276 -0.000715 0.024865 -0.000854 0.003816
# 5 0.003495 0.000679 -0.000344 -0.000854 0.027501 -0.005799
# 6 -0.001947 0.000666 0.001656 0.003816 -0.005799 0.027748
#
#
# Mechanical properties :
#
#
# Convention : Reuss Voigt Hill
#
# Bulk Modulus (GPa) = 76.73172 83.89176 80.31174
# Shear Modulus (GPa) = 40.87430 45.26841 43.07135
#
# Velocity S-wave (km/s) = 3.96301 4.17059 4.06813
# Velocity P-wave (km/s) = 7.10098 7.44488 7.27496
#
# Compressibility (1/GPa) = 0.01303242
#
# Stress axis : x y z
#
# Youngs Moduli (GPa) = 110.15045 111.90229 134.49528
#
# Poissons Ratio (x) = 0.11287 0.35858
# Poissons Ratio (y) = 0.11110 0.34082
# Poissons Ratio (z) = 0.29367 0.28357
#
# Static dielectric constant tensor:
#      x y z
#    x 1.750770 -0.051100 0.064960 
#    y -0.051100 2.127690 0.030210 
#    z 0.064960 0.030210 2.138580 
# 
# From -- ./inp_files/124286.got.cif
#   From: 2010.05.17/outbox.cif.g08.bks.cpg/sg2_63_cif.got.tgz:124286.got - 2010.06.03 11:33:40.
