data_PCOD9043867
_publ_section_title
;
Structure prediction by ZEFSAII (Michael W. Deem and Ramdas Pophale) SiO2 
 PCOD9043867
Probable space group: P -1
;
_chemical_formula_sum "Si O2"
_cell_formula_units_Z 14
_cell_length_a 11.033047
_cell_length_b 9.150889
_cell_length_c 12.757199
_cell_angle_alpha 149.681814
_cell_angle_beta 128.552306
_cell_angle_gamma 60.704310
_cell_volume 504.587928
_symmetry_space_group_name_H-M "P -1"
_symmetry_group_IT_number 2
_symmetry_cell_setting 'triclinic'
loop_
_space_group_symop_operation_xyz
x,y,z
-x,-y,-z
loop_
_atom_site_type_symbol
_atom_site_label
_atom_site_fract_x
_atom_site_fract_y
_atom_site_fract_z
Si Si1 0.971385 0.648293 0.943772
Si Si2 0.202231 0.798642 0.752478
Si Si3 0.458034 0.509988 0.607628
Si Si4 0.909884 0.482369 0.284792
Si Si5 0.720279 0.550751 0.954947
Si Si6 0.550760 0.071012 0.690614
Si Si7 0.219603 0.989833 0.571116
O O1 0.049435 0.710609 0.910755
O O2 0.875042 0.388527 0.925597
O O3 0.782964 0.869251 0.228082
O O4 0.870526 0.898005 0.080644
O O5 0.357859 0.758900 0.747043
O O6 0.069590 0.573187 0.488337
O O7 0.219192 0.676858 0.805050
O O8 0.500000 0.500000 0.500000
O O9 0.604470 0.537013 0.785529
O O10 0.360979 0.195005 0.387559
O O11 0.862299 0.789967 0.409222
O O12 0.134627 0.662567 0.324145
O O13 0.636199 0.391369 0.914304
O O14 0.398081 0.026576 0.652503
O O15 0.500000 0.000000 0.500000
#
# Coordination Sequence:
#
# PCOD9043867 Si02
#       7
#     2   2   2   2   2   2   2
#     4  11  26  50  86 126 164 212 284 344 412 491
#     4  11  26  48  81 117 169 222 269 344 424 490
#     4  11  27  53  79 120 172 215 278 350 427 495
#     4  10  23  46  81 118 166 212 280 336 414 496
#     4  10  23  50  88 118 157 226 280 341 413 502
#     4  10  23  45  80 114 160 216 284 333 404 500
#     4  11  24  50  82 121 163 218 284 343 401 507
#
# _framework density 27.74541
#
# number of rings (size 3 to 8) (size 9 to 14) (size 15 to 20)
#    0.000    1.429    0.000    4.286   10.000    1.714 
#    7.714    4.286   12.571    0.000    0.000    0.000 
#    0.000    0.000    0.000    0.000    0.000    0.000 
#
# Total GULP energy -78428.952788 kJ/mol
# GULP energy per Si atom -5602.068056 kJ/mol
# Density = 2.768226 g / cm^3
# Si number density = 27.745410 Si / 1000 Ang^3
#
#
#
# Elastic Constant Matrix: (Units=GPa)
#
#
# Indices 1 2 3 4 5 6 
#
# 1 172.7819 83.2574 58.0165 11.8752 -30.5491 -7.3933
# 2 83.2574 193.4443 61.1508 2.0804 -21.6763 -7.2476
# 3 58.0165 61.1508 141.4878 -3.0420 -22.7793 3.3595
# 4 11.8752 2.0804 -3.0420 33.3718 -1.8316 -8.8267
# 5 -30.5491 -21.6763 -22.7793 -1.8316 60.2021 -1.0656
# 6 -7.3933 -7.2476 3.3595 -8.8267 -1.0656 48.4249
#
#
#
# Elastic Compliance Matrix: (Units=1/GPa)
#
#
# Indices 1 2 3 4 5 6 
#
# 1 0.008374 -0.002657 -0.001958 -0.002704 0.002480 0.000579
# 2 -0.002657 0.006982 -0.001856 0.000603 0.000498 0.000889
# 3 -0.001958 -0.001856 0.009013 0.001496 0.001778 -0.000890
# 4 -0.002704 0.000603 0.001496 0.032511 0.000498 0.005511
# 5 0.002480 0.000498 0.001778 0.000498 0.018751 0.000833
# 6 0.000579 0.000889 -0.000890 0.005511 0.000833 0.021956
#
#
# Mechanical properties :
#
#
# Convention : Reuss Voigt Hill
#
# Bulk Modulus (GPa) = 87.51489 101.39595 94.45542
# Shear Modulus (GPa) = 43.72947 48.75237 46.24092
#
# Velocity S-wave (km/s) = 3.97432 4.19636 4.08685
# Velocity P-wave (km/s) = 7.25747 7.75266 7.50915
#
# Compressibility (1/GPa) = 0.01142663
#
# Stress axis : x y z
#
# Youngs Moduli (GPa) = 119.41182 143.22007 110.95548
#
# Poissons Ratio (x) = 0.38048 0.21728
# Poissons Ratio (y) = 0.31723 0.20598
# Poissons Ratio (z) = 0.23384 0.26588
#
# Static dielectric constant tensor:
#      x y z
#    x 2.270800 0.150670 0.115090 
#    y 0.150670 2.451850 0.203350 
#    z 0.115090 0.203350 2.320750 
# 
# From -- ./inp_files/418712.got.cif
#   From: 2010.05.17/outbox.cif.g08.bks.cpg/sg2_210_cif.got.tgz:418712.got - 2010.06.03 11:33:40.
