data_PCOD9043215
_publ_section_title
;
Structure prediction by ZEFSAII (Michael W. Deem and Ramdas Pophale) SiO2 
 PCOD9043215
Probable space group: P -1
;
_chemical_formula_sum "Si O2"
_cell_formula_units_Z 12
_cell_length_a 5.676022
_cell_length_b 9.302396
_cell_length_c 13.062342
_cell_angle_alpha 111.781977
_cell_angle_beta 111.736884
_cell_angle_gamma 54.632752
_cell_volume 511.126947
_symmetry_space_group_name_H-M "P -1"
_symmetry_group_IT_number 2
_symmetry_cell_setting 'triclinic'
loop_
_space_group_symop_operation_xyz
x,y,z
-x,-y,-z
loop_
_atom_site_type_symbol
_atom_site_label
_atom_site_fract_x
_atom_site_fract_y
_atom_site_fract_z
Si Si1 0.288982 0.658425 0.757768
Si Si2 0.645981 0.115677 0.580323
Si Si3 0.824123 0.982721 0.064284
Si Si4 0.867670 0.617962 0.309990
Si Si5 0.097385 0.607738 0.118533
Si Si6 0.790984 0.251719 0.454658
O O1 0.065273 0.585693 0.720796
O O2 0.563165 0.528792 0.838131
O O3 0.356300 0.641135 0.643265
O O4 0.205708 0.857104 0.827477
O O5 0.477190 0.241935 0.681639
O O6 0.591090 0.241280 0.507281
O O7 0.500000 0.000000 0.500000
O O8 0.988501 0.959056 0.598967
O O9 0.019817 0.789594 0.097118
O O10 0.500000 0.000000 0.000000
O O11 0.000000 0.000000 0.000000
O O12 0.941237 0.648743 0.215638
O O13 0.033852 0.668358 0.435688
O O14 0.000000 0.500000 0.000000
#
# Coordination Sequence:
#
# PCOD9043215 Si02
#       6
#     2   2   2   2   2   2
#     4  12  28  45  79 110 155 206 259 325 394 475
#     4   9  21  41  70 104 152 200 250 311 376 471
#     4  12  30  55  82 115 157 210 271 334 399 472
#     4  11  25  45  74 110 155 203 252 324 389 477
#     4  12  28  51  76 111 152 200 266 329 393 466
#     4  10  23  45  69 115 153 201 254 311 401 471
#
# _framework density 23.477532
#
# number of rings (size 3 to 8) (size 9 to 14) (size 15 to 20)
#    0.000    1.000    1.667    2.500   11.667    6.667 
#    0.000    0.000    0.000    0.000    0.000    0.000 
#    0.000    0.000    0.000    0.000    0.000    0.000 
#
# Total GULP energy -67110.780259 kJ/mol
# GULP energy per Si atom -5592.565022 kJ/mol
# Density = 2.342410 g / cm^3
# Si number density = 23.477532 Si / 1000 Ang^3
#
#
#
# Elastic Constant Matrix: (Units=GPa)
#
#
# Indices 1 2 3 4 5 6 
#
# 1 84.7922 32.6883 43.7037 -0.1744 -4.6695 34.3259
# 2 32.6883 178.6075 73.5531 5.4415 6.1144 37.6011
# 3 43.7037 73.5531 157.9017 7.2871 16.9368 20.6343
# 4 -0.1744 5.4415 7.2871 55.6856 0.2558 -0.4340
# 5 -4.6695 6.1144 16.9368 0.2558 29.8556 6.6961
# 6 34.3259 37.6011 20.6343 -0.4340 6.6961 44.9272
#
#
#
# Elastic Compliance Matrix: (Units=1/GPa)
#
#
# Indices 1 2 3 4 5 6 
#
# 1 0.021235 0.001479 -0.005498 0.000469 0.009810 -0.016395
# 2 0.001479 0.008114 -0.003528 -0.000388 0.002057 -0.006611
# 3 -0.005498 -0.003528 0.009760 -0.000892 -0.006480 0.003628
# 4 0.000469 -0.000388 -0.000892 0.018116 0.000393 0.000492
# 5 0.009810 0.002057 -0.006480 0.000393 0.041052 -0.012355
# 6 -0.016395 -0.006611 0.003628 0.000492 -0.012355 0.040498
#
#
# Mechanical properties :
#
#
# Convention : Reuss Voigt Hill
#
# Bulk Modulus (GPa) = 41.63830 80.13240 60.88535
# Shear Modulus (GPa) = 30.88821 44.18410 37.53616
#
# Velocity S-wave (km/s) = 3.63112 4.34288 4.00285
# Velocity P-wave (km/s) = 5.94592 7.70410 6.88139
#
# Compressibility (1/GPa) = 0.02401635
#
# Stress axis : x y z
#
# Youngs Moduli (GPa) = 47.09133 123.24057 102.45601
#
# Poissons Ratio (x) = -0.18228 0.56329
# Poissons Ratio (y) = -0.06965 0.36146
# Poissons Ratio (z) = 0.25890 0.43478
#
# Static dielectric constant tensor:
#      x y z
#    x 1.973540 -0.037570 0.024620 
#    y -0.037570 1.920500 0.024400 
#    z 0.024620 0.024400 1.874160 
# 
# From -- ./inp_files/22526.got.cif
#   From: 2010.05.17/outbox.cif.g08.bks.cpg/sg2_12_cif.got.tgz:22526.got - 2010.06.03 11:33:40.
