data_PCOD9043164
_publ_section_title
;
Structure prediction by ZEFSAII (Michael W. Deem and Ramdas Pophale) SiO2 
 PCOD9043164
Probable space group: P -1
;
_chemical_formula_sum "Si O2"
_cell_formula_units_Z 16
_cell_length_a 14.748491
_cell_length_b 11.041484
_cell_length_c 5.079459
_cell_angle_alpha 68.158591
_cell_angle_beta 102.417129
_cell_angle_gamma 120.254765
_cell_volume 662.819156
_symmetry_space_group_name_H-M "P -1"
_symmetry_group_IT_number 2
_symmetry_cell_setting 'triclinic'
loop_
_space_group_symop_operation_xyz
x,y,z
-x,-y,-z
loop_
_atom_site_type_symbol
_atom_site_label
_atom_site_fract_x
_atom_site_fract_y
_atom_site_fract_z
Si Si1 0.015317 0.634162 0.583493
Si Si2 0.161133 0.158806 0.336059
Si Si3 0.611861 0.327196 0.527918
Si Si4 0.797079 0.106057 0.317295
Si Si5 0.461353 0.254474 0.990840
Si Si6 0.989071 0.225952 0.027488
Si Si7 0.620541 0.051615 0.596362
Si Si8 0.720111 0.660792 0.235162
O O1 0.971903 0.636821 0.846916
O O2 0.000000 0.500000 0.500000
O O3 0.138433 0.736836 0.625919
O O4 0.979768 0.724165 0.289093
O O5 0.043726 0.130689 0.232770
O O6 0.204594 0.225528 0.593971
O O7 0.176777 0.015316 0.434763
O O8 0.231982 0.282334 0.067740
O O9 0.544218 0.288135 0.782836
O O10 0.657916 0.211717 0.617149
O O11 0.698925 0.496683 0.425743
O O12 0.529534 0.304475 0.259447
O O13 0.862734 0.141722 0.057468
O O14 0.678676 0.058272 0.354034
O O15 0.390877 0.334802 0.830438
O O16 0.382245 0.079527 0.120329
O O17 0.500000 0.000000 0.500000
#
# Coordination Sequence:
#
# PCOD9043164 Si02
#       8
#     2   2   2   2   2   2   2   2
#     4  10  23  45  70 102 136 181 227 280 349 406
#     4  12  25  43  68 102 137 177 234 280 347 403
#     4  11  24  44  65 101 134 184 231 285 349 407
#     4  10  25  43  70 100 135 182 231 282 343 412
#     4  11  22  44  69  95 139 180 234 285 347 407
#     4  10  24  43  71  96 137 176 223 283 336 406
#     4  10  23  45  69 102 137 182 227 287 341 417
#     4  12  25  41  71 100 140 178 233 289 343 409
#
# _framework density 24.139313000000001
#
# number of rings (size 3 to 8) (size 9 to 14) (size 15 to 20)
#    0.750    0.500    1.250    4.125    3.500    2.500 
#    4.500    0.000    0.000    0.000    0.000    0.000 
#    0.000    0.000    0.000    0.000    0.000    0.000 
#
# Total GULP energy -89398.111255 kJ/mol
# GULP energy per Si atom -5587.381953 kJ/mol
# Density = 2.408437 g / cm^3
# Si number density = 24.139313 Si / 1000 Ang^3
#
#
#
# Elastic Constant Matrix: (Units=GPa)
#
#
# Indices 1 2 3 4 5 6 
#
# 1 91.6438 -2.7748 -13.5502 0.5287 -12.2222 -4.6214
# 2 -2.7748 90.2500 6.4452 -16.9573 -12.3108 -11.7384
# 3 -13.5502 6.4452 69.7274 9.6868 -19.8465 -3.4127
# 4 0.5287 -16.9573 9.6868 37.2789 -2.3717 9.9745
# 5 -12.2222 -12.3108 -19.8465 -2.3717 24.5259 2.4271
# 6 -4.6214 -11.7384 -3.4127 9.9745 2.4271 20.7266
#
#
#
# Elastic Compliance Matrix: (Units=1/GPa)
#
#
# Indices 1 2 3 4 5 6 
#
# 1 0.013846 0.002004 0.006498 -0.001371 0.012588 0.004477
# 2 0.002004 0.013906 0.001161 0.005241 0.008936 0.004945
# 3 0.006498 0.001161 0.022543 -0.005732 0.020902 0.006129
# 4 -0.001371 0.005241 -0.005732 0.034971 0.002212 -0.015370
# 5 0.012588 0.008936 0.020902 0.002212 0.068439 0.002230
# 6 0.004477 0.004945 0.006129 -0.015370 0.002230 0.060191
#
#
# Mechanical properties :
#
#
# Convention : Reuss Voigt Hill
#
# Bulk Modulus (GPa) = 14.36371 25.76240 20.06306
# Shear Modulus (GPa) = 22.95947 33.93966 28.44956
#
# Velocity S-wave (km/s) = 3.08738 3.75372 3.43674
# Velocity P-wave (km/s) = 4.32116 5.42981 4.90689
#
# Compressibility (1/GPa) = 0.06961987
#
# Stress axis : x y z
#
# Youngs Moduli (GPa) = 72.22409 71.91284 44.36060
#
# Poissons Ratio (x) = -0.14408 -0.28825
# Poissons Ratio (y) = -0.14471 -0.05152
# Poissons Ratio (z) = -0.46931 -0.08351
#
# Static dielectric constant tensor:
#      x y z
#    x 1.890190 -0.033340 -0.016360 
#    y -0.033340 1.872790 -0.161740 
#    z -0.016360 -0.161740 1.795420 
# 
# From -- ./inp_files/109600.got.cif
#   From: 2010.05.17/outbox.cif.g08.bks.cpg/sg2_55_cif.got.tgz:109600.got - 2010.06.03 11:33:40.
