data_PCOD9043261
_publ_section_title
;
Structure prediction by ZEFSAII (Michael W. Deem and Ramdas Pophale) SiO2 
 PCOD9043261
Probable space group: P -1
;
_chemical_formula_sum "Si O2"
_cell_formula_units_Z 16
_cell_length_a 10.985021
_cell_length_b 5.400469
_cell_length_c 13.922189
_cell_angle_alpha 84.970344
_cell_angle_beta 67.514629
_cell_angle_gamma 112.435609
_cell_volume 678.465935
_symmetry_space_group_name_H-M "P -1"
_symmetry_group_IT_number 2
_symmetry_cell_setting 'triclinic'
loop_
_space_group_symop_operation_xyz
x,y,z
-x,-y,-z
loop_
_atom_site_type_symbol
_atom_site_label
_atom_site_fract_x
_atom_site_fract_y
_atom_site_fract_z
Si Si1 0.333600 0.193817 0.230616
Si Si2 0.371483 0.076223 0.567852
Si Si3 0.172347 0.472978 0.175312
Si Si4 0.597482 0.388740 0.035461
Si Si5 0.850921 0.305333 0.204263
Si Si6 0.604383 0.512897 0.611805
Si Si7 0.846786 0.355347 0.605445
Si Si8 0.167564 0.176293 0.905042
O O1 0.231456 0.242728 0.181761
O O2 0.469813 0.154425 0.147383
O O3 0.416532 0.446734 0.271035
O O4 0.218067 0.969081 0.344123
O O5 0.449922 0.310172 0.617661
O O6 0.334933 0.217716 0.484179
O O7 0.500000 0.000000 0.500000
O O8 0.237427 0.822387 0.666774
O O9 0.149813 0.543404 0.288848
O O10 0.021568 0.385287 0.168610
O O11 0.304855 0.696217 0.062644
O O12 0.715899 0.641534 0.054976
O O13 0.500000 0.500000 0.000000
O O14 0.834329 0.578381 0.170272
O O15 0.797251 0.056379 0.149995
O O16 0.724788 0.398717 0.580259
O O17 0.000000 0.500000 0.500000
O O18 0.000000 0.000000 0.000000
#
# Coordination Sequence:
#
# PCOD9043261 Si02
#       8
#     2   2   2   2   2   2   2   2
#     4  10  23  45  69  99 145 188 245 310 382 442
#     4  11  26  43  70 101 145 193 253 313 376 457
#     4  10  25  44  67 109 135 196 245 304 372 451
#     4  10  23  48  75 105 145 191 248 311 375 454
#     4  12  29  46  79 107 153 198 252 307 387 447
#     4  10  24  44  66 101 140 189 251 306 381 449
#     4  11  26  41  70 103 147 191 245 312 377 451
#     4  12  27  51  76 112 153 195 251 318 380 452
#
# _framework density 23.582616999999999
#
# number of rings (size 3 to 8) (size 9 to 14) (size 15 to 20)
#    0.000    1.250    1.250    1.875   14.000    1.500 
#    0.000    0.000    0.000    0.000    0.000    0.000 
#    0.000    0.000    0.000    0.000    0.000    0.000 
#
# Total GULP energy -89373.514493 kJ/mol
# GULP energy per Si atom -5585.844656 kJ/mol
# Density = 2.352894 g / cm^3
# Si number density = 23.582617 Si / 1000 Ang^3
#
#
#
# Elastic Constant Matrix: (Units=GPa)
#
#
# Indices 1 2 3 4 5 6 
#
# 1 98.3876 6.6252 6.3129 -0.6785 13.4972 19.9720
# 2 6.6252 56.0591 -1.4242 1.4793 3.6465 10.9551
# 3 6.3129 -1.4242 90.1816 -5.1059 -29.7544 14.9532
# 4 -0.6785 1.4793 -5.1059 30.4851 -0.6944 4.6092
# 5 13.4972 3.6465 -29.7544 -0.6944 44.6665 -4.6836
# 6 19.9720 10.9551 14.9532 4.6092 -4.6836 37.7469
#
#
#
# Elastic Compliance Matrix: (Units=1/GPa)
#
#
# Indices 1 2 3 4 5 6 
#
# 1 0.012380 0.000157 -0.001479 0.000924 -0.005437 -0.006798
# 2 0.000157 0.019156 0.000736 0.000089 -0.001766 -0.006164
# 3 -0.001479 0.000736 0.015600 0.003499 0.010334 -0.004756
# 4 0.000924 0.000089 0.003499 0.034334 0.001965 -0.005850
# 5 -0.005437 -0.001766 0.010334 0.001965 0.031400 0.002952
# 6 -0.006798 -0.006164 -0.004756 -0.005850 0.002952 0.034843
#
#
# Mechanical properties :
#
#
# Convention : Reuss Voigt Hill
#
# Bulk Modulus (GPa) = 21.75573 29.73957 25.74765
# Shear Modulus (GPa) = 30.44960 38.12067 34.28514
#
# Velocity S-wave (km/s) = 3.59721 4.02490 3.81705
# Velocity P-wave (km/s) = 5.14768 5.85132 5.51074
#
# Compressibility (1/GPa) = 0.04596491
#
# Stress axis : x y z
#
# Youngs Moduli (GPa) = 80.77297 52.20420 64.10120
#
# Poissons Ratio (x) = -0.00820 0.09478
# Poissons Ratio (y) = -0.01268 -0.04718
# Poissons Ratio (z) = 0.11944 -0.03842
#
# Static dielectric constant tensor:
#      x y z
#    x 1.827230 -0.018720 0.025820 
#    y -0.018720 2.063990 0.011460 
#    z 0.025820 0.011460 2.006840 
# 
# From -- ./inp_files/510966.got.cif
#   From: 2010.05.17/outbox.cif.g08.bks.cpg/sg2_256_cif.got.tgz:510966.got - 2010.06.03 11:33:40.
