data_PCOD9043070
_publ_section_title
;
Structure prediction by ZEFSAII (Michael W. Deem and Ramdas Pophale) SiO2 
 PCOD9043070
Probable space group: P -1
;
_chemical_formula_sum "Si O2"
_cell_formula_units_Z 14
_cell_length_a 9.344565
_cell_length_b 19.568252
_cell_length_c 13.868872
_cell_angle_alpha 25.659293
_cell_angle_beta 36.353475
_cell_angle_gamma 43.356890
_cell_volume 650.934605
_symmetry_space_group_name_H-M "P -1"
_symmetry_group_IT_number 2
_symmetry_cell_setting 'triclinic'
loop_
_space_group_symop_operation_xyz
x,y,z
-x,-y,-z
loop_
_atom_site_type_symbol
_atom_site_label
_atom_site_fract_x
_atom_site_fract_y
_atom_site_fract_z
Si Si1 0.525601 0.846128 0.750553
Si Si2 0.561265 0.730446 0.474976
Si Si3 0.163865 0.465330 0.051296
Si Si4 0.723498 0.955847 0.710545
Si Si5 0.525193 0.825005 0.167101
Si Si6 0.244078 0.589252 0.518251
Si Si7 0.920683 0.339420 0.694797
O O1 0.715553 0.709329 0.789255
O O2 0.500000 0.000000 0.500000
O O3 0.620008 0.896578 0.741027
O O4 0.263777 0.763776 0.010920
O O5 0.419565 0.887344 0.380825
O O6 0.607640 0.725427 0.340841
O O7 0.823381 0.740478 0.366397
O O8 0.389557 0.584607 0.778271
O O9 0.983902 0.492231 0.204378
O O10 0.000000 0.500000 0.000000
O O11 0.000000 0.000000 0.500000
O O12 0.688771 0.833829 0.972490
O O13 0.279383 0.749289 0.358042
O O14 0.500000 0.000000 0.000000
O O15 0.500000 0.500000 0.500000
O O16 0.204276 0.625402 0.383126
O O17 0.000000 0.500000 0.500000
#
# Coordination Sequence:
#
# PCOD9043070 Si02
#       7
#     2   2   2   2   2   2   2
#     4  12  29  48  75 112 154 198 246 319 382 437
#     4  11  25  45  75 105 148 197 247 314 374 445
#     4  12  25  48  77 109 146 194 260 307 371 458
#     4  11  26  45  72 109 148 195 252 308 376 451
#     4  10  23  45  68 106 141 190 245 299 375 436
#     4  12  26  45  79 105 141 199 251 306 374 451
#     4  12  26  50  72 108 155 195 255 307 380 452
#
# _framework density 21.507536000000002
#
# number of rings (size 3 to 8) (size 9 to 14) (size 15 to 20)
#    0.000    0.571    4.286    2.571    8.000    3.429 
#    0.000    0.000    0.000    0.000    0.000    0.000 
#    0.000    0.000    0.000    0.000    0.000    0.000 
#
# Total GULP energy -78257.938659 kJ/mol
# GULP energy per Si atom -5589.852761 kJ/mol
# Density = 2.145858 g / cm^3
# Si number density = 21.507536 Si / 1000 Ang^3
#
#
#
# Elastic Constant Matrix: (Units=GPa)
#
#
# Indices 1 2 3 4 5 6 
#
# 1 117.4598 45.7421 60.8214 1.7978 -5.8087 -9.9837
# 2 45.7421 123.8981 53.7236 -4.7416 4.6468 -27.4235
# 3 60.8214 53.7236 178.5269 17.4425 -0.8144 -15.6670
# 4 1.7978 -4.7416 17.4425 35.9969 2.2767 -10.7621
# 5 -5.8087 4.6468 -0.8144 2.2767 40.9491 4.9817
# 6 -9.9837 -27.4235 -15.6670 -10.7621 4.9817 46.0979
#
#
#
# Elastic Compliance Matrix: (Units=1/GPa)
#
#
# Indices 1 2 3 4 5 6 
#
# 1 0.011300 -0.003067 -0.002985 0.000188 0.001949 -0.000559
# 2 -0.003067 0.012252 -0.002538 0.005389 -0.003070 0.007352
# 3 -0.002985 -0.002538 0.007739 -0.004110 0.000310 -0.000519
# 4 0.000188 0.005389 -0.004110 0.033741 -0.003776 0.010135
# 5 0.001949 -0.003070 0.000310 -0.003776 0.025867 -0.004976
# 6 -0.000559 0.007352 -0.000519 0.010135 -0.004976 0.028673
#
#
# Mechanical properties :
#
#
# Convention : Reuss Voigt Hill
#
# Bulk Modulus (GPa) = 70.86013 82.27321 76.56667
# Shear Modulus (GPa) = 35.34667 41.91529 38.63098
#
# Velocity S-wave (km/s) = 4.05835 4.41938 4.24271
# Velocity P-wave (km/s) = 7.41475 8.02356 7.72515
#
# Compressibility (1/GPa) = 0.01411231
#
# Stress axis : x y z
#
# Youngs Moduli (GPa) = 88.49826 81.61658 129.20757
#
# Poissons Ratio (x) = 0.25031 0.38571
# Poissons Ratio (y) = 0.27141 0.32787
# Poissons Ratio (z) = 0.26419 0.20711
#
# Static dielectric constant tensor:
#      x y z
#    x 1.768910 -0.010500 -0.026910 
#    y -0.010500 1.842270 -0.034840 
#    z -0.026910 -0.034840 1.917340 
# 
# From -- ./inp_files/271424.got.cif
#   From: 2010.05.17/outbox.cif.g08.bks.cpg/sg2_136_cif.got.tgz:271424.got - 2010.06.03 11:33:40.
