data_PCOD9043946
_publ_section_title
;
Structure prediction by ZEFSAII (Michael W. Deem and Ramdas Pophale) SiO2 
 PCOD9043946
Probable space group: P -1
;
_chemical_formula_sum "Si O2"
_cell_formula_units_Z 16
_cell_length_a 17.937503
_cell_length_b 5.231610
_cell_length_c 11.764375
_cell_angle_alpha 51.108635
_cell_angle_beta 118.673975
_cell_angle_gamma 106.299809
_cell_volume 753.557988
_symmetry_space_group_name_H-M "P -1"
_symmetry_group_IT_number 2
_symmetry_cell_setting 'triclinic'
loop_
_space_group_symop_operation_xyz
x,y,z
-x,-y,-z
loop_
_atom_site_type_symbol
_atom_site_label
_atom_site_fract_x
_atom_site_fract_y
_atom_site_fract_z
Si Si1 0.815332 0.253405 0.113067
Si Si2 0.503351 0.395590 0.399405
Si Si3 0.088449 0.380159 0.650930
Si Si4 0.679528 0.620501 0.360893
Si Si5 0.679774 0.402493 0.806080
Si Si6 0.251129 0.886349 0.283308
Si Si7 0.915373 0.843051 0.026214
Si Si8 0.744022 0.331789 0.266414
O O1 0.887796 0.489909 0.055014
O O2 0.760127 0.442593 0.117086
O O3 0.863102 0.930457 0.286267
O O4 0.744883 0.179353 0.989587
O O5 0.500000 0.500000 0.500000
O O6 0.586712 0.521596 0.362907
O O7 0.417170 0.556580 0.237718
O O8 0.500000 0.000000 0.500000
O O9 0.077699 0.241012 0.810809
O O10 0.157931 0.662518 0.620923
O O11 0.000000 0.500000 0.500000
O O12 0.746247 0.367129 0.540909
O O13 0.690650 0.555663 0.252736
O O14 0.701709 0.981761 0.318715
O O15 0.684223 0.264349 0.720854
O O16 0.718673 0.765286 0.744667
O O17 0.162391 0.927057 0.140562
O O18 0.000000 0.000000 0.000000
#
# Coordination Sequence:
#
# PCOD9043946 Si02
#       8
#     2   2   2   2   2   2   2   2
#     4  10  23  46  67  89 135 181 221 266 337 393
#     4  12  22  40  65 102 137 165 215 277 337 402
#     4  11  24  45  68  95 132 183 226 275 331 395
#     4  12  23  40  67 100 134 173 222 272 337 390
#     4  11  21  42  67  94 128 175 211 266 337 396
#     4  11  22  39  65  96 134 171 211 272 338 388
#     4  10  24  40  65 103 131 168 221 282 334 398
#     4  11  25  43  66  92 137 179 226 267 324 407
#
# _framework density 21.232607000000002
#
# number of rings (size 3 to 8) (size 9 to 14) (size 15 to 20)
#    0.000    1.000    5.000    1.500    1.750    3.500 
#    0.000    1.250    0.000    0.000    0.000    0.000 
#    0.000    0.000    0.000    0.000    0.000    0.000 
#
# Total GULP energy -89266.455425 kJ/mol
# GULP energy per Si atom -5579.153464 kJ/mol
# Density = 2.118428 g / cm^3
# Si number density = 21.232607 Si / 1000 Ang^3
#
#
#
# Elastic Constant Matrix: (Units=GPa)
#
#
# Indices 1 2 3 4 5 6 
#
# 1 118.3415 54.5893 20.2476 -10.9311 1.4932 22.7884
# 2 54.5893 134.9863 8.2491 -20.8295 -6.0118 4.5824
# 3 20.2476 8.2491 50.7451 -7.2452 11.1503 5.7579
# 4 -10.9311 -20.8295 -7.2452 24.1106 1.2543 -5.9345
# 5 1.4932 -6.0118 11.1503 1.2543 39.5733 3.2681
# 6 22.7884 4.5824 5.7579 -5.9345 3.2681 47.0743
#
#
#
# Elastic Compliance Matrix: (Units=1/GPa)
#
#
# Indices 1 2 3 4 5 6 
#
# 1 0.012110 -0.004620 -0.003702 -0.000885 0.000333 -0.005094
# 2 -0.004620 0.010375 0.000755 0.007530 0.001133 0.002005
# 3 -0.003702 0.000755 0.023397 0.006374 -0.006549 0.000115
# 4 -0.000885 0.007530 0.006374 0.050996 -0.002692 0.005531
# 5 0.000333 0.001133 -0.006549 -0.002692 0.027502 -0.001719
# 6 -0.005094 0.002005 0.000115 0.005531 -0.001719 0.024317
#
#
# Mechanical properties :
#
#
# Convention : Reuss Voigt Hill
#
# Bulk Modulus (GPa) = 32.52263 52.24943 42.38603
# Shear Modulus (GPa) = 28.72269 36.88411 32.80340
#
# Velocity S-wave (km/s) = 3.68198 4.17243 3.93485
# Velocity P-wave (km/s) = 5.78157 6.91909 6.37575
#
# Compressibility (1/GPa) = 0.03074782
#
# Stress axis : x y z
#
# Youngs Moduli (GPa) = 82.57891 96.38983 42.74070
#
# Poissons Ratio (x) = 0.44529 0.15824
# Poissons Ratio (y) = 0.38149 -0.03229
# Poissons Ratio (z) = 0.30573 -0.07281
#
# Static dielectric constant tensor:
#      x y z
#    x 1.772520 -0.043890 -0.020600 
#    y -0.043890 1.833830 0.011580 
#    z -0.020600 0.011580 1.799670 
# 
# From -- ./inp_files/458995.got.cif
#   From: 2010.05.17/outbox.cif.g08.bks.cpg/sg2_230_cif.got.tgz:458995.got - 2010.06.03 11:33:40.
