data_PCOD9043972
_publ_section_title
;
Structure prediction by ZEFSAII (Michael W. Deem and Ramdas Pophale) SiO2 
 PCOD9043972
Probable space group: P -1
;
_chemical_formula_sum "Si O2"
_cell_formula_units_Z 14
_cell_length_a 7.117195
_cell_length_b 8.875323
_cell_length_c 11.191208
_cell_angle_alpha 106.408296
_cell_angle_beta 96.741388
_cell_angle_gamma 54.406256
_cell_volume 550.427293
_symmetry_space_group_name_H-M "P -1"
_symmetry_group_IT_number 2
_symmetry_cell_setting 'triclinic'
loop_
_space_group_symop_operation_xyz
x,y,z
-x,-y,-z
loop_
_atom_site_type_symbol
_atom_site_label
_atom_site_fract_x
_atom_site_fract_y
_atom_site_fract_z
Si Si1 0.397185 0.341775 0.854605
Si Si2 0.179309 0.722818 0.778734
Si Si3 0.279614 0.071448 0.657932
Si Si4 0.954469 0.343287 0.501009
Si Si5 0.066888 0.853650 0.141683
Si Si6 0.735243 0.784196 0.961658
Si Si7 0.387601 0.323821 0.295295
O O1 0.245221 0.539325 0.816821
O O2 0.379140 0.185332 0.746245
O O3 0.061459 0.208182 0.966711
O O4 0.302184 0.342615 0.978449
O O5 0.120508 0.708399 0.634570
O O6 0.415592 0.708936 0.785238
O O7 0.992345 0.939605 0.853557
O O8 0.065469 0.116245 0.735816
O O9 0.170216 0.158686 0.540873
O O10 0.480219 0.845716 0.635007
O O11 0.749996 0.467734 0.609631
O O12 0.000000 0.500000 0.500000
O O13 0.342549 0.716480 0.133759
O O14 0.764804 0.711569 0.811625
O O15 0.500000 0.000000 0.000000
#
# Coordination Sequence:
#
# PCOD9043972 Si02
#       7
#     2   2   2   2   2   2   2
#     4  11  23  43  73 105 140 182 234 283 348 414
#     4  11  24  45  70 107 137 179 242 285 341 419
#     4  10  23  46  68 101 144 181 229 284 351 409
#     4  12  26  43  71 105 137 181 238 286 346 414
#     4  10  24  45  73 103 140 185 229 284 351 412
#     4  11  22  50  70 102 147 182 229 286 348 418
#     4  11  25  48  70  97 147 183 223 298 345 406
#
# _framework density 25.434785000000002
#
# number of rings (size 3 to 8) (size 9 to 14) (size 15 to 20)
#    0.000    1.143    5.714    1.286    2.000    5.143 
#    2.571    9.286    0.000    0.000    0.000    0.000 
#    0.000    0.000    0.000    0.000    0.000    0.000 
#
# Total GULP energy -78540.024028 kJ/mol
# GULP energy per Si atom -5610.001716 kJ/mol
# Density = 2.537689 g / cm^3
# Si number density = 25.434785 Si / 1000 Ang^3
#
#
#
# Elastic Constant Matrix: (Units=GPa)
#
#
# Indices 1 2 3 4 5 6 
#
# 1 125.6548 53.3507 36.4207 -13.5674 30.2978 -14.3679
# 2 53.3507 165.3612 67.5059 -31.2117 23.2431 -7.8495
# 3 36.4207 67.5059 136.6234 -15.7592 24.5537 -14.3630
# 4 -13.5674 -31.2117 -15.7592 48.1535 1.9208 -3.5376
# 5 30.2978 23.2431 24.5537 1.9208 40.5559 -3.8854
# 6 -14.3679 -7.8495 -14.3630 -3.5376 -3.8854 44.3362
#
#
#
# Elastic Compliance Matrix: (Units=1/GPa)
#
#
# Indices 1 2 3 4 5 6 
#
# 1 0.011063 -0.001970 -0.000193 0.002253 -0.006862 0.002752
# 2 -0.001970 0.009060 -0.003056 0.004411 -0.002065 0.000146
# 3 -0.000193 -0.003056 0.010043 0.001590 -0.004027 0.002424
# 4 0.002253 0.004411 0.001590 0.025280 -0.006034 0.003514
# 5 -0.006862 -0.002065 -0.004027 -0.006034 0.033554 -0.001435
# 6 0.002752 0.000146 0.002424 0.003514 -0.001435 0.024413
#
#
# Mechanical properties :
#
#
# Convention : Reuss Voigt Hill
#
# Bulk Modulus (GPa) = 50.69130 82.46601 66.57866
# Shear Modulus (GPa) = 38.33534 44.63327 41.48431
#
# Velocity S-wave (km/s) = 3.88648 4.19359 4.04295
# Velocity P-wave (km/s) = 6.33347 7.47939 6.93015
#
# Compressibility (1/GPa) = 0.01972725
#
# Stress axis : x y z
#
# Youngs Moduli (GPa) = 90.38908 110.37075 99.57138
#
# Poissons Ratio (x) = 0.21743 0.01926
# Poissons Ratio (y) = 0.17807 0.30432
# Poissons Ratio (z) = 0.01748 0.33732
#
# Static dielectric constant tensor:
#      x y z
#    x 2.045400 -0.014010 -0.074920 
#    y -0.014010 2.020750 0.062770 
#    z -0.074920 0.062770 2.102650 
# 
# From -- ./inp_files/382668.got.cif
#   From: 2010.05.17/outbox.cif.g08.bks.cpg/sg2_192_cif.got.tgz:382668.got - 2010.06.03 11:33:40.
