data_PCOD9043861
_publ_section_title
;
Structure prediction by ZEFSAII (Michael W. Deem and Ramdas Pophale) SiO2 
 PCOD9043861
Probable space group: P -1
;
_chemical_formula_sum "Si O2"
_cell_formula_units_Z 10
_cell_length_a 9.664539
_cell_length_b 9.649196
_cell_length_c 12.206496
_cell_angle_alpha 33.075448
_cell_angle_beta 144.766615
_cell_angle_gamma 131.730545
_cell_volume 357.751152
_symmetry_space_group_name_H-M "P -1"
_symmetry_group_IT_number 2
_symmetry_cell_setting 'triclinic'
loop_
_space_group_symop_operation_xyz
x,y,z
-x,-y,-z
loop_
_atom_site_type_symbol
_atom_site_label
_atom_site_fract_x
_atom_site_fract_y
_atom_site_fract_z
Si Si1 0.280690 0.192545 0.269165
Si Si2 0.143020 0.040656 0.727270
Si Si3 0.191380 0.236973 0.936394
Si Si4 0.713519 0.445470 0.408558
Si Si5 0.493005 0.806543 0.287526
O O1 0.169111 0.288811 0.017180
O O2 0.440058 0.401008 0.289561
O O3 0.500000 0.000000 0.500000
O O4 0.106482 0.069223 0.324131
O O5 0.180505 0.322123 0.612306
O O6 0.251951 0.074034 0.654785
O O7 0.327496 0.869700 0.033258
O O8 0.294835 0.468914 0.780710
O O9 0.358215 0.988933 0.171073
O O10 0.924037 0.228090 0.715070
O O11 0.500000 0.500000 0.500000
#
# Coordination Sequence:
#
# PCOD9043861 Si02
#       5
#     2   2   2   2   2
#     4  12  25  42  75 113 145 184 250 308 360 432
#     4  10  25  47  71 111 142 191 248 295 370 439
#     4  10  23  46  75 109 142 197 245 300 370 430
#     4  10  23  45  79 105 147 186 249 311 359 426
#     4  10  23  46  74  97 152 202 228 299 377 427
#
# _framework density 27.952390999999999
#
# number of rings (size 3 to 8) (size 9 to 14) (size 15 to 20)
#    0.000    1.600    0.000    4.200    5.600    5.600 
#    3.600   10.000    4.400    0.000    0.000    0.000 
#    0.000    0.000    0.000    0.000    0.000    0.000 
#
# Total GULP energy -55912.530029 kJ/mol
# GULP energy per Si atom -5591.253003 kJ/mol
# Density = 2.788877 g / cm^3
# Si number density = 27.952391 Si / 1000 Ang^3
#
#
#
# Elastic Constant Matrix: (Units=GPa)
#
#
# Indices 1 2 3 4 5 6 
#
# 1 215.0288 104.0721 60.0935 -1.3846 -19.0531 40.9166
# 2 104.0721 192.0522 45.3671 9.2547 -5.0746 71.7029
# 3 60.0935 45.3671 143.2194 0.6988 -5.7633 2.1462
# 4 -1.3846 9.2547 0.6988 27.7380 -6.9289 -2.3434
# 5 -19.0531 -5.0746 -5.7633 -6.9289 47.2867 0.8888
# 6 40.9166 71.7029 2.1462 -2.3434 0.8888 77.0895
#
#
#
# Elastic Compliance Matrix: (Units=1/GPa)
#
#
# Indices 1 2 3 4 5 6 
#
# 1 0.007081 -0.003146 -0.001869 0.002036 0.002600 -0.000749
# 2 -0.003146 0.010688 -0.001953 -0.004597 -0.000875 -0.008346
# 3 -0.001869 -0.001953 0.008347 0.000590 0.000092 0.002593
# 4 0.002036 -0.004597 0.000590 0.039564 0.006115 0.004311
# 5 0.002600 -0.000875 0.000092 0.006115 0.023021 -0.000648
# 6 -0.000749 -0.008346 0.002593 0.004311 -0.000648 0.021199
#
#
# Mechanical properties :
#
#
# Convention : Reuss Voigt Hill
#
# Bulk Modulus (GPa) = 82.10014 107.70731 94.90372
# Shear Modulus (GPa) = 39.09437 53.14071 46.11754
#
# Velocity S-wave (km/s) = 3.74385 4.36491 4.06625
# Velocity P-wave (km/s) = 6.93713 8.00121 7.48809
#
# Compressibility (1/GPa) = 0.01218025
#
# Stress axis : x y z
#
# Youngs Moduli (GPa) = 141.21629 93.56686 119.80149
#
# Poissons Ratio (x) = 0.29434 0.22389
# Poissons Ratio (y) = 0.44424 0.23400
# Poissons Ratio (z) = 0.26391 0.18276
#
# Static dielectric constant tensor:
#      x y z
#    x 2.312080 0.036700 -0.010970 
#    y 0.036700 2.539340 -0.178850 
#    z -0.010970 -0.178850 2.284420 
# 
# From -- ./inp_files/496085.got.cif
#   From: 2010.05.17/outbox.cif.g08.bks.cpg/sg2_249_cif.got.tgz:496085.got - 2010.06.03 11:33:40.
