data_PCOD9043491
_publ_section_title
;
Structure prediction by ZEFSAII (Michael W. Deem and Ramdas Pophale) SiO2 
 PCOD9043491
Probable space group: P -1
;
_chemical_formula_sum "Si O2"
_cell_formula_units_Z 16
_cell_length_a 9.503357
_cell_length_b 12.716628
_cell_length_c 18.292720
_cell_angle_alpha 40.426872
_cell_angle_beta 52.718219
_cell_angle_gamma 85.117817
_cell_volume 781.128944
_symmetry_space_group_name_H-M "P -1"
_symmetry_group_IT_number 2
_symmetry_cell_setting 'triclinic'
loop_
_space_group_symop_operation_xyz
x,y,z
-x,-y,-z
loop_
_atom_site_type_symbol
_atom_site_label
_atom_site_fract_x
_atom_site_fract_y
_atom_site_fract_z
Si Si1 0.394741 0.360264 0.848429
Si Si2 0.984279 0.829481 0.046399
Si Si3 0.859744 0.574274 0.491625
Si Si4 0.318804 0.534874 0.553929
Si Si5 0.460148 0.960900 0.791394
Si Si6 0.725660 0.229402 0.209201
Si Si7 0.701721 0.896951 0.488894
Si Si8 0.794448 0.933968 0.793064
O O1 0.106569 0.182458 0.999339
O O2 0.577244 0.384455 0.720552
O O3 0.531779 0.625981 0.667117
O O4 0.370020 0.272390 0.984492
O O5 0.768352 0.568906 0.283377
O O6 0.235382 0.890374 0.947483
O O7 0.000000 0.000000 0.000000
O O8 0.854274 0.593147 0.396325
O O9 0.000000 0.500000 0.500000
O O10 0.025746 0.824753 0.344582
O O11 0.500000 0.500000 0.500000
O O12 0.386087 0.769501 0.414101
O O13 0.323364 0.806923 0.842495
O O14 0.619447 0.927847 0.798832
O O15 0.469756 0.139248 0.373424
O O16 0.725545 0.047868 0.338301
O O17 0.000000 0.500000 0.000000
O O18 0.998723 0.037141 0.332213
#
# Coordination Sequence:
#
# PCOD9043491 Si02
#       8
#     2   2   2   2   2   2   2   2
#     4  11  23  42  64  92 129 175 215 265 326 386
#     4  12  23  37  62  93 127 171 219 266 311 370
#     4  11  23  40  60  93 137 177 215 262 325 385
#     4  12  23  42  62  95 132 171 223 267 312 377
#     4  12  26  41  64 100 129 171 220 264 325 386
#     4  11  24  46  73  99 125 163 220 275 325 384
#     4  10  23  45  71  95 123 167 213 268 337 381
#     4  11  25  41  64  96 136 175 211 261 330 397
#
# _framework density 20.483174999999999
#
# number of rings (size 3 to 8) (size 9 to 14) (size 15 to 20)
#    0.000    0.750    3.750    3.750    3.500    2.000 
#    0.000    2.500    0.000    0.000    0.000    0.000 
#    0.000    0.000    0.000    0.000    0.000    0.000 
#
# Total GULP energy -89168.410338 kJ/mol
# GULP energy per Si atom -5573.025646 kJ/mol
# Density = 2.043655 g / cm^3
# Si number density = 20.483175 Si / 1000 Ang^3
#
#
#
# Elastic Constant Matrix: (Units=GPa)
#
#
# Indices 1 2 3 4 5 6 
#
# 1 160.3019 54.0850 38.9891 -4.9209 1.2616 -14.8256
# 2 54.0850 75.1739 27.3090 0.4731 -2.9819 -8.8122
# 3 38.9891 27.3090 84.0412 -4.2897 12.3691 -7.6237
# 4 -4.9209 0.4731 -4.2897 32.8204 -7.9679 -9.4132
# 5 1.2616 -2.9819 12.3691 -7.9679 30.8981 2.3146
# 6 -14.8256 -8.8122 -7.6237 -9.4132 2.3146 42.3314
#
#
#
# Elastic Compliance Matrix: (Units=1/GPa)
#
#
# Indices 1 2 3 4 5 6 
#
# 1 0.008781 -0.005317 -0.002120 0.001746 0.000281 0.001959
# 2 -0.005317 0.018885 -0.004113 -0.000463 0.003489 0.001034
# 3 -0.002120 -0.004113 0.015347 0.000669 -0.006406 0.001664
# 4 0.001746 -0.000463 0.000669 0.035075 0.008062 0.007994
# 5 0.000281 0.003489 -0.006406 0.008062 0.037377 -0.000580
# 6 0.001959 0.001034 0.001664 0.007994 -0.000580 0.026634
#
#
# Mechanical properties :
#
#
# Convention : Reuss Voigt Hill
#
# Bulk Modulus (GPa) = 50.22235 62.25367 56.23801
# Shear Modulus (GPa) = 29.09751 34.48558 31.79155
#
# Velocity S-wave (km/s) = 3.77312 4.10763 3.94392
# Velocity P-wave (km/s) = 6.59954 7.27704 6.94656
#
# Compressibility (1/GPa) = 0.01991145
#
# Stress axis : x y z
#
# Youngs Moduli (GPa) = 113.88862 52.95255 65.15910
#
# Poissons Ratio (x) = 0.28156 0.13815
# Poissons Ratio (y) = 0.60557 0.26801
# Poissons Ratio (z) = 0.24146 0.21780
#
# Static dielectric constant tensor:
#      x y z
#    x 1.651890 -0.052850 -0.039860 
#    y -0.052850 1.737000 0.036760 
#    z -0.039860 0.036760 1.803270 
# 
# From -- ./inp_files/333422.got.cif
#   From: 2010.05.17/outbox.cif.g08.bks.cpg/sg2_167_cif.got.tgz:333422.got - 2010.06.03 11:33:40.
