data_PCOD9043061
_publ_section_title
;
Structure prediction by ZEFSAII (Michael W. Deem and Ramdas Pophale) SiO2 
 PCOD9043061
Probable space group: P -1
;
_chemical_formula_sum "Si O2"
_cell_formula_units_Z 16
_cell_length_a 11.635759
_cell_length_b 12.048573
_cell_length_c 11.707335
_cell_angle_alpha 149.976810
_cell_angle_beta 58.508375
_cell_angle_gamma 122.467040
_cell_volume 686.391455
_symmetry_space_group_name_H-M "P -1"
_symmetry_group_IT_number 2
_symmetry_cell_setting 'triclinic'
loop_
_space_group_symop_operation_xyz
x,y,z
-x,-y,-z
loop_
_atom_site_type_symbol
_atom_site_label
_atom_site_fract_x
_atom_site_fract_y
_atom_site_fract_z
Si Si1 0.588531 0.853282 0.752446
Si Si2 0.427512 0.353110 0.012239
Si Si3 0.690669 0.234908 0.875122
Si Si4 0.115045 0.356932 0.779507
Si Si5 0.351968 0.516039 0.441659
Si Si6 0.862806 0.917662 0.119044
Si Si7 0.073394 0.677903 0.715073
Si Si8 0.922403 0.118996 0.497814
O O1 0.483530 0.688110 0.577282
O O2 0.653027 0.711827 0.686311
O O3 0.691351 0.028141 0.776364
O O4 0.500000 0.000000 0.000000
O O5 0.373671 0.478887 0.261518
O O6 0.500000 0.500000 0.000000
O O7 0.540101 0.225714 0.895198
O O8 0.295673 0.191954 0.883637
O O9 0.798406 0.221349 0.706549
O O10 0.741432 0.471431 0.126373
O O11 0.065703 0.258580 0.594349
O O12 0.100679 0.137952 0.671776
O O13 0.000000 0.500000 0.000000
O O14 0.211152 0.601211 0.613312
O O15 0.875560 0.065824 0.130007
O O16 0.915182 0.099323 0.350374
O O17 0.952952 0.722394 0.901195
O O18 0.000000 0.500000 0.500000
#
# Coordination Sequence:
#
# PCOD9043061 Si02
#       8
#     2   2   2   2   2   2   2   2
#     4  11  25  48  71 107 144 192 245 307 363 439
#     4  12  26  45  77 109 150 192 241 302 365 449
#     4  11  24  43  73 105 146 188 240 298 372 431
#     4   9  21  45  64  98 142 182 235 291 349 434
#     4  11  26  49  73 106 147 192 249 301 372 429
#     4  11  26  47  72 110 140 193 247 295 371 439
#     4  11  25  50  73 101 144 189 247 301 356 438
#     4  10  23  45  68 103 146 184 236 295 368 433
#
# _framework density 23.310313000000001
#
# number of rings (size 3 to 8) (size 9 to 14) (size 15 to 20)
#    0.000    1.250    2.500    1.500    5.250    2.500 
#   18.000    0.000    0.000    0.000    0.000    0.000 
#    0.000    0.000    0.000    0.000    0.000    0.000 
#
# Total GULP energy -89547.683215 kJ/mol
# GULP energy per Si atom -5596.730201 kJ/mol
# Density = 2.325726 g / cm^3
# Si number density = 23.310313 Si / 1000 Ang^3
#
#
#
# Elastic Constant Matrix: (Units=GPa)
#
#
# Indices 1 2 3 4 5 6 
#
# 1 109.3576 26.3607 45.4846 -4.0952 -22.9639 -6.9244
# 2 26.3607 85.7017 22.7990 7.9691 -6.8722 -7.7117
# 3 45.4846 22.7990 92.9973 -1.0138 -10.5424 -3.6983
# 4 -4.0952 7.9691 -1.0138 32.2415 -1.7305 0.5739
# 5 -22.9639 -6.8722 -10.5424 -1.7305 48.0894 -6.4782
# 6 -6.9244 -7.7117 -3.6983 0.5739 -6.4782 21.3157
#
#
#
# Elastic Compliance Matrix: (Units=1/GPa)
#
#
# Indices 1 2 3 4 5 6 
#
# 1 0.013338 -0.002099 -0.005178 0.002274 0.005597 0.004315
# 2 -0.002099 0.013679 -0.002091 -0.003740 0.000937 0.004290
# 3 -0.005178 -0.002091 0.013834 0.000308 0.000278 0.000038
# 4 0.002274 -0.003740 0.000308 0.032344 0.001658 -0.000928
# 5 0.005597 0.000937 0.000278 0.001658 0.025038 0.009770
# 6 0.004315 0.004290 0.000038 -0.000928 0.009770 0.052868
#
#
# Mechanical properties :
#
#
# Convention : Reuss Voigt Hill
#
# Bulk Modulus (GPa) = 45.21748 53.03837 49.12793
# Shear Modulus (GPa) = 28.21521 33.22346 30.71934
#
# Velocity S-wave (km/s) = 3.48288 3.77937 3.63415
# Velocity P-wave (km/s) = 5.96776 6.46896 6.22340
#
# Compressibility (1/GPa) = 0.02211534
#
# Stress axis : x y z
#
# Youngs Moduli (GPa) = 74.97591 73.10380 72.28381
#
# Poissons Ratio (x) = 0.15347 0.37427
# Poissons Ratio (y) = 0.15740 0.15112
# Poissons Ratio (z) = 0.38821 0.15284
#
# Static dielectric constant tensor:
#      x y z
#    x 1.863270 0.008480 -0.013180 
#    y 0.008480 1.926570 -0.014670 
#    z -0.013180 -0.014670 1.881970 
# 
# From -- ./inp_files/429210.got.cif
#   From: 2010.05.17/outbox.cif.g08.bks.cpg/sg2_215_cif.got.tgz:429210.got - 2010.06.03 11:33:40.
