data_PCOD9043366
_publ_section_title
;
Structure prediction by ZEFSAII (Michael W. Deem and Ramdas Pophale) SiO2 
 PCOD9043366
Probable space group: P -1
;
_chemical_formula_sum "Si O2"
_cell_formula_units_Z 16
_cell_length_a 12.520596
_cell_length_b 8.939146
_cell_length_c 9.238264
_cell_angle_alpha 47.092690
_cell_angle_beta 93.147954
_cell_angle_gamma 95.269879
_cell_volume 754.101297
_symmetry_space_group_name_H-M "P -1"
_symmetry_group_IT_number 2
_symmetry_cell_setting 'triclinic'
loop_
_space_group_symop_operation_xyz
x,y,z
-x,-y,-z
loop_
_atom_site_type_symbol
_atom_site_label
_atom_site_fract_x
_atom_site_fract_y
_atom_site_fract_z
Si Si1 0.527848 0.537254 0.310044
Si Si2 0.913546 0.769937 0.432463
Si Si3 0.889663 0.948040 0.847186
Si Si4 0.425866 0.818138 0.674978
Si Si5 0.969612 0.498546 0.167968
Si Si6 0.181060 0.915065 0.556143
Si Si7 0.736415 0.842208 0.159718
Si Si8 0.423528 0.862085 0.972785
O O1 0.500000 0.500000 0.500000
O O2 0.551876 0.364160 0.311944
O O3 0.636830 0.687057 0.209099
O O4 0.419881 0.640419 0.187570
O O5 0.816863 0.726270 0.342566
O O6 0.943878 0.578579 0.659390
O O7 0.877286 0.949167 0.419237
O O8 0.013859 0.874377 0.278455
O O9 0.833722 0.965244 0.674897
O O10 0.935904 0.729100 0.030808
O O11 0.800574 0.957340 0.958034
O O12 0.303559 0.876689 0.619755
O O13 0.462149 0.812135 0.848473
O O14 0.500000 0.000000 0.500000
O O15 0.878118 0.312938 0.303819
O O16 0.000000 0.500000 0.000000
O O17 0.682502 0.020469 0.125112
O O18 0.500000 0.000000 0.000000
#
# Coordination Sequence:
#
# PCOD9043366 Si02
#       8
#     2   2   2   2   2   2   2   2
#     4  11  26  47  68 103 141 176 233 289 348 420
#     4  11  22  43  66 100 136 183 229 284 343 418
#     4  11  23  41  69  97 139 181 228 283 348 413
#     4  12  25  45  73 100 135 181 235 284 350 416
#     4  11  20  41  66  97 137 176 230 288 336 412
#     4  11  23  40  69 100 133 181 234 280 347 413
#     4  11  24  45  67 101 141 179 225 287 355 407
#     4  10  23  45  70  95 137 177 223 286 346 410
#
# _framework density 21.217307999999999
#
# number of rings (size 3 to 8) (size 9 to 14) (size 15 to 20)
#    0.000    1.000    3.750    3.750    5.250    0.500 
#    6.750    0.000    0.000    0.000    0.000    0.000 
#    0.000    0.000    0.000    0.000    0.000    0.000 
#
# Total GULP energy -89186.771671 kJ/mol
# GULP energy per Si atom -5574.173229 kJ/mol
# Density = 2.116902 g / cm^3
# Si number density = 21.217308 Si / 1000 Ang^3
#
#
#
# Elastic Constant Matrix: (Units=GPa)
#
#
# Indices 1 2 3 4 5 6 
#
# 1 61.9288 30.9627 24.8150 -0.8217 3.2209 7.9247
# 2 30.9627 116.1193 51.0248 12.5153 -1.0417 -17.0621
# 3 24.8150 51.0248 153.5676 7.5511 7.8021 -0.5505
# 4 -0.8217 12.5153 7.5511 37.0664 -7.1611 2.7933
# 5 3.2209 -1.0417 7.8021 -7.1611 29.7473 9.9208
# 6 7.9247 -17.0621 -0.5505 2.7933 9.9208 22.8378
#
#
#
# Elastic Compliance Matrix: (Units=1/GPa)
#
#
# Indices 1 2 3 4 5 6 
#
# 1 0.023118 -0.008677 -0.001452 0.005973 0.004800 -0.017355
# 2 -0.008677 0.015642 -0.003102 -0.007229 -0.005392 0.017848
# 3 -0.001452 -0.003102 0.007926 -0.000950 -0.002054 -0.000614
# 4 0.005973 -0.007229 -0.000950 0.033608 0.013227 -0.017353
# 5 0.004800 -0.005392 -0.002054 0.013227 0.045708 -0.027217
# 6 -0.017355 0.017848 -0.000614 -0.017353 -0.027217 0.077075
#
#
# Mechanical properties :
#
#
# Convention : Reuss Voigt Hill
#
# Bulk Modulus (GPa) = 49.44692 60.58009 55.01350
# Shear Modulus (GPa) = 21.16129 32.91785 27.03957
#
# Velocity S-wave (km/s) = 3.16153 3.94313 3.57376
# Velocity P-wave (km/s) = 6.05661 7.02462 6.55850
#
# Compressibility (1/GPa) = 0.02022371
#
# Stress axis : x y z
#
# Youngs Moduli (GPa) = 43.25576 63.93135 126.16769
#
# Poissons Ratio (x) = 0.55473 0.18325
# Poissons Ratio (y) = 0.37533 0.39133
# Poissons Ratio (z) = 0.06283 0.19830
#
# Static dielectric constant tensor:
#      x y z
#    x 1.744320 0.023170 0.021340 
#    y 0.023170 1.708950 -0.035230 
#    z 0.021340 -0.035230 1.697790 
# 
# From -- ./inp_files/242095.got.cif
#   From: 2010.05.17/outbox.cif.g08.bks.cpg/sg2_122_cif.got.tgz:242095.got - 2010.06.03 11:33:40.
