data_PCOD9043899
_publ_section_title
;
Structure prediction by ZEFSAII (Michael W. Deem and Ramdas Pophale) SiO2 
 PCOD9043899
Probable space group: P -1
;
_chemical_formula_sum "Si O2"
_cell_formula_units_Z 16
_cell_length_a 20.641336
_cell_length_b 17.098931
_cell_length_c 11.065830
_cell_angle_alpha 145.490585
_cell_angle_beta 148.070624
_cell_angle_gamma 20.335822
_cell_volume 709.317216
_symmetry_space_group_name_H-M "P -1"
_symmetry_group_IT_number 2
_symmetry_cell_setting 'triclinic'
loop_
_space_group_symop_operation_xyz
x,y,z
-x,-y,-z
loop_
_atom_site_type_symbol
_atom_site_label
_atom_site_fract_x
_atom_site_fract_y
_atom_site_fract_z
Si Si1 0.570331 0.593518 0.332415
Si Si2 0.891338 0.956140 0.805382
Si Si3 0.612355 0.535152 0.772180
Si Si4 0.983571 0.563854 0.403049
Si Si5 0.073813 0.184221 0.066458
Si Si6 0.456911 0.690555 0.995926
Si Si7 0.526739 0.906866 0.054045
Si Si8 0.177086 0.380110 0.215871
O O1 0.615357 0.400446 0.205359
O O2 0.741482 0.541212 0.582069
O O3 0.346719 0.829976 0.330781
O O4 0.559959 0.626004 0.209867
O O5 0.998015 0.716626 0.634624
O O6 0.896066 0.948389 0.946169
O O7 0.000000 0.000000 0.000000
O O8 0.500000 0.500000 0.500000
O O9 0.849452 0.346453 0.871155
O O10 0.589015 0.566820 0.923209
O O11 0.503066 0.764521 0.832183
O O12 0.091141 0.442404 0.291219
O O13 0.070181 0.343925 0.322871
O O14 0.747171 0.744397 0.246341
O O15 0.276179 0.962941 0.031874
O O16 0.500000 0.000000 0.000000
O O17 0.365778 0.113877 0.153022
O O18 0.000000 0.500000 0.000000
#
# Coordination Sequence:
#
# PCOD9043899 Si02
#       8
#     2   2   2   2   2   2   2   2
#     4  10  24  42  71 104 140 178 226 293 338 404
#     4  11  23  42  70 101 137 175 229 278 344 406
#     4  11  26  42  69  99 135 181 227 281 345 406
#     4  11  24  42  67  96 137 175 222 284 337 404
#     4  10  24  43  65  97 135 179 222 276 343 403
#     4  10  23  46  66 101 140 172 231 285 343 404
#     4  11  24  46  63  97 140 173 233 282 336 410
#     4  12  25  41  69 100 130 186 226 273 347 399
#
# _framework density 22.556903999999999
#
# number of rings (size 3 to 8) (size 9 to 14) (size 15 to 20)
#    0.000    1.250    2.500    1.875    8.750    2.500 
#    0.000    1.875    0.000    0.000    0.000    0.000 
#    0.000    0.000    0.000    0.000    0.000    0.000 
#
# Total GULP energy -89237.818220 kJ/mol
# GULP energy per Si atom -5577.363639 kJ/mol
# Density = 2.250556 g / cm^3
# Si number density = 22.556904 Si / 1000 Ang^3
#
#
#
# Elastic Constant Matrix: (Units=GPa)
#
#
# Indices 1 2 3 4 5 6 
#
# 1 85.4930 26.8691 26.1237 13.2108 19.0274 7.4348
# 2 26.8691 115.8451 43.7006 19.4292 12.2333 -12.8650
# 3 26.1237 43.7006 133.3638 6.6951 36.2826 2.6129
# 4 13.2108 19.4292 6.6951 40.3836 0.2776 6.7814
# 5 19.0274 12.2333 36.2826 0.2776 27.9611 6.0132
# 6 7.4348 -12.8650 2.6129 6.7814 6.0132 35.5991
#
#
#
# Elastic Compliance Matrix: (Units=1/GPa)
#
#
# Indices 1 2 3 4 5 6 
#
# 1 0.015083 -0.002312 0.000654 -0.003576 -0.009698 -0.001714
# 2 -0.002312 0.012073 -0.003065 -0.005597 -0.001034 0.006312
# 3 0.000654 -0.003065 0.012667 -0.000838 -0.015669 0.000632
# 4 -0.003576 -0.005597 -0.000838 0.030090 0.007435 -0.008202
# 5 -0.009698 -0.001034 -0.015669 0.007435 0.065142 -0.009618
# 6 -0.001714 0.006312 0.000632 -0.008202 -0.009618 0.033870
#
#
# Mechanical properties :
#
#
# Convention : Reuss Voigt Hill
#
# Bulk Modulus (GPa) = 32.91706 58.67652 45.79679
# Shear Modulus (GPa) = 26.52556 36.65600 31.59078
#
# Velocity S-wave (km/s) = 3.43292 4.03556 3.74638
# Velocity P-wave (km/s) = 5.50798 6.91256 6.24985
#
# Compressibility (1/GPa) = 0.03037938
#
# Stress axis : x y z
#
# Youngs Moduli (GPa) = 66.29767 82.82657 78.94647
#
# Poissons Ratio (x) = 0.19148 -0.05166
# Poissons Ratio (y) = 0.15327 0.24195
# Poissons Ratio (z) = -0.04339 0.25384
#
# Static dielectric constant tensor:
#      x y z
#    x 1.927490 -0.033770 -0.028630 
#    y -0.033770 1.937830 0.027080 
#    z -0.028630 0.027080 1.869930 
# 
# From -- ./inp_files/472517.got.cif
#   From: 2010.05.17/outbox.cif.g08.bks.cpg/sg2_237_cif.got.tgz:472517.got - 2010.06.03 11:33:40.
