data_PCOD9043629
_publ_section_title
;
Structure prediction by ZEFSAII (Michael W. Deem and Ramdas Pophale) SiO2 
 PCOD9043629
Probable space group: P -1
;
_chemical_formula_sum "Si O2"
_cell_formula_units_Z 14
_cell_length_a 14.241447
_cell_length_b 4.801585
_cell_length_c 9.740119
_cell_angle_alpha 76.362542
_cell_angle_beta 113.150015
_cell_angle_gamma 70.950784
_cell_volume 525.634692
_symmetry_space_group_name_H-M "P -1"
_symmetry_group_IT_number 2
_symmetry_cell_setting 'triclinic'
loop_
_space_group_symop_operation_xyz
x,y,z
-x,-y,-z
loop_
_atom_site_type_symbol
_atom_site_label
_atom_site_fract_x
_atom_site_fract_y
_atom_site_fract_z
Si Si1 0.314333 0.796086 0.888564
Si Si2 0.565202 0.077731 0.407560
Si Si3 0.466151 0.298934 0.811862
Si Si4 0.042559 0.625421 0.828552
Si Si5 0.120296 0.498681 0.601020
Si Si6 0.180995 0.463026 0.348443
Si Si7 0.160026 0.888880 0.036714
O O1 0.361624 0.526206 0.827709
O O2 0.218545 0.135518 0.732611
O O3 0.420751 0.831131 0.013040
O O4 0.257517 0.715444 0.996493
O O5 0.542693 0.965992 0.257837
O O6 0.700725 0.867519 0.538136
O O7 0.500000 0.000000 0.500000
O O8 0.528493 0.452528 0.325603
O O9 0.090486 0.687851 0.705296
O O10 0.077253 0.382037 0.260066
O O11 0.048859 0.869453 0.912270
O O12 0.129550 0.263676 0.975774
O O13 0.155390 0.614727 0.469725
O O14 0.000000 0.500000 0.500000
O O15 0.195439 0.694589 0.219657
#
# Coordination Sequence:
#
# PCOD9043629 Si02
#       7
#     2   2   2   2   2   2   2
#     4  10  23  45  73 104 143 195 240 296 350 437
#     4  12  27  46  70 106 142 185 241 301 363 416
#     4  11  26  45  72 101 142 192 247 286 358 426
#     4  10  24  44  68 100 139 187 236 279 352 436
#     4   9  20  43  69 105 138 182 230 289 354 418
#     4  11  23  44  69 102 143 181 229 303 354 408
#     4  11  24  42  70 100 140 183 237 281 354 425
#
# _framework density 26.634464999999999
#
# number of rings (size 3 to 8) (size 9 to 14) (size 15 to 20)
#    0.000    1.429    1.429    2.143    2.000    9.143 
#    0.000    6.429    0.000    0.000    0.000    0.000 
#    0.000    0.000    0.000    0.000    0.000    0.000 
#
# Total GULP energy -78634.420900 kJ/mol
# GULP energy per Si atom -5616.744350 kJ/mol
# Density = 2.657384 g / cm^3
# Si number density = 26.634465 Si / 1000 Ang^3
#
#
#
# Elastic Constant Matrix: (Units=GPa)
#
#
# Indices 1 2 3 4 5 6 
#
# 1 126.2604 19.0916 66.3849 0.3842 -27.5395 -17.1879
# 2 19.0916 83.1244 27.9317 10.1899 1.6813 6.7457
# 3 66.3849 27.9317 168.9697 -3.2612 -33.9638 -10.0105
# 4 0.3842 10.1899 -3.2612 44.5923 -8.1052 -5.6946
# 5 -27.5395 1.6813 -33.9638 -8.1052 70.8798 -4.2374
# 6 -17.1879 6.7457 -10.0105 -5.6946 -4.2374 38.8820
#
#
#
# Elastic Compliance Matrix: (Units=1/GPa)
#
#
# Indices 1 2 3 4 5 6 
#
# 1 0.011323 -0.002256 -0.003039 0.001494 0.003479 0.005212
# 2 -0.002256 0.014487 -0.002575 -0.004749 -0.003310 -0.005230
# 3 -0.003039 -0.002575 0.008338 0.002054 0.003224 0.001902
# 4 0.001494 -0.004749 0.002054 0.025348 0.004950 0.006265
# 5 0.003479 -0.003310 0.003224 0.004950 0.017986 0.005628
# 6 0.005212 -0.005230 0.001902 0.006265 0.005628 0.030951
#
#
# Mechanical properties :
#
#
# Convention : Reuss Voigt Hill
#
# Bulk Modulus (GPa) = 54.32295 67.24121 60.78208
# Shear Modulus (GPa) = 38.37034 48.53391 43.45212
#
# Velocity S-wave (km/s) = 3.79968 4.27338 4.04347
# Velocity P-wave (km/s) = 6.30001 7.04626 6.68356
#
# Compressibility (1/GPa) = 0.01840843
#
# Stress axis : x y z
#
# Youngs Moduli (GPa) = 88.31761 69.02654 119.92968
#
# Poissons Ratio (x) = 0.15572 0.36442
# Poissons Ratio (y) = 0.19924 0.30885
# Poissons Ratio (z) = 0.26836 0.17776
#
# Static dielectric constant tensor:
#      x y z
#    x 2.130070 -0.002380 -0.008820 
#    y -0.002380 2.015260 0.004270 
#    z -0.008820 0.004270 2.076030 
# 
# From -- ./inp_files/322528.got.cif
#   From: 2010.05.17/outbox.cif.g08.bks.cpg/sg2_162_cif.got.tgz:322528.got - 2010.06.03 11:33:40.
