data_PCOD9043252
_publ_section_title
;
Structure prediction by ZEFSAII (Michael W. Deem and Ramdas Pophale) SiO2 
 PCOD9043252
Probable space group: P -1
;
_chemical_formula_sum "Si O2"
_cell_formula_units_Z 16
_cell_length_a 12.957378
_cell_length_b 14.307321
_cell_length_c 12.385219
_cell_angle_alpha 28.763737
_cell_angle_beta 59.389502
_cell_angle_gamma 41.486313
_cell_volume 648.851598
_symmetry_space_group_name_H-M "P -1"
_symmetry_group_IT_number 2
_symmetry_cell_setting 'triclinic'
loop_
_space_group_symop_operation_xyz
x,y,z
-x,-y,-z
loop_
_atom_site_type_symbol
_atom_site_label
_atom_site_fract_x
_atom_site_fract_y
_atom_site_fract_z
Si Si1 0.111771 0.417685 0.420035
Si Si2 0.344563 0.285889 0.142348
Si Si3 0.629984 0.212440 0.024041
Si Si4 0.333045 0.922836 0.252615
Si Si5 0.017616 0.209217 0.285506
Si Si6 0.603101 0.640350 0.715933
Si Si7 0.723517 0.321279 0.660972
Si Si8 0.887534 0.490066 0.299587
O O1 0.217496 0.490753 0.300649
O O2 0.000000 0.500000 0.500000
O O3 0.991958 0.533521 0.262916
O O4 0.258591 0.076319 0.677112
O O5 0.360488 0.366750 0.169874
O O6 0.444338 0.964211 0.431443
O O7 0.459603 0.291187 0.997576
O O8 0.148305 0.509161 0.977597
O O9 0.576497 0.453831 0.882841
O O10 0.744607 0.161043 0.916653
O O11 0.534867 0.647027 0.452199
O O12 0.289309 0.808839 0.302282
O O13 0.199196 0.051738 0.292161
O O14 0.292290 0.188238 0.963635
O O15 0.990775 0.302167 0.328973
O O16 0.000000 0.000000 0.500000
O O17 0.855095 0.340013 0.543273
#
# Coordination Sequence:
#
# PCOD9043252 Si02
#       8
#     2   2   2   2   2   2   2   2
#     4  11  25  45  69 104 141 177 237 288 345 416
#     4  10  24  44  67 100 140 177 232 291 344 413
#     4  11  24  42  73  96 135 187 229 290 348 407
#     4  11  25  46  68 100 144 183 226 284 346 419
#     4  12  25  46  71 105 145 181 231 293 347 418
#     4  10  23  45  69  99 134 184 233 290 342 412
#     4  11  25  45  68 101 138 183 235 280 346 419
#     4  12  26  44  73 104 139 188 229 283 356 413
#
# _framework density 24.658951999999999
#
# number of rings (size 3 to 8) (size 9 to 14) (size 15 to 20)
#    0.000    1.000    1.250    4.125    5.250    4.000 
#    6.750    0.000    0.000    0.000    0.000    0.000 
#    0.000    0.000    0.000    0.000    0.000    0.000 
#
# Total GULP energy -89699.695632 kJ/mol
# GULP energy per Si atom -5606.230977 kJ/mol
# Density = 2.460283 g / cm^3
# Si number density = 24.658952 Si / 1000 Ang^3
#
#
#
# Elastic Constant Matrix: (Units=GPa)
#
#
# Indices 1 2 3 4 5 6 
#
# 1 65.8656 34.6813 12.1939 -1.4620 -3.1142 0.3742
# 2 34.6813 131.7357 23.3324 0.4250 6.5308 -5.9798
# 3 12.1939 23.3324 55.8923 3.8553 -11.1280 -6.7179
# 4 -1.4620 0.4250 3.8553 38.2265 -0.2121 -10.8890
# 5 -3.1142 6.5308 -11.1280 -0.2121 41.0747 1.9656
# 6 0.3742 -5.9798 -6.7179 -10.8890 1.9656 40.9280
#
#
#
# Elastic Compliance Matrix: (Units=1/GPa)
#
#
# Indices 1 2 3 4 5 6 
#
# 1 0.018019 -0.004541 -0.001880 0.000641 0.001632 -0.001045
# 2 -0.004541 0.009593 -0.003476 0.000370 -0.002863 0.001109
# 3 -0.001880 -0.003476 0.021344 -0.001490 0.006074 0.002325
# 4 0.000641 0.000370 -0.001490 0.028435 -0.000621 0.007399
# 5 0.001632 -0.002863 0.006074 -0.000621 0.026609 -0.000879
# 6 -0.001045 0.001109 0.002325 0.007399 -0.000879 0.026997
#
#
# Mechanical properties :
#
#
# Convention : Reuss Voigt Hill
#
# Bulk Modulus (GPa) = 34.29195 43.76764 39.02980
# Shear Modulus (GPa) = 31.15015 36.26490 33.70752
#
# Velocity S-wave (km/s) = 3.55806 3.83908 3.70124
# Velocity P-wave (km/s) = 5.55126 6.11875 5.84190
#
# Compressibility (1/GPa) = 0.02916136
#
# Stress axis : x y z
#
# Youngs Moduli (GPa) = 55.49701 104.24063 46.85074
#
# Poissons Ratio (x) = 0.47337 0.08809
# Poissons Ratio (y) = 0.25202 0.16286
# Poissons Ratio (z) = 0.10435 0.36236
#
# Static dielectric constant tensor:
#      x y z
#    x 1.924830 -0.030530 0.015020 
#    y -0.030530 1.970590 0.022710 
#    z 0.015020 0.022710 1.952250 
# 
# From -- ./inp_files/455391.got.cif
#   From: 2010.05.17/outbox.cif.g08.bks.cpg/sg2_228_cif.got.tgz:455391.got - 2010.06.03 11:33:40.
