data_PCOD9043305
_publ_section_title
;
Structure prediction by ZEFSAII (Michael W. Deem and Ramdas Pophale) SiO2 
 PCOD9043305
Probable space group: P -1
;
_chemical_formula_sum "Si O2"
_cell_formula_units_Z 16
_cell_length_a 8.053708
_cell_length_b 8.830580
_cell_length_c 20.411986
_cell_angle_alpha 125.932329
_cell_angle_beta 124.695827
_cell_angle_gamma 98.085179
_cell_volume 677.606576
_symmetry_space_group_name_H-M "P -1"
_symmetry_group_IT_number 2
_symmetry_cell_setting 'triclinic'
loop_
_space_group_symop_operation_xyz
x,y,z
-x,-y,-z
loop_
_atom_site_type_symbol
_atom_site_label
_atom_site_fract_x
_atom_site_fract_y
_atom_site_fract_z
Si Si1 0.643347 0.885444 0.353007
Si Si2 0.794126 0.685930 0.569289
Si Si3 0.976836 0.980740 0.911948
Si Si4 0.366388 0.531274 0.816713
Si Si5 0.608119 0.389880 0.636477
Si Si6 0.823818 0.718224 0.156452
Si Si7 0.200918 0.795836 0.146954
Si Si8 0.040927 0.565926 0.388441
O O1 0.668690 0.693417 0.282675
O O2 0.461336 0.749156 0.344960
O O3 0.490423 0.897188 0.263352
O O4 0.902120 0.190632 0.509010
O O5 0.500000 0.500000 0.500000
O O6 0.674096 0.687411 0.474278
O O7 0.914409 0.558145 0.576694
O O8 0.044975 0.990613 0.726720
O O9 0.846303 0.705692 0.784263
O O10 0.783675 0.025401 0.855177
O O11 0.000000 0.000000 0.000000
O O12 0.304947 0.227725 0.026249
O O13 0.176699 0.396656 0.805157
O O14 0.259971 0.618953 0.764834
O O15 0.727123 0.334014 0.591511
O O16 0.040587 0.772497 0.167818
O O17 0.500000 0.500000 0.000000
O O18 0.000000 0.500000 0.000000
#
# Coordination Sequence:
#
# PCOD9043305 Si02
#       8
#     2   2   2   2   2   2   2   2
#     4  12  23  45  68 100 136 186 235 281 343 429
#     4  10  23  45  70 103 135 185 235 285 345 422
#     4  12  24  46  69 102 142 186 232 290 344 422
#     4  12  26  45  65 103 148 181 226 295 358 402
#     4  11  22  44  73  97 135 184 240 286 339 418
#     4  12  24  45  72 104 145 178 229 296 351 408
#     4  12  22  43  71 102 131 186 234 277 344 421
#     4  11  24  42  69 102 136 178 234 290 355 408
#
# _framework density 23.612522999999999
#
# number of rings (size 3 to 8) (size 9 to 14) (size 15 to 20)
#    0.000    0.500    3.750    6.000    0.000    0.500 
#    6.750    1.250    0.000    0.000    0.000    0.000 
#    0.000    0.000    0.000    0.000    0.000    0.000 
#
# Total GULP energy -89555.215820 kJ/mol
# GULP energy per Si atom -5597.200989 kJ/mol
# Density = 2.355878 g / cm^3
# Si number density = 23.612523 Si / 1000 Ang^3
#
#
#
# Elastic Constant Matrix: (Units=GPa)
#
#
# Indices 1 2 3 4 5 6 
#
# 1 61.6487 19.4730 9.0597 -9.4011 -13.5818 3.7888
# 2 19.4730 98.7941 39.5392 -14.2635 10.6017 -3.8054
# 3 9.0597 39.5392 138.8103 -1.2929 -8.1879 -22.1787
# 4 -9.4011 -14.2635 -1.2929 49.3483 -15.9647 0.4351
# 5 -13.5818 10.6017 -8.1879 -15.9647 32.5488 -11.3701
# 6 3.7888 -3.8054 -22.1787 0.4351 -11.3701 35.5726
#
#
#
# Elastic Compliance Matrix: (Units=1/GPa)
#
#
# Indices 1 2 3 4 5 6 
#
# 1 0.022473 -0.005629 0.001739 0.008104 0.016797 0.003358
# 2 -0.005629 0.014012 -0.004832 -0.000231 -0.009636 -0.003991
# 3 0.001739 -0.004832 0.010383 0.002010 0.008899 0.008591
# 4 0.008104 -0.000231 0.002010 0.028224 0.020052 0.006429
# 5 0.016797 -0.009636 0.008899 0.020052 0.060575 0.021845
# 6 0.003358 -0.003991 0.008591 0.006429 0.021845 0.039587
#
#
# Mechanical properties :
#
#
# Convention : Reuss Voigt Hill
#
# Bulk Modulus (GPa) = 33.98396 48.37742 41.18069
# Shear Modulus (GPa) = 24.69042 38.90601 31.79821
#
# Velocity S-wave (km/s) = 3.23716 4.06357 3.67368
# Velocity P-wave (km/s) = 5.32878 6.52299 5.95589
#
# Compressibility (1/GPa) = 0.02942565
#
# Stress axis : x y z
#
# Youngs Moduli (GPa) = 44.49739 71.36494 96.30840
#
# Poissons Ratio (x) = 0.40170 -0.16752
# Poissons Ratio (y) = 0.25047 0.46539
# Poissons Ratio (z) = -0.07740 0.34486
#
# Static dielectric constant tensor:
#      x y z
#    x 1.967870 0.069660 -0.049050 
#    y 0.069660 1.947810 -0.067480 
#    z -0.049050 -0.067480 1.929570 
# 
# From -- ./inp_files/588070.got.cif
#   From: 2010.05.17/outbox.cif.g08.bks.cpg/sg2_295_cif.got.tgz:588070.got - 2010.06.03 11:33:40.
