data_PCOD9043712
_publ_section_title
;
Structure prediction by ZEFSAII (Michael W. Deem and Ramdas Pophale) SiO2 
 PCOD9043712
Probable space group: P -1
;
_chemical_formula_sum "Si O2"
_cell_formula_units_Z 16
_cell_length_a 14.886464
_cell_length_b 14.191970
_cell_length_c 14.611287
_cell_angle_alpha 35.135430
_cell_angle_beta 41.715579
_cell_angle_gamma 19.051620
_cell_volume 574.082655
_symmetry_space_group_name_H-M "P -1"
_symmetry_group_IT_number 2
_symmetry_cell_setting 'triclinic'
loop_
_space_group_symop_operation_xyz
x,y,z
-x,-y,-z
loop_
_atom_site_type_symbol
_atom_site_label
_atom_site_fract_x
_atom_site_fract_y
_atom_site_fract_z
Si Si1 0.831320 0.391541 0.813843
Si Si2 0.213836 0.384644 0.951435
Si Si3 0.058117 0.209209 0.536192
Si Si4 0.363053 0.574835 0.239740
Si Si5 0.606345 0.660290 0.965239
Si Si6 0.311309 0.115571 0.670802
Si Si7 0.700562 0.439753 0.387447
Si Si8 0.177268 0.137781 0.304597
O O1 0.751284 0.337995 0.845075
O O2 0.133834 0.141386 0.765391
O O3 0.607209 0.777730 0.666452
O O4 0.786678 0.400880 0.948067
O O5 0.228270 0.413078 0.027127
O O6 0.272278 0.514199 0.770018
O O7 0.953157 0.634986 0.869507
O O8 0.500000 0.000000 0.000000
O O9 0.860769 0.258456 0.650746
O O10 0.879535 0.525349 0.480995
O O11 0.111874 0.249717 0.368917
O O12 0.357807 0.828652 0.641055
O O13 0.439381 0.681681 0.112218
O O14 0.394693 0.007950 0.799791
O O15 0.500000 0.500000 0.500000
O O16 0.011711 0.136986 0.428280
O O17 0.503314 0.775349 0.328691
#
# Coordination Sequence:
#
# PCOD9043712 Si02
#       8
#     2   2   2   2   2   2   2   2
#     4  10  23  45  74 104 149 193 257 298 373 437
#     4  10  24  49  78 106 143 195 255 303 369 457
#     4  12  27  44  71 110 151 195 249 305 377 434
#     4  12  27  44  72 110 151 197 245 316 372 445
#     4  10  26  46  75 105 148 197 255 300 384 441
#     4  10  24  44  72 102 143 200 240 306 355 454
#     4  11  25  46  73 109 140 185 238 317 376 443
#     4  11  25  47  71  99 150 191 243 298 375 444
#
# _framework density 27.870552
#
# number of rings (size 3 to 8) (size 9 to 14) (size 15 to 20)
#    0.750    0.500    0.000    4.125    8.750    3.500 
#    4.500    0.000    0.000    0.000    0.000    0.000 
#    0.000    0.000    0.000    0.000    0.000    0.000 
#
# Total GULP energy -89454.047667 kJ/mol
# GULP energy per Si atom -5590.877979 kJ/mol
# Density = 2.780712 g / cm^3
# Si number density = 27.870552 Si / 1000 Ang^3
#
#
#
# Elastic Constant Matrix: (Units=GPa)
#
#
# Indices 1 2 3 4 5 6 
#
# 1 153.8226 40.2840 53.3144 21.9577 12.7889 -21.0399
# 2 40.2840 174.9784 38.9392 11.3418 24.2567 -17.5779
# 3 53.3144 38.9392 107.9745 31.3731 9.5349 -6.4301
# 4 21.9577 11.3418 31.3731 57.7041 3.4530 -0.5223
# 5 12.7889 24.2567 9.5349 3.4530 35.0218 17.0435
# 6 -21.0399 -17.5779 -6.4301 -0.5223 17.0435 49.2596
#
#
#
# Elastic Compliance Matrix: (Units=1/GPa)
#
#
# Indices 1 2 3 4 5 6 
#
# 1 0.008896 -0.000116 -0.003296 -0.001256 -0.004521 0.004879
# 2 -0.000116 0.007618 -0.001760 -0.000025 -0.007142 0.004910
# 3 -0.003296 -0.001760 0.013164 -0.005528 -0.000521 -0.000196
# 4 -0.001256 -0.000025 -0.005528 0.020775 0.000531 -0.001230
# 5 -0.004521 -0.007142 -0.000521 0.000531 0.045034 -0.020124
# 6 0.004879 0.004910 -0.000196 -0.001230 -0.020124 0.031061
#
#
# Mechanical properties :
#
#
# Convention : Reuss Voigt Hill
#
# Bulk Modulus (GPa) = 51.72146 77.98342 64.85244
# Shear Modulus (GPa) = 34.88257 48.67961 41.78109
#
# Velocity S-wave (km/s) = 3.54162 4.18381 3.87604
# Velocity P-wave (km/s) = 5.94324 7.16801 6.58417
#
# Compressibility (1/GPa) = 0.01933433
#
# Stress axis : x y z
#
# Youngs Moduli (GPa) = 112.40480 131.26305 75.96421
#
# Poissons Ratio (x) = 0.01527 0.25039
# Poissons Ratio (y) = 0.01307 0.13368
# Poissons Ratio (z) = 0.37050 0.23099
#
# Static dielectric constant tensor:
#      x y z
#    x 2.289880 -0.012860 -0.141100 
#    y -0.012860 2.091080 0.127530 
#    z -0.141100 0.127530 2.630610 
# 
# From -- ./inp_files/574022.got.cif
#   From: 2010.05.17/outbox.cif.g08.bks.cpg/sg2_288_cif.got.tgz:574022.got - 2010.06.03 11:33:40.
