data_PCOD9043424
_publ_section_title
;
Structure prediction by ZEFSAII (Michael W. Deem and Ramdas Pophale) SiO2 
 PCOD9043424
Probable space group: P -1
;
_chemical_formula_sum "Si O2"
_cell_formula_units_Z 16
_cell_length_a 16.734383
_cell_length_b 13.765092
_cell_length_c 22.673790
_cell_angle_alpha 160.662052
_cell_angle_beta 22.459294
_cell_angle_gamma 147.655205
_cell_volume 645.303408
_symmetry_space_group_name_H-M "P -1"
_symmetry_group_IT_number 2
_symmetry_cell_setting 'triclinic'
loop_
_space_group_symop_operation_xyz
x,y,z
-x,-y,-z
loop_
_atom_site_type_symbol
_atom_site_label
_atom_site_fract_x
_atom_site_fract_y
_atom_site_fract_z
Si Si1 0.048926 0.531179 0.891972
Si Si2 0.538765 0.721884 0.459872
Si Si3 0.707511 0.141817 0.505710
Si Si4 0.157841 0.811898 0.863965
Si Si5 0.896602 0.501455 0.678576
Si Si6 0.762402 0.130462 0.796610
Si Si7 0.875468 0.444981 0.791183
Si Si8 0.381631 0.404957 0.278857
O O1 0.224287 0.395448 0.742793
O O2 0.175073 0.591291 0.781503
O O3 0.902468 0.300116 0.840634
O O4 0.891891 0.845319 0.196534
O O5 0.365234 0.767992 0.656437
O O6 0.479983 0.490693 0.321040
O O7 0.540229 0.020979 0.592159
O O8 0.794129 0.380068 0.623091
O O9 0.631406 0.307666 0.591599
O O10 0.954682 0.744771 0.927316
O O11 0.114104 0.145038 0.110842
O O12 0.799818 0.440917 0.773353
O O13 0.147839 0.349961 0.418233
O O14 0.732055 0.326687 0.869640
O O15 0.539192 0.141040 0.986125
O O16 0.901322 0.805583 0.501891
#
# Coordination Sequence:
#
# PCOD9043424 Si02
#       8
#     2   2   2   2   2   2   2   2
#     4  11  24  47  73 102 147 180 227 301 350 409
#     4  12  26  44  76 105 135 191 240 279 354 416
#     4  12  27  46  70 104 148 181 231 295 349 412
#     4  11  25  46  71 100 143 186 236 285 349 417
#     4  12  26  46  70 103 146 188 229 289 355 412
#     4  10  24  45  73 105 141 181 237 290 350 414
#     4  10  23  45  71 101 141 185 230 291 349 408
#     4  12  26  45  73 106 137 186 239 284 346 421
#
# _framework density 24.794537999999999
#
# number of rings (size 3 to 8) (size 9 to 14) (size 15 to 20)
#    0.000    0.750    3.750    2.625    3.500    2.000 
#    6.750    0.000    0.000    0.000    0.000    0.000 
#    0.000    0.000    0.000    0.000    0.000    0.000 
#
# Total GULP energy -89752.282315 kJ/mol
# GULP energy per Si atom -5609.517645 kJ/mol
# Density = 2.473810 g / cm^3
# Si number density = 24.794538 Si / 1000 Ang^3
#
#
#
# Elastic Constant Matrix: (Units=GPa)
#
#
# Indices 1 2 3 4 5 6 
#
# 1 130.2824 39.9389 31.1188 -0.0085 5.0691 -5.1267
# 2 39.9389 96.2115 40.2458 -2.0639 16.3651 -10.3081
# 3 31.1188 40.2458 88.2933 -3.3794 15.0468 7.2120
# 4 -0.0085 -2.0639 -3.3794 49.1957 -4.0558 9.0011
# 5 5.0691 16.3651 15.0468 -4.0558 38.7531 3.3337
# 6 -5.1267 -10.3081 7.2120 9.0011 3.3337 31.2327
#
#
#
# Elastic Compliance Matrix: (Units=1/GPa)
#
#
# Indices 1 2 3 4 5 6 
#
# 1 0.009083 -0.002912 -0.002099 -0.000397 0.000724 0.001052
# 2 -0.002912 0.015572 -0.005899 -0.001402 -0.004647 0.006924
# 3 -0.002099 -0.005899 0.015775 0.001743 -0.002647 -0.006154
# 4 -0.000397 -0.001402 0.001743 0.022017 0.002924 -0.007588
# 5 0.000724 -0.004647 -0.002647 0.002924 0.029418 -0.004786
# 6 0.001052 0.006924 -0.006154 -0.007588 -0.004786 0.038594
#
#
# Mechanical properties :
#
#
# Convention : Reuss Voigt Hill
#
# Bulk Modulus (GPa) = 53.73088 59.71045 56.72066
# Shear Modulus (GPa) = 31.54935 37.40188 34.47562
#
# Velocity S-wave (km/s) = 3.57099 3.88812 3.73292
# Velocity P-wave (km/s) = 6.22255 6.65515 6.44248
#
# Compressibility (1/GPa) = 0.01861127
#
# Stress axis : x y z
#
# Youngs Moduli (GPa) = 110.10039 64.21667 63.39101
#
# Poissons Ratio (x) = 0.18697 0.13303
# Poissons Ratio (y) = 0.32056 0.37396
# Poissons Ratio (z) = 0.23105 0.37883
#
# Static dielectric constant tensor:
#      x y z
#    x 1.942890 -0.059700 -0.022750 
#    y -0.059700 1.947060 0.009640 
#    z -0.022750 0.009640 1.988010 
# 
# From -- ./inp_files/613263.got.cif
#   From: 2010.05.17/outbox.cif.g08.bks.cpg/sg2_307_cif.got.tgz:613263.got - 2010.06.03 11:33:40.
