data_PCOD9043227
_publ_section_title
;
Structure prediction by ZEFSAII (Michael W. Deem and Ramdas Pophale) SiO2 
 PCOD9043227
Probable space group: P -1
;
_chemical_formula_sum "Si O2"
_cell_formula_units_Z 14
_cell_length_a 8.475396
_cell_length_b 12.120642
_cell_length_c 11.164549
_cell_angle_alpha 94.164649
_cell_angle_beta 36.401149
_cell_angle_gamma 77.774717
_cell_volume 603.945538
_symmetry_space_group_name_H-M "P -1"
_symmetry_group_IT_number 2
_symmetry_cell_setting 'triclinic'
loop_
_space_group_symop_operation_xyz
x,y,z
-x,-y,-z
loop_
_atom_site_type_symbol
_atom_site_label
_atom_site_fract_x
_atom_site_fract_y
_atom_site_fract_z
Si Si1 0.125696 0.757720 0.603966
Si Si2 0.529742 0.917945 0.092083
Si Si3 0.663587 0.095191 0.173928
Si Si4 0.194701 0.717043 0.031580
Si Si5 0.660646 0.537823 0.175815
Si Si6 0.527238 0.863973 0.454565
Si Si7 0.251764 0.741981 0.272667
O O1 0.411179 0.622590 0.432235
O O2 0.268319 0.853058 0.538567
O O3 0.032621 0.760759 0.521148
O O4 0.856204 0.800346 0.863569
O O5 0.295409 0.864610 0.241081
O O6 0.500000 0.000000 0.000000
O O7 0.526381 0.005168 0.208928
O O8 0.505316 0.174401 0.393279
O O9 0.681732 0.185804 0.069711
O O10 0.000000 0.000000 0.000000
O O11 0.187470 0.706961 0.178838
O O12 0.853043 0.776723 0.199107
O O13 0.366922 0.584493 0.853799
O O14 0.554085 0.630713 0.133694
O O15 0.000000 0.500000 0.000000
O O16 0.500000 0.000000 0.500000
#
# Coordination Sequence:
#
# PCOD9043227 Si02
#       7
#     2   2   2   2   2   2   2
#     4  10  24  43  64  97 127 172 222 264 326 385
#     4  12  24  44  64 100 137 165 215 271 340 387
#     4  12  25  39  65  98 132 171 216 272 321 392
#     4  12  23  45  65  97 134 173 218 270 328 384
#     4  10  23  45  69  94 129 177 223 269 322 386
#     4  12  23  40  67  97 131 171 220 268 327 388
#     4  10  25  42  67  94 135 169 218 272 324 392
#
# _framework density 23.180899
#
# number of rings (size 3 to 8) (size 9 to 14) (size 15 to 20)
#    0.857    0.000    5.714    1.286    4.000    0.571 
#    2.571    2.143    0.000    0.000    0.000    0.000 
#    0.000    0.000    0.000    0.000    0.000    0.000 
#
# Total GULP energy -78227.583802 kJ/mol
# GULP energy per Si atom -5587.684557 kJ/mol
# Density = 2.312814 g / cm^3
# Si number density = 23.180899 Si / 1000 Ang^3
#
#
#
# Elastic Constant Matrix: (Units=GPa)
#
#
# Indices 1 2 3 4 5 6 
#
# 1 61.0176 7.5363 4.4496 10.5367 9.0075 -1.7272
# 2 7.5363 78.1301 11.9288 21.6126 3.3336 4.1957
# 3 4.4496 11.9288 86.2779 17.8450 0.4856 2.4343
# 4 10.5367 21.6126 17.8450 32.8968 -0.4189 6.9280
# 5 9.0075 3.3336 0.4856 -0.4189 37.9842 5.0407
# 6 -1.7272 4.1957 2.4343 6.9280 5.0407 37.4633
#
#
#
# Elastic Compliance Matrix: (Units=1/GPa)
#
#
# Indices 1 2 3 4 5 6 
#
# 1 0.018300 0.000108 0.000393 -0.006776 -0.004788 0.002703
# 2 0.000108 0.015732 -0.000019 -0.010462 -0.001573 0.000391
# 3 0.000393 -0.000019 0.013076 -0.007335 -0.000417 0.000583
# 4 -0.006776 -0.010462 -0.007335 0.045064 0.004118 -0.007552
# 5 -0.004788 -0.001573 -0.000417 0.004118 0.028259 -0.004581
# 6 0.002703 0.000391 0.000583 -0.007552 -0.004581 0.028749
#
#
# Mechanical properties :
#
#
# Convention : Reuss Voigt Hill
#
# Bulk Modulus (GPa) = 20.80150 30.36165 25.58158
# Shear Modulus (GPa) = 30.44368 35.10291 32.77329
#
# Velocity S-wave (km/s) = 3.62789 3.89563 3.76414
# Velocity P-wave (km/s) = 5.15188 5.77587 5.47277
#
# Compressibility (1/GPa) = 0.04807345
#
# Stress axis : x y z
#
# Youngs Moduli (GPa) = 54.64451 63.56529 76.47760
#
# Poissons Ratio (x) = -0.00689 -0.03009
# Poissons Ratio (y) = -0.00592 0.00145
# Poissons Ratio (z) = -0.02150 0.00120
#
# Static dielectric constant tensor:
#      x y z
#    x 1.909740 -0.033430 -0.007050 
#    y -0.033430 1.852570 0.003390 
#    z -0.007050 0.003390 1.920590 
# 
# From -- ./inp_files/265393.got.cif
#   From: 2010.05.17/outbox.cif.g08.bks.cpg/sg2_133_cif.got.tgz:265393.got - 2010.06.03 11:33:40.
