data_PCOD9043077
_publ_section_title
;
Structure prediction by ZEFSAII (Michael W. Deem and Ramdas Pophale) SiO2 
 PCOD9043077
Probable space group: P -1
;
_chemical_formula_sum "Si O2"
_cell_formula_units_Z 15
_cell_length_a 12.315071
_cell_length_b 23.774100
_cell_length_c 6.159865
_cell_angle_alpha 107.323080
_cell_angle_beta 90.230019
_cell_angle_gamma 153.028735
_cell_volume 611.309792
_symmetry_space_group_name_H-M "P -1"
_symmetry_group_IT_number 2
_symmetry_cell_setting 'triclinic'
loop_
_space_group_symop_operation_xyz
x,y,z
-x,-y,-z
loop_
_atom_site_type_symbol
_atom_site_label
_atom_site_fract_x
_atom_site_fract_y
_atom_site_fract_z
Si Si1 0.555110 0.270902 0.134351
Si Si2 0.905368 0.361827 0.971611
Si Si3 0.372354 0.100302 0.330460
Si Si4 0.700337 0.655463 0.274363
Si Si5 0.829635 0.602172 0.697074
Si Si6 0.797555 0.108886 0.127959
Si Si7 0.606265 0.417345 0.114019
Si Si8 0.000000 0.000000 0.500000
O O1 0.526455 0.224416 0.307560
O O2 0.568853 0.348409 0.215611
O O3 0.837698 0.384917 0.139546
O O4 0.257237 0.106181 0.797758
O O5 0.625849 0.210046 0.632753
O O6 0.206076 0.517720 0.004670
O O7 0.946653 0.327627 0.092169
O O8 0.110744 0.005924 0.331921
O O9 0.268160 0.989438 0.073506
O O10 0.496819 0.569080 0.385020
O O11 0.035662 0.811683 0.544927
O O12 0.500000 0.500000 0.000000
O O13 0.673789 0.694019 0.141409
O O14 0.796100 0.564127 0.405342
O O15 0.961647 0.734575 0.845079
O O16 0.500000 0.000000 0.000000
#
# Coordination Sequence:
#
# PCOD9043077 Si02
#       8
#     2   2   2   2   2   2   2   1
#     4  11  24  43  70 104 145 190 249 305 369 440
#     4  10  23  45  68 108 145 192 243 306 372 445
#     4  11  26  46  72 106 154 192 249 306 372 445
#     4  11  26  47  73 106 147 191 252 305 381 454
#     4  11  25  46  72 107 143 195 248 307 378 450
#     4  12  26  47  77 110 149 195 246 315 380 448
#     4  11  24  43  75 103 144 189 246 306 372 449
#     4  10  26  46  66  98 146 200 240 298 370 440
#
# _framework density 24.537478
#
# number of rings (size 3 to 8) (size 9 to 14) (size 15 to 20)
#    0.000    1.067    1.333    3.600    5.600    6.933 
#    2.400    0.000    0.000    0.000    0.000    0.000 
#    0.000    0.000    0.000    0.000    0.000    0.000 
#
# Total GULP energy -83736.976477 kJ/mol
# GULP energy per Si atom -5582.465098 kJ/mol
# Density = 2.448163 g / cm^3
# Si number density = 24.537478 Si / 1000 Ang^3
#
#
#
# Elastic Constant Matrix: (Units=GPa)
#
#
# Indices 1 2 3 4 5 6 
#
# 1 172.2041 56.4051 86.5023 -7.2887 15.8172 0.5119
# 2 56.4051 61.4180 31.3767 -7.5729 -1.7590 -13.8520
# 3 86.5023 31.3767 131.2884 6.0037 28.4068 -0.4199
# 4 -7.2887 -7.5729 6.0037 20.0744 0.3681 -0.2203
# 5 15.8172 -1.7590 28.4068 0.3681 60.8805 -3.6512
# 6 0.5119 -13.8520 -0.4199 -0.2203 -3.6512 45.8060
#
#
#
# Elastic Compliance Matrix: (Units=1/GPa)
#
#
# Indices 1 2 3 4 5 6 
#
# 1 0.011392 -0.007858 -0.005605 0.002834 -0.000745 -0.002601
# 2 -0.007858 0.028261 -0.002970 0.008709 0.004733 0.009026
# 3 -0.005605 -0.002970 0.013402 -0.007086 -0.004908 -0.001138
# 4 0.002834 0.008709 -0.007086 0.056232 0.002663 0.003020
# 5 -0.000745 0.004733 -0.004908 0.002663 0.019206 0.002938
# 6 -0.002601 0.009026 -0.001138 0.003020 0.002938 0.024828
#
#
# Mechanical properties :
#
#
# Convention : Reuss Voigt Hill
#
# Bulk Modulus (GPa) = 49.53094 79.27540 64.40317
# Shear Modulus (GPa) = 25.91787 38.06061 31.98924
#
# Velocity S-wave (km/s) = 3.25354 3.94270 3.61458
# Velocity P-wave (km/s) = 5.86035 7.28729 6.61242
#
# Compressibility (1/GPa) = 0.02018940
#
# Stress axis : x y z
#
# Youngs Moduli (GPa) = 87.77783 35.38507 74.61516
#
# Poissons Ratio (x) = 0.27804 0.41822
# Poissons Ratio (y) = 0.68972 0.22162
# Poissons Ratio (z) = 0.49200 0.10510
#
# Static dielectric constant tensor:
#      x y z
#    x 1.909340 0.003010 -0.006370 
#    y 0.003010 2.005910 0.032540 
#    z -0.006370 0.032540 1.924000 
# 
# From -- ./inp_files/84445.got.cif
#   From: 2010.05.17/outbox.cif.g08.bks.cpg/sg2_43_cif.got.tgz:84445.got - 2010.06.03 11:33:40.
