data_PCOD9043626
_publ_section_title
;
Structure prediction by ZEFSAII (Michael W. Deem and Ramdas Pophale) SiO2 
 PCOD9043626
Probable space group: P -1
;
_chemical_formula_sum "Si O2"
_cell_formula_units_Z 16
_cell_length_a 13.167293
_cell_length_b 9.301093
_cell_length_c 22.953621
_cell_angle_alpha 151.471131
_cell_angle_beta 38.718765
_cell_angle_gamma 149.763845
_cell_volume 673.462746
_symmetry_space_group_name_H-M "P -1"
_symmetry_group_IT_number 2
_symmetry_cell_setting 'triclinic'
loop_
_space_group_symop_operation_xyz
x,y,z
-x,-y,-z
loop_
_atom_site_type_symbol
_atom_site_label
_atom_site_fract_x
_atom_site_fract_y
_atom_site_fract_z
Si Si1 0.990982 0.734977 0.528677
Si Si2 0.528870 0.757764 0.740837
Si Si3 0.047980 0.611003 0.259485
Si Si4 0.790741 0.148799 0.316634
Si Si5 0.545517 0.767939 0.520465
Si Si6 0.207159 0.159492 0.246143
Si Si7 0.046861 0.896640 0.105448
Si Si8 0.129573 0.713200 0.890718
O O1 0.219487 0.904175 0.473080
O O2 0.976158 0.056553 0.622161
O O3 0.834020 0.341128 0.428088
O O4 0.920962 0.724344 0.621990
O O5 0.507271 0.475046 0.601162
O O6 0.595068 0.683660 0.746878
O O7 0.325117 0.725706 0.820526
O O8 0.716281 0.173721 0.783590
O O9 0.971637 0.464884 0.306035
O O10 0.900761 0.271816 0.159327
O O11 0.586010 0.074737 0.360186
O O12 0.838713 0.850888 0.189003
O O13 0.500000 0.500000 0.500000
O O14 0.202920 0.187155 0.188318
O O15 0.068858 0.709603 0.158299
O O16 0.124547 0.979526 0.033688
O O17 0.000000 0.500000 0.000000
#
# Coordination Sequence:
#
# PCOD9043626 Si02
#       8
#     2   2   2   2   2   2   2   2
#     4  10  19  34  57  93 128 145 184 235 307 364
#     4  10  17  33  61  89 115 158 182 236 309 345
#     4  10  19  33  59  94 123 148 179 239 307 371
#     4  12  22  37  59  91 124 157 186 240 303 345
#     4  12  19  32  60  95 126 148 180 231 306 376
#     4   9  19  37  59  84 113 158 202 240 287 339
#     4  10  24  44  62  77 114 168 213 245 270 331
#     4   9  18  38  60  85 115 154 200 241 289 342
#
# _framework density 23.757811
#
# number of rings (size 3 to 8) (size 9 to 14) (size 15 to 20)
#    0.000    2.000    6.250    1.125    0.000    1.500 
#    0.000    7.500    0.000    0.000    0.000    0.000 
#    0.000    0.000    0.000    0.000    0.000    0.000 
#
# Total GULP energy -89403.706209 kJ/mol
# GULP energy per Si atom -5587.731638 kJ/mol
# Density = 2.370374 g / cm^3
# Si number density = 23.757811 Si / 1000 Ang^3
#
#
#
# Elastic Constant Matrix: (Units=GPa)
#
#
# Indices 1 2 3 4 5 6 
#
# 1 123.3277 15.6553 51.2028 -0.7000 -0.8926 15.1934
# 2 15.6553 48.0980 1.9537 3.2489 -12.8498 2.5550
# 3 51.2028 1.9537 140.6440 3.4814 5.8925 7.7530
# 4 -0.7000 3.2489 3.4814 14.8715 -2.7828 -6.3089
# 5 -0.8926 -12.8498 5.8925 -2.7828 42.1804 -5.2040
# 6 15.1934 2.5550 7.7530 -6.3089 -5.2040 36.9418
#
#
#
# Elastic Compliance Matrix: (Units=1/GPa)
#
#
# Indices 1 2 3 4 5 6 
#
# 1 0.010402 -0.003276 -0.003544 0.000506 -0.000658 -0.003314
# 2 -0.003276 0.023958 0.000696 -0.004380 0.006813 -0.000244
# 3 -0.003544 0.000696 0.008587 -0.003064 -0.001402 -0.001113
# 4 0.000506 -0.004380 -0.003064 0.076242 0.005935 0.014595
# 5 -0.000658 0.006813 -0.001402 0.005935 0.026962 0.004906
# 6 -0.003314 -0.000244 -0.001113 0.014595 0.004906 0.031867
#
#
# Mechanical properties :
#
#
# Convention : Reuss Voigt Hill
#
# Bulk Modulus (GPa) = 32.57349 49.96593 41.26971
# Shear Modulus (GPa) = 24.93804 35.01593 29.97699
#
# Velocity S-wave (km/s) = 3.24339 3.84327 3.55600
# Velocity P-wave (km/s) = 5.26939 6.38524 5.85396
#
# Compressibility (1/GPa) = 0.03069981
#
# Stress axis : x y z
#
# Youngs Moduli (GPa) = 96.13571 41.74017 116.46137
#
# Poissons Ratio (x) = 0.13673 0.41270
# Poissons Ratio (y) = 0.31492 -0.08108
# Poissons Ratio (z) = 0.34067 -0.02906
#
# Static dielectric constant tensor:
#      x y z
#    x 2.038900 -0.055230 0.000360 
#    y -0.055230 1.921750 0.018310 
#    z 0.000360 0.018310 1.937580 
# 
# From -- ./inp_files/286041.got.cif
#   From: 2010.05.17/outbox.cif.g08.bks.cpg/sg2_144_cif.got.tgz:286041.got - 2010.06.03 11:33:40.
