data_PCOD9043884
_publ_section_title
;
Structure prediction by ZEFSAII (Michael W. Deem and Ramdas Pophale) SiO2 
 PCOD9043884
Probable space group: P -1
;
_chemical_formula_sum "Si O2"
_cell_formula_units_Z 15
_cell_length_a 8.866352
_cell_length_b 14.042599
_cell_length_c 10.415680
_cell_angle_alpha 131.135872
_cell_angle_beta 89.198275
_cell_angle_gamma 55.504593
_cell_volume 629.825863
_symmetry_space_group_name_H-M "P -1"
_symmetry_group_IT_number 2
_symmetry_cell_setting 'triclinic'
loop_
_space_group_symop_operation_xyz
x,y,z
-x,-y,-z
loop_
_atom_site_type_symbol
_atom_site_label
_atom_site_fract_x
_atom_site_fract_y
_atom_site_fract_z
Si Si1 0.964255 0.819370 0.758253
Si Si2 0.886509 0.207794 0.701799
Si Si3 0.673056 0.984362 0.367913
Si Si4 0.498265 0.406897 0.080265
Si Si5 0.839140 0.068112 0.223951
Si Si6 0.276346 0.310357 0.853665
Si Si7 0.413038 0.359328 0.317367
Si Si8 0.500000 0.000000 0.000000
O O1 0.999286 0.913166 0.742124
O O2 0.170514 0.586099 0.544125
O O3 0.721460 0.903353 0.824686
O O4 0.950163 0.901481 0.969060
O O5 0.696446 0.360391 0.731564
O O6 0.110326 0.155568 0.657768
O O7 0.736843 0.302780 0.920373
O O8 0.000000 0.000000 0.500000
O O9 0.674695 0.840973 0.187679
O O10 0.752539 0.035875 0.310559
O O11 0.431181 0.176219 0.607591
O O12 0.507491 0.350412 0.172578
O O13 0.391029 0.362364 0.955572
O O14 0.604377 0.274241 0.345488
O O15 0.000000 0.500000 0.000000
O O16 0.404916 0.212275 0.190933
#
# Coordination Sequence:
#
# PCOD9043884 Si02
#       8
#     2   2   2   2   2   2   2   1
#     4  10  23  46  65 100 138 183 230 276 349 406
#     4  11  24  44  69 103 135 178 232 287 345 402
#     4  11  25  45  73  98 138 181 231 289 343 410
#     4  11  26  43  71 102 136 180 232 286 343 421
#     4  10  25  44  72 102 133 186 235 285 341 415
#     4  11  24  48  66 103 137 182 231 283 352 410
#     4  11  25  45  68 100 143 182 230 283 349 409
#     4  10  24  44  64 100 136 182 228 276 342 408
#
# _framework density 23.816106999999999
#
# number of rings (size 3 to 8) (size 9 to 14) (size 15 to 20)
#    0.000    1.333    2.667    0.800   11.200    1.067 
#    4.800    0.000    0.000    0.000    0.000    0.000 
#    0.000    0.000    0.000    0.000    0.000    0.000 
#
# Total GULP energy -83665.168198 kJ/mol
# GULP energy per Si atom -5577.677880 kJ/mol
# Density = 2.376190 g / cm^3
# Si number density = 23.816107 Si / 1000 Ang^3
#
#
#
# Elastic Constant Matrix: (Units=GPa)
#
#
# Indices 1 2 3 4 5 6 
#
# 1 105.7521 42.8724 41.4353 5.6682 -23.8856 39.6021
# 2 42.8724 93.7529 36.0996 9.8584 -14.6606 31.1789
# 3 41.4353 36.0996 157.6552 35.6545 -25.0041 12.1036
# 4 5.6682 9.8584 35.6545 40.4518 8.4603 -1.5101
# 5 -23.8856 -14.6606 -25.0041 8.4603 49.2655 4.2754
# 6 39.6021 31.1789 12.1036 -1.5101 4.2754 46.2040
#
#
#
# Elastic Compliance Matrix: (Units=1/GPa)
#
#
# Indices 1 2 3 4 5 6 
#
# 1 0.019058 -0.000577 -0.000752 -0.004794 0.010978 -0.016921
# 2 -0.000577 0.016347 -0.000636 -0.005030 0.006089 -0.011097
# 3 -0.000752 -0.000636 0.010257 -0.010264 0.006637 -0.002562
# 4 -0.004794 -0.005030 -0.010264 0.039704 -0.016982 0.013061
# 5 0.010978 0.006089 0.006637 -0.016982 0.035374 -0.019085
# 6 -0.016921 -0.011097 -0.002562 0.013061 -0.019085 0.046499
#
#
# Mechanical properties :
#
#
# Convention : Reuss Voigt Hill
#
# Bulk Modulus (GPa) = 23.96346 66.44164 45.20255
# Shear Modulus (GPa) = 27.01541 42.96780 34.99161
#
# Velocity S-wave (km/s) = 3.37164 4.25214 3.83723
# Velocity P-wave (km/s) = 5.02404 7.21567 6.21719
#
# Compressibility (1/GPa) = 0.04173019
#
# Stress axis : x y z
#
# Youngs Moduli (GPa) = 52.47189 61.17359 97.49651
#
# Poissons Ratio (x) = 0.03532 0.07334
# Poissons Ratio (y) = 0.03029 0.06203
# Poissons Ratio (z) = 0.03947 0.03892
#
# Static dielectric constant tensor:
#      x y z
#    x 2.013630 -0.003350 0.045700 
#    y -0.003350 1.987970 -0.020050 
#    z 0.045700 -0.020050 1.902390 
# 
# From -- ./inp_files/397765.got.cif
#   From: 2010.05.17/outbox.cif.g08.bks.cpg/sg2_199_cif.got.tgz:397765.got - 2010.06.03 11:33:40.
