data_PCOD9043971
_publ_section_title
;
Structure prediction by ZEFSAII (Michael W. Deem and Ramdas Pophale) SiO2 
 PCOD9043971
Probable space group: P -1
;
_chemical_formula_sum "Si O2"
_cell_formula_units_Z 13
_cell_length_a 6.143915
_cell_length_b 11.268946
_cell_length_c 11.686256
_cell_angle_alpha 136.199546
_cell_angle_beta 109.777961
_cell_angle_gamma 80.910415
_cell_volume 522.344250
_symmetry_space_group_name_H-M "P -1"
_symmetry_group_IT_number 2
_symmetry_cell_setting 'triclinic'
loop_
_space_group_symop_operation_xyz
x,y,z
-x,-y,-z
loop_
_atom_site_type_symbol
_atom_site_label
_atom_site_fract_x
_atom_site_fract_y
_atom_site_fract_z
Si Si1 0.500000 0.500000 0.500000
Si Si2 0.724216 0.040728 0.147623
Si Si3 0.480476 0.943355 0.621945
Si Si4 0.588655 0.691065 0.107787
Si Si5 0.746194 0.675614 0.887928
Si Si6 0.128449 0.290963 0.453155
Si Si7 0.053599 0.668412 0.295570
O O1 0.646092 0.617694 0.707224
O O2 0.301008 0.429516 0.512045
O O3 0.619965 0.063407 0.271017
O O4 0.904808 0.212753 0.284270
O O5 0.500000 0.000000 0.000000
O O6 0.861887 0.874232 0.043764
O O7 0.717516 0.862726 0.601050
O O8 0.280639 0.811956 0.432837
O O9 0.510409 0.146046 0.740343
O O10 0.860212 0.722176 0.213726
O O11 0.500000 0.500000 0.000000
O O12 0.556506 0.688038 0.963408
O O13 0.886621 0.523759 0.850605
O O14 0.040430 0.342654 0.597642
#
# Coordination Sequence:
#
# PCOD9043971 Si02
#       7
#     1   2   2   2   2   2   2
#     4  12  24  46  70 104 144 182 236 294 350 436
#     4  10  24  46  71 103 143 192 238 292 355 427
#     4  10  23  46  68 101 143 186 238 289 361 424
#     4  11  25  45  72 104 139 188 240 299 356 421
#     4  11  25  45  71 103 143 184 239 294 358 422
#     4  11  25  46  73 106 142 190 237 293 365 423
#     4  11  24  47  71 103 143 188 237 295 355 429
#
# _framework density 24.887802000000001
#
# number of rings (size 3 to 8) (size 9 to 14) (size 15 to 20)
#    0.000    1.231    1.538    2.769    4.308    3.692 
#    5.538    0.000    0.000    0.000    0.000    0.000 
#    0.000    0.000    0.000    0.000    0.000    0.000 
#
# Total GULP energy -72502.403589 kJ/mol
# GULP energy per Si atom -5577.107968 kJ/mol
# Density = 2.483116 g / cm^3
# Si number density = 24.887802 Si / 1000 Ang^3
#
#
#
# Elastic Constant Matrix: (Units=GPa)
#
#
# Indices 1 2 3 4 5 6 
#
# 1 76.4610 28.6620 48.9219 14.0587 -11.9427 3.4227
# 2 28.6620 69.0779 42.5220 17.7749 -10.5045 -0.4481
# 3 48.9219 42.5220 97.4538 -8.1303 -4.3854 -3.5096
# 4 14.0587 17.7749 -8.1303 53.9422 -3.8257 -11.7192
# 5 -11.9427 -10.5045 -4.3854 -3.8257 37.3691 -0.8785
# 6 3.4227 -0.4481 -3.5096 -11.7192 -0.8785 51.1374
#
#
#
# Elastic Compliance Matrix: (Units=1/GPa)
#
#
# Indices 1 2 3 4 5 6 
#
# 1 0.023768 0.001493 -0.013278 -0.009288 0.005400 -0.004525
# 2 0.001493 0.025057 -0.012483 -0.010865 0.004870 -0.003143
# 3 -0.013278 -0.012483 0.023387 0.011938 -0.003667 0.005057
# 4 -0.009288 -0.010865 0.011938 0.027902 -0.001584 0.007713
# 5 0.005400 0.004870 -0.003667 -0.001584 0.029252 -0.000431
# 6 -0.004525 -0.003143 0.005057 0.007713 -0.000431 0.021938
#
#
# Mechanical properties :
#
#
# Convention : Reuss Voigt Hill
#
# Bulk Modulus (GPa) = 42.23697 53.68940 47.96319
# Shear Modulus (GPa) = 24.06948 36.68218 30.37583
#
# Velocity S-wave (km/s) = 3.11323 3.84331 3.49737
# Velocity P-wave (km/s) = 5.47090 6.42760 5.96845
#
# Compressibility (1/GPa) = 0.02367594
#
# Stress axis : x y z
#
# Youngs Moduli (GPa) = 42.07281 39.90913 42.75917
#
# Poissons Ratio (x) = -0.05960 0.56776
# Poissons Ratio (y) = -0.06283 0.53378
# Poissons Ratio (z) = 0.55865 0.49820
#
# Static dielectric constant tensor:
#      x y z
#    x 1.955410 -0.038070 0.001560 
#    y -0.038070 2.065310 0.032930 
#    z 0.001560 0.032930 1.914760 
# 
# From -- ./inp_files/24680.got.cif
#   From: 2010.05.17/outbox.cif.g08.bks.cpg/sg2_13_cif.got.tgz:24680.got - 2010.06.03 11:33:40.
