data_PCOD9043040
_publ_section_title
;
Structure prediction by ZEFSAII (Michael W. Deem and Ramdas Pophale) SiO2 
 PCOD9043040
Probable space group: P -1
;
_chemical_formula_sum "Si O2"
_cell_formula_units_Z 12
_cell_length_a 10.038137
_cell_length_b 9.345995
_cell_length_c 9.738273
_cell_angle_alpha 61.316413
_cell_angle_beta 72.047164
_cell_angle_gamma 41.107868
_cell_volume 524.701480
_symmetry_space_group_name_H-M "P -1"
_symmetry_group_IT_number 2
_symmetry_cell_setting 'triclinic'
loop_
_space_group_symop_operation_xyz
x,y,z
-x,-y,-z
loop_
_atom_site_type_symbol
_atom_site_label
_atom_site_fract_x
_atom_site_fract_y
_atom_site_fract_z
Si Si1 0.374680 0.958565 0.627204
Si Si2 0.006322 0.903555 0.896467
Si Si3 0.517999 0.669441 0.460495
Si Si4 0.281969 0.419316 0.122664
Si Si5 0.079211 0.675961 0.362179
Si Si6 0.321485 0.070926 0.113827
O O1 0.396318 0.799050 0.581175
O O2 0.484215 0.806220 0.801694
O O3 0.500000 0.000000 0.500000
O O4 0.144245 0.205920 0.604506
O O5 0.957413 0.096401 0.724618
O O6 0.837011 0.906658 0.929502
O O7 0.220769 0.625170 0.953393
O O8 0.000000 0.000000 0.000000
O O9 0.500000 0.500000 0.500000
O O10 0.753017 0.508953 0.493665
O O11 0.426726 0.865830 0.286544
O O12 0.169371 0.546806 0.245028
O O13 0.217023 0.308311 0.119601
O O14 0.500000 0.000000 0.000000
#
# Coordination Sequence:
#
# PCOD9043040 Si02
#       6
#     2   2   2   2   2   2
#     4  11  24  44  70 106 133 182 237 286 350 414
#     4  10  23  45  68 101 140 186 233 275 361 417
#     4  11  24  47  69 104 142 179 239 283 354 417
#     4  10  24  44  70 103 140 178 235 285 355 413
#     4  10  24  45  75  98 142 186 229 297 344 417
#     4  12  26  45  71 107 142 182 235 294 345 415
#
# _framework density 22.870146999999999
#
# number of rings (size 3 to 8) (size 9 to 14) (size 15 to 20)
#    0.000    1.333    3.333    0.500    4.667    6.667 
#    3.000    0.000    0.000    0.000    0.000    0.000 
#    0.000    0.000    0.000    0.000    0.000    0.000 
#
# Total GULP energy -67102.894129 kJ/mol
# GULP energy per Si atom -5591.907844 kJ/mol
# Density = 2.281809 g / cm^3
# Si number density = 22.870147 Si / 1000 Ang^3
#
#
#
# Elastic Constant Matrix: (Units=GPa)
#
#
# Indices 1 2 3 4 5 6 
#
# 1 135.3575 54.3517 29.8626 1.0131 13.9167 19.4465
# 2 54.3517 108.2942 23.4010 -23.6698 8.3323 5.6988
# 3 29.8626 23.4010 71.4785 -32.3240 14.9180 6.8135
# 4 1.0131 -23.6698 -32.3240 40.5530 -1.6904 -1.8998
# 5 13.9167 8.3323 14.9180 -1.6904 37.6982 -8.7835
# 6 19.4465 5.6988 6.8135 -1.8998 -8.7835 59.8460
#
#
#
# Elastic Compliance Matrix: (Units=1/GPa)
#
#
# Indices 1 2 3 4 5 6 
#
# 1 0.012135 -0.006464 -0.006677 -0.009609 -0.001562 -0.003102
# 2 -0.006464 0.014274 0.003296 0.011083 -0.001458 0.000504
# 3 -0.006677 0.003296 0.028953 0.024697 -0.009077 -0.001989
# 4 -0.009609 0.011083 0.024697 0.050782 -0.006416 -0.000074
# 5 -0.001562 -0.001458 -0.009077 -0.006416 0.032174 0.006198
# 6 -0.003102 0.000504 -0.001989 -0.000074 0.006198 0.018803
#
#
# Mechanical properties :
#
#
# Convention : Reuss Voigt Hill
#
# Bulk Modulus (GPa) = 28.03381 58.92899 43.48140
# Shear Modulus (GPa) = 26.49672 41.45376 33.97524
#
# Velocity S-wave (km/s) = 3.40747 4.26205 3.85849
# Velocity P-wave (km/s) = 5.26931 7.07409 6.23732
#
# Compressibility (1/GPa) = 0.03567122
#
# Stress axis : x y z
#
# Youngs Moduli (GPa) = 82.40844 70.05588 34.53869
#
# Poissons Ratio (x) = 0.45285 0.23061
# Poissons Ratio (y) = 0.53270 -0.11383
# Poissons Ratio (z) = 0.55023 -0.23088
#
# Static dielectric constant tensor:
#      x y z
#    x 1.876190 -0.002050 -0.000430 
#    y -0.002050 1.868590 -0.022870 
#    z -0.000430 -0.022870 1.882630 
# 
# From -- ./inp_files/107008.got.cif
#   From: 2010.05.17/outbox.cif.g08.bks.cpg/sg2_54_cif.got.tgz:107008.got - 2010.06.03 11:33:40.
