data_PCOD9043279
_publ_section_title
;
Structure prediction by ZEFSAII (Michael W. Deem and Ramdas Pophale) SiO2 
 PCOD9043279
Probable space group: P -1
;
_chemical_formula_sum "Si O2"
_cell_formula_units_Z 16
_cell_length_a 9.330900
_cell_length_b 15.072320
_cell_length_c 5.048252
_cell_angle_alpha 102.794807
_cell_angle_beta 80.190729
_cell_angle_gamma 77.657911
_cell_volume 658.449123
_symmetry_space_group_name_H-M "P -1"
_symmetry_group_IT_number 2
_symmetry_cell_setting 'triclinic'
loop_
_space_group_symop_operation_xyz
x,y,z
-x,-y,-z
loop_
_atom_site_type_symbol
_atom_site_label
_atom_site_fract_x
_atom_site_fract_y
_atom_site_fract_z
Si Si1 0.135234 0.909194 0.376271
Si Si2 0.816947 0.201316 0.227720
Si Si3 0.495853 0.760428 0.818401
Si Si4 0.583395 0.579352 0.949460
Si Si5 0.279986 0.286140 0.666314
Si Si6 0.143407 0.541204 0.527282
Si Si7 0.527238 0.096329 0.663124
Si Si8 0.074087 0.661091 0.119158
O O1 0.105050 0.829541 0.535505
O O2 0.293985 0.918777 0.447082
O O3 0.155754 0.886174 0.043877
O O4 0.000000 0.000000 0.500000
O O5 0.636195 0.236706 0.348429
O O6 0.870503 0.269621 0.052322
O O7 0.467635 0.677799 0.960578
O O8 0.669766 0.720811 0.659238
O O9 0.480592 0.864667 0.005214
O O10 0.700212 0.529363 0.653491
O O11 0.500000 0.500000 0.000000
O O12 0.672635 0.624769 0.167577
O O13 0.395482 0.186154 0.654529
O O14 0.106453 0.299629 0.782491
O O15 0.129682 0.568268 0.857148
O O16 0.000000 0.500000 0.500000
O O17 0.128191 0.627756 0.377721
O O18 0.500000 0.000000 0.500000
#
# Coordination Sequence:
#
# PCOD9043279 Si02
#       8
#     2   2   2   2   2   2   2   2
#     4  11  24  47  72 107 140 180 239 301 363 436
#     4  11  24  47  70  99 142 188 233 297 363 433
#     4  10  23  45  70 100 144 187 242 301 356 434
#     4  11  25  41  69 101 138 192 242 297 359 428
#     4  11  24  44  67 101 140 183 241 295 357 432
#     4  12  25  46  65 103 146 185 240 302 358 425
#     4  10  24  46  72 104 141 187 239 299 366 441
#     4  12  27  43  71 101 142 194 239 296 367 429
#
# _framework density 24.299523000000001
#
# number of rings (size 3 to 8) (size 9 to 14) (size 15 to 20)
#    0.000    1.000    2.500    3.000    7.000    1.000 
#    0.000    0.000    0.000    0.000    0.000    0.000 
#    0.000    0.000    0.000    0.000    0.000    0.000 
#
# Total GULP energy -89146.763930 kJ/mol
# GULP energy per Si atom -5571.672746 kJ/mol
# Density = 2.424422 g / cm^3
# Si number density = 24.299523 Si / 1000 Ang^3
#
#
#
# Elastic Constant Matrix: (Units=GPa)
#
#
# Indices 1 2 3 4 5 6 
#
# 1 88.9667 34.3342 34.2160 11.0254 -34.2375 -6.1512
# 2 34.3342 102.6183 36.3388 13.7108 -8.6713 -12.1908
# 3 34.2160 36.3388 118.6399 1.6078 -26.6521 -4.1815
# 4 11.0254 13.7108 1.6078 42.1469 -6.9284 4.9460
# 5 -34.2375 -8.6713 -26.6521 -6.9284 37.4865 -1.8904
# 6 -6.1512 -12.1908 -4.1815 4.9460 -1.8904 37.7776
#
#
#
# Elastic Compliance Matrix: (Units=1/GPa)
#
#
# Indices 1 2 3 4 5 6 
#
# 1 0.020001 -0.004613 -0.000476 -0.001277 0.016763 0.002721
# 2 -0.004613 0.013096 -0.003452 -0.004014 -0.004208 0.003408
# 3 -0.000476 -0.003452 0.011197 0.001970 0.007098 0.000145
# 4 -0.001277 -0.004014 0.001970 0.026478 0.003970 -0.004553
# 5 0.016763 -0.004208 0.007098 0.003970 0.046995 0.003989
# 6 0.002721 0.003408 0.000145 -0.004553 0.003989 0.028825
#
#
# Mechanical properties :
#
#
# Convention : Reuss Voigt Hill
#
# Bulk Modulus (GPa) = 36.74893 57.77809 47.26351
# Shear Modulus (GPa) = 28.94457 37.17126 33.05791
#
# Velocity S-wave (km/s) = 3.45506 3.91540 3.69241
# Velocity P-wave (km/s) = 5.57429 6.65353 6.13768
#
# Compressibility (1/GPa) = 0.02721168
#
# Stress axis : x y z
#
# Youngs Moduli (GPa) = 49.99754 76.35902 89.31325
#
# Poissons Ratio (x) = 0.35223 0.04256
# Poissons Ratio (y) = 0.23063 0.30828
# Poissons Ratio (z) = 0.02382 0.26356
#
# Static dielectric constant tensor:
#      x y z
#    x 1.916760 0.028560 0.024800 
#    y 0.028560 2.080890 -0.054200 
#    z 0.024800 -0.054200 2.064220 
# 
# From -- ./inp_files/39702.got.cif
#   From: 2010.05.17/outbox.cif.g08.bks.cpg/sg2_20_cif.got.tgz:39702.got - 2010.06.03 11:33:40.
