data_PCOD9043017
_publ_section_title
;
Structure prediction by ZEFSAII (Michael W. Deem and Ramdas Pophale) SiO2 
 PCOD9043017
Probable space group: P -1
;
_chemical_formula_sum "Si O2"
_cell_formula_units_Z 16
_cell_length_a 8.201117
_cell_length_b 9.265661
_cell_length_c 23.887544
_cell_angle_alpha 36.965933
_cell_angle_beta 122.654196
_cell_angle_gamma 97.484953
_cell_volume 739.174174
_symmetry_space_group_name_H-M "P -1"
_symmetry_group_IT_number 2
_symmetry_cell_setting 'triclinic'
loop_
_space_group_symop_operation_xyz
x,y,z
-x,-y,-z
loop_
_atom_site_type_symbol
_atom_site_label
_atom_site_fract_x
_atom_site_fract_y
_atom_site_fract_z
Si Si1 0.003202 0.674894 0.734657
Si Si2 0.180893 0.818921 0.039813
Si Si3 0.632652 0.848864 0.705067
Si Si4 0.349481 0.265782 0.683818
Si Si5 0.858116 0.885846 0.411046
Si Si6 0.657064 0.275382 0.647535
Si Si7 0.055170 0.214856 0.798459
Si Si8 0.575763 0.925648 0.943101
O O1 0.999683 0.489453 0.740020
O O2 0.749907 0.851624 0.667246
O O3 0.082252 0.878586 0.663949
O O4 0.205071 0.413262 0.895658
O O5 0.268690 0.487232 0.160630
O O6 0.386278 0.862929 0.077675
O O7 0.040229 0.995533 0.903909
O O8 0.000000 0.000000 0.000000
O O9 0.345519 0.024286 0.607871
O O10 0.729125 0.962458 0.734462
O O11 0.251873 0.145131 0.657484
O O12 0.496119 0.354090 0.648012
O O13 0.525478 0.031684 0.836539
O O14 0.109413 0.568050 0.570047
O O15 0.500000 0.500000 0.500000
O O16 0.870380 0.301043 0.688991
O O17 0.324328 0.007487 0.890981
#
# Coordination Sequence:
#
# PCOD9043017 Si02
#       8
#     2   2   2   2   2   2   2   2
#     4  11  23  45  69 104 138 175 228 292 342 415
#     4  11  20  43  67  98 142 172 223 283 347 410
#     4  11  23  41  75  94 136 180 229 281 347 399
#     4  10  24  44  69  94 142 185 222 288 349 398
#     4  10  23  45  67  99 139 182 237 280 339 421
#     4  11  26  46  67  98 137 183 236 280 340 418
#     4  11  24  41  70  98 136 179 223 287 346 405
#     4  11  23  40  70 101 138 179 224 282 354 402
#
# _framework density 21.645776999999999
#
# number of rings (size 3 to 8) (size 9 to 14) (size 15 to 20)
#    0.000    1.250    2.500    4.500    7.000    1.000 
#    4.500    2.500    0.000    0.000    0.000    0.000 
#    0.000    0.000    0.000    0.000    0.000    0.000 
#
# Total GULP energy -89387.093736 kJ/mol
# GULP energy per Si atom -5586.693358 kJ/mol
# Density = 2.159651 g / cm^3
# Si number density = 21.645777 Si / 1000 Ang^3
#
#
#
# Elastic Constant Matrix: (Units=GPa)
#
#
# Indices 1 2 3 4 5 6 
#
# 1 62.3786 -88.5724 -99.4243 -43.0291 19.1116 -2.1498
# 2 -88.5724 -124.5469 -167.8637 -58.7803 18.6986 11.8404
# 3 -99.4243 -167.8637 -161.5388 -51.0058 13.3302 6.9732
# 4 -43.0291 -58.7803 -51.0058 26.6197 -0.1421 -1.5515
# 5 19.1116 18.6986 13.3302 -0.1421 34.3996 -3.9836
# 6 -2.1498 11.8404 6.9732 -1.5515 -3.9836 38.2119
#
#
#
# Elastic Compliance Matrix: (Units=1/GPa)
#
#
# Indices 1 2 3 4 5 6 
#
# 1 0.008832 -0.002346 -0.003729 0.002044 -0.001972 0.001782
# 2 -0.002346 0.021438 -0.021707 0.001767 -0.002275 -0.002979
# 3 -0.003729 -0.021707 0.022553 -0.010571 0.005381 0.002533
# 4 0.002044 0.001767 -0.010571 0.024689 0.002421 0.002751
# 5 -0.001972 -0.002275 0.005381 0.002421 0.029652 0.002802
# 6 0.001782 -0.002979 0.002533 0.002751 0.002802 0.027135
#
#
# Mechanical properties :
#
#
# Convention : Reuss Voigt Hill
#
# Bulk Modulus (GPa) = -364.66875 -103.93644 -234.30259
# Shear Modulus (GPa) = 26.46229 28.65646 27.55938
#
# Velocity S-wave (km/s) = 3.50024 3.64247 3.57206
# Velocity P-wave (km/s) = 12.34914 5.51644 9.56379
#
# Compressibility (1/GPa) = -0.00274221
#
# Stress axis : x y z
#
# Youngs Moduli (GPa) = 113.22851 46.64692 44.34035
#
# Poissons Ratio (x) = 0.10944 0.16534
# Poissons Ratio (y) = 0.26564 0.96250
# Poissons Ratio (z) = 0.42222 1.01257
#
# Static dielectric constant tensor:
#      x y z
#    x 1.867300 0.005500 0.075130 
#    y 0.005500 1.779280 0.052980 
#    z 0.075130 0.052980 1.795930 
# 
# From -- ./inp_files/399583.got.cif
#   From: 2010.05.17/outbox.cif.g08.bks.cpg/sg2_200_cif.got.tgz:399583.got - 2010.06.03 11:33:40.
