data_PCOD9043078
_publ_section_title
;
Structure prediction by ZEFSAII (Michael W. Deem and Ramdas Pophale) SiO2 
 PCOD9043078
Probable space group: P -1
;
_chemical_formula_sum "Si O2"
_cell_formula_units_Z 14
_cell_length_a 14.074748
_cell_length_b 9.013182
_cell_length_c 5.357503
_cell_angle_alpha 123.425794
_cell_angle_beta 77.276561
_cell_angle_gamma 92.248264
_cell_volume 550.481515
_symmetry_space_group_name_H-M "P -1"
_symmetry_group_IT_number 2
_symmetry_cell_setting 'triclinic'
loop_
_space_group_symop_operation_xyz
x,y,z
-x,-y,-z
loop_
_atom_site_type_symbol
_atom_site_label
_atom_site_fract_x
_atom_site_fract_y
_atom_site_fract_z
Si Si1 0.150565 0.295599 0.887242
Si Si2 0.071660 0.083950 0.346195
Si Si3 0.498917 0.288237 0.756930
Si Si4 0.388553 0.833869 0.923817
Si Si5 0.317012 0.207044 0.067467
Si Si6 0.241958 0.540564 0.712334
Si Si7 0.054124 0.721455 0.777111
O O1 0.157177 0.157305 0.522915
O O2 0.210496 0.206854 0.002285
O O3 0.198347 0.468608 0.925518
O O4 0.035386 0.325118 0.038959
O O5 0.004014 0.247730 0.416244
O O6 0.000000 0.000000 0.500000
O O7 0.091514 0.916261 0.993665
O O8 0.540235 0.241341 0.414529
O O9 0.391035 0.232703 0.820236
O O10 0.500000 0.500000 0.000000
O O11 0.561821 0.187490 0.852573
O O12 0.298735 0.712482 0.872364
O O13 0.353416 0.033120 0.041225
O O14 0.313191 0.383610 0.402525
O O15 0.148148 0.583930 0.627694
#
# Coordination Sequence:
#
# PCOD9043078 Si02
#       7
#     2   2   2   2   2   2   2
#     4  11  25  45  70 108 151 200 256 315 375 465
#     4   9  21  41  72  98 144 198 254 309 381 445
#     4  12  26  56  84 115 158 199 253 324 395 463
#     4  12  30  51  83 115 158 201 254 324 391 462
#     4  12  29  47  78 113 149 199 256 313 393 466
#     4  12  28  44  75 109 152 201 262 314 384 460
#     4  10  23  45  68 108 149 203 252 319 377 450
#
# _framework density 25.432279999999999
#
# number of rings (size 3 to 8) (size 9 to 14) (size 15 to 20)
#    0.000    0.857    1.429    3.429   12.000    4.571 
#    0.000    0.000    0.000    0.000    0.000    0.000 
#    0.000    0.000    0.000    0.000    0.000    0.000 
#
# Total GULP energy -78481.511548 kJ/mol
# GULP energy per Si atom -5605.822253 kJ/mol
# Density = 2.537440 g / cm^3
# Si number density = 25.432280 Si / 1000 Ang^3
#
#
#
# Elastic Constant Matrix: (Units=GPa)
#
#
# Indices 1 2 3 4 5 6 
#
# 1 102.9931 33.8741 19.8265 7.4239 -6.9682 7.7629
# 2 33.8741 141.9739 28.9924 5.3696 -7.6072 3.1318
# 3 19.8265 28.9924 60.4388 -3.4066 -4.1235 -7.9930
# 4 7.4239 5.3696 -3.4066 51.0659 0.1825 -3.0402
# 5 -6.9682 -7.6072 -4.1235 0.1825 39.9446 -8.4941
# 6 7.7629 3.1318 -7.9930 -3.0402 -8.4941 58.4377
#
#
#
# Elastic Compliance Matrix: (Units=1/GPa)
#
#
# Indices 1 2 3 4 5 6 
#
# 1 0.011243 -0.001907 -0.003043 -0.001745 0.000917 -0.001765
# 2 -0.001907 0.008284 -0.003423 -0.000860 0.000770 -0.000592
# 3 -0.003043 -0.003423 0.019915 0.002344 0.001644 0.003672
# 4 -0.001745 -0.000860 0.002344 0.020181 0.000033 0.001653
# 5 0.000917 0.000770 0.001644 0.000033 0.026338 0.003892
# 6 -0.001765 -0.000592 0.003672 0.001653 0.003892 0.018532
#
#
# Mechanical properties :
#
#
# Convention : Reuss Voigt Hill
#
# Bulk Modulus (GPa) = 44.05616 52.31020 48.18318
# Shear Modulus (GPa) = 38.81808 44.73717 41.77762
#
# Velocity S-wave (km/s) = 3.91107 4.19868 4.05742
# Velocity P-wave (km/s) = 6.14457 6.64216 6.39821
#
# Compressibility (1/GPa) = 0.02269830
#
# Stress axis : x y z
#
# Youngs Moduli (GPa) = 88.94235 120.70985 50.21218
#
# Poissons Ratio (x) = 0.23021 0.15278
# Poissons Ratio (y) = 0.16963 0.17185
# Poissons Ratio (z) = 0.27062 0.41314
#
# Static dielectric constant tensor:
#      x y z
#    x 2.012620 0.017230 -0.002320 
#    y 0.017230 1.981150 -0.018080 
#    z -0.002320 -0.018080 2.097660 
# 
# From -- ./inp_files/91101.got.cif
#   From: 2010.05.17/outbox.cif.g08.bks.cpg/sg2_46_cif.got.tgz:91101.got - 2010.06.03 11:33:40.
