data_PCOD9043870
_publ_section_title
;
Structure prediction by ZEFSAII (Michael W. Deem and Ramdas Pophale) SiO2 
 PCOD9043870
Probable space group: P -1
;
_chemical_formula_sum "Si O2"
_cell_formula_units_Z 9
_cell_length_a 8.981886
_cell_length_b 9.468103
_cell_length_c 9.326424
_cell_angle_alpha 103.332853
_cell_angle_beta 32.201100
_cell_angle_gamma 119.031182
_cell_volume 340.849613
_symmetry_space_group_name_H-M "P -1"
_symmetry_group_IT_number 2
_symmetry_cell_setting 'triclinic'
loop_
_space_group_symop_operation_xyz
x,y,z
-x,-y,-z
loop_
_atom_site_type_symbol
_atom_site_label
_atom_site_fract_x
_atom_site_fract_y
_atom_site_fract_z
Si Si1 0.235389 0.496585 0.924254
Si Si2 0.939037 0.604713 0.426410
Si Si3 0.089684 0.931880 0.548153
Si Si4 0.354499 0.231420 0.864843
Si Si5 0.500000 0.000000 0.500000
O O1 0.193878 0.592353 0.115253
O O2 0.629154 0.592402 0.584634
O O3 0.112785 0.297445 0.025944
O O4 0.000000 0.500000 0.000000
O O5 0.696488 0.418228 0.657476
O O6 0.075751 0.766558 0.456095
O O7 0.608956 0.874113 0.312964
O O8 0.413833 0.034435 0.409815
O O9 0.000000 0.000000 0.500000
O O10 0.801090 0.870068 0.887130
#
# Coordination Sequence:
#
# PCOD9043870 Si02
#       5
#     2   2   2   2   1
#     4  10  23  45  83 119 157 203 277 334 397 479
#     4  10  25  47  82 113 153 218 270 329 397 487
#     4  12  29  50  77 119 165 214 268 336 409 483
#     4  10  26  49  80 113 160 213 271 327 407 478
#     4  12  28  50  78 114 172 208 266 334 414 470
#
# _framework density 26.404605
#
# number of rings (size 3 to 8) (size 9 to 14) (size 15 to 20)
#    1.333    0.000    0.000    3.333    6.222    4.444 
#    0.000    0.000    0.000    0.000    0.000    0.000 
#    0.000    0.000    0.000    0.000    0.000    0.000 
#
# Total GULP energy -50146.924386 kJ/mol
# GULP energy per Si atom -5571.880487 kJ/mol
# Density = 2.634451 g / cm^3
# Si number density = 26.404605 Si / 1000 Ang^3
#
#
#
# Elastic Constant Matrix: (Units=GPa)
#
#
# Indices 1 2 3 4 5 6 
#
# 1 208.6110 96.6208 44.8458 18.3662 25.8080 -17.3503
# 2 96.6208 131.2770 71.9215 39.3891 36.0476 -17.8229
# 3 44.8458 71.9215 128.7829 56.0090 11.9187 15.0211
# 4 18.3662 39.3891 56.0090 48.5477 14.7018 10.7759
# 5 25.8080 36.0476 11.9187 14.7018 58.8822 14.9087
# 6 -17.3503 -17.8229 15.0211 10.7759 14.9087 60.2318
#
#
#
# Elastic Compliance Matrix: (Units=1/GPa)
#
#
# Indices 1 2 3 4 5 6 
#
# 1 0.007443 -0.006004 -0.000279 0.002412 -0.000143 0.000041
# 2 -0.006004 0.022868 -0.008528 -0.005522 -0.011018 0.010879
# 3 -0.000279 -0.008528 0.020020 -0.016813 0.007095 -0.006345
# 4 0.002412 -0.005522 -0.016813 0.045842 -0.004765 -0.003768
# 5 -0.000143 -0.011018 0.007095 -0.004765 0.026258 -0.010718
# 6 0.000041 0.010879 -0.006345 -0.003768 -0.010718 0.024743
#
#
# Mechanical properties :
#
#
# Convention : Reuss Voigt Hill
#
# Bulk Modulus (GPa) = 48.28897 99.49410 73.89154
# Shear Modulus (GPa) = 27.21821 50.55119 38.88470
#
# Velocity S-wave (km/s) = 3.21411 4.38023 3.84167
# Velocity P-wave (km/s) = 5.66585 7.95891 6.90819
#
# Compressibility (1/GPa) = 0.02070866
#
# Stress axis : x y z
#
# Youngs Moduli (GPa) = 134.34871 43.72921 49.94934
#
# Poissons Ratio (x) = 0.26256 0.01395
# Poissons Ratio (y) = 0.80667 0.42596
# Poissons Ratio (z) = 0.03753 0.37291
#
# Static dielectric constant tensor:
#      x y z
#    x 2.307160 -0.086540 -0.185010 
#    y -0.086540 2.210450 -0.034480 
#    z -0.185010 -0.034480 1.970890 
# 
# From -- ./inp_files/149753.got.cif
#   From: 2010.05.17/outbox.cif.g08.bks.cpg/sg2_75_cif.got.tgz:149753.got - 2010.06.03 11:33:40.
