data_PCOD9043651
_publ_section_title
;
Structure prediction by ZEFSAII (Michael W. Deem and Ramdas Pophale) SiO2 
 PCOD9043651
Probable space group: P -1
;
_chemical_formula_sum "Si O2"
_cell_formula_units_Z 13
_cell_length_a 9.343054
_cell_length_b 11.299680
_cell_length_c 8.834965
_cell_angle_alpha 68.473553
_cell_angle_beta 90.975473
_cell_angle_gamma 140.648370
_cell_volume 490.719457
_symmetry_space_group_name_H-M "P -1"
_symmetry_group_IT_number 2
_symmetry_cell_setting 'triclinic'
loop_
_space_group_symop_operation_xyz
x,y,z
-x,-y,-z
loop_
_atom_site_type_symbol
_atom_site_label
_atom_site_fract_x
_atom_site_fract_y
_atom_site_fract_z
Si Si1 0.111158 0.515228 0.280409
Si Si2 0.361915 0.668029 0.512597
Si Si3 0.672134 0.131670 0.088494
Si Si4 0.015269 0.989147 0.185536
Si Si5 0.440109 0.158451 0.259075
Si Si6 0.857927 0.651815 0.885731
Si Si7 0.500000 0.500000 0.500000
O O1 0.337852 0.687746 0.325932
O O2 0.121301 0.380065 0.274026
O O3 0.869891 0.413153 0.390064
O O4 0.155598 0.624424 0.077715
O O5 0.576245 0.846308 0.558683
O O6 0.336447 0.496207 0.585529
O O7 0.529143 0.081893 0.253537
O O8 0.870882 0.170893 0.113311
O O9 0.500000 0.000000 0.000000
O O10 0.734915 0.770358 0.349129
O O11 0.188408 0.997583 0.234260
O O12 0.170374 0.218988 0.158278
O O13 0.000000 0.000000 0.000000
O O14 0.644355 0.414093 0.083254
#
# Coordination Sequence:
#
# PCOD9043651 Si02
#       7
#     2   2   2   2   2   2   1
#     4  10  23  45  73 107 151 197 245 322 382 448
#     4  11  24  47  71 104 157 196 243 322 381 443
#     4  11  22  40  75 113 148 195 262 308 372 470
#     4  12  29  50  80 111 155 209 254 317 391 457
#     4  11  23  46  77 113 151 200 259 313 381 462
#     4  11  22  46  78 115 144 201 263 310 381 466
#     4  12  32  50  72 112 160 196 264 316 378 464
#
# _framework density 26.491716
#
# number of rings (size 3 to 8) (size 9 to 14) (size 15 to 20)
#    0.000    0.923    3.077    3.231   10.769    0.615 
#    0.000    1.538    0.000    0.000    0.000    0.000 
#    0.000    0.000    0.000    0.000    0.000    0.000 
#
# Total GULP energy -72399.105923 kJ/mol
# GULP energy per Si atom -5569.161994 kJ/mol
# Density = 2.643142 g / cm^3
# Si number density = 26.491716 Si / 1000 Ang^3
#
#
#
# Elastic Constant Matrix: (Units=GPa)
#
#
# Indices 1 2 3 4 5 6 
#
# 1 95.4611 25.0568 26.7379 9.5270 -19.9916 5.5580
# 2 25.0568 144.3294 68.0636 16.3910 -14.0481 21.9186
# 3 26.7379 68.0636 98.7873 11.3095 -3.3579 3.4282
# 4 9.5270 16.3910 11.3095 64.0993 1.5878 -0.3878
# 5 -19.9916 -14.0481 -3.3579 1.5878 24.6366 7.8164
# 6 5.5580 21.9186 3.4282 -0.3878 7.8164 60.7712
#
#
#
# Elastic Compliance Matrix: (Units=1/GPa)
#
#
# Indices 1 2 3 4 5 6 
#
# 1 0.014399 0.001457 -0.004095 -0.002136 0.013147 -0.003316
# 2 0.001457 0.012524 -0.008276 -0.002215 0.009039 -0.005360
# 3 -0.004095 -0.008276 0.016588 -0.000013 -0.006828 0.003302
# 4 -0.002136 -0.002215 -0.000013 0.016611 -0.004606 0.001693
# 5 0.013147 0.009039 -0.006828 -0.004606 0.059510 -0.011761
# 6 -0.003316 -0.005360 0.003302 0.001693 -0.011761 0.020029
#
#
# Mechanical properties :
#
#
# Convention : Reuss Voigt Hill
#
# Bulk Modulus (GPa) = 46.11842 64.25495 55.18669
# Shear Modulus (GPa) = 29.63521 44.48272 37.05897
#
# Velocity S-wave (km/s) = 3.34827 4.10215 3.74423
# Velocity P-wave (km/s) = 5.69159 6.83698 6.29041
#
# Compressibility (1/GPa) = 0.02168331
#
# Stress axis : x y z
#
# Youngs Moduli (GPa) = 69.44719 79.84601 60.28375
#
# Poissons Ratio (x) = -0.11633 0.24684
# Poissons Ratio (y) = -0.10118 0.49894
# Poissons Ratio (z) = 0.28436 0.66084
#
# Static dielectric constant tensor:
#      x y z
#    x 2.097310 -0.068500 -0.013610 
#    y -0.068500 2.124730 -0.134440 
#    z -0.013610 -0.134440 2.121910 
# 
# From -- ./inp_files/185951.got.cif
#   From: 2010.05.17/outbox.cif.g08.bks.cpg/sg2_93_cif.got.tgz:185951.got - 2010.06.03 11:33:40.
