data_PCOD9043248
_publ_section_title
;
Structure prediction by ZEFSAII (Michael W. Deem and Ramdas Pophale) SiO2 
 PCOD9043248
Probable space group: P -1
;
_chemical_formula_sum "Si O2"
_cell_formula_units_Z 14
_cell_length_a 11.156670
_cell_length_b 7.268267
_cell_length_c 14.045129
_cell_angle_alpha 106.936569
_cell_angle_beta 31.596651
_cell_angle_gamma 108.128381
_cell_volume 566.307410
_symmetry_space_group_name_H-M "P -1"
_symmetry_group_IT_number 2
_symmetry_cell_setting 'triclinic'
loop_
_space_group_symop_operation_xyz
x,y,z
-x,-y,-z
loop_
_atom_site_type_symbol
_atom_site_label
_atom_site_fract_x
_atom_site_fract_y
_atom_site_fract_z
Si Si1 0.869245 0.808375 0.898132
Si Si2 0.131521 0.286365 0.477133
Si Si3 0.258037 0.471972 0.216952
Si Si4 0.702367 0.060294 0.299573
Si Si5 0.768968 0.520815 0.098796
Si Si6 0.376680 0.568757 0.502824
Si Si7 0.528643 0.084464 0.205466
O O1 0.897721 0.699031 0.762332
O O2 0.046188 0.991057 0.851797
O O3 0.802674 0.646428 0.000114
O O4 0.643067 0.919412 0.049885
O O5 0.245904 0.395845 0.322194
O O6 0.226979 0.397665 0.524999
O O7 0.255536 0.092170 0.373601
O O8 0.869297 0.334241 0.663373
O O9 0.500000 0.500000 0.000000
O O10 0.770949 0.278428 0.328752
O O11 0.597376 0.058384 0.266274
O O12 0.500000 0.000000 0.500000
O O13 0.588865 0.633957 0.298097
O O14 0.652237 0.300608 0.128987
O O15 0.000000 0.500000 0.000000
O O16 0.500000 0.500000 0.500000
#
# Coordination Sequence:
#
# PCOD9043248 Si02
#       7
#     2   2   2   2   2   2   2
#     4  12  25  46  69 104 146 183 238 292 351 424
#     4  10  23  45  69  98 140 178 238 296 339 423
#     4  11  24  46  75  99 134 190 244 293 353 414
#     4  12  24  39  64 102 147 179 220 286 357 422
#     4  11  22  37  69  97 143 186 224 281 351 421
#     4  11  19  39  65  97 135 175 219 278 354 417
#     4  11  24  44  67 106 142 178 236 288 358 429
#
# _framework density 24.721558000000002
#
# number of rings (size 3 to 8) (size 9 to 14) (size 15 to 20)
#    0.000    0.857    5.714    3.000    2.000    0.571 
#    2.571    0.714    0.000    0.000    0.000    0.000 
#    0.000    0.000    0.000    0.000    0.000    0.000 
#
# Total GULP energy -78068.963151 kJ/mol
# GULP energy per Si atom -5576.354511 kJ/mol
# Density = 2.466529 g / cm^3
# Si number density = 24.721558 Si / 1000 Ang^3
#
#
#
# Elastic Constant Matrix: (Units=GPa)
#
#
# Indices 1 2 3 4 5 6 
#
# 1 105.2762 19.7919 3.1173 -0.8930 -4.9155 -12.0338
# 2 19.7919 59.7290 25.3192 12.4070 6.1497 -7.1211
# 3 3.1173 25.3192 112.7827 -7.7393 -5.5936 -19.5432
# 4 -0.8930 12.4070 -7.7393 31.9761 -2.5776 1.8167
# 5 -4.9155 6.1497 -5.5936 -2.5776 47.2833 7.6990
# 6 -12.0338 -7.1211 -19.5432 1.8167 7.6990 22.1175
#
#
#
# Elastic Compliance Matrix: (Units=1/GPa)
#
#
# Indices 1 2 3 4 5 6 
#
# 1 0.010972 -0.004321 0.001851 0.002201 0.001123 0.005643
# 2 -0.004321 0.023900 -0.005765 -0.011395 -0.005358 0.003051
# 3 0.001851 -0.005765 0.012057 0.004789 0.001163 0.009006
# 4 0.002201 -0.011395 0.004789 0.037473 0.004807 -0.002991
# 5 0.001123 -0.005358 0.001163 0.004807 0.023789 -0.008762
# 6 0.005643 0.003051 0.009006 -0.002991 -0.008762 0.060519
#
#
# Mechanical properties :
#
#
# Convention : Reuss Voigt Hill
#
# Bulk Modulus (GPa) = 32.82947 41.58272 37.20610
# Shear Modulus (GPa) = 25.59748 35.57935 30.58841
#
# Velocity S-wave (km/s) = 3.22130 3.79780 3.52137
# Velocity P-wave (km/s) = 5.21001 6.00733 5.62282
#
# Compressibility (1/GPa) = 0.03046043
#
# Stress axis : x y z
#
# Youngs Moduli (GPa) = 91.13795 41.84095 82.94249
#
# Poissons Ratio (x) = 0.18077 -0.15354
# Poissons Ratio (y) = 0.39376 0.47816
# Poissons Ratio (z) = -0.16871 0.24121
#
# Static dielectric constant tensor:
#      x y z
#    x 2.149210 0.063860 0.098240 
#    y 0.063860 2.079510 -0.058510 
#    z 0.098240 -0.058510 1.779840 
# 
# From -- ./inp_files/513309.got.cif
#   From: 2010.05.17/outbox.cif.g08.bks.cpg/sg2_257_cif.got.tgz:513309.got - 2010.06.03 11:33:40.
