data_PCOD9043503
_publ_section_title
;
Structure prediction by ZEFSAII (Michael W. Deem and Ramdas Pophale) SiO2 
 PCOD9043503
Probable space group: P -1
;
_chemical_formula_sum "Si O2"
_cell_formula_units_Z 16
_cell_length_a 9.425665
_cell_length_b 11.461077
_cell_length_c 9.025581
_cell_angle_alpha 81.786395
_cell_angle_beta 132.461668
_cell_angle_gamma 98.768665
_cell_volume 709.824033
_symmetry_space_group_name_H-M "P -1"
_symmetry_group_IT_number 2
_symmetry_cell_setting 'triclinic'
loop_
_space_group_symop_operation_xyz
x,y,z
-x,-y,-z
loop_
_atom_site_type_symbol
_atom_site_label
_atom_site_fract_x
_atom_site_fract_y
_atom_site_fract_z
Si Si1 0.481501 0.053527 0.317286
Si Si2 0.117727 0.883089 0.585953
Si Si3 0.397054 0.892581 0.037274
Si Si4 0.286478 0.278112 0.235327
Si Si5 0.926211 0.373937 0.398309
Si Si6 0.468685 0.317315 0.681166
Si Si7 0.547486 0.454458 0.204456
Si Si8 0.083520 0.621921 0.964923
O O1 0.696184 0.084282 0.394463
O O2 0.360417 0.166777 0.224076
O O3 0.500000 0.000000 0.500000
O O4 0.362875 0.952336 0.157927
O O5 0.003096 0.756107 0.488989
O O6 0.211843 0.854518 0.817100
O O7 0.000000 0.000000 0.500000
O O8 0.538501 0.790769 0.188626
O O9 0.500000 0.000000 0.000000
O O10 0.381090 0.287009 0.464957
O O11 0.369114 0.390363 0.176937
O O12 0.059997 0.282334 0.099034
O O13 0.707241 0.363172 0.308046
O O14 0.926330 0.390651 0.217966
O O15 0.000000 0.500000 0.500000
O O16 0.380656 0.431819 0.667167
O O17 0.699469 0.347837 0.832366
O O18 0.500000 0.500000 0.000000
O O19 0.000000 0.500000 0.000000
#
# Coordination Sequence:
#
# PCOD9043503 Si02
#       8
#     2   2   2   2   2   2   2   2
#     4  11  24  45  72 102 132 185 244 292 357 435
#     4  11  25  48  71 102 145 187 239 297 363 433
#     4  10  23  45  71  97 139 188 239 290 359 430
#     4  12  26  46  71 102 147 185 234 298 364 426
#     4  12  26  44  70 105 143 184 245 300 353 432
#     4  12  24  45  74 100 146 190 233 298 369 423
#     4  12  23  45  71  99 138 188 235 296 357 423
#     4  12  26  45  67 105 143 186 237 289 366 439
#
# _framework density 22.540797999999999
#
# number of rings (size 3 to 8) (size 9 to 14) (size 15 to 20)
#    0.000    0.500    6.250    1.125    5.250    2.000 
#    4.500    1.250    0.000    0.000    0.000    0.000 
#    0.000    0.000    0.000    0.000    0.000    0.000 
#
# Total GULP energy -89414.543490 kJ/mol
# GULP energy per Si atom -5588.408968 kJ/mol
# Density = 2.248949 g / cm^3
# Si number density = 22.540798 Si / 1000 Ang^3
#
#
#
# Elastic Constant Matrix: (Units=GPa)
#
#
# Indices 1 2 3 4 5 6 
#
# 1 123.3110 39.3524 25.8274 -14.4403 10.0337 -17.9483
# 2 39.3524 137.5228 15.0385 -14.1091 5.2615 -12.4175
# 3 25.8274 15.0385 67.4310 -6.7589 -4.2151 -1.6657
# 4 -14.4403 -14.1091 -6.7589 34.3284 -4.3166 0.6217
# 5 10.0337 5.2615 -4.2151 -4.3166 38.5908 -10.6320
# 6 -17.9483 -12.4175 -1.6657 0.6217 -10.6320 50.6051
#
#
#
# Elastic Compliance Matrix: (Units=1/GPa)
#
#
# Indices 1 2 3 4 5 6 
#
# 1 0.010264 -0.002010 -0.003267 0.002582 -0.001734 0.002643
# 2 -0.002010 0.008295 -0.000817 0.002369 -0.000089 0.001248
# 3 -0.003267 -0.000817 0.016636 0.001938 0.002934 -0.000219
# 4 0.002582 0.002369 0.001938 0.031954 0.003305 0.001863
# 5 -0.001734 -0.000089 0.002934 0.003305 0.028559 0.005419
# 6 0.002643 0.001248 -0.000219 0.001863 0.005419 0.022113
#
#
# Mechanical properties :
#
#
# Convention : Reuss Voigt Hill
#
# Bulk Modulus (GPa) = 43.46725 54.30018 48.88371
# Shear Modulus (GPa) = 36.31663 41.24131 38.77897
#
# Velocity S-wave (km/s) = 4.01827 4.28206 4.15226
# Velocity P-wave (km/s) = 6.39174 6.97066 6.68746
#
# Compressibility (1/GPa) = 0.02300583
#
# Stress axis : x y z
#
# Youngs Moduli (GPa) = 97.43264 120.55244 60.11072
#
# Poissons Ratio (x) = 0.24227 0.19639
# Poissons Ratio (y) = 0.19581 0.04914
# Poissons Ratio (z) = 0.31833 0.09855
#
# Static dielectric constant tensor:
#      x y z
#    x 1.853550 0.021840 0.069720 
#    y 0.021840 1.942890 0.027740 
#    z 0.069720 0.027740 1.849030 
# 
# From -- ./inp_files/187085.got.cif
#   From: 2010.05.17/outbox.cif.g08.bks.cpg/sg2_94_cif.got.tgz:187085.got - 2010.06.03 11:33:40.
