data_PCOD9043973
_publ_section_title
;
Structure prediction by ZEFSAII (Michael W. Deem and Ramdas Pophale) SiO2 
 PCOD9043973
Probable space group: P -1
;
_chemical_formula_sum "Si O2"
_cell_formula_units_Z 16
_cell_length_a 12.044751
_cell_length_b 13.364933
_cell_length_c 10.250948
_cell_angle_alpha 146.159802
_cell_angle_beta 97.148643
_cell_angle_gamma 62.343508
_cell_volume 690.570516
_symmetry_space_group_name_H-M "P -1"
_symmetry_group_IT_number 2
_symmetry_cell_setting 'triclinic'
loop_
_space_group_symop_operation_xyz
x,y,z
-x,-y,-z
loop_
_atom_site_type_symbol
_atom_site_label
_atom_site_fract_x
_atom_site_fract_y
_atom_site_fract_z
Si Si1 0.881175 0.978090 0.105494
Si Si2 0.083806 0.338576 0.005488
Si Si3 0.431591 0.995777 0.689688
Si Si4 0.047517 0.183706 0.350094
Si Si5 0.301591 0.736723 0.039142
Si Si6 0.536434 0.329809 0.444457
Si Si7 0.120878 0.719494 0.190465
Si Si8 0.562200 0.675134 0.108807
O O1 0.912897 0.843640 0.826968
O O2 0.930299 0.796969 0.030979
O O3 0.708409 0.193042 0.335042
O O4 0.961076 0.085661 0.237280
O O5 0.040982 0.567926 0.319914
O O6 0.964306 0.380706 0.931523
O O7 0.257985 0.151647 0.792128
O O8 0.458955 0.177588 0.863301
O O9 0.455598 0.885422 0.718366
O O10 0.535879 0.801089 0.380743
O O11 0.199843 0.998379 0.249612
O O12 0.399946 0.538882 0.734156
O O13 0.196337 0.700750 0.047612
O O14 0.424808 0.684681 0.096681
O O15 0.500000 0.500000 0.500000
O O16 0.267682 0.567090 0.136670
O O17 0.000000 0.000000 0.500000
#
# Coordination Sequence:
#
# PCOD9043973 Si02
#       8
#     2   2   2   2   2   2   2   2
#     4  10  23  46  68 101 144 188 240 299 362 431
#     4  11  25  43  71 104 143 185 247 295 364 437
#     4  10  25  45  68 101 144 192 232 305 361 431
#     4  11  24  43  71 103 140 192 240 298 364 432
#     4  12  25  42  72 104 140 196 243 296 368 434
#     4  11  23  45  72 102 139 191 244 297 369 438
#     4  12  27  45  73 106 145 194 242 305 367 431
#     4  11  26  46  67 102 149 188 244 298 361 438
#
# _framework density 23.169249000000001
#
# number of rings (size 3 to 8) (size 9 to 14) (size 15 to 20)
#    0.000    1.000    3.750    1.500   10.500    0.500 
#    0.000    1.875    0.000    0.000    0.000    0.000 
#    0.000    0.000    0.000    0.000    0.000    0.000 
#
# Total GULP energy -89104.250362 kJ/mol
# GULP energy per Si atom -5569.015648 kJ/mol
# Density = 2.311651 g / cm^3
# Si number density = 23.169249 Si / 1000 Ang^3
#
#
#
# Elastic Constant Matrix: (Units=GPa)
#
#
# Indices 1 2 3 4 5 6 
#
# 1 171.3372 57.1743 38.3623 18.9759 -24.7335 29.1537
# 2 57.1743 73.7897 18.6204 24.2003 -10.5561 9.0149
# 3 38.3623 18.6204 136.0922 9.4408 -22.8507 -14.1750
# 4 18.9759 24.2003 9.4408 40.0037 -4.5228 -3.9661
# 5 -24.7335 -10.5561 -22.8507 -4.5228 38.0967 -6.4520
# 6 29.1537 9.0149 -14.1750 -3.9661 -6.4520 40.6932
#
#
#
# Elastic Compliance Matrix: (Units=1/GPa)
#
#
# Indices 1 2 3 4 5 6 
#
# 1 0.009659 -0.005493 -0.002159 -0.001107 0.002272 -0.006203
# 2 -0.005493 0.021804 -0.000874 -0.010557 0.000329 -0.002176
# 3 -0.002159 -0.000874 0.009520 0.000472 0.005124 0.005915
# 4 -0.001107 -0.010557 0.000472 0.032654 0.001657 0.006742
# 5 0.002272 0.000329 0.005124 0.001657 0.031986 0.005317
# 6 -0.006203 -0.002176 0.005915 0.006742 0.005317 0.033060
#
#
# Mechanical properties :
#
#
# Convention : Reuss Voigt Hill
#
# Bulk Modulus (GPa) = 41.78715 67.72591 54.75653
# Shear Modulus (GPa) = 30.54153 41.56286 36.05219
#
# Velocity S-wave (km/s) = 3.63463 4.24002 3.94894
# Velocity P-wave (km/s) = 5.97401 7.29827 6.66909
#
# Compressibility (1/GPa) = 0.02393080
#
# Stress axis : x y z
#
# Youngs Moduli (GPa) = 103.53166 45.86298 105.04470
#
# Poissons Ratio (x) = 0.25194 0.22678
# Poissons Ratio (y) = 0.56873 0.09179
# Poissons Ratio (z) = 0.22351 0.04007
#
# Static dielectric constant tensor:
#      x y z
#    x 1.816540 -0.003530 0.020700 
#    y -0.003530 1.989380 0.010900 
#    z 0.020700 0.010900 1.832800 
# 
# From -- ./inp_files/434373.got.cif
#   From: 2010.05.17/outbox.cif.g08.bks.cpg/sg2_218_cif.got.tgz:434373.got - 2010.06.03 11:33:40.
