data_PCOD9043602
_publ_section_title
;
Structure prediction by ZEFSAII (Michael W. Deem and Ramdas Pophale) SiO2 
 PCOD9043602
Probable space group: P -1
;
_chemical_formula_sum "Si O2"
_cell_formula_units_Z 16
_cell_length_a 9.039666
_cell_length_b 14.331420
_cell_length_c 11.320147
_cell_angle_alpha 147.082185
_cell_angle_beta 79.870499
_cell_angle_gamma 116.250772
_cell_volume 654.807340
_symmetry_space_group_name_H-M "P -1"
_symmetry_group_IT_number 2
_symmetry_cell_setting 'triclinic'
loop_
_space_group_symop_operation_xyz
x,y,z
-x,-y,-z
loop_
_atom_site_type_symbol
_atom_site_label
_atom_site_fract_x
_atom_site_fract_y
_atom_site_fract_z
Si Si1 0.434747 0.081914 0.201234
Si Si2 0.238719 0.020779 0.780224
Si Si3 0.522444 0.662144 0.336155
Si Si4 0.943533 0.013287 0.653042
Si Si5 0.987233 0.628575 0.532936
Si Si6 0.453480 0.717927 0.144490
Si Si7 0.311813 0.285535 0.273032
Si Si8 0.816295 0.296499 0.002277
O O1 0.552542 0.291177 0.485864
O O2 0.297083 0.121586 0.194950
O O3 0.500000 0.000000 0.000000
O O4 0.346481 0.896840 0.109555
O O5 0.383403 0.071322 0.712077
O O6 0.069037 0.998113 0.713245
O O7 0.317191 0.206218 0.059325
O O8 0.170201 0.824217 0.664166
O O9 0.458170 0.712737 0.278970
O O10 0.736613 0.826607 0.493980
O O11 0.504198 0.448643 0.086010
O O12 0.952592 0.225463 0.887227
O O13 0.000000 0.000000 0.500000
O O14 0.856899 0.697049 0.669199
O O15 0.895987 0.484763 0.279386
O O16 0.000000 0.500000 0.500000
O O17 0.267849 0.670820 0.066955
O O18 0.500000 0.500000 0.500000
#
# Coordination Sequence:
#
# PCOD9043602 Si02
#       8
#     2   2   2   2   2   2   2   2
#     4  11  22  40  67 103 137 182 234 297 359 425
#     4  12  24  43  72 105 142 191 240 292 372 431
#     4  10  23  45  72  99 148 187 241 301 366 434
#     4  11  23  46  71 101 144 190 234 296 368 433
#     4  12  25  45  70 106 152 191 241 303 362 436
#     4  11  23  44  73 104 138 190 243 304 362 430
#     4  12  25  44  72 103 144 190 242 298 364 428
#     4  11  24  43  70 101 143 180 244 294 358 431
#
# _framework density 24.434667999999999
#
# number of rings (size 3 to 8) (size 9 to 14) (size 15 to 20)
#    0.000    0.750    1.250    7.875    0.000    3.000 
#    2.250    6.250    0.000    0.000    0.000    0.000 
#    0.000    0.000    0.000    0.000    0.000    0.000 
#
# Total GULP energy -89627.401233 kJ/mol
# GULP energy per Si atom -5601.712577 kJ/mol
# Density = 2.437905 g / cm^3
# Si number density = 24.434668 Si / 1000 Ang^3
#
#
#
# Elastic Constant Matrix: (Units=GPa)
#
#
# Indices 1 2 3 4 5 6 
#
# 1 103.8447 34.1912 14.5751 -6.0599 -12.4345 -44.7106
# 2 34.1912 107.8912 33.0903 -16.3738 -3.6620 -34.3212
# 3 14.5751 33.0903 88.3525 -11.8052 -4.0572 -25.5153
# 4 -6.0599 -16.3738 -11.8052 46.1677 -0.8482 10.7672
# 5 -12.4345 -3.6620 -4.0572 -0.8482 51.2937 -7.1015
# 6 -44.7106 -34.3212 -25.5153 10.7672 -7.1015 42.3063
#
#
#
# Elastic Compliance Matrix: (Units=1/GPa)
#
#
# Indices 1 2 3 4 5 6 
#
# 1 0.022409 0.000814 0.004633 -0.002253 0.009886 0.029370
# 2 0.000814 0.013257 -0.001684 0.001971 0.002499 0.010517
# 3 0.004633 -0.001684 0.015309 0.000919 0.004058 0.013211
# 4 -0.002253 0.001971 0.000919 0.023780 -0.000828 -0.006419
# 5 0.009886 0.002499 0.004058 -0.000828 0.025055 0.019339
# 6 0.029370 0.010517 0.013211 -0.006419 0.019339 0.076056
#
#
# Mechanical properties :
#
#
# Convention : Reuss Voigt Hill
#
# Bulk Modulus (GPa) = 17.09361 51.53350 34.31355
# Shear Modulus (GPa) = 26.61832 42.50233 34.56033
#
# Velocity S-wave (km/s) = 3.30414 4.17517 3.76493
# Velocity P-wave (km/s) = 4.64406 6.66174 5.74222
#
# Compressibility (1/GPa) = 0.05850139
#
# Stress axis : x y z
#
# Youngs Moduli (GPa) = 44.62438 75.43409 65.32154
#
# Poissons Ratio (x) = -0.06140 -0.30265
# Poissons Ratio (y) = -0.03632 0.10999
# Poissons Ratio (z) = -0.20675 0.12702
#
# Static dielectric constant tensor:
#      x y z
#    x 1.522660 -0.158800 0.261380 
#    y -0.158800 1.868740 0.189740 
#    z 0.261380 0.189740 1.806820 
# 
# From -- ./inp_files/400016.got.cif
#   From: 2010.05.17/outbox.cif.g08.bks.cpg/sg2_201_cif.got.tgz:400016.got - 2010.06.03 11:33:40.
