data_PCOD9043739
_publ_section_title
;
Structure prediction by ZEFSAII (Michael W. Deem and Ramdas Pophale) SiO2 
 PCOD9043739
Probable space group: P -1
;
_chemical_formula_sum "Si O2"
_cell_formula_units_Z 14
_cell_length_a 5.109735
_cell_length_b 10.843280
_cell_length_c 9.350359
_cell_angle_alpha 91.696805
_cell_angle_beta 104.705405
_cell_angle_gamma 81.008521
_cell_volume 494.913560
_symmetry_space_group_name_H-M "P -1"
_symmetry_group_IT_number 2
_symmetry_cell_setting 'triclinic'
loop_
_space_group_symop_operation_xyz
x,y,z
-x,-y,-z
loop_
_atom_site_type_symbol
_atom_site_label
_atom_site_fract_x
_atom_site_fract_y
_atom_site_fract_z
Si Si1 0.958909 0.193219 0.652450
Si Si2 0.000000 0.500000 0.500000
Si Si3 0.167491 0.799042 0.938978
Si Si4 0.836796 0.610509 0.789014
Si Si5 0.748545 0.022359 0.819687
Si Si6 0.409410 0.843470 0.667712
Si Si7 0.564291 0.648006 0.283560
Si Si8 0.500000 0.500000 0.000000
O O1 0.967869 0.072051 0.748140
O O2 0.807293 0.169741 0.484511
O O3 0.742110 0.292907 0.713045
O O4 0.227836 0.251195 0.659629
O O5 0.939703 0.528617 0.664835
O O6 0.680492 0.543911 0.411481
O O7 0.280592 0.819883 0.800727
O O8 0.095861 0.657387 0.913606
O O9 0.343646 0.865256 0.079233
O O10 0.884072 0.897333 0.917335
O O11 0.667711 0.733266 0.695112
O O12 0.657451 0.553364 0.879125
O O13 0.519991 0.974930 0.689187
O O14 0.594055 0.606809 0.122042
#
# Coordination Sequence:
#
# PCOD9043739 Si02
#       8
#     2   1   2   2   2   2   2   1
#     4  12  27  48  76 116 155 206 266 338 393 494
#     4  12  26  54  80 106 162 212 270 326 412 472
#     4  10  23  45  74 109 153 207 256 328 401 492
#     4  11  26  48  77 113 152 211 267 336 395 486
#     4  10  24  43  74 111 155 201 261 319 413 469
#     4  11  24  45  75 111 149 207 260 322 401 483
#     4  12  30  49  79 113 159 210 273 334 408 474
#     4  12  30  50  78 114 158 208 276 338 402 468
#
# _framework density 28.287770999999999
#
# number of rings (size 3 to 8) (size 9 to 14) (size 15 to 20)
#    0.000    0.857    1.429    3.429   10.000    4.000 
#    0.000    0.000    0.000    0.000    0.000    0.000 
#    0.000    0.000    0.000    0.000    0.000    0.000 
#
# Total GULP energy -78078.489847 kJ/mol
# GULP energy per Si atom -5577.034989 kJ/mol
# Density = 2.822339 g / cm^3
# Si number density = 28.287771 Si / 1000 Ang^3
#
#
#
# Elastic Constant Matrix: (Units=GPa)
#
#
# Indices 1 2 3 4 5 6 
#
# 1 99.0784 46.2838 43.0002 0.3072 -11.2590 24.3563
# 2 46.2838 93.7116 53.7197 29.1572 -18.4783 21.4229
# 3 43.0002 53.7197 207.5825 35.3045 -2.3035 17.9890
# 4 0.3072 29.1572 35.3045 40.7842 0.2474 9.7078
# 5 -11.2590 -18.4783 -2.3035 0.2474 59.3826 -4.7982
# 6 24.3563 21.4229 17.9890 9.7078 -4.7982 52.3946
#
#
#
# Elastic Compliance Matrix: (Units=1/GPa)
#
#
# Indices 1 2 3 4 5 6 
#
# 1 0.016187 -0.008359 -0.002293 0.009029 -0.000063 -0.004998
# 2 -0.008359 0.020987 -0.001218 -0.013603 0.004849 -0.001312
# 3 -0.002293 -0.001218 0.006381 -0.004677 -0.000531 0.000191
# 4 0.009029 -0.013603 -0.004677 0.039343 -0.003239 -0.004616
# 5 -0.000063 0.004849 -0.000531 -0.003239 0.018371 0.000511
# 6 -0.004998 -0.001312 0.000191 -0.004616 0.000511 0.022782
#
#
# Mechanical properties :
#
#
# Convention : Reuss Voigt Hill
#
# Bulk Modulus (GPa) = 50.47238 76.26443 63.36840
# Shear Modulus (GPa) = 32.38425 47.67021 40.02723
#
# Velocity S-wave (km/s) = 3.38718 4.10956 3.76573
# Velocity P-wave (km/s) = 5.76008 7.03823 6.43099
#
# Compressibility (1/GPa) = 0.01981282
#
# Stress axis : x y z
#
# Youngs Moduli (GPa) = 61.77932 47.64960 156.72317
#
# Poissons Ratio (x) = 0.39831 0.35936
# Poissons Ratio (y) = 0.51642 0.19096
# Poissons Ratio (z) = 0.14166 0.05806
#
# Static dielectric constant tensor:
#      x y z
#    x 1.879470 0.160550 -0.014840 
#    y 0.160550 2.092750 0.166410 
#    z -0.014840 0.166410 2.011500 
# 
# From -- ./inp_files/27124.got.cif
#   From: 2010.05.17/outbox.cif.g08.bks.cpg/sg2_14_cif.got.tgz:27124.got - 2010.06.03 11:33:40.
