data_PCOD9043737
_publ_section_title
;
Structure prediction by ZEFSAII (Michael W. Deem and Ramdas Pophale) SiO2 
 PCOD9043737
Probable space group: P -1
;
_chemical_formula_sum "Si O2"
_cell_formula_units_Z 14
_cell_length_a 11.461197
_cell_length_b 4.884109
_cell_length_c 14.241107
_cell_angle_alpha 115.485401
_cell_angle_beta 128.676408
_cell_angle_gamma 60.530989
_cell_volume 532.909752
_symmetry_space_group_name_H-M "P -1"
_symmetry_group_IT_number 2
_symmetry_cell_setting 'triclinic'
loop_
_space_group_symop_operation_xyz
x,y,z
-x,-y,-z
loop_
_atom_site_type_symbol
_atom_site_label
_atom_site_fract_x
_atom_site_fract_y
_atom_site_fract_z
Si Si1 0.717687 0.779022 0.437591
Si Si2 0.995578 0.822956 0.097240
Si Si3 0.527495 0.325998 0.087642
Si Si4 0.094807 0.738920 0.348188
Si Si5 0.726058 0.088360 0.871249
Si Si6 0.219724 0.934466 0.672617
Si Si7 0.407050 0.250440 0.387846
O O1 0.787842 0.399959 0.422286
O O2 0.830522 0.974903 0.558864
O O3 0.694399 0.903378 0.335033
O O4 0.545377 0.911682 0.418821
O O5 0.023745 0.770716 0.212770
O O6 0.139376 0.918677 0.138618
O O7 0.000000 0.500000 0.000000
O O8 0.823453 0.045480 0.011421
O O9 0.408347 0.571864 0.135733
O O10 0.691540 0.195978 0.205683
O O11 0.500000 0.500000 0.000000
O O12 0.500000 0.000000 0.000000
O O13 0.238608 0.408034 0.376085
O O14 0.946686 0.806992 0.351623
O O15 0.653559 0.814780 0.757613
O O16 0.500000 0.500000 0.500000
#
# Coordination Sequence:
#
# PCOD9043737 Si02
#       7
#     2   2   2   2   2   2   2
#     4  11  26  49  72 110 145 198 243 313 373 448
#     4  11  25  44  72 104 148 195 249 314 376 437
#     4  12  28  45  74 107 150 197 250 301 378 453
#     4  11  25  44  75 105 146 191 255 304 373 449
#     4  11  25  45  73 106 149 197 252 312 374 451
#     4  12  26  47  75 106 150 192 248 306 382 435
#     4  10  23  45  74 109 144 196 248 307 373 446
#
# _framework density 26.270862999999999
#
# number of rings (size 3 to 8) (size 9 to 14) (size 15 to 20)
#    0.000    0.857    2.857    2.571    6.000    3.429 
#    0.000    5.000    0.000    0.000    0.000    0.000 
#    0.000    0.000    0.000    0.000    0.000    0.000 
#
# Total GULP energy -78328.921364 kJ/mol
# GULP energy per Si atom -5594.922955 kJ/mol
# Density = 2.621107 g / cm^3
# Si number density = 26.270863 Si / 1000 Ang^3
#
#
#
# Elastic Constant Matrix: (Units=GPa)
#
#
# Indices 1 2 3 4 5 6 
#
# 1 124.1620 58.2529 35.8882 -10.5387 -7.9717 -21.8764
# 2 58.2529 153.0071 43.3659 -16.1721 7.0379 -25.9832
# 3 35.8882 43.3659 161.0131 1.0319 0.5643 -14.4929
# 4 -10.5387 -16.1721 1.0319 56.7097 -1.2235 9.9467
# 5 -7.9717 7.0379 0.5643 -1.2235 36.3119 -4.8203
# 6 -21.8764 -25.9832 -14.4929 9.9467 -4.8203 63.9619
#
#
#
# Elastic Compliance Matrix: (Units=1/GPa)
#
#
# Indices 1 2 3 4 5 6 
#
# 1 0.010677 -0.003418 -0.001286 0.000735 0.003331 0.002109
# 2 -0.003418 0.008798 -0.001460 0.001561 -0.002159 0.001669
# 3 -0.001286 -0.001460 0.006958 -0.000902 -0.000047 0.000680
# 4 0.000735 0.001561 -0.000902 0.018622 0.000208 -0.002199
# 5 0.003331 -0.002159 -0.000047 0.000208 0.029016 0.002406
# 6 0.002109 0.001669 0.000680 -0.002199 0.002406 0.017711
#
#
# Mechanical properties :
#
#
# Convention : Reuss Voigt Hill
#
# Bulk Modulus (GPa) = 70.89463 79.24400 75.06931
# Shear Modulus (GPa) = 45.95087 51.44171 48.69629
#
# Velocity S-wave (km/s) = 4.18678 4.42987 4.31004
# Velocity P-wave (km/s) = 7.10048 7.50964 7.30793
#
# Compressibility (1/GPa) = 0.01410544
#
# Stress axis : x y z
#
# Youngs Moduli (GPa) = 93.65881 113.65601 143.72548
#
# Poissons Ratio (x) = 0.38848 0.18480
# Poissons Ratio (y) = 0.32012 0.20985
# Poissons Ratio (z) = 0.12043 0.16595
#
# Static dielectric constant tensor:
#      x y z
#    x 2.032010 0.011920 -0.014370 
#    y 0.011920 2.009620 -0.135380 
#    z -0.014370 -0.135380 1.654750 
# 
# From -- ./inp_files/128416.got.cif
#   From: 2010.05.17/outbox.cif.g08.bks.cpg/sg2_65_cif.got.tgz:128416.got - 2010.06.03 11:33:40.
