data_PCOD9043564
_publ_section_title
;
Structure prediction by ZEFSAII (Michael W. Deem and Ramdas Pophale) SiO2 
 PCOD9043564
Probable space group: P -1
;
_chemical_formula_sum "Si O2"
_cell_formula_units_Z 12
_cell_length_a 6.949514
_cell_length_b 4.918024
_cell_length_c 21.046633
_cell_angle_alpha 84.464218
_cell_angle_beta 128.454759
_cell_angle_gamma 80.024673
_cell_volume 534.993272
_symmetry_space_group_name_H-M "P -1"
_symmetry_group_IT_number 2
_symmetry_cell_setting 'triclinic'
loop_
_space_group_symop_operation_xyz
x,y,z
-x,-y,-z
loop_
_atom_site_type_symbol
_atom_site_label
_atom_site_fract_x
_atom_site_fract_y
_atom_site_fract_z
Si Si1 0.870031 0.253676 0.792369
Si Si2 0.094293 0.674625 0.774291
Si Si3 0.334553 0.275819 0.640425
Si Si4 0.628918 0.199111 0.440644
Si Si5 0.093724 0.263501 0.396758
Si Si6 0.352262 0.311718 0.938090
O O1 0.885498 0.498678 0.740193
O O2 0.047974 0.326996 0.882699
O O3 0.575829 0.262615 0.736789
O O4 0.021955 0.944040 0.801037
O O5 0.074362 0.788458 0.696487
O O6 0.338270 0.430431 0.859437
O O7 0.335416 0.501060 0.578944
O O8 0.071271 0.428208 0.618575
O O9 0.386837 0.974985 0.623167
O O10 0.373091 0.254943 0.429066
O O11 0.851286 0.978182 0.532543
O O12 0.500000 0.500000 0.000000
O O13 0.500000 0.000000 0.000000
#
# Coordination Sequence:
#
# PCOD9043564 Si02
#       6
#     2   2   2   2   2   2
#     4  10  19  35  57  85 121 148 202 247 290 368
#     4  10  20  36  56  88 119 152 200 246 301 360
#     4  12  23  42  61  89 127 168 208 250 307 359
#     4  11  25  41  59  92 126 162 221 252 290 365
#     4  11  24  40  65  88 126 171 201 262 306 345
#     4  10  17  33  61  87 113 155 194 241 310 367
#
# _framework density 22.43019
#
# number of rings (size 3 to 8) (size 9 to 14) (size 15 to 20)
#    1.000    0.333    5.000    1.000    0.000    6.667 
#    0.000    0.000    0.000    2.000    0.000    0.000 
#    0.000    0.000    0.000    0.000    0.000    0.000 
#
# Total GULP energy -66848.813473 kJ/mol
# GULP energy per Si atom -5570.734456 kJ/mol
# Density = 2.237914 g / cm^3
# Si number density = 22.430190 Si / 1000 Ang^3
#
#
#
# Elastic Constant Matrix: (Units=GPa)
#
#
# Indices 1 2 3 4 5 6 
#
# 1 48.1507 37.6008 21.2905 0.1312 17.9375 -10.2411
# 2 37.6008 103.2282 33.0348 -9.5680 12.3545 12.5215
# 3 21.2905 33.0348 171.8288 -9.0986 10.3906 0.5294
# 4 0.1312 -9.5680 -9.0986 37.2136 10.3169 2.1007
# 5 17.9375 12.3545 10.3906 10.3169 33.0921 -6.7350
# 6 -10.2411 12.5215 0.5294 2.1007 -6.7350 36.7510
#
#
#
# Elastic Compliance Matrix: (Units=1/GPa)
#
#
# Indices 1 2 3 4 5 6 
#
# 1 0.040619 -0.014622 -0.001579 -0.001560 -0.012710 0.014084
# 2 -0.014622 0.017416 -0.001087 0.005452 -0.002111 -0.010691
# 3 -0.001579 -0.001087 0.006400 0.001703 -0.001383 -0.000513
# 4 -0.001560 0.005452 0.001703 0.032752 -0.013284 -0.006623
# 5 -0.012710 -0.002111 -0.001383 -0.013284 0.043685 0.005962
# 6 0.014084 -0.010691 -0.000513 -0.006623 0.005962 0.036256
#
#
# Mechanical properties :
#
#
# Convention : Reuss Voigt Hill
#
# Bulk Modulus (GPa) = 33.49163 56.33999 44.91581
# Shear Modulus (GPa) = 22.55729 36.83010 29.69369
#
# Velocity S-wave (km/s) = 3.17466 4.05654 3.64239
# Velocity P-wave (km/s) = 5.32934 6.86390 6.14472
#
# Compressibility (1/GPa) = 0.02985821
#
# Stress axis : x y z
#
# Youngs Moduli (GPa) = 24.61891 57.41840 156.25406
#
# Poissons Ratio (x) = 0.83957 0.24676
# Poissons Ratio (y) = 0.35997 0.16990
# Poissons Ratio (z) = 0.03888 0.06243
#
# Static dielectric constant tensor:
#      x y z
#    x 1.893910 0.001120 0.016120 
#    y 0.001120 1.802410 0.036330 
#    z 0.016120 0.036330 1.929430 
# 
# From -- ./inp_files/605682.got.cif
#   From: 2010.05.17/outbox.cif.g08.bks.cpg/sg2_303_cif.got.tgz:605682.got - 2010.06.03 11:33:40.
