data_PCOD9043815
_publ_section_title
;
Structure prediction by ZEFSAII (Michael W. Deem and Ramdas Pophale) SiO2 
 PCOD9043815
Probable space group: P -1
;
_chemical_formula_sum "Si O2"
_cell_formula_units_Z 16
_cell_length_a 15.574174
_cell_length_b 15.935619
_cell_length_c 5.259366
_cell_angle_alpha 113.030189
_cell_angle_beta 64.856510
_cell_angle_gamma 143.661620
_cell_volume 697.244352
_symmetry_space_group_name_H-M "P -1"
_symmetry_group_IT_number 2
_symmetry_cell_setting 'triclinic'
loop_
_space_group_symop_operation_xyz
x,y,z
-x,-y,-z
loop_
_atom_site_type_symbol
_atom_site_label
_atom_site_fract_x
_atom_site_fract_y
_atom_site_fract_z
Si Si1 0.969709 0.056737 0.319820
Si Si2 0.811667 0.687057 0.285111
Si Si3 0.595842 0.652104 0.174502
Si Si4 0.304166 0.844476 0.789467
Si Si5 0.271306 0.147917 0.200411
Si Si6 0.384450 0.816257 0.154968
Si Si7 0.415592 0.636034 0.691644
Si Si8 0.122796 0.871863 0.855163
O O1 0.115301 0.212104 0.439962
O O2 0.880112 0.079511 0.354707
O O3 0.134969 0.060725 0.464406
O O4 0.000000 0.000000 0.000000
O O5 0.694044 0.668017 0.277981
O O6 0.722593 0.529318 0.267160
O O7 0.956479 0.770190 0.036771
O O8 0.712992 0.786990 0.004675
O O9 0.472935 0.643236 0.354424
O O10 0.500000 0.500000 0.000000
O O11 0.328261 0.782040 0.476053
O O12 0.175296 0.810060 0.783342
O O13 0.456006 0.015698 0.824674
O O14 0.284919 0.796795 0.047259
O O15 0.244043 0.022516 0.024491
O O16 0.431644 0.281678 0.271129
O O17 0.394509 0.723640 0.908847
#
# Coordination Sequence:
#
# PCOD9043815 Si02
#       8
#     2   2   2   2   2   2   2   2
#     4  11  29  47  72 105 153 203 256 305 373 453
#     4  11  29  47  71 111 150 208 247 306 384 461
#     4  12  28  45  74 108 157 198 252 311 379 456
#     4  10  23  45  76 112 147 194 256 322 390 453
#     4  11  26  45  74 106 142 196 251 306 371 442
#     4  10  24  43  78 113 145 192 259 324 387 454
#     4  12  26  45  76 109 153 193 257 312 383 448
#     4  11  26  45  74 105 154 191 251 311 377 450
#
# _framework density 22.947479000000001
#
# number of rings (size 3 to 8) (size 9 to 14) (size 15 to 20)
#    0.000    1.000    2.500    1.125   12.250    4.500 
#    0.000    1.250    0.000    0.000    0.000    0.000 
#    0.000    0.000    0.000    0.000    0.000    0.000 
#
# Total GULP energy -89141.469276 kJ/mol
# GULP energy per Si atom -5571.341830 kJ/mol
# Density = 2.289525 g / cm^3
# Si number density = 22.947479 Si / 1000 Ang^3
#
#
#
# Elastic Constant Matrix: (Units=GPa)
#
#
# Indices 1 2 3 4 5 6 
#
# 1 110.7842 13.5195 27.2030 5.5568 -15.2922 5.9683
# 2 13.5195 127.2739 42.2389 12.6584 -2.6476 1.3647
# 3 27.2030 42.2389 96.6631 10.8186 -18.2828 -19.2390
# 4 5.5568 12.6584 10.8186 31.8829 -9.8678 6.4470
# 5 -15.2922 -2.6476 -18.2828 -9.8678 27.5906 5.4722
# 6 5.9683 1.3647 -19.2390 6.4470 5.4722 29.6803
#
#
#
# Elastic Compliance Matrix: (Units=1/GPa)
#
#
# Indices 1 2 3 4 5 6 
#
# 1 0.010863 -0.000080 -0.003361 0.002260 0.005767 -0.005914
# 2 -0.000080 0.009745 -0.005008 -0.002492 -0.002799 -0.002621
# 3 -0.003361 -0.005008 0.017341 -0.004115 0.005282 0.012067
# 4 0.002260 -0.002492 -0.004115 0.041342 0.016036 -0.014944
# 5 0.005767 -0.002799 0.005282 0.016036 0.050469 -0.010395
# 6 -0.005914 -0.002621 0.012067 -0.014944 -0.010395 0.047986
#
#
# Mechanical properties :
#
#
# Convention : Reuss Voigt Hill
#
# Bulk Modulus (GPa) = 47.50443 55.62713 51.56578
# Shear Modulus (GPa) = 24.79393 34.61473 29.70433
#
# Velocity S-wave (km/s) = 3.29061 3.88807 3.60175
# Velocity P-wave (km/s) = 5.93159 6.66707 6.31005
#
# Compressibility (1/GPa) = 0.02105067
#
# Stress axis : x y z
#
# Youngs Moduli (GPa) = 92.05597 102.61293 57.66718
#
# Poissons Ratio (x) = 0.00818 0.19384
# Poissons Ratio (y) = 0.00734 0.28881
# Poissons Ratio (z) = 0.30944 0.51390
#
# Static dielectric constant tensor:
#      x y z
#    x 1.980600 0.113770 0.081890 
#    y 0.113770 1.913270 0.160940 
#    z 0.081890 0.160940 1.699170 
# 
# From -- ./inp_files/99944.got.cif
#   From: 2010.05.17/outbox.cif.g08.bks.cpg/sg2_50_cif.got.tgz:99944.got - 2010.06.03 11:33:40.
