data_PCOD9043499
_publ_section_title
;
Structure prediction by ZEFSAII (Michael W. Deem and Ramdas Pophale) SiO2 
 PCOD9043499
Probable space group: P -1
;
_chemical_formula_sum "Si O2"
_cell_formula_units_Z 12
_cell_length_a 10.754453
_cell_length_b 17.470267
_cell_length_c 15.208682
_cell_angle_alpha 23.829224
_cell_angle_beta 144.026372
_cell_angle_gamma 151.563780
_cell_volume 549.545925
_symmetry_space_group_name_H-M "P -1"
_symmetry_group_IT_number 2
_symmetry_cell_setting 'triclinic'
loop_
_space_group_symop_operation_xyz
x,y,z
-x,-y,-z
loop_
_atom_site_type_symbol
_atom_site_label
_atom_site_fract_x
_atom_site_fract_y
_atom_site_fract_z
Si Si1 0.959472 0.785718 0.493145
Si Si2 0.741731 0.962019 0.430488
Si Si3 0.696041 0.993949 0.180989
Si Si4 0.227946 0.640733 0.552355
Si Si5 0.143956 0.483191 0.867436
Si Si6 0.345306 0.061858 0.281522
O O1 0.955016 0.565682 0.692202
O O2 0.151682 0.875513 0.593563
O O3 0.090572 0.966052 0.295848
O O4 0.714304 0.779735 0.392602
O O5 0.499215 0.716022 0.586086
O O6 0.633177 0.003586 0.236558
O O7 0.000000 0.000000 0.500000
O O8 0.988024 0.224372 0.087167
O O9 0.500000 0.000000 0.000000
O O10 0.178186 0.508448 0.755046
O O11 0.000000 0.500000 0.500000
O O12 0.266391 0.886068 0.340193
O O13 0.430818 0.662380 0.887259
O O14 0.500000 0.000000 0.500000
#
# Coordination Sequence:
#
# PCOD9043499 Si02
#       6
#     2   2   2   2   2   2
#     4   9  18  39  60  81 113 154 203 232 281 360
#     4  10  19  36  57  84 121 153 193 238 289 359
#     4  11  24  35  54  92 124 148 189 248 301 340
#     4  10  17  33  61  84 114 153 193 242 293 338
#     4  10  19  37  63  82 110 159 198 238 286 343
#     4   8  15  33  59  82 105 146 204 235 276 338
#
# _framework density 21.836210000000001
#
# number of rings (size 3 to 8) (size 9 to 14) (size 15 to 20)
#    0.000    2.667    5.000    1.000    0.000    2.000 
#    0.000    1.667    0.000   16.000    0.000    0.000 
#    0.000    0.000    0.000    0.000    0.000    0.000 
#
# Total GULP energy -66806.249994 kJ/mol
# GULP energy per Si atom -5567.187500 kJ/mol
# Density = 2.178651 g / cm^3
# Si number density = 21.836210 Si / 1000 Ang^3
#
#
#
# Elastic Constant Matrix: (Units=GPa)
#
#
# Indices 1 2 3 4 5 6 
#
# 1 111.9168 36.8504 29.1815 1.1850 -12.9336 -10.4461
# 2 36.8504 100.8809 14.2203 12.9023 -8.4152 -22.0123
# 3 29.1815 14.2203 60.4768 4.5872 -9.6888 -13.2401
# 4 1.1850 12.9023 4.5872 33.0029 2.2768 -4.2953
# 5 -12.9336 -8.4152 -9.6888 2.2768 36.0304 3.3527
# 6 -10.4461 -22.0123 -13.2401 -4.2953 3.3527 20.6612
#
#
#
# Elastic Compliance Matrix: (Units=1/GPa)
#
#
# Indices 1 2 3 4 5 6 
#
# 1 0.011531 -0.003853 -0.004740 0.001439 0.001998 -0.001338
# 2 -0.003853 0.014742 0.002010 -0.004201 0.001571 0.013918
# 3 -0.004740 0.002010 0.021882 -0.002252 0.003612 0.012714
# 4 0.001439 -0.004201 -0.002252 0.032714 -0.003338 0.002151
# 5 0.001998 0.001571 0.003612 -0.003338 0.030074 -0.000576
# 6 -0.001338 0.013918 0.012714 0.002151 -0.000576 0.071239
#
#
# Mechanical properties :
#
#
# Convention : Reuss Voigt Hill
#
# Bulk Modulus (GPa) = 28.57973 48.19768 38.38871
# Shear Modulus (GPa) = 24.15326 30.80705 27.48016
#
# Velocity S-wave (km/s) = 3.32943 3.76017 3.55134
# Velocity P-wave (km/s) = 5.28174 6.40095 5.86809
#
# Compressibility (1/GPa) = 0.03498984
#
# Stress axis : x y z
#
# Youngs Moduli (GPa) = 86.72604 67.83303 45.69879
#
# Poissons Ratio (x) = 0.26137 0.21660
# Poissons Ratio (y) = 0.33417 -0.09186
# Poissons Ratio (z) = 0.41105 -0.13636
#
# Static dielectric constant tensor:
#      x y z
#    x 1.878120 0.016110 -0.000800 
#    y 0.016110 1.862510 -0.033460 
#    z -0.000800 -0.033460 1.829440 
# 
# From -- ./inp_files/490283.got.cif
#   From: 2010.05.17/outbox.cif.g08.bks.cpg/sg2_246_cif.got.tgz:490283.got - 2010.06.03 11:33:40.
