data_PCOD9043750
_publ_section_title
;
Structure prediction by ZEFSAII (Michael W. Deem and Ramdas Pophale) SiO2 
 PCOD9043750
Probable space group: P -1
;
_chemical_formula_sum "Si O2"
_cell_formula_units_Z 16
_cell_length_a 8.750403
_cell_length_b 15.697093
_cell_length_c 9.090347
_cell_angle_alpha 139.766647
_cell_angle_beta 55.001553
_cell_angle_gamma 113.999816
_cell_volume 659.499284
_symmetry_space_group_name_H-M "P -1"
_symmetry_group_IT_number 2
_symmetry_cell_setting 'triclinic'
loop_
_space_group_symop_operation_xyz
x,y,z
-x,-y,-z
loop_
_atom_site_type_symbol
_atom_site_label
_atom_site_fract_x
_atom_site_fract_y
_atom_site_fract_z
Si Si1 0.477910 0.961307 0.295130
Si Si2 0.928688 0.373290 0.960860
Si Si3 0.844677 0.943669 0.908105
Si Si4 0.219215 0.124268 0.460625
Si Si5 0.559398 0.388306 0.012341
Si Si6 0.469760 0.684861 0.398385
Si Si7 0.747429 0.720155 0.838232
Si Si8 0.916423 0.369707 0.304612
O O1 0.500000 0.000000 0.500000
O O2 0.284532 0.018397 0.410051
O O3 0.649744 0.007677 0.162625
O O4 0.551177 0.809125 0.061408
O O5 0.063580 0.241376 0.722484
O O6 0.000000 0.500000 0.000000
O O7 0.742331 0.342175 0.937982
O O8 0.886394 0.401525 0.192613
O O9 0.841386 0.957447 0.755036
O O10 0.844422 0.783282 0.727665
O O11 0.000000 0.000000 0.000000
O O12 0.404671 0.208902 0.453301
O O13 0.582998 0.542205 0.161071
O O14 0.362551 0.408335 0.237754
O O15 0.541949 0.305625 0.760974
O O16 0.263898 0.680971 0.578723
O O17 0.901716 0.732554 0.896921
O O18 0.000000 0.500000 0.500000
#
# Coordination Sequence:
#
# PCOD9043750 Si02
#       8
#     2   2   2   2   2   2   2   2
#     4  10  23  45  74  98 141 186 241 298 357 418
#     4  12  27  43  69 107 150 190 242 291 360 431
#     4  10  27  49  73 103 141 191 245 302 365 423
#     4  12  26  47  74 105 146 191 245 297 361 433
#     4  11  23  46  68 104 144 194 232 291 360 432
#     4  11  25  41  75 100 148 189 235 290 365 427
#     4  10  25  44  73 101 144 181 242 292 362 423
#     4  12  25  42  70 108 146 189 239 291 353 433
#
# _framework density 24.260829999999999
#
# number of rings (size 3 to 8) (size 9 to 14) (size 15 to 20)
#    0.750    0.250    2.500    3.375    7.000    1.500 
#    2.250    1.250    0.000    0.000    0.000    0.000 
#    0.000    0.000    0.000    0.000    0.000    0.000 
#
# Total GULP energy -89130.132662 kJ/mol
# GULP energy per Si atom -5570.633291 kJ/mol
# Density = 2.420561 g / cm^3
# Si number density = 24.260830 Si / 1000 Ang^3
#
#
#
# Elastic Constant Matrix: (Units=GPa)
#
#
# Indices 1 2 3 4 5 6 
#
# 1 182.3741 43.7004 54.7567 -9.8413 -12.7612 -24.0374
# 2 43.7004 58.8738 20.4620 -12.6427 -6.2417 -20.5273
# 3 54.7567 20.4620 95.2645 -13.7632 -4.2689 -12.5755
# 4 -9.8413 -12.6427 -13.7632 28.6732 -5.6264 4.0234
# 5 -12.7612 -6.2417 -4.2689 -5.6264 42.6708 -2.9186
# 6 -24.0374 -20.5273 -12.5755 4.0234 -2.9186 55.0428
#
#
#
# Elastic Compliance Matrix: (Units=1/GPa)
#
#
# Indices 1 2 3 4 5 6 
#
# 1 0.007715 -0.004140 -0.003437 -0.000727 0.001342 0.001164
# 2 -0.004140 0.025090 -0.000582 0.009183 0.004060 0.006960
# 3 -0.003437 -0.000582 0.013516 0.005097 0.000983 0.001050
# 4 -0.000727 0.009183 0.005097 0.042340 0.007325 0.001565
# 5 0.001342 0.004060 0.000983 0.007325 0.025710 0.003153
# 6 0.001164 0.006960 0.001050 0.001565 0.003153 0.021564
#
#
# Mechanical properties :
#
#
# Convention : Reuss Voigt Hill
#
# Bulk Modulus (GPa) = 33.32880 63.81673 48.57277
# Shear Modulus (GPa) = 30.81566 39.78361 35.29963
#
# Velocity S-wave (km/s) = 3.56783 4.05387 3.81859
# Velocity P-wave (km/s) = 5.54437 6.94790 6.28544
#
# Compressibility (1/GPa) = 0.03000408
#
# Stress axis : x y z
#
# Youngs Moduli (GPa) = 129.61332 39.85639 73.98383
#
# Poissons Ratio (x) = 0.16502 0.25425
# Poissons Ratio (y) = 0.53665 0.04305
# Poissons Ratio (z) = 0.44542 0.02319
#
# Static dielectric constant tensor:
#      x y z
#    x 1.696920 -0.230940 0.072040 
#    y -0.230940 2.065640 0.146870 
#    z 0.072040 0.146870 1.999010 
# 
# From -- ./inp_files/215739.got.cif
#   From: 2010.05.17/outbox.cif.g08.bks.cpg/sg2_108_cif.got.tgz:215739.got - 2010.06.03 11:33:40.
