data_PCOD9043681
_publ_section_title
;
Structure prediction by ZEFSAII (Michael W. Deem and Ramdas Pophale) SiO2 
 PCOD9043681
Probable space group: P -1
;
_chemical_formula_sum "Si O2"
_cell_formula_units_Z 12
_cell_length_a 12.683846
_cell_length_b 16.161866
_cell_length_c 5.033257
_cell_angle_alpha 107.285852
_cell_angle_beta 85.340666
_cell_angle_gamma 150.392565
_cell_volume 451.130544
_symmetry_space_group_name_H-M "P -1"
_symmetry_group_IT_number 2
_symmetry_cell_setting 'triclinic'
loop_
_space_group_symop_operation_xyz
x,y,z
-x,-y,-z
loop_
_atom_site_type_symbol
_atom_site_label
_atom_site_fract_x
_atom_site_fract_y
_atom_site_fract_z
Si Si1 0.937953 0.630623 0.315135
Si Si2 0.344721 0.813488 0.227766
Si Si3 0.634824 0.519271 0.859742
Si Si4 0.787854 0.913135 0.472586
Si Si5 0.916185 0.114901 0.140613
Si Si6 0.264061 0.659472 0.596741
O O1 0.758331 0.449209 0.364147
O O2 0.090936 0.672523 0.163103
O O3 0.103204 0.804037 0.648094
O O4 0.808859 0.599029 0.106821
O O5 0.353040 0.738513 0.358392
O O6 0.500000 0.000000 0.500000
O O7 0.393499 0.816424 0.926235
O O8 0.438602 0.306960 0.632015
O O9 0.803814 0.682601 0.757490
O O10 0.500000 0.500000 0.000000
O O11 0.803982 0.969675 0.237730
O O12 0.000000 0.000000 0.500000
O O13 0.821686 0.012509 0.781762
O O14 0.000000 0.500000 0.500000
#
# Coordination Sequence:
#
# PCOD9043681 Si02
#       6
#     2   2   2   2   2   2
#     4  11  26  47  74 108 150 194 252 306 376 449
#     4  11  25  47  75 107 147 187 245 312 375 448
#     4  12  28  50  78 109 159 206 247 316 376 440
#     4  12  27  48  76 104 148 203 259 309 373 440
#     4  12  27  49  73 112 150 195 262 309 370 449
#     4  10  23  45  74 100 140 192 237 298 382 438
#
# _framework density 26.59984
#
# number of rings (size 3 to 8) (size 9 to 14) (size 15 to 20)
#    0.000    0.667    3.333    3.000    9.333    2.667 
#    3.000    0.000    0.000    0.000    0.000    0.000 
#    0.000    0.000    0.000    0.000    0.000    0.000 
#
# Total GULP energy -67302.438571 kJ/mol
# GULP energy per Si atom -5608.536548 kJ/mol
# Density = 2.653930 g / cm^3
# Si number density = 26.599840 Si / 1000 Ang^3
#
#
#
# Elastic Constant Matrix: (Units=GPa)
#
#
# Indices 1 2 3 4 5 6 
#
# 1 116.3025 24.8792 28.2986 -8.2657 -7.8478 10.4773
# 2 24.8792 116.3150 31.5005 20.7507 -0.3236 10.1271
# 3 28.2986 31.5005 151.6502 22.7002 -6.5559 7.9414
# 4 -8.2657 20.7507 22.7002 65.2648 -6.8064 -8.3794
# 5 -7.8478 -0.3236 -6.5559 -6.8064 33.8587 -2.6869
# 6 10.4773 10.1271 7.9414 -8.3794 -2.6869 44.6576
#
#
#
# Elastic Compliance Matrix: (Units=1/GPa)
#
#
# Indices 1 2 3 4 5 6 
#
# 1 0.009868 -0.002040 -0.001656 0.002605 0.002397 -0.000925
# 2 -0.002040 0.010182 -0.001141 -0.003562 -0.001502 -0.002386
# 3 -0.001656 -0.001141 0.007610 -0.002595 0.000465 -0.001165
# 4 0.002605 -0.003562 -0.002595 0.018689 0.004175 0.004416
# 5 0.002397 -0.001502 0.000465 0.004175 0.031192 0.002356
# 6 -0.000925 -0.002386 -0.001165 0.004416 0.002356 0.024328
#
#
# Mechanical properties :
#
#
# Convention : Reuss Voigt Hill
#
# Bulk Modulus (GPa) = 55.59925 61.51383 58.55654
# Shear Modulus (GPa) = 42.53980 48.72883 45.63432
#
# Velocity S-wave (km/s) = 4.00340 4.28474 4.14646
# Velocity P-wave (km/s) = 6.50516 6.90322 6.70715
#
# Compressibility (1/GPa) = 0.01798585
#
# Stress axis : x y z
#
# Youngs Moduli (GPa) = 101.34035 98.21571 131.41337
#
# Poissons Ratio (x) = 0.20035 0.21756
# Poissons Ratio (y) = 0.20673 0.14996
# Poissons Ratio (z) = 0.16777 0.11207
#
# Static dielectric constant tensor:
#      x y z
#    x 2.123390 0.046770 0.000400 
#    y 0.046770 2.094850 0.026690 
#    z 0.000400 0.026690 2.065580 
# 
# From -- ./inp_files/73506.got.cif
#   From: 2010.05.17/outbox.cif.g08.bks.cpg/sg2_37_cif.got.tgz:73506.got - 2010.06.03 11:33:40.
