data_PCOD9043136
_publ_section_title
;
Structure prediction by ZEFSAII (Michael W. Deem and Ramdas Pophale) SiO2 
 PCOD9043136
Probable space group: P -1
;
_chemical_formula_sum "Si O2"
_cell_formula_units_Z 14
_cell_length_a 24.684210
_cell_length_b 21.959808
_cell_length_c 5.061934
_cell_angle_alpha 53.415506
_cell_angle_beta 45.673150
_cell_angle_gamma 17.218139
_cell_volume 546.977791
_symmetry_space_group_name_H-M "P -1"
_symmetry_group_IT_number 2
_symmetry_cell_setting 'triclinic'
loop_
_space_group_symop_operation_xyz
x,y,z
-x,-y,-z
loop_
_atom_site_type_symbol
_atom_site_label
_atom_site_fract_x
_atom_site_fract_y
_atom_site_fract_z
Si Si1 0.179466 0.449065 0.461504
Si Si2 0.200772 0.109035 0.608817
Si Si3 0.513243 0.706366 0.292478
Si Si4 0.195059 0.888008 0.669219
Si Si5 0.599902 0.823145 0.108439
Si Si6 0.254995 0.731114 0.358664
Si Si7 0.861291 0.305139 0.433405
O O1 0.216031 0.367473 0.811138
O O2 0.933162 0.698383 0.574331
O O3 0.298129 0.420161 0.156944
O O4 0.302960 0.290554 0.212362
O O5 0.319983 0.943451 0.422006
O O6 0.393441 0.962108 0.507815
O O7 0.027644 0.218580 0.060593
O O8 0.399341 0.749663 0.395212
O O9 0.623796 0.567725 0.541485
O O10 0.263365 0.766293 0.518219
O O11 0.986294 0.134289 0.657001
O O12 0.856248 0.110217 0.894291
O O13 0.500000 0.000000 0.000000
O O14 0.171027 0.723918 0.623735
O O15 0.500000 0.500000 0.000000
#
# Coordination Sequence:
#
# PCOD9043136 Si02
#       7
#     2   2   2   2   2   2   2
#     4  10  24  44  71 104 142 182 224 272 338 399
#     4  10  24  46  70 102 140 180 229 275 339 406
#     4  10  23  45  69 100 137 180 230 286 334 407
#     4  12  25  46  68  96 134 177 230 289 346 404
#     4  11  24  45  74 107 142 178 223 276 331 401
#     4  12  26  46  67  95 134 177 228 290 351 401
#     4  11  24  43  70  97 132 182 226 285 345 405
#
# _framework density 25.595189000000001
#
# number of rings (size 3 to 8) (size 9 to 14) (size 15 to 20)
#    0.000    1.143    1.429    3.429    0.000    9.143 
#    2.571    0.000    0.000    0.000    0.000    0.000 
#    0.000    0.000    0.000    0.000    0.000    0.000 
#
# Total GULP energy -78380.451773 kJ/mol
# GULP energy per Si atom -5598.603698 kJ/mol
# Density = 2.553693 g / cm^3
# Si number density = 25.595189 Si / 1000 Ang^3
#
#
#
# Elastic Constant Matrix: (Units=GPa)
#
#
# Indices 1 2 3 4 5 6 
#
# 1 99.5015 39.3825 33.7327 -6.0686 17.9430 5.5842
# 2 39.3825 132.9677 -8.2970 -8.6707 -4.6096 -13.2690
# 3 33.7327 -8.2970 35.5476 -11.1863 14.2372 4.7494
# 4 -6.0686 -8.6707 -11.1863 39.2803 -8.0965 -3.2780
# 5 17.9430 -4.6096 14.2372 -8.0965 24.9751 -7.5633
# 6 5.5842 -13.2690 4.7494 -3.2780 -7.5633 35.4430
#
#
#
# Elastic Compliance Matrix: (Units=1/GPa)
#
#
# Indices 1 2 3 4 5 6 
#
# 1 0.022981 -0.009735 -0.021020 -0.007481 -0.011018 -0.007492
# 2 -0.009735 0.012415 0.010082 0.006287 0.007714 0.007058
# 3 -0.021020 0.010082 0.060626 0.013071 -0.014228 -0.002865
# 4 -0.007481 0.006287 0.013071 0.032458 0.011818 0.007304
# 5 -0.011018 0.007714 -0.014228 0.011818 0.068027 0.022140
# 6 -0.007492 0.007058 -0.002865 0.007304 0.022140 0.037821
#
#
# Mechanical properties :
#
#
# Convention : Reuss Voigt Hill
#
# Bulk Modulus (GPa) = 18.29007 44.18368 31.23688
# Shear Modulus (GPa) = 17.01266 33.48624 25.24945
#
# Velocity S-wave (km/s) = 2.58094 3.62097 3.14425
# Velocity P-wave (km/s) = 4.00538 5.89762 5.04108
#
# Compressibility (1/GPa) = 0.05467448
#
# Stress axis : x y z
#
# Youngs Moduli (GPa) = 43.51493 80.54834 16.49462
#
# Poissons Ratio (x) = 0.78418 0.34671
# Poissons Ratio (y) = 0.42364 -0.16630
# Poissons Ratio (z) = 0.91468 -0.81208
#
# Static dielectric constant tensor:
#      x y z
#    x 1.967120 -0.007280 -0.019130 
#    y -0.007280 2.134810 0.074260 
#    z -0.019130 0.074260 2.109900 
# 
# From -- ./inp_files/125001.got.cif
#   From: 2010.05.17/outbox.cif.g08.bks.cpg/sg2_63_cif.got.tgz:125001.got - 2010.06.03 11:33:40.
