data_PCOD9043197
_publ_section_title
;
Structure prediction by ZEFSAII (Michael W. Deem and Ramdas Pophale) SiO2 
 PCOD9043197
Probable space group: P -1
;
_chemical_formula_sum "Si O2"
_cell_formula_units_Z 16
_cell_length_a 5.466059
_cell_length_b 8.313918
_cell_length_c 14.806666
_cell_angle_alpha 81.252187
_cell_angle_beta 69.911895
_cell_angle_gamma 78.812519
_cell_volume 617.264896
_symmetry_space_group_name_H-M "P -1"
_symmetry_group_IT_number 2
_symmetry_cell_setting 'triclinic'
loop_
_space_group_symop_operation_xyz
x,y,z
-x,-y,-z
loop_
_atom_site_type_symbol
_atom_site_label
_atom_site_fract_x
_atom_site_fract_y
_atom_site_fract_z
Si Si1 0.686582 0.792258 0.091642
Si Si2 0.701070 0.866680 0.875523
Si Si3 0.033409 0.316478 0.767066
Si Si4 0.254475 0.326244 0.395901
Si Si5 0.540763 0.384705 0.592667
Si Si6 0.463872 0.465427 0.112815
Si Si7 0.013734 0.838482 0.400980
Si Si8 0.135738 0.808235 0.676410
O O1 0.892864 0.799089 0.145155
O O2 0.627818 0.601854 0.123589
O O3 0.454181 0.946821 0.123595
O O4 0.766254 0.817018 0.975848
O O5 0.520663 0.733293 0.870144
O O6 0.965773 0.841599 0.785677
O O7 0.290158 0.376579 0.686116
O O8 0.823357 0.463553 0.818700
O O9 0.942263 0.215364 0.703998
O O10 0.252799 0.519313 0.389526
O O11 0.558107 0.258193 0.339676
O O12 0.184312 0.250193 0.506686
O O13 0.030876 0.297634 0.356840
O O14 0.500000 0.500000 0.500000
O O15 0.703864 0.202564 0.581093
O O16 0.500000 0.500000 0.000000
O O17 0.891054 0.025697 0.391906
#
# Coordination Sequence:
#
# PCOD9043197 Si02
#       8
#     2   2   2   2   2   2   2   2
#     4  10  24  49  73 108 149 204 256 321 389 465
#     4  10  23  48  74 107 153 198 265 319 386 465
#     4  12  25  44  79 106 153 201 253 318 396 459
#     4  12  28  48  76 110 156 204 258 319 392 466
#     4  12  26  47  76 107 149 199 260 314 383 468
#     4  10  23  45  69 105 148 193 254 320 378 460
#     4  12  28  48  74 108 155 197 259 318 387 474
#     4  12  28  49  76 114 155 205 257 325 393 460
#
# _framework density 25.920801999999998
#
# number of rings (size 3 to 8) (size 9 to 14) (size 15 to 20)
#    0.000    0.750    1.250    4.875    8.750    2.000 
#    4.500    3.750    0.000    0.000    0.000    0.000 
#    0.000    0.000    0.000    0.000    0.000    0.000 
#
# Total GULP energy -89527.428433 kJ/mol
# GULP energy per Si atom -5595.464277 kJ/mol
# Density = 2.586181 g / cm^3
# Si number density = 25.920802 Si / 1000 Ang^3
#
#
#
# Elastic Constant Matrix: (Units=GPa)
#
#
# Indices 1 2 3 4 5 6 
#
# 1 76.1921 22.5208 37.4302 8.6471 10.8162 -3.4031
# 2 22.5208 77.5402 45.1054 7.2317 6.0181 4.0574
# 3 37.4302 45.1054 159.1449 20.2062 3.3434 -1.7862
# 4 8.6471 7.2317 20.2062 43.8704 -4.5032 -4.7352
# 5 10.8162 6.0181 3.3434 -4.5032 51.0119 -10.2623
# 6 -3.4031 4.0574 -1.7862 -4.7352 -10.2623 21.3471
#
#
#
# Elastic Compliance Matrix: (Units=1/GPa)
#
#
# Indices 1 2 3 4 5 6 
#
# 1 0.015882 -0.002747 -0.002682 -0.001605 -0.002781 0.001137
# 2 -0.002747 0.016524 -0.003898 -0.001189 -0.002275 -0.005262
# 3 -0.002682 -0.003898 0.008344 -0.002565 0.000381 0.000626
# 4 -0.001605 -0.001189 -0.002565 0.025767 0.004455 0.007613
# 5 -0.002781 -0.002275 0.000381 0.004455 0.023284 0.012203
# 6 0.001137 -0.005262 0.000626 0.007613 0.012203 0.055634
#
#
# Mechanical properties :
#
#
# Convention : Reuss Voigt Hill
#
# Bulk Modulus (GPa) = 45.25401 58.10999 51.68200
# Shear Modulus (GPa) = 29.16240 37.10059 33.13150
#
# Velocity S-wave (km/s) = 3.35783 3.78736 3.57905
# Velocity P-wave (km/s) = 5.70349 6.44922 6.08779
#
# Compressibility (1/GPa) = 0.02209749
#
# Stress axis : x y z
#
# Youngs Moduli (GPa) = 62.96539 60.51656 119.84965
#
# Poissons Ratio (x) = 0.16621 0.32142
# Poissons Ratio (y) = 0.17294 0.46714
# Poissons Ratio (z) = 0.16887 0.23588
#
# Static dielectric constant tensor:
#      x y z
#    x 2.074160 0.063040 0.043090 
#    y 0.063040 2.082360 0.000180 
#    z 0.043090 0.000180 2.002960 
# 
# From -- ./inp_files/480389.got.cif
#   From: 2010.05.17/outbox.cif.g08.bks.cpg/sg2_241_cif.got.tgz:480389.got - 2010.06.03 11:33:40.
