data_PCOD9043869
_publ_section_title
;
Structure prediction by ZEFSAII (Michael W. Deem and Ramdas Pophale) SiO2 
 PCOD9043869
Probable space group: P -1
;
_chemical_formula_sum "Si O2"
_cell_formula_units_Z 14
_cell_length_a 15.000084
_cell_length_b 12.783295
_cell_length_c 10.164834
_cell_angle_alpha 42.488245
_cell_angle_beta 130.025028
_cell_angle_gamma 155.699877
_cell_volume 538.815062
_symmetry_space_group_name_H-M "P -1"
_symmetry_group_IT_number 2
_symmetry_cell_setting 'triclinic'
loop_
_space_group_symop_operation_xyz
x,y,z
-x,-y,-z
loop_
_atom_site_type_symbol
_atom_site_label
_atom_site_fract_x
_atom_site_fract_y
_atom_site_fract_z
Si Si1 0.271460 0.899909 0.169688
Si Si2 0.750933 0.262938 0.436397
Si Si3 0.542834 0.869207 0.146662
Si Si4 0.593507 0.629245 0.144048
Si Si5 0.167553 0.275863 0.495690
Si Si6 0.784037 0.663951 0.070549
Si Si7 0.107711 0.755368 0.649373
O O1 0.065635 0.581306 0.206763
O O2 0.363956 0.900782 0.377727
O O3 0.424977 0.107777 0.999006
O O4 0.257912 0.060831 0.056885
O O5 0.781767 0.476864 0.226871
O O6 0.000000 0.500000 0.500000
O O7 0.727776 0.113718 0.432574
O O8 0.338342 0.553714 0.306682
O O9 0.755813 0.072374 0.247476
O O10 0.500000 0.000000 0.000000
O O11 0.692360 0.686734 0.321132
O O12 0.626464 0.523779 0.174312
O O13 0.341645 0.394956 0.114555
O O14 0.040752 0.257194 0.486120
O O15 0.000000 0.000000 0.500000
O O16 0.000000 0.000000 0.000000
#
# Coordination Sequence:
#
# PCOD9043869 Si02
#       7
#     2   2   2   2   2   2   2
#     4  11  24  47  76 115 158 203 268 327 396 475
#     4  10  23  45  81 112 152 207 256 329 400 466
#     4  12  28  47  80 116 152 212 270 325 399 482
#     4  11  27  44  74 110 155 205 261 321 403 469
#     4  12  29  52  80 114 164 213 269 335 400 477
#     4  11  25  47  73 112 157 203 259 326 400 472
#     4  11  25  49  78 115 159 204 269 331 397 474
#
# _framework density 25.982941
#
# number of rings (size 3 to 8) (size 9 to 14) (size 15 to 20)
#    0.000    0.857    1.429    4.714    4.000    9.714 
#    0.000    0.000    0.000    0.857    0.000    0.000 
#    0.000    0.000    0.000    0.000    0.000    0.000 
#
# Total GULP energy -78341.096618 kJ/mol
# GULP energy per Si atom -5595.792616 kJ/mol
# Density = 2.592380 g / cm^3
# Si number density = 25.982941 Si / 1000 Ang^3
#
#
#
# Elastic Constant Matrix: (Units=GPa)
#
#
# Indices 1 2 3 4 5 6 
#
# 1 142.5113 32.6881 62.9993 0.5000 7.6692 -15.2968
# 2 32.6881 182.1152 80.3344 -9.3074 -0.1454 -17.2865
# 3 62.9993 80.3344 186.7590 14.0169 3.3859 7.1028
# 4 0.5000 -9.3074 14.0169 50.8437 -1.0176 -4.9194
# 5 7.6692 -0.1454 3.3859 -1.0176 51.4139 5.0362
# 6 -15.2968 -17.2865 7.1028 -4.9194 5.0362 29.0242
#
#
#
# Elastic Compliance Matrix: (Units=1/GPa)
#
#
# Indices 1 2 3 4 5 6 
#
# 1 0.009383 0.000765 -0.003857 0.001748 -0.001790 0.006952
# 2 0.000765 0.008027 -0.004210 0.003276 -0.000420 0.006842
# 3 -0.003857 -0.004210 0.009037 -0.003940 0.000628 -0.007528
# 4 0.001748 0.003276 -0.003940 0.022069 -0.000303 0.007630
# 5 -0.001790 -0.000420 0.000628 -0.000303 0.020148 -0.004894
# 6 0.006952 0.006842 -0.007528 0.007630 -0.004894 0.046178
#
#
# Mechanical properties :
#
#
# Convention : Reuss Voigt Hill
#
# Bulk Modulus (GPa) = 84.43251 95.93655 90.18453
# Shear Modulus (GPa) = 37.48309 48.61396 43.04852
#
# Velocity S-wave (km/s) = 3.80228 4.33019 4.07480
# Velocity P-wave (km/s) = 7.20017 7.87425 7.54474
#
# Compressibility (1/GPa) = 0.01184378
#
# Stress axis : x y z
#
# Youngs Moduli (GPa) = 106.57447 124.57713 110.65489
#
# Poissons Ratio (x) = -0.09533 0.42685
# Poissons Ratio (y) = -0.08155 0.46580
# Poissons Ratio (z) = 0.41111 0.52441
#
# Static dielectric constant tensor:
#      x y z
#    x -1.056910 2.475550 -0.149130 
#    y 2.475550 0.666810 0.124530 
#    z -0.149130 0.124530 2.029520 
# 
# From -- ./inp_files/33292.got.cif
#   From: 2010.05.17/outbox.cif.g08.bks.cpg/sg2_17_cif.got.tgz:33292.got - 2010.06.03 11:33:40.
