data_PCOD9043113
_publ_section_title
;
Structure prediction by ZEFSAII (Michael W. Deem and Ramdas Pophale) SiO2 
 PCOD9043113
Probable space group: P -1
;
_chemical_formula_sum "Si O2"
_cell_formula_units_Z 14
_cell_length_a 14.970519
_cell_length_b 9.338809
_cell_length_c 15.625930
_cell_angle_alpha 35.860990
_cell_angle_beta 27.203763
_cell_angle_gamma 40.260116
_cell_volume 577.712254
_symmetry_space_group_name_H-M "P -1"
_symmetry_group_IT_number 2
_symmetry_cell_setting 'triclinic'
loop_
_space_group_symop_operation_xyz
x,y,z
-x,-y,-z
loop_
_atom_site_type_symbol
_atom_site_label
_atom_site_fract_x
_atom_site_fract_y
_atom_site_fract_z
Si Si1 0.814905 0.860895 0.240012
Si Si2 0.235683 0.468073 0.800798
Si Si3 0.255912 0.969174 0.595667
Si Si4 0.728227 0.032641 0.792697
Si Si5 0.591320 0.044127 0.168832
Si Si6 0.111813 0.670769 0.631285
Si Si7 0.869848 0.278581 0.717791
O O1 0.722013 0.920336 0.383289
O O2 0.887935 0.570651 0.309185
O O3 0.677502 0.952477 0.232565
O O4 0.000000 0.000000 0.000000
O O5 0.243484 0.582090 0.643969
O O6 0.314166 0.671373 0.694645
O O7 0.345751 0.187269 0.837740
O O8 0.000000 0.500000 0.000000
O O9 0.363266 0.083367 0.369932
O O10 0.025354 0.043094 0.732642
O O11 0.790407 0.131464 0.600700
O O12 0.782091 0.221623 0.728097
O O13 0.886936 0.784119 0.792896
O O14 0.500000 0.000000 0.000000
O O15 0.688059 0.272854 0.940920
O O16 0.000000 0.500000 0.500000
#
# Coordination Sequence:
#
# PCOD9043113 Si02
#       7
#     2   2   2   2   2   2   2
#     4  11  22  45  67 102 143 182 218 290 357 412
#     4  11  20  44  71 100 134 180 222 291 350 413
#     4  12  23  43  70 103 140 177 234 290 351 415
#     4  11  25  46  73 101 134 186 240 285 340 413
#     4  11  25  42  72 102 136 182 233 285 353 421
#     4  10  23  45  68  98 138 178 231 282 344 409
#     4  12  26  47  69 101 142 187 233 291 352 410
#
# _framework density 24.233518
#
# number of rings (size 3 to 8) (size 9 to 14) (size 15 to 20)
#    0.000    0.857    4.286    2.571    2.000    0.571 
#   15.429    0.000    0.000    0.000    0.000    0.000 
#    0.000    0.000    0.000    0.000    0.000    0.000 
#
# Total GULP energy -78322.020091 kJ/mol
# GULP energy per Si atom -5594.430007 kJ/mol
# Density = 2.417836 g / cm^3
# Si number density = 24.233518 Si / 1000 Ang^3
#
#
#
# Elastic Constant Matrix: (Units=GPa)
#
#
# Indices 1 2 3 4 5 6 
#
# 1 84.3768 28.3796 11.7733 2.3508 -5.2220 19.2436
# 2 28.3796 109.4314 46.2124 -0.1856 -8.9810 28.6964
# 3 11.7733 46.2124 140.6922 9.5906 -6.9340 21.3512
# 4 2.3508 -0.1856 9.5906 42.2833 -0.0059 0.3549
# 5 -5.2220 -8.9810 -6.9340 -0.0059 39.0969 -0.7537
# 6 19.2436 28.6964 21.3512 0.3549 -0.7537 42.4474
#
#
#
# Elastic Compliance Matrix: (Units=1/GPa)
#
#
# Indices 1 2 3 4 5 6 
#
# 1 0.013802 -0.002414 0.000494 -0.000849 0.001283 -0.004844
# 2 -0.002414 0.012787 -0.003057 0.000934 0.001957 -0.005986
# 3 0.000494 -0.003057 0.008620 -0.001975 0.000845 -0.002462
# 4 -0.000849 0.000934 -0.001975 0.024145 -0.000235 0.000541
# 5 0.001283 0.001957 0.000845 -0.000235 0.026312 -0.001861
# 6 -0.004844 -0.005986 -0.002462 0.000541 -0.001861 0.031002
#
#
# Mechanical properties :
#
#
# Convention : Reuss Voigt Hill
#
# Bulk Modulus (GPa) = 39.59422 56.35899 47.97661
# Shear Modulus (GPa) = 37.02575 41.30788 39.16681
#
# Velocity S-wave (km/s) = 3.91304 4.13313 4.02459
# Velocity P-wave (km/s) = 6.06547 6.78853 6.43716
#
# Compressibility (1/GPa) = 0.02525621
#
# Stress axis : x y z
#
# Youngs Moduli (GPa) = 72.45106 78.20473 116.00429
#
# Poissons Ratio (x) = 0.18879 -0.05733
# Poissons Ratio (y) = 0.17490 0.35461
# Poissons Ratio (z) = -0.03580 0.23906
#
# Static dielectric constant tensor:
#      x y z
#    x 2.126280 -0.165230 -0.171680 
#    y -0.165230 2.127350 0.132030 
#    z -0.171680 0.132030 2.129450 
# 
# From -- ./inp_files/529249.got.cif
#   From: 2010.05.17/outbox.cif.g08.bks.cpg/sg2_265_cif.got.tgz:529249.got - 2010.06.03 11:33:40.
