data_PCOD9043804
_publ_section_title
;
Structure prediction by ZEFSAII (Michael W. Deem and Ramdas Pophale) SiO2 
 PCOD9043804
Probable space group: P -1
;
_chemical_formula_sum "Si O2"
_cell_formula_units_Z 16
_cell_length_a 7.363231
_cell_length_b 13.494971
_cell_length_c 9.509295
_cell_angle_alpha 61.759659
_cell_angle_beta 128.499986
_cell_angle_gamma 99.542250
_cell_volume 640.004604
_symmetry_space_group_name_H-M "P -1"
_symmetry_group_IT_number 2
_symmetry_cell_setting 'triclinic'
loop_
_space_group_symop_operation_xyz
x,y,z
-x,-y,-z
loop_
_atom_site_type_symbol
_atom_site_label
_atom_site_fract_x
_atom_site_fract_y
_atom_site_fract_z
Si Si1 0.802780 0.700143 0.078948
Si Si2 0.178304 0.295857 0.208050
Si Si3 0.345351 0.871172 0.454437
Si Si4 0.651534 0.388705 0.069808
Si Si5 0.976894 0.931287 0.676922
Si Si6 0.897445 0.333123 0.496428
Si Si7 0.858342 0.111683 0.929267
Si Si8 0.429677 0.472962 0.327879
O O1 0.892128 0.652038 0.308146
O O2 0.961435 0.798956 0.060876
O O3 0.882427 0.634022 0.015095
O O4 0.521106 0.704541 0.952098
O O5 0.413228 0.206079 0.328191
O O6 0.037756 0.201892 0.263477
O O7 0.260566 0.381192 0.298516
O O8 0.138875 0.798354 0.429835
O O9 0.366029 0.865632 0.296966
O O10 0.251515 0.991220 0.405872
O O11 0.869077 0.362711 0.299625
O O12 0.500000 0.500000 0.000000
O O13 0.681299 0.423323 0.899629
O O14 0.000000 0.000000 0.500000
O O15 0.175196 0.916690 0.905390
O O16 0.670234 0.407743 0.413728
O O17 0.000000 0.000000 0.000000
O O18 0.500000 0.500000 0.500000
#
# Coordination Sequence:
#
# PCOD9043804 Si02
#       8
#     2   2   2   2   2   2   2   2
#     4  10  17  33  62  84 106 149 192 238 279 327
#     4  10  19  37  60  81 114 153 199 226 285 357
#     4   9  16  35  59  82 110 154 187 227 283 348
#     4  10  18  35  57  82 113 141 197 241 270 337
#     4  10  20  34  56  86 117 143 183 245 290 335
#     4   9  19  35  62  85 112 144 196 233 277 345
#     4   8  17  32  53  80 114 145 187 224 277 352
#     4  10  21  39  55  79 118 153 183 241 290 330
#
# _framework density 24.999818999999999
#
# number of rings (size 3 to 8) (size 9 to 14) (size 15 to 20)
#    0.000    2.500    3.750    0.375    0.000    2.000 
#    6.750    6.250    0.000    0.000    0.000    0.000 
#    0.000    0.000    0.000    0.000    0.000    0.000 
#
# Total GULP energy -89090.245289 kJ/mol
# GULP energy per Si atom -5568.140331 kJ/mol
# Density = 2.494292 g / cm^3
# Si number density = 24.999819 Si / 1000 Ang^3
#
#
#
# Elastic Constant Matrix: (Units=GPa)
#
#
# Indices 1 2 3 4 5 6 
#
# 1 78.1501 19.8359 43.1925 14.1747 -23.2047 3.1297
# 2 19.8359 111.2493 52.3029 16.6350 -28.5169 3.3376
# 3 43.1925 52.3029 211.5233 24.9838 -53.7446 9.6750
# 4 14.1747 16.6350 24.9838 42.5411 -2.0476 -5.1874
# 5 -23.2047 -28.5169 -53.7446 -2.0476 31.9704 -3.5111
# 6 3.1297 3.3376 9.6750 -5.1874 -3.5111 25.4630
#
#
#
# Elastic Compliance Matrix: (Units=1/GPa)
#
#
# Indices 1 2 3 4 5 6 
#
# 1 0.017590 0.001222 0.000504 -0.006178 0.014108 -0.001827
# 2 0.001222 0.012533 0.000462 -0.005143 0.012368 -0.001311
# 3 0.000504 0.000462 0.009247 -0.005335 0.015699 -0.002558
# 4 -0.006178 -0.005143 -0.005335 0.030911 -0.015220 0.007659
# 5 0.014108 0.012368 0.015699 -0.015220 0.077781 -0.001696
# 6 -0.001827 -0.001311 -0.002558 0.007659 -0.001696 0.041968
#
#
# Mechanical properties :
#
#
# Convention : Reuss Voigt Hill
#
# Bulk Modulus (GPa) = 22.86030 70.17615 46.51822
# Shear Modulus (GPa) = 24.97050 39.03431 32.00241
#
# Velocity S-wave (km/s) = 3.16385 3.95572 3.58174
# Velocity P-wave (km/s) = 4.74454 6.99966 5.97938
#
# Compressibility (1/GPa) = 0.04374397
#
# Stress axis : x y z
#
# Youngs Moduli (GPa) = 56.85047 79.79049 108.14787
#
# Poissons Ratio (x) = -0.09748 -0.05450
# Poissons Ratio (y) = -0.06945 -0.04993
# Poissons Ratio (z) = -0.02865 -0.03684
#
# Static dielectric constant tensor:
#      x y z
#    x 2.071440 0.021030 0.054260 
#    y 0.021030 1.999540 0.017920 
#    z 0.054260 0.017920 2.376460 
# 
# From -- ./inp_files/201013.got.cif
#   From: 2010.05.17/outbox.cif.g08.bks.cpg/sg2_101_cif.got.tgz:201013.got - 2010.06.03 11:33:40.
