data_PCOD9043277
_publ_section_title
;
Structure prediction by ZEFSAII (Michael W. Deem and Ramdas Pophale) SiO2 
 PCOD9043277
Probable space group: P -1
;
_chemical_formula_sum "Si O2"
_cell_formula_units_Z 13
_cell_length_a 12.444190
_cell_length_b 6.490761
_cell_length_c 7.510284
_cell_angle_alpha 100.587580
_cell_angle_beta 81.884264
_cell_angle_gamma 77.979396
_cell_volume 572.971854
_symmetry_space_group_name_H-M "P -1"
_symmetry_group_IT_number 2
_symmetry_cell_setting 'triclinic'
loop_
_space_group_symop_operation_xyz
x,y,z
-x,-y,-z
loop_
_atom_site_type_symbol
_atom_site_label
_atom_site_fract_x
_atom_site_fract_y
_atom_site_fract_z
Si Si1 0.392476 0.305465 0.175804
Si Si2 0.235469 0.778055 0.782101
Si Si3 0.461640 0.443200 0.694431
Si Si4 0.986737 0.792602 0.356040
Si Si5 0.169756 0.465206 0.462156
Si Si6 0.399808 0.055192 0.778661
Si Si7 0.000000 0.000000 0.000000
O O1 0.439901 0.521015 0.194183
O O2 0.287518 0.348101 0.335573
O O3 0.497649 0.131351 0.204273
O O4 0.363079 0.211632 0.982344
O O5 0.342085 0.597468 0.799625
O O6 0.183955 0.653860 0.622523
O O7 0.297891 0.957627 0.726368
O O8 0.135170 0.876636 0.954178
O O9 0.500000 0.500000 0.500000
O O10 0.445389 0.204169 0.656158
O O11 0.090212 0.588174 0.342502
O O12 0.885583 0.701939 0.446353
O O13 0.000000 0.000000 0.500000
O O14 0.976801 0.868882 0.166986
#
# Coordination Sequence:
#
# PCOD9043277 Si02
#       7
#     2   2   2   2   2   2   1
#     4  10  23  45  70 100 142 186 232 297 356 426
#     4  11  26  44  68 109 135 191 243 290 362 421
#     4  11  23  43  68 106 140 186 233 289 355 431
#     4  11  27  49  72 108 144 189 248 294 372 426
#     4  11  25  48  74 104 144 190 242 303 356 440
#     4  10  25  43  69 105 140 184 238 291 361 426
#     4  12  28  48  74 104 152 188 240 306 358 440
#
# _framework density 22.688723
#
# number of rings (size 3 to 8) (size 9 to 14) (size 15 to 20)
#    0.000    1.231    3.077    0.462    6.462    5.538 
#    0.000    0.000    0.000    0.000    0.000    0.000 
#    0.000    0.000    0.000    0.000    0.000    0.000 
#
# Total GULP energy -72411.329965 kJ/mol
# GULP energy per Si atom -5570.102305 kJ/mol
# Density = 2.263708 g / cm^3
# Si number density = 22.688723 Si / 1000 Ang^3
#
#
#
# Elastic Constant Matrix: (Units=GPa)
#
#
# Indices 1 2 3 4 5 6 
#
# 1 119.9115 51.6434 44.1932 -1.0274 -30.5153 16.3897
# 2 51.6434 114.3876 48.8103 -18.1743 -12.6481 29.9399
# 3 44.1932 48.8103 78.0159 -26.2720 -19.1134 15.9199
# 4 -1.0274 -18.1743 -26.2720 38.5473 -4.1297 0.3487
# 5 -30.5153 -12.6481 -19.1134 -4.1297 42.4691 4.9741
# 6 16.3897 29.9399 15.9199 0.3487 4.9741 50.7969
#
#
#
# Elastic Compliance Matrix: (Units=1/GPa)
#
#
# Indices 1 2 3 4 5 6 
#
# 1 0.013390 -0.003576 -0.004984 -0.004066 0.006060 -0.001216
# 2 -0.003576 0.014525 -0.004175 0.004071 0.001002 -0.006225
# 3 -0.004984 -0.004175 0.028100 0.018204 0.010280 -0.005869
# 4 -0.004066 0.004071 0.018204 0.041464 0.011477 -0.008202
# 5 0.006060 0.001002 0.010280 0.011477 0.035028 -0.009277
# 6 -0.001216 -0.006225 -0.005869 -0.008202 -0.009277 0.026552
#
#
# Mechanical properties :
#
#
# Convention : Reuss Voigt Hill
#
# Bulk Modulus (GPa) = 32.73881 66.84543 49.79212
# Shear Modulus (GPa) = 25.67904 37.54054 31.60979
#
# Velocity S-wave (km/s) = 3.36787 4.07208 3.73660
# Velocity P-wave (km/s) = 5.43914 7.18575 6.37257
#
# Compressibility (1/GPa) = 0.03054479
#
# Stress axis : x y z
#
# Youngs Moduli (GPa) = 74.68236 68.84504 35.58764
#
# Poissons Ratio (x) = 0.24621 0.17736
# Poissons Ratio (y) = 0.26708 0.14858
# Poissons Ratio (z) = 0.37220 0.28743
#
# Static dielectric constant tensor:
#      x y z
#    x 1.846660 0.003610 0.053340 
#    y 0.003610 1.906780 0.008910 
#    z 0.053340 0.008910 1.851610 
# 
# From -- ./inp_files/229091.got.cif
#   From: 2010.05.17/outbox.cif.g08.bks.cpg/sg2_115_cif.got.tgz:229091.got - 2010.06.03 11:33:40.
