data_PCOD9043288
_publ_section_title
;
Structure prediction by ZEFSAII (Michael W. Deem and Ramdas Pophale) SiO2 
 PCOD9043288
Probable space group: P -1
;
_chemical_formula_sum "Si O2"
_cell_formula_units_Z 16
_cell_length_a 11.491033
_cell_length_b 5.347328
_cell_length_c 27.867662
_cell_angle_alpha 79.687455
_cell_angle_beta 30.421985
_cell_angle_gamma 60.328502
_cell_volume 622.466599
_symmetry_space_group_name_H-M "P -1"
_symmetry_group_IT_number 2
_symmetry_cell_setting 'triclinic'
loop_
_space_group_symop_operation_xyz
x,y,z
-x,-y,-z
loop_
_atom_site_type_symbol
_atom_site_label
_atom_site_fract_x
_atom_site_fract_y
_atom_site_fract_z
Si Si1 0.099809 0.370786 0.575338
Si Si2 0.845598 0.852982 0.572199
Si Si3 0.681456 0.376338 0.047832
Si Si4 0.314449 0.200916 0.680732
Si Si5 0.397391 0.671009 0.237935
Si Si6 0.822454 0.404297 0.371597
Si Si7 0.794443 0.165917 0.876864
Si Si8 0.003155 0.664235 0.903023
O O1 0.165193 0.349049 0.608848
O O2 0.937979 0.741760 0.598107
O O3 0.839414 0.360202 0.656989
O O4 0.415332 0.091363 0.442989
O O5 0.000000 0.500000 0.500000
O O6 0.492240 0.125549 0.669343
O O7 0.000000 0.000000 0.500000
O O8 0.615579 0.395483 0.126804
O O9 0.361332 0.712569 0.124102
O O10 0.910516 0.442286 0.953309
O O11 0.799964 0.021314 0.995057
O O12 0.183072 0.535723 0.685052
O O13 0.071803 0.161324 0.777591
O O14 0.643010 0.567719 0.194976
O O15 0.150837 0.034619 0.284304
O O16 0.500000 0.500000 0.500000
O O17 0.500000 0.500000 0.000000
O O18 0.912307 0.827772 0.875641
#
# Coordination Sequence:
#
# PCOD9043288 Si02
#       8
#     2   2   2   2   2   2   2   2
#     4  11  25  44  70 103 148 186 244 296 365 433
#     4  10  23  45  70 101 139 187 237 290 353 422
#     4  11  26  48  77 108 147 188 245 301 368 428
#     4  11  23  47  70 104 145 193 241 301 362 436
#     4  12  27  44  74 107 145 194 237 301 361 437
#     4  12  26  43  69 107 148 192 242 292 363 438
#     4  10  24  47  75 105 142 189 246 305 365 429
#     4  11  26  51  74 110 143 191 245 304 363 429
#
# _framework density 25.704191000000002
#
# number of rings (size 3 to 8) (size 9 to 14) (size 15 to 20)
#    0.000    1.000    1.250    3.750   10.500    0.000 
#    0.000    0.000    0.000    0.000    0.000    0.000 
#    0.000    0.000    0.000    0.000    0.000    0.000 
#
# Total GULP energy -89549.336398 kJ/mol
# GULP energy per Si atom -5596.833525 kJ/mol
# Density = 2.564569 g / cm^3
# Si number density = 25.704191 Si / 1000 Ang^3
#
#
#
# Elastic Constant Matrix: (Units=GPa)
#
#
# Indices 1 2 3 4 5 6 
#
# 1 129.7681 1.5980 11.0177 -11.0311 -13.8737 -23.9941
# 2 1.5980 82.9070 9.0345 2.8550 -2.0378 -11.7122
# 3 11.0177 9.0345 95.0683 -11.7954 -21.3789 3.2994
# 4 -11.0311 2.8550 -11.7954 55.7761 2.3463 -13.9234
# 5 -13.8737 -2.0378 -21.3789 2.3463 56.9957 -4.0652
# 6 -23.9941 -11.7122 3.2994 -13.9234 -4.0652 54.5074
#
#
#
# Elastic Compliance Matrix: (Units=1/GPa)
#
#
# Indices 1 2 3 4 5 6 
#
# 1 0.009169 0.000545 -0.000408 0.002870 0.002343 0.005086
# 2 0.000545 0.012633 -0.001307 -0.000070 0.000314 0.003039
# 3 -0.000408 -0.001307 0.011928 0.002259 0.004215 -0.000291
# 4 0.002870 -0.000070 0.002259 0.020538 0.001158 0.006444
# 5 0.002343 0.000314 0.004215 0.001158 0.019847 0.002620
# 6 0.005086 0.003039 -0.000291 0.006444 0.002620 0.023097
#
#
# Mechanical properties :
#
#
# Convention : Reuss Voigt Hill
#
# Bulk Modulus (GPa) = 31.85755 39.00488 35.43122
# Shear Modulus (GPa) = 45.44808 52.52871 48.98839
#
# Velocity S-wave (km/s) = 4.20946 4.52551 4.37034
# Velocity P-wave (km/s) = 6.00391 6.52031 6.26743
#
# Compressibility (1/GPa) = 0.03138973
#
# Stress axis : x y z
#
# Youngs Moduli (GPa) = 109.06538 79.15710 83.83356
#
# Poissons Ratio (x) = -0.04314 0.03420
# Poissons Ratio (y) = -0.05943 0.10960
# Poissons Ratio (z) = 0.04449 0.10348
#
# Static dielectric constant tensor:
#      x y z
#    x 2.014490 -0.025460 0.077320 
#    y -0.025460 2.170040 0.063430 
#    z 0.077320 0.063430 2.087400 
# 
# From -- ./inp_files/622866.got.cif
#   From: 2010.05.17/outbox.cif.g08.bks.cpg/sg2_312_cif.got.tgz:622866.got - 2010.06.03 11:33:40.
