data_PCOD9043668
_publ_section_title
;
Structure prediction by ZEFSAII (Michael W. Deem and Ramdas Pophale) SiO2 
 PCOD9043668
Probable space group: P -1
;
_chemical_formula_sum "Si O2"
_cell_formula_units_Z 12
_cell_length_a 6.644431
_cell_length_b 16.877777
_cell_length_c 14.512562
_cell_angle_alpha 156.468670
_cell_angle_beta 121.714558
_cell_angle_gamma 62.195916
_cell_volume 552.170831
_symmetry_space_group_name_H-M "P -1"
_symmetry_group_IT_number 2
_symmetry_cell_setting 'triclinic'
loop_
_space_group_symop_operation_xyz
x,y,z
-x,-y,-z
loop_
_atom_site_type_symbol
_atom_site_label
_atom_site_fract_x
_atom_site_fract_y
_atom_site_fract_z
Si Si1 0.477349 0.795326 0.579731
Si Si2 0.648587 0.796996 0.420913
Si Si3 0.241955 0.445622 0.456019
Si Si4 0.123183 0.891901 0.328390
Si Si5 0.013236 0.522277 0.137153
Si Si6 0.566187 0.838973 0.921493
O O1 0.635624 0.802961 0.534039
O O2 0.608025 0.671573 0.557410
O O3 0.231715 0.672140 0.371801
O O4 0.424624 0.019483 0.836761
O O5 0.378227 0.819518 0.347535
O O6 0.773930 0.603474 0.208472
O O7 0.808726 0.968801 0.592500
O O8 0.371241 0.656521 0.685942
O O9 0.216170 0.287262 0.196964
O O10 0.000000 0.500000 0.500000
O O11 0.000000 0.000000 0.500000
O O12 0.961457 0.700050 0.058198
O O13 0.000000 0.500000 0.000000
O O14 0.500000 0.000000 0.000000
#
# Coordination Sequence:
#
# PCOD9043668 Si02
#       6
#     2   2   2   2   2   2
#     4  11  25  41  66 102 133 172 227 268 328 403
#     4  11  24  40  66  93 131 182 225 273 324 385
#     4  10  23  45  73  96 132 171 214 276 342 397
#     4  11  23  42  64  90 130 182 223 274 325 375
#     4  12  24  43  64  91 138 180 222 273 323 382
#     4   9  22  45  68  96 133 167 213 277 336 391
#
# _framework density 21.732403999999999
#
# number of rings (size 3 to 8) (size 9 to 14) (size 15 to 20)
#    0.000    1.333    3.333    0.500    0.000   12.000 
#    0.000    0.000    0.000    0.000    0.000    0.000 
#    0.000    0.000    0.000    0.000    0.000    0.000 
#
# Total GULP energy -67029.747040 kJ/mol
# GULP energy per Si atom -5585.812253 kJ/mol
# Density = 2.168294 g / cm^3
# Si number density = 21.732404 Si / 1000 Ang^3
#
#
#
# Elastic Constant Matrix: (Units=GPa)
#
#
# Indices 1 2 3 4 5 6 
#
# 1 156.9258 35.5637 92.0040 8.5558 -37.0954 13.4627
# 2 35.5637 81.0535 45.8710 11.0438 -5.9365 17.3126
# 3 92.0040 45.8710 207.8924 19.8891 -26.0318 13.7332
# 4 8.5558 11.0438 19.8891 35.2879 8.7663 2.5055
# 5 -37.0954 -5.9365 -26.0318 8.7663 46.7086 8.9505
# 6 13.4627 17.3126 13.7332 2.5055 8.9505 43.5443
#
#
#
# Elastic Compliance Matrix: (Units=1/GPa)
#
#
# Indices 1 2 3 4 5 6 
#
# 1 0.010666 -0.001432 -0.003041 -0.002084 0.007600 -0.003211
# 2 -0.001432 0.015802 -0.001994 -0.003452 0.001424 -0.005305
# 3 -0.003041 -0.001994 0.007214 -0.003170 0.002099 -0.000791
# 4 -0.002084 -0.003452 -0.003170 0.034186 -0.010907 0.003291
# 5 0.007600 0.001424 0.002099 -0.010907 0.032696 -0.009671
# 6 -0.003211 -0.005305 -0.000791 0.003291 -0.009671 0.028115
#
#
# Mechanical properties :
#
#
# Convention : Reuss Voigt Hill
#
# Bulk Modulus (GPa) = 48.19785 88.08322 68.14054
# Shear Modulus (GPa) = 33.66332 43.27039 38.46685
#
# Velocity S-wave (km/s) = 3.93999 4.46696 4.21173
# Velocity P-wave (km/s) = 6.55165 8.19901 7.42118
#
# Compressibility (1/GPa) = 0.02074781
#
# Stress axis : x y z
#
# Youngs Moduli (GPa) = 93.75965 63.28279 138.61429
#
# Poissons Ratio (x) = 0.09064 0.42152
# Poissons Ratio (y) = 0.13429 0.27638
# Poissons Ratio (z) = 0.28512 0.12618
#
# Static dielectric constant tensor:
#      x y z
#    x 1.784280 0.030100 0.000920 
#    y 0.030100 1.916720 -0.010140 
#    z 0.000920 -0.010140 1.821690 
# 
# From -- ./inp_files/43481.got.cif
#   From: 2010.05.17/outbox.cif.g08.bks.cpg/sg2_22_cif.got.tgz:43481.got - 2010.06.03 11:33:40.
