data_PCOD9043952
_publ_section_title
;
Structure prediction by ZEFSAII (Michael W. Deem and Ramdas Pophale) SiO2 
 PCOD9043952
Probable space group: P -1
;
_chemical_formula_sum "Si O2"
_cell_formula_units_Z 14
_cell_length_a 23.276002
_cell_length_b 5.309576
_cell_length_c 11.675106
_cell_angle_alpha 124.810890
_cell_angle_beta 151.864257
_cell_angle_gamma 49.216954
_cell_volume 515.141889
_symmetry_space_group_name_H-M "P -1"
_symmetry_group_IT_number 2
_symmetry_cell_setting 'triclinic'
loop_
_space_group_symop_operation_xyz
x,y,z
-x,-y,-z
loop_
_atom_site_type_symbol
_atom_site_label
_atom_site_fract_x
_atom_site_fract_y
_atom_site_fract_z
Si Si1 0.621344 0.329054 0.538178
Si Si2 0.185765 0.520654 0.659638
Si Si3 0.048523 0.623705 0.839826
Si Si4 0.438803 0.550157 0.064392
Si Si5 0.297903 0.446582 0.483958
Si Si6 0.279003 0.321441 0.012199
Si Si7 0.036811 0.742075 0.247032
O O1 0.489413 0.467849 0.264532
O O2 0.719532 0.386202 0.629261
O O3 0.629061 0.550702 0.715819
O O4 0.652314 0.953471 0.533244
O O5 0.084921 0.808130 0.475712
O O6 0.101709 0.288849 0.449222
O O7 0.329981 0.388949 0.818050
O O8 0.214134 0.555193 0.850405
O O9 0.031536 0.512741 0.907296
O O10 0.159015 0.339102 0.889295
O O11 0.067089 0.953920 0.923389
O O12 0.579904 0.464529 0.228984
O O13 0.357049 0.944393 0.012824
O O14 0.170066 0.576887 0.369556
#
# Coordination Sequence:
#
# PCOD9043952 Si02
#       7
#     2   2   2   2   2   2   2
#     4  10  25  42  69  97 131 176 211 274 326 380
#     4  10  24  39  72  95 136 169 217 267 334 378
#     4  10  25  42  68 100 130 174 213 272 327 382
#     4  10  24  40  69  99 132 174 209 276 327 382
#     4  10  23  47  65  96 133 171 224 263 323 389
#     4  12  24  43  66 103 134 167 223 265 333 390
#     4  10  23  46  67  95 133 173 219 267 323 387
#
# _framework density 27.17698
#
# number of rings (size 3 to 8) (size 9 to 14) (size 15 to 20)
#    1.714    0.000    0.000    3.429    4.000    2.857 
#    0.000    6.429    0.000    0.000    0.000    0.000 
#    0.000    0.000    0.000    0.000    0.000    0.000 
#
# Total GULP energy -78229.309588 kJ/mol
# GULP energy per Si atom -5587.807828 kJ/mol
# Density = 2.711512 g / cm^3
# Si number density = 27.176980 Si / 1000 Ang^3
#
#
#
# Elastic Constant Matrix: (Units=GPa)
#
#
# Indices 1 2 3 4 5 6 
#
# 1 138.9524 21.4377 31.7804 -19.3144 15.1043 20.4593
# 2 21.4377 107.2841 23.9433 -27.2527 -19.0099 22.2986
# 3 31.7804 23.9433 137.1248 -3.0528 -4.9233 12.3236
# 4 -19.3144 -27.2527 -3.0528 37.7319 5.0866 -7.1100
# 5 15.1043 -19.0099 -4.9233 5.0866 56.1321 -12.2319
# 6 20.4593 22.2986 12.3236 -7.1100 -12.2319 43.3246
#
#
#
# Elastic Compliance Matrix: (Units=1/GPa)
#
#
# Indices 1 2 3 4 5 6 
#
# 1 0.009280 -0.000232 -0.001784 0.004189 -0.004028 -0.004205
# 2 -0.000232 0.013110 -0.001590 0.008082 0.002740 -0.004086
# 3 -0.001784 -0.001590 0.008034 -0.001632 0.000639 -0.000712
# 4 0.004189 0.008082 -0.001632 0.034495 -0.001771 -0.000513
# 5 -0.004028 0.002740 0.000639 -0.001771 0.021362 0.006051
# 6 -0.004205 -0.004086 -0.000712 -0.000513 0.006051 0.028997
#
#
# Mechanical properties :
#
#
# Convention : Reuss Voigt Hill
#
# Bulk Modulus (GPa) = 43.07864 59.74268 51.41066
# Shear Modulus (GPa) = 38.39469 47.85104 43.12287
#
# Velocity S-wave (km/s) = 3.76275 4.20065 3.98772
# Velocity P-wave (km/s) = 5.89604 6.74965 6.33724
#
# Compressibility (1/GPa) = 0.02321336
#
# Stress axis : x y z
#
# Youngs Moduli (GPa) = 107.76188 76.27726 124.46738
#
# Poissons Ratio (x) = 0.01768 0.22201
# Poissons Ratio (y) = 0.02498 0.19789
# Poissons Ratio (z) = 0.19221 0.12127
#
# Static dielectric constant tensor:
#      x y z
#    x 2.199370 0.057720 -0.001950 
#    y 0.057720 2.084580 0.077350 
#    z -0.001950 0.077350 2.200610 
# 
# From -- ./inp_files/473310.got.cif
#   From: 2010.05.17/outbox.cif.g08.bks.cpg/sg2_237_cif.got.tgz:473310.got - 2010.06.03 11:33:40.
