data_PCOD9043623
_publ_section_title
;
Structure prediction by ZEFSAII (Michael W. Deem and Ramdas Pophale) SiO2 
 PCOD9043623
Probable space group: P -1
;
_chemical_formula_sum "Si O2"
_cell_formula_units_Z 14
_cell_length_a 8.527940
_cell_length_b 9.774648
_cell_length_c 15.732620
_cell_angle_alpha 32.000091
_cell_angle_beta 104.928958
_cell_angle_gamma 120.779516
_cell_volume 550.453198
_symmetry_space_group_name_H-M "P -1"
_symmetry_group_IT_number 2
_symmetry_cell_setting 'triclinic'
loop_
_space_group_symop_operation_xyz
x,y,z
-x,-y,-z
loop_
_atom_site_type_symbol
_atom_site_label
_atom_site_fract_x
_atom_site_fract_y
_atom_site_fract_z
Si Si1 0.916335 0.307468 0.817366
Si Si2 0.411708 0.475667 0.594798
Si Si3 0.205306 0.764627 0.345782
Si Si4 0.330028 0.433187 0.794212
Si Si5 0.331862 0.362680 0.138054
Si Si6 0.217362 0.816925 0.847405
Si Si7 0.986981 0.809886 0.679470
O O1 0.817124 0.327279 0.707639
O O2 0.888673 0.463339 0.811888
O O3 0.152943 0.484389 0.740503
O O4 0.801634 0.941666 0.013211
O O5 0.500000 0.500000 0.500000
O O6 0.349652 0.711941 0.444509
O O7 0.456931 0.522874 0.677378
O O8 0.258046 0.091419 0.771410
O O9 0.000000 0.500000 0.500000
O O10 0.261734 0.114582 0.182717
O O11 0.480255 0.580574 0.816234
O O12 0.150373 0.185506 0.272258
O O13 0.353193 0.686428 0.946324
O O14 0.191867 0.915710 0.697450
O O15 0.000000 0.500000 0.000000
O O16 0.000000 0.000000 0.500000
#
# Coordination Sequence:
#
# PCOD9043623 Si02
#       7
#     2   2   2   2   2   2   2
#     4  11  26  47  76 104 153 199 247 310 380 453
#     4  12  28  47  73 111 153 194 245 319 382 443
#     4  12  25  50  75 109 150 198 248 308 384 439
#     4  11  27  47  74 107 150 195 257 306 378 446
#     4  11  27  46  76 108 151 194 255 309 362 460
#     4  10  23  45  73 103 147 196 246 296 372 453
#     4  11  24  43  74 108 144 196 250 304 376 441
#
# _framework density 25.433588
#
# number of rings (size 3 to 8) (size 9 to 14) (size 15 to 20)
#    0.000    0.857    1.429    5.143   10.000    3.429 
#    0.000    0.000    0.000    0.000    0.000    0.000 
#    0.000    0.000    0.000    0.000    0.000    0.000 
#
# Total GULP energy -78225.492007 kJ/mol
# GULP energy per Si atom -5587.535143 kJ/mol
# Density = 2.537570 g / cm^3
# Si number density = 25.433588 Si / 1000 Ang^3
#
#
#
# Elastic Constant Matrix: (Units=GPa)
#
#
# Indices 1 2 3 4 5 6 
#
# 1 67.3155 17.1878 15.9132 4.5560 -10.9351 7.3587
# 2 17.1878 129.5898 14.4154 8.7089 9.2054 1.6944
# 3 15.9132 14.4154 83.8858 26.1454 10.1784 4.2463
# 4 4.5560 8.7089 26.1454 53.2980 -11.0006 4.2300
# 5 -10.9351 9.2054 10.1784 -11.0006 46.8546 10.6842
# 6 7.3587 1.6944 4.2463 4.2300 10.6842 39.8818
#
#
#
# Elastic Compliance Matrix: (Units=1/GPa)
#
#
# Indices 1 2 3 4 5 6 
#
# 1 0.018217 -0.002588 -0.004665 0.003149 0.007686 -0.005148
# 2 -0.002588 0.008382 -0.000096 -0.001787 -0.002900 0.001098
# 3 -0.004665 -0.000096 0.016528 -0.009370 -0.007330 0.002063
# 4 0.003149 -0.001787 -0.009370 0.025918 0.010353 -0.005030
# 5 0.007686 -0.002900 -0.007330 0.010353 0.029925 -0.009630
# 6 -0.005148 0.001098 0.002063 -0.005030 -0.009630 0.028871
#
#
# Mechanical properties :
#
#
# Convention : Reuss Voigt Hill
#
# Bulk Modulus (GPa) = 35.17420 41.75821 38.46621
# Shear Modulus (GPa) = 32.89148 43.55853 38.22501
#
# Velocity S-wave (km/s) = 3.60005 4.14289 3.88098
# Velocity P-wave (km/s) = 5.58035 6.27207 5.93630
#
# Compressibility (1/GPa) = 0.02842993
#
# Stress axis : x y z
#
# Youngs Moduli (GPa) = 54.89353 119.29924 60.50389
#
# Poissons Ratio (x) = 0.30870 0.28223
# Poissons Ratio (y) = 0.14204 0.00583
# Poissons Ratio (z) = 0.25606 0.01150
#
# Static dielectric constant tensor:
#      x y z
#    x 2.022220 0.104680 -0.066230 
#    y 0.104680 1.891890 0.004610 
#    z -0.066230 0.004610 2.067340 
# 
# From -- ./inp_files/494313.got.cif
#   From: 2010.05.17/outbox.cif.g08.bks.cpg/sg2_248_cif.got.tgz:494313.got - 2010.06.03 11:33:40.
