data_PCOD9043217
_publ_section_title
;
Structure prediction by ZEFSAII (Michael W. Deem and Ramdas Pophale) SiO2 
 PCOD9043217
Probable space group: P -1
;
_chemical_formula_sum "Si O2"
_cell_formula_units_Z 16
_cell_length_a 12.054979
_cell_length_b 8.572925
_cell_length_c 15.707614
_cell_angle_alpha 101.760572
_cell_angle_beta 152.654921
_cell_angle_gamma 82.368682
_cell_volume 725.805409
_symmetry_space_group_name_H-M "P -1"
_symmetry_group_IT_number 2
_symmetry_cell_setting 'triclinic'
loop_
_space_group_symop_operation_xyz
x,y,z
-x,-y,-z
loop_
_atom_site_type_symbol
_atom_site_label
_atom_site_fract_x
_atom_site_fract_y
_atom_site_fract_z
Si Si1 0.972056 0.818096 0.104609
Si Si2 0.280862 0.323270 0.913275
Si Si3 0.632997 0.263396 0.749828
Si Si4 0.977601 0.052223 0.587018
Si Si5 0.555574 0.903887 0.707952
Si Si6 0.317204 0.847071 0.884209
Si Si7 0.228205 0.666091 0.969750
Si Si8 0.247431 0.179314 0.337892
O O1 0.862264 0.752730 0.110799
O O2 0.147238 0.704777 0.163688
O O3 0.742234 0.831175 0.888863
O O4 0.121663 0.995061 0.239490
O O5 0.239904 0.506946 0.905440
O O6 0.154661 0.215555 0.739863
O O7 0.564457 0.293643 0.100546
O O8 0.390003 0.242499 0.526210
O O9 0.665784 0.086876 0.788843
O O10 0.639906 0.359526 0.853321
O O11 0.710130 0.089491 0.435046
O O12 0.000000 0.000000 0.500000
O O13 0.065325 0.906569 0.687735
O O14 0.564494 0.823049 0.612456
O O15 0.320544 0.808362 0.982583
O O16 0.500000 0.000000 0.000000
O O17 0.958158 0.707108 0.811401
#
# Coordination Sequence:
#
# PCOD9043217 Si02
#       8
#     2   2   2   2   2   2   2   2
#     4  11  20  42  66  96 134 176 225 265 329 384
#     4  11  25  43  65  94 139 176 214 282 330 396
#     4  11  22  37  70  99 133 176 216 276 323 394
#     4  11  24  42  69 100 123 173 235 274 325 391
#     4  11  20  38  69  98 132 169 230 282 312 386
#     4  10  23  45  69  90 127 177 223 275 321 385
#     4  12  24  44  65 102 140 172 215 268 346 392
#     4  11  21  42  66 102 132 173 221 273 328 393
#
# _framework density 22.044474000000001
#
# number of rings (size 3 to 8) (size 9 to 14) (size 15 to 20)
#    0.000    1.000    2.500    7.125    3.500    0.500 
#    4.500    1.875    0.000    0.000    0.000    0.000 
#    0.000    0.000    0.000    0.000    0.000    0.000 
#
# Total GULP energy -89394.372625 kJ/mol
# GULP energy per Si atom -5587.148289 kJ/mol
# Density = 2.199430 g / cm^3
# Si number density = 22.044474 Si / 1000 Ang^3
#
#
#
# Elastic Constant Matrix: (Units=GPa)
#
#
# Indices 1 2 3 4 5 6 
#
# 1 119.3534 20.3743 64.2547 4.6446 -5.0375 -26.0382
# 2 20.3743 66.1339 24.6737 5.0599 -2.7488 -22.2186
# 3 64.2547 24.6737 123.6357 -4.2406 -10.6230 -3.0906
# 4 4.6446 5.0599 -4.2406 17.3910 -14.6449 -1.9363
# 5 -5.0375 -2.7488 -10.6230 -14.6449 41.6450 -6.8091
# 6 -26.0382 -22.2186 -3.0906 -1.9363 -6.8091 21.1210
#
#
#
# Elastic Compliance Matrix: (Units=1/GPa)
#
#
# Indices 1 2 3 4 5 6 
#
# 1 0.021729 0.011156 -0.012221 -0.003297 0.005326 0.038151
# 2 0.011156 0.032480 -0.010518 -0.003154 0.007640 0.048556
# 3 -0.012221 -0.010518 0.016431 0.009176 0.001587 -0.022374
# 4 -0.003297 -0.003154 0.009176 0.094706 0.037444 0.014714
# 5 0.005326 0.007640 0.001587 0.037444 0.044042 0.032467
# 6 0.038151 0.048556 -0.022374 0.014714 0.032467 0.154000
#
#
# Mechanical properties :
#
#
# Convention : Reuss Voigt Hill
#
# Bulk Modulus (GPa) = 21.06412 58.63653 39.85032
# Shear Modulus (GPa) = 12.42610 29.35276 20.88943
#
# Velocity S-wave (km/s) = 2.37678 3.65296 3.08166
# Velocity P-wave (km/s) = 4.13620 6.66702 5.54785
#
# Compressibility (1/GPa) = 0.04747410
#
# Stress axis : x y z
#
# Youngs Moduli (GPa) = 46.02042 30.78822 60.86192
#
# Poissons Ratio (x) = -0.34348 0.74381
# Poissons Ratio (y) = -0.51341 0.64013
# Poissons Ratio (z) = 0.56243 0.32382
#
# Static dielectric constant tensor:
#      x y z
#    x 1.873700 -0.036320 0.015590 
#    y -0.036320 1.837250 0.001330 
#    z 0.015590 0.001330 1.867030 
# 
# From -- ./inp_files/258338.got.cif
#   From: 2010.05.17/outbox.cif.g08.bks.cpg/sg2_130_cif.got.tgz:258338.got - 2010.06.03 11:33:40.
