data_PCOD9043005
_publ_section_title
;
Structure prediction by ZEFSAII (Michael W. Deem and Ramdas Pophale) SiO2 
 PCOD9043005
Probable space group: P -1
;
_chemical_formula_sum "Si O2"
_cell_formula_units_Z 16
_cell_length_a 17.749922
_cell_length_b 8.335396
_cell_length_c 5.286436
_cell_angle_alpha 85.746164
_cell_angle_beta 106.105140
_cell_angle_gamma 74.037831
_cell_volume 712.824297
_symmetry_space_group_name_H-M "P -1"
_symmetry_group_IT_number 2
_symmetry_cell_setting 'triclinic'
loop_
_space_group_symop_operation_xyz
x,y,z
-x,-y,-z
loop_
_atom_site_type_symbol
_atom_site_label
_atom_site_fract_x
_atom_site_fract_y
_atom_site_fract_z
Si Si1 0.192203 0.918657 0.461577
Si Si2 0.271958 0.069554 0.915827
Si Si3 0.885972 0.276804 0.219229
Si Si4 0.452491 0.089223 0.194931
Si Si5 0.276308 0.707594 0.180913
Si Si6 0.547300 0.529621 0.790580
Si Si7 0.944710 0.777065 0.859274
Si Si8 0.890418 0.634358 0.308076
O O1 0.131249 0.868269 0.608617
O O2 0.256853 0.740071 0.455778
O O3 0.250278 0.021703 0.617579
O O4 0.125468 0.041700 0.198191
O O5 0.200706 0.245666 0.869573
O O6 0.360014 0.083650 0.068690
O O7 0.267368 0.900845 0.072630
O O8 0.895438 0.439621 0.353688
O O9 0.965736 0.210424 0.124677
O O10 0.801193 0.344377 0.978654
O O11 0.450388 0.281312 0.199713
O O12 0.500000 0.000000 0.500000
O O13 0.500000 0.000000 0.000000
O O14 0.360460 0.592321 0.158483
O O15 0.500000 0.500000 0.500000
O O16 0.500000 0.500000 0.000000
O O17 0.916091 0.699094 0.588878
O O18 0.944702 0.666771 0.120773
#
# Coordination Sequence:
#
# PCOD9043005 Si02
#       8
#     2   2   2   2   2   2   2   2
#     4  10  24  43  68  99 137 190 229 288 345 418
#     4  10  23  45  67  97 140 180 236 280 348 418
#     4  11  25  40  67 100 138 181 234 294 343 415
#     4  12  27  47  75 108 138 183 230 286 356 423
#     4  11  24  44  71  99 140 183 231 287 354 410
#     4  12  28  50  75 108 143 181 231 292 349 421
#     4  11  24  44  66  98 138 185 235 284 348 412
#     4  11  24  43  66  99 134 186 232 288 347 409
#
# _framework density 22.445921999999999
#
# number of rings (size 3 to 8) (size 9 to 14) (size 15 to 20)
#    0.000    1.000    1.250    4.125   10.500    0.500 
#    2.250    0.000    0.000    0.000    0.000    0.000 
#    0.000    0.000    0.000    0.000    0.000    0.000 
#
# Total GULP energy -89370.683728 kJ/mol
# GULP energy per Si atom -5585.667733 kJ/mol
# Density = 2.239483 g / cm^3
# Si number density = 22.445922 Si / 1000 Ang^3
#
#
#
# Elastic Constant Matrix: (Units=GPa)
#
#
# Indices 1 2 3 4 5 6 
#
# 1 178.8446 71.3723 72.3511 12.0655 26.0518 -23.0611
# 2 71.3723 131.7884 40.1207 12.8078 11.7637 -8.7217
# 3 72.3511 40.1207 110.1804 13.5494 11.3643 -3.4766
# 4 12.0655 12.8078 13.5494 31.9545 -4.7427 3.1682
# 5 26.0518 11.7637 11.3643 -4.7427 36.4927 0.3770
# 6 -23.0611 -8.7217 -3.4766 3.1682 0.3770 48.3029
#
#
#
# Elastic Compliance Matrix: (Units=1/GPa)
#
#
# Indices 1 2 3 4 5 6 
#
# 1 0.010099 -0.003179 -0.004616 -0.001729 -0.005014 0.004068
# 2 -0.003179 0.010008 -0.001141 -0.002503 -0.000930 0.000379
# 3 -0.004616 -0.001141 0.012969 -0.003292 -0.000791 -0.001254
# 4 -0.001729 -0.002503 -0.003292 0.035890 0.007771 -0.003929
# 5 -0.005014 -0.000930 -0.000791 0.007771 0.032573 -0.003383
# 6 0.004068 0.000379 -0.001254 -0.003929 -0.003383 0.022907
#
#
# Mechanical properties :
#
#
# Convention : Reuss Voigt Hill
#
# Bulk Modulus (GPa) = 65.76922 87.61129 76.69025
# Shear Modulus (GPa) = 33.92420 39.14798 36.53609
#
# Velocity S-wave (km/s) = 3.89186 4.18078 4.03890
# Velocity P-wave (km/s) = 7.03990 7.90076 7.48272
#
# Compressibility (1/GPa) = 0.01520468
#
# Stress axis : x y z
#
# Youngs Moduli (GPa) = 99.01838 99.91563 77.10479
#
# Poissons Ratio (x) = 0.31766 0.35590
# Poissons Ratio (y) = 0.31481 0.08798
# Poissons Ratio (z) = 0.45705 0.11400
#
# Static dielectric constant tensor:
#      x y z
#    x 1.843240 -0.048090 -0.076950 
#    y -0.048090 1.821420 0.034660 
#    z -0.076950 0.034660 1.944350 
# 
# From -- ./inp_files/90544.got.cif
#   From: 2010.05.17/outbox.cif.g08.bks.cpg/sg2_46_cif.got.tgz:90544.got - 2010.06.03 11:33:40.
