data_PCOD9043232
_publ_section_title
;
Structure prediction by ZEFSAII (Michael W. Deem and Ramdas Pophale) SiO2 
 PCOD9043232
Probable space group: P -1
;
_chemical_formula_sum "Si O2"
_cell_formula_units_Z 14
_cell_length_a 20.952529
_cell_length_b 9.656526
_cell_length_c 17.944458
_cell_angle_alpha 54.085271
_cell_angle_beta 19.410258
_cell_angle_gamma 42.204332
_cell_volume 701.024552
_symmetry_space_group_name_H-M "P -1"
_symmetry_group_IT_number 2
_symmetry_cell_setting 'triclinic'
loop_
_space_group_symop_operation_xyz
x,y,z
-x,-y,-z
loop_
_atom_site_type_symbol
_atom_site_label
_atom_site_fract_x
_atom_site_fract_y
_atom_site_fract_z
Si Si1 0.227769 0.127417 0.165730
Si Si2 0.842885 0.546282 0.340096
Si Si3 0.855698 0.764382 0.601717
Si Si4 0.355692 0.953562 0.847037
Si Si5 0.245305 0.651449 0.632817
Si Si6 0.719696 0.229887 0.871646
Si Si7 0.306181 0.385012 0.794443
O O1 0.145382 0.216786 0.313042
O O2 0.047121 0.351412 0.239241
O O3 0.196758 0.950714 0.229182
O O4 0.545032 0.964629 0.858407
O O5 0.761534 0.439407 0.410106
O O6 0.582380 0.779823 0.592310
O O7 0.012786 0.575030 0.094912
O O8 0.000000 0.500000 0.500000
O O9 0.026521 0.817313 0.366739
O O10 0.360105 0.150136 0.801997
O O11 0.057692 0.097116 0.100573
O O12 0.393813 0.813932 0.922363
O O13 0.302185 0.475468 0.689556
O O14 0.468348 0.657884 0.393081
O O15 0.500000 0.500000 0.000000
#
# Coordination Sequence:
#
# PCOD9043232 Si02
#       7
#     2   2   2   2   2   2   2
#     4  11  24  44  64  93 130 173 222 275 323 383
#     4  11  23  41  66  98 132 172 215 267 328 391
#     4  11  25  43  64  92 127 175 223 272 325 381
#     4  11  24  41  65  99 132 172 217 267 325 392
#     4  10  23  45  69  97 129 172 215 272 333 390
#     4  12  23  43  66  92 133 172 219 269 323 384
#     4  10  23  45  69  96 134 166 216 277 328 390
#
# _framework density 19.970770999999999
#
# number of rings (size 3 to 8) (size 9 to 14) (size 15 to 20)
#    0.000    1.143    4.286    3.000    2.000    3.429 
#    2.571    2.857    0.000    0.000    0.000    0.000 
#    0.000    0.000    0.000    0.000    0.000    0.000 
#
# Total GULP energy -78267.174397 kJ/mol
# GULP energy per Si atom -5590.512457 kJ/mol
# Density = 1.992532 g / cm^3
# Si number density = 19.970771 Si / 1000 Ang^3
#
#
#
# Elastic Constant Matrix: (Units=GPa)
#
#
# Indices 1 2 3 4 5 6 
#
# 1 80.1566 12.5563 36.7198 8.3782 -7.4358 11.9227
# 2 12.5563 60.8336 32.2600 4.5564 2.4909 6.9433
# 3 36.7198 32.2600 128.5785 16.2965 0.4050 28.6733
# 4 8.3782 4.5564 16.2965 21.0367 10.7138 3.1454
# 5 -7.4358 2.4909 0.4050 10.7138 36.3600 3.9511
# 6 11.9227 6.9433 28.6733 3.1454 3.9511 31.4509
#
#
#
# Elastic Compliance Matrix: (Units=1/GPa)
#
#
# Indices 1 2 3 4 5 6 
#
# 1 0.015508 -0.001191 -0.002633 -0.006166 0.005456 -0.003284
# 2 -0.001191 0.019115 -0.004699 0.000795 -0.001807 0.000663
# 3 -0.002633 -0.004699 0.012753 -0.007961 0.002984 -0.009169
# 4 -0.006166 0.000795 -0.007961 0.065998 -0.021271 0.005492
# 5 0.005456 -0.001807 0.002984 -0.021271 0.035710 -0.006748
# 6 -0.003284 0.000663 -0.009169 0.005492 -0.006748 0.041552
#
#
# Mechanical properties :
#
#
# Convention : Reuss Voigt Hill
#
# Bulk Modulus (GPa) = 32.97187 48.07121 40.52154
# Shear Modulus (GPa) = 22.95781 30.30505 26.63143
#
# Velocity S-wave (km/s) = 3.39421 3.89970 3.65570
# Velocity P-wave (km/s) = 5.64861 6.66332 6.17684
#
# Compressibility (1/GPa) = 0.03032888
#
# Stress axis : x y z
#
# Youngs Moduli (GPa) = 64.48478 52.31620 78.41529
#
# Poissons Ratio (x) = 0.06232 0.20648
# Poissons Ratio (y) = 0.07681 0.36843
# Poissons Ratio (z) = 0.16980 0.24581
#
# Static dielectric constant tensor:
#      x y z
#    x 1.713310 -0.015130 -0.001260 
#    y -0.015130 1.689340 -0.004870 
#    z -0.001260 -0.004870 1.717260 
# 
# From -- ./inp_files/577226.got.cif
#   From: 2010.05.17/outbox.cif.g08.bks.cpg/sg2_289_cif.got.tgz:577226.got - 2010.06.03 11:33:40.
