data_PCOD9043812
_publ_section_title
;
Structure prediction by ZEFSAII (Michael W. Deem and Ramdas Pophale) SiO2 
 PCOD9043812
Probable space group: P -1
;
_chemical_formula_sum "Si O2"
_cell_formula_units_Z 14
_cell_length_a 4.894632
_cell_length_b 16.982146
_cell_length_c 9.205187
_cell_angle_alpha 46.049023
_cell_angle_beta 105.567750
_cell_angle_gamma 109.807426
_cell_volume 517.642621
_symmetry_space_group_name_H-M "P -1"
_symmetry_group_IT_number 2
_symmetry_cell_setting 'triclinic'
loop_
_space_group_symop_operation_xyz
x,y,z
-x,-y,-z
loop_
_atom_site_type_symbol
_atom_site_label
_atom_site_fract_x
_atom_site_fract_y
_atom_site_fract_z
Si Si1 0.955398 0.695879 0.706539
Si Si2 0.585211 0.837082 0.609587
Si Si3 0.360180 0.525328 0.603127
Si Si4 0.823905 0.406198 0.867335
Si Si5 0.594022 0.026841 0.815095
Si Si6 0.687689 0.800099 0.991582
Si Si7 0.102949 0.724829 0.373591
O O1 0.242931 0.796188 0.646703
O O2 0.677314 0.745157 0.637794
O O3 0.970471 0.664132 0.581053
O O4 0.987603 0.608744 0.946619
O O5 0.623688 0.948765 0.374556
O O6 0.751741 0.830318 0.792499
O O7 0.500000 0.500000 0.500000
O O8 0.577002 0.471002 0.801041
O O9 0.371886 0.714973 0.054330
O O10 0.337379 0.654636 0.446391
O O11 0.041605 0.461726 0.698490
O O12 0.795894 0.149065 0.713564
O O13 0.500000 0.000000 0.000000
O O14 0.704975 0.919800 0.915017
O O15 0.892962 0.737647 0.194024
#
# Coordination Sequence:
#
# PCOD9043812 Si02
#       7
#     2   2   2   2   2   2   2
#     4  10  23  49  76 110 155 200 257 320 384 459
#     4  10  23  45  76 111 155 203 256 314 384 461
#     4  12  30  49  80 114 159 201 261 323 385 463
#     4  11  27  49  80 115 150 204 264 317 387 457
#     4  11  25  46  76 115 159 209 256 318 392 460
#     4  11  25  47  82 116 157 202 260 324 384 465
#     4  11  28  49  79 115 161 204 260 320 393 457
#
# _framework density 27.045687999999998
#
# number of rings (size 3 to 8) (size 9 to 14) (size 15 to 20)
#    0.000    1.143    0.000    3.857    8.000    5.714 
#    0.000    6.429    0.000    0.000    0.000    0.000 
#    0.000    0.000    0.000    0.000    0.000    0.000 
#
# Total GULP energy -78306.611868 kJ/mol
# GULP energy per Si atom -5593.329419 kJ/mol
# Density = 2.698413 g / cm^3
# Si number density = 27.045688 Si / 1000 Ang^3
#
#
#
# Elastic Constant Matrix: (Units=GPa)
#
#
# Indices 1 2 3 4 5 6 
#
# 1 120.0344 54.7054 67.4104 -6.7787 9.8978 -11.3464
# 2 54.7054 183.3124 71.4939 -2.8272 5.4472 -22.0603
# 3 67.4104 71.4939 211.9553 40.3596 19.6706 -32.3169
# 4 -6.7787 -2.8272 40.3596 62.0819 -5.5117 -4.6705
# 5 9.8978 5.4472 19.6706 -5.5117 49.8814 -8.1414
# 6 -11.3464 -22.0603 -32.3169 -4.6705 -8.1414 45.0272
#
#
#
# Elastic Compliance Matrix: (Units=1/GPa)
#
#
# Indices 1 2 3 4 5 6 
#
# 1 0.011487 -0.001975 -0.003691 0.003507 -0.000288 -0.000410
# 2 -0.001975 0.006973 -0.001786 0.001481 0.000815 0.001938
# 3 -0.003691 -0.001786 0.008319 -0.005881 -0.002496 0.003104
# 4 0.003507 0.001481 -0.005881 0.020734 0.003789 0.000225
# 5 -0.000288 0.000815 -0.002496 0.003789 0.021890 0.002886
# 6 -0.000410 0.001938 0.003104 0.000225 0.002886 0.025828
#
#
# Mechanical properties :
#
#
# Convention : Reuss Voigt Hill
#
# Bulk Modulus (GPa) = 84.21212 100.28016 92.24614
# Shear Modulus (GPa) = 43.82385 52.84426 48.33405
#
# Velocity S-wave (km/s) = 4.02974 4.42508 4.23203
# Velocity P-wave (km/s) = 7.27024 7.95405 7.61982
#
# Compressibility (1/GPa) = 0.01187478
#
# Stress axis : x y z
#
# Youngs Moduli (GPa) = 87.05612 143.40964 120.20771
#
# Poissons Ratio (x) = 0.28328 0.44365
# Poissons Ratio (y) = 0.17196 0.21469
# Poissons Ratio (z) = 0.32130 0.25613
#
# Static dielectric constant tensor:
#      x y z
#    x 2.189550 0.253970 -0.096020 
#    y 0.253970 3.233510 -0.661090 
#    z -0.096020 -0.661090 2.660430 
# 
# From -- ./inp_files/137203.got.cif
#   From: 2010.05.17/outbox.cif.g08.bks.cpg/sg2_69_cif.got.tgz:137203.got - 2010.06.03 11:33:40.
