data_PCOD9043754
_publ_section_title
;
Structure prediction by ZEFSAII (Michael W. Deem and Ramdas Pophale) SiO2 
 PCOD9043754
Probable space group: P -1
;
_chemical_formula_sum "Si O2"
_cell_formula_units_Z 16
_cell_length_a 11.946309
_cell_length_b 11.865293
_cell_length_c 11.075477
_cell_angle_alpha 93.205637
_cell_angle_beta 115.657199
_cell_angle_gamma 140.081501
_cell_volume 673.474369
_symmetry_space_group_name_H-M "P -1"
_symmetry_group_IT_number 2
_symmetry_cell_setting 'triclinic'
loop_
_space_group_symop_operation_xyz
x,y,z
-x,-y,-z
loop_
_atom_site_type_symbol
_atom_site_label
_atom_site_fract_x
_atom_site_fract_y
_atom_site_fract_z
Si Si1 0.698671 0.069310 0.267684
Si Si2 0.100210 0.544821 0.363817
Si Si3 0.756388 0.764681 0.796834
Si Si4 0.312666 0.351454 0.719419
Si Si5 0.875657 0.299254 0.008163
Si Si6 0.968556 0.253016 0.650237
Si Si7 0.943847 0.048479 0.293079
Si Si8 0.671583 0.944595 0.722704
O O1 0.756392 0.076091 0.432033
O O2 0.912474 0.336736 0.360198
O O3 0.412273 0.887085 0.101585
O O4 0.770061 0.021660 0.212714
O O5 0.008947 0.598454 0.296850
O O6 0.398423 0.787034 0.558037
O O7 0.060513 0.439172 0.218678
O O8 0.588548 0.555096 0.796692
O O9 0.602523 0.759403 0.704331
O O10 0.866809 0.807213 0.724899
O O11 0.000000 0.000000 0.000000
O O12 0.242765 0.207140 0.782925
O O13 0.238408 0.414071 0.742745
O O14 0.121664 0.190663 0.504703
O O15 0.823265 0.139814 0.905195
O O16 0.000000 0.500000 0.000000
O O17 0.852262 0.092316 0.698168
#
# Coordination Sequence:
#
# PCOD9043754 Si02
#       8
#     2   2   2   2   2   2   2   2
#     4  11  25  43  71 106 146 187 244 299 356 431
#     4  12  25  44  74 103 146 195 233 298 361 429
#     4  12  28  46  72 104 143 191 239 301 362 428
#     4  10  23  45  75 100 140 189 240 300 352 430
#     4  12  26  44  68 109 142 190 237 294 362 426
#     4  11  21  44  72 102 144 193 232 295 366 422
#     4  10  23  48  70 106 136 187 247 293 358 425
#     4  12  25  48  72 105 148 185 247 296 358 439
#
# _framework density 23.757401000000002
#
# number of rings (size 3 to 8) (size 9 to 14) (size 15 to 20)
#    0.000    0.750    3.750    3.750    3.500    2.500 
#    0.000    0.000    0.000    0.000    0.000    0.000 
#    0.000    0.000    0.000    0.000    0.000    0.000 
#
# Total GULP energy -89546.371259 kJ/mol
# GULP energy per Si atom -5596.648204 kJ/mol
# Density = 2.370333 g / cm^3
# Si number density = 23.757401 Si / 1000 Ang^3
#
#
#
# Elastic Constant Matrix: (Units=GPa)
#
#
# Indices 1 2 3 4 5 6 
#
# 1 95.2364 35.8484 0.8829 9.0716 -7.0933 14.6002
# 2 35.8484 94.2581 -6.9348 19.5523 4.1697 21.4033
# 3 0.8829 -6.9348 54.8005 1.2219 -15.3642 9.1017
# 4 9.0716 19.5523 1.2219 15.9172 0.2048 3.8655
# 5 -7.0933 4.1697 -15.3642 0.2048 26.2760 4.7504
# 6 14.6002 21.4033 9.1017 3.8655 4.7504 35.6994
#
#
#
# Elastic Compliance Matrix: (Units=1/GPa)
#
#
# Indices 1 2 3 4 5 6 
#
# 1 0.013177 -0.003785 0.001695 -0.002067 0.005909 -0.004114
# 2 -0.003785 0.018053 0.004216 -0.018305 0.000240 -0.008400
# 3 0.001695 0.004216 0.025464 -0.005561 0.016772 -0.011343
# 4 -0.002067 -0.018305 -0.005561 0.085915 -0.002342 0.004247
# 5 0.005909 0.000240 0.016772 -0.002342 0.051878 -0.013486
# 6 -0.004114 -0.008400 -0.011343 0.004247 -0.013486 0.038957
#
#
# Mechanical properties :
#
#
# Convention : Reuss Voigt Hill
#
# Bulk Modulus (GPa) = 16.40802 33.76533 25.08668
# Shear Modulus (GPa) = 20.03943 29.87842 24.95893
#
# Velocity S-wave (km/s) = 2.90746 3.55018 3.24477
# Velocity P-wave (km/s) = 4.26528 5.57211 4.96191
#
# Compressibility (1/GPa) = 0.06094581
#
# Stress axis : x y z
#
# Youngs Moduli (GPa) = 75.88988 55.39271 39.27040
#
# Poissons Ratio (x) = 0.20967 -0.06655
# Poissons Ratio (y) = 0.28725 -0.16557
# Poissons Ratio (z) = -0.12861 -0.23354
#
# Static dielectric constant tensor:
#      x y z
#    x 1.357880 0.248730 -0.245050 
#    y 0.248730 1.840700 0.085380 
#    z -0.245050 0.085380 1.802570 
# 
# From -- ./inp_files/428081.got.cif
#   From: 2010.05.17/outbox.cif.g08.bks.cpg/sg2_215_cif.got.tgz:428081.got - 2010.06.03 11:33:40.
