data_PCOD9043293
_publ_section_title
;
Structure prediction by ZEFSAII (Michael W. Deem and Ramdas Pophale) SiO2 
 PCOD9043293
Probable space group: P -1
;
_chemical_formula_sum "Si O2"
_cell_formula_units_Z 14
_cell_length_a 10.828503
_cell_length_b 6.603771
_cell_length_c 11.580144
_cell_angle_alpha 84.998798
_cell_angle_beta 85.279716
_cell_angle_gamma 134.267706
_cell_volume 578.707493
_symmetry_space_group_name_H-M "P -1"
_symmetry_group_IT_number 2
_symmetry_cell_setting 'triclinic'
loop_
_space_group_symop_operation_xyz
x,y,z
-x,-y,-z
loop_
_atom_site_type_symbol
_atom_site_label
_atom_site_fract_x
_atom_site_fract_y
_atom_site_fract_z
Si Si1 0.738229 0.370242 0.288955
Si Si2 0.514986 0.588415 0.625859
Si Si3 0.266876 0.324350 0.027916
Si Si4 0.790094 0.274226 0.537878
Si Si5 0.299926 0.553767 0.261509
Si Si6 0.009963 0.699833 0.073733
Si Si7 0.517822 0.905292 0.883624
O O1 0.663905 0.507498 0.316819
O O2 0.717041 0.225465 0.416220
O O3 0.934127 0.580017 0.213845
O O4 0.613934 0.159755 0.202298
O O5 0.500000 0.500000 0.500000
O O6 0.553511 0.438580 0.708952
O O7 0.673387 0.943135 0.606325
O O8 0.236902 0.359578 0.161062
O O9 0.127670 0.297506 0.967733
O O10 0.447269 0.600659 0.935447
O O11 0.203002 0.020192 0.038513
O O12 0.770829 0.456376 0.607592
O O13 0.000000 0.500000 0.500000
O O14 0.307885 0.792530 0.194899
O O15 0.000000 0.500000 0.000000
O O16 0.500000 0.000000 0.000000
#
# Coordination Sequence:
#
# PCOD9043293 Si02
#       7
#     2   2   2   2   2   2   2
#     4  11  23  47  72 102 144 189 244 294 360 432
#     4  12  25  46  73 104 143 194 247 295 359 438
#     4   9  22  43  66 104 137 179 240 291 353 431
#     4  12  28  45  71 108 148 190 241 304 368 435
#     4  11  23  44  73 101 145 181 240 294 363 426
#     4  10  23  45  70 101 143 189 236 292 365 425
#     4   9  19  44  70  99 138 181 238 295 347 422
#
# _framework density 24.191841
#
# number of rings (size 3 to 8) (size 9 to 14) (size 15 to 20)
#    0.000    1.429    2.857    1.286    4.000    1.714 
#   23.143    3.571    0.000    0.000    0.000    0.000 
#    0.000    0.000    0.000    0.000    0.000    0.000 
#
# Total GULP energy -77979.991625 kJ/mol
# GULP energy per Si atom -5569.999402 kJ/mol
# Density = 2.413678 g / cm^3
# Si number density = 24.191841 Si / 1000 Ang^3
#
#
#
# Elastic Constant Matrix: (Units=GPa)
#
#
# Indices 1 2 3 4 5 6 
#
# 1 73.7402 25.9267 12.4432 -15.8575 -19.1428 -12.0470
# 2 25.9267 145.1817 39.8350 2.8568 -17.1796 -20.8072
# 3 12.4432 39.8350 134.6370 18.7261 -3.0299 -14.0533
# 4 -15.8575 2.8568 18.7261 44.8883 -6.8280 9.7722
# 5 -19.1428 -17.1796 -3.0299 -6.8280 47.7193 -1.1370
# 6 -12.0470 -20.8072 -14.0533 9.7722 -1.1370 32.5926
#
#
#
# Elastic Compliance Matrix: (Units=1/GPa)
#
#
# Indices 1 2 3 4 5 6 
#
# 1 0.018764 -0.001616 -0.001896 0.008109 0.008055 0.002936
# 2 -0.001616 0.008591 -0.001723 -0.001037 0.002295 0.004535
# 3 -0.001896 -0.001723 0.009231 -0.005456 -0.001486 0.003763
# 4 0.008109 -0.001037 -0.005456 0.030440 0.006676 -0.008911
# 5 0.008055 0.002295 -0.001486 0.006676 0.025939 0.002705
# 6 0.002936 0.004535 0.003763 -0.008911 0.002705 0.039051
#
#
# Mechanical properties :
#
#
# Convention : Reuss Voigt Hill
#
# Bulk Modulus (GPa) = 38.29236 56.66317 47.47777
# Shear Modulus (GPa) = 33.07065 43.39697 38.23381
#
# Velocity S-wave (km/s) = 3.70133 4.24000 3.97979
# Velocity P-wave (km/s) = 5.84204 6.88792 6.38643
#
# Compressibility (1/GPa) = 0.02611487
#
# Stress axis : x y z
#
# Youngs Moduli (GPa) = 53.29420 116.39641 108.33400
#
# Poissons Ratio (x) = 0.18812 0.20540
# Poissons Ratio (y) = 0.08613 0.18669
# Poissons Ratio (z) = 0.10105 0.20058
#
# Static dielectric constant tensor:
#      x y z
#    x 1.995940 0.081730 0.039990 
#    y 0.081730 2.113400 -0.143570 
#    z 0.039990 -0.143570 2.084800 
# 
# From -- ./inp_files/410525.got.cif
#   From: 2010.05.17/outbox.cif.g08.bks.cpg/sg2_206_cif.got.tgz:410525.got - 2010.06.03 11:33:40.
