data_PCOD9043837
_publ_section_title
;
Structure prediction by ZEFSAII (Michael W. Deem and Ramdas Pophale) SiO2 
 PCOD9043837
Probable space group: P -1
;
_chemical_formula_sum "Si O2"
_cell_formula_units_Z 16
_cell_length_a 11.223856
_cell_length_b 14.120316
_cell_length_c 5.511746
_cell_angle_alpha 93.962890
_cell_angle_beta 132.059025
_cell_angle_gamma 101.293768
_cell_volume 611.453520
_symmetry_space_group_name_H-M "P -1"
_symmetry_group_IT_number 2
_symmetry_cell_setting 'triclinic'
loop_
_space_group_symop_operation_xyz
x,y,z
-x,-y,-z
loop_
_atom_site_type_symbol
_atom_site_label
_atom_site_fract_x
_atom_site_fract_y
_atom_site_fract_z
Si Si1 0.203857 0.260846 0.754586
Si Si2 0.306136 0.126392 0.563501
Si Si3 0.701811 0.054811 0.753046
Si Si4 0.038879 0.659935 0.284204
Si Si5 0.464277 0.321520 0.487511
Si Si6 0.322718 0.449278 0.616855
Si Si7 0.678307 0.153554 0.231914
Si Si8 0.832275 0.439866 0.928480
O O1 0.172986 0.155840 0.557547
O O2 0.218523 0.353161 0.612763
O O3 0.075280 0.270658 0.789409
O O4 0.395615 0.283926 0.122347
O O5 0.391078 0.225622 0.537986
O O6 0.230002 0.033171 0.263330
O O7 0.472293 0.114883 0.924454
O O8 0.724982 0.126811 0.561872
O O9 0.500000 0.000000 0.500000
O O10 0.747924 0.105821 0.088382
O O11 0.224147 0.727237 0.638919
O O12 0.067907 0.633274 0.039794
O O13 0.936455 0.545638 0.212933
O O14 0.374218 0.403247 0.436183
O O15 0.660983 0.375120 0.807219
O O16 0.235174 0.526390 0.412586
O O17 0.500000 0.500000 0.000000
#
# Coordination Sequence:
#
# PCOD9043837 Si02
#       8
#     2   2   2   2   2   2   2   2
#     4  11  23  41  63  94 139 175 234 281 342 411
#     4  10  24  41  74 104 123 175 230 294 349 404
#     4  10  23  45  77 108 134 174 233 299 352 414
#     4  11  26  43  62  97 141 193 218 282 348 425
#     4  11  22  40  67  95 134 171 230 291 325 403
#     4  11  21  37  63  95 123 177 236 286 328 383
#     4  11  25  46  72 107 143 176 232 292 354 416
#     4  11  23  43  65  94 140 185 236 273 348 407
#
# _framework density 26.167155000000001
#
# number of rings (size 3 to 8) (size 9 to 14) (size 15 to 20)
#    0.000    1.250    2.500    3.375   10.500    1.500 
#    2.250    1.250    0.000    0.000    0.000    0.000 
#    0.000    0.000    0.000    0.000    0.000    0.000 
#
# Total GULP energy -89365.622989 kJ/mol
# GULP energy per Si atom -5585.351437 kJ/mol
# Density = 2.610760 g / cm^3
# Si number density = 26.167155 Si / 1000 Ang^3
#
#
#
# Elastic Constant Matrix: (Units=GPa)
#
#
# Indices 1 2 3 4 5 6 
#
# 1 131.1105 48.0386 27.4669 10.2140 -24.4443 -34.6800
# 2 48.0386 93.8808 34.6137 12.1068 -16.8139 -14.4753
# 3 27.4669 34.6137 69.5189 20.6545 -13.7634 8.7792
# 4 10.2140 12.1068 20.6545 49.2185 -9.5517 -18.4168
# 5 -24.4443 -16.8139 -13.7634 -9.5517 36.2070 16.3625
# 6 -34.6800 -14.4753 8.7792 -18.4168 16.3625 40.9301
#
#
#
# Elastic Compliance Matrix: (Units=1/GPa)
#
#
# Indices 1 2 3 4 5 6 
#
# 1 0.014011 -0.002501 -0.008610 0.007341 -0.000404 0.016298
# 2 -0.002501 0.015677 -0.008299 0.002533 0.000290 0.006229
# 3 -0.008610 -0.008299 0.034253 -0.019931 0.012317 -0.031469
# 4 0.007341 0.002533 -0.019931 0.036747 -0.005333 0.030057
# 5 -0.000404 0.000290 0.012317 -0.005333 0.040451 -0.021452
# 6 0.016298 0.006229 -0.031469 0.030057 -0.021452 0.069295
#
#
# Mechanical properties :
#
#
# Convention : Reuss Voigt Hill
#
# Bulk Modulus (GPa) = 39.80709 57.19427 48.50068
# Shear Modulus (GPa) = 19.40786 37.56385 28.48586
#
# Velocity S-wave (km/s) = 2.72635 3.79296 3.30299
# Velocity P-wave (km/s) = 5.01560 6.40989 5.75513
#
# Compressibility (1/GPa) = 0.02512115
#
# Stress axis : x y z
#
# Youngs Moduli (GPa) = 71.37196 63.78651 29.19474
#
# Poissons Ratio (x) = 0.15954 0.25136
# Poissons Ratio (y) = 0.17851 0.24229
# Poissons Ratio (z) = 0.61449 0.52938
#
# Static dielectric constant tensor:
#      x y z
#    x 2.106390 -0.029270 0.001410 
#    y -0.029270 2.105230 0.030050 
#    z 0.001410 0.030050 2.112550 
# 
# From -- ./inp_files/78236.got.cif
#   From: 2010.05.17/outbox.cif.g08.bks.cpg/sg2_40_cif.got.tgz:78236.got - 2010.06.03 11:33:40.
