data_PCOD9043678
_publ_section_title
;
Structure prediction by ZEFSAII (Michael W. Deem and Ramdas Pophale) SiO2 
 PCOD9043678
Probable space group: P -1
;
_chemical_formula_sum "Si O2"
_cell_formula_units_Z 16
_cell_length_a 15.338126
_cell_length_b 11.773738
_cell_length_c 16.781750
_cell_angle_alpha 40.253154
_cell_angle_beta 155.074093
_cell_angle_gamma 150.096473
_cell_volume 632.945556
_symmetry_space_group_name_H-M "P -1"
_symmetry_group_IT_number 2
_symmetry_cell_setting 'triclinic'
loop_
_space_group_symop_operation_xyz
x,y,z
-x,-y,-z
loop_
_atom_site_type_symbol
_atom_site_label
_atom_site_fract_x
_atom_site_fract_y
_atom_site_fract_z
Si Si1 0.189256 0.362608 0.341236
Si Si2 0.753162 0.440653 0.550500
Si Si3 0.278650 0.399079 0.133411
Si Si4 0.800880 0.555301 0.135662
Si Si5 0.837548 0.050378 0.450458
Si Si6 0.368647 0.816876 0.062907
Si Si7 0.191349 0.062969 0.049953
Si Si8 0.745371 0.260281 0.381196
O O1 0.500000 0.500000 0.500000
O O2 0.201231 0.507875 0.345565
O O3 0.095460 0.115275 0.419049
O O4 0.939689 0.291992 0.118852
O O5 0.452201 0.322744 0.340382
O O6 0.895689 0.345255 0.686282
O O7 0.924326 0.695710 0.518608
O O8 0.358108 0.606936 0.141281
O O9 0.329996 0.485343 0.037750
O O10 0.969832 0.169449 0.008484
O O11 0.681139 0.333408 0.207268
O O12 0.785397 0.728501 0.077929
O O13 0.567181 0.940728 0.235375
O O14 0.795566 0.089477 0.486140
O O15 0.500000 0.000000 0.000000
O O16 0.477706 0.144988 0.270666
O O17 0.000000 0.000000 0.000000
O O18 0.000000 0.500000 0.500000
#
# Coordination Sequence:
#
# PCOD9043678 Si02
#       8
#     2   2   2   2   2   2   2   2
#     4  12  26  41  67 111 143 180 227 283 351 413
#     4  11  22  44  70 103 137 189 232 278 343 421
#     4  11  23  42  75 100 148 178 229 292 347 411
#     4  10  23  45  73  99 136 182 238 280 345 413
#     4  11  25  44  72  97 140 185 237 279 344 418
#     4  12  22  44  74 100 139 189 229 280 343 422
#     4  10  25  45  69 102 139 183 229 288 354 405
#     4  11  26  49  72 102 136 184 241 291 337 419
#
# _framework density 25.278637
#
# number of rings (size 3 to 8) (size 9 to 14) (size 15 to 20)
#    0.000    1.000    3.750    2.250    8.750    2.000 
#    6.750    0.000    0.000    0.000    0.000    0.000 
#    0.000    0.000    0.000    0.000    0.000    0.000 
#
# Total GULP energy -89529.426410 kJ/mol
# GULP energy per Si atom -5595.589151 kJ/mol
# Density = 2.522110 g / cm^3
# Si number density = 25.278637 Si / 1000 Ang^3
#
#
#
# Elastic Constant Matrix: (Units=GPa)
#
#
# Indices 1 2 3 4 5 6 
#
# 1 57.5170 16.4301 20.0947 3.1829 12.1387 -15.9939
# 2 16.4301 95.0697 10.6372 9.6314 1.8168 -21.5203
# 3 20.0947 10.6372 136.9448 18.0369 13.1773 -15.8209
# 4 3.1829 9.6314 18.0369 40.9867 3.2368 0.1793
# 5 12.1387 1.8168 13.1773 3.2368 45.8405 1.3056
# 6 -15.9939 -21.5203 -15.8209 0.1793 1.3056 37.8738
#
#
#
# Elastic Compliance Matrix: (Units=1/GPa)
#
#
# Indices 1 2 3 4 5 6 
#
# 1 0.021744 -0.001706 -0.001619 -0.000180 -0.005432 0.007724
# 2 -0.001706 0.012575 0.000455 -0.003040 -0.000152 0.006635
# 3 -0.001619 0.000455 0.008532 -0.003601 -0.001879 0.003220
# 4 -0.000180 -0.003040 -0.003601 0.026773 -0.000590 -0.003414
# 5 -0.005432 -0.000152 -0.001879 -0.000590 0.023955 -0.003988
# 6 0.007724 0.006635 0.003220 -0.003414 -0.003988 0.034934
#
#
# Mechanical properties :
#
#
# Convention : Reuss Voigt Hill
#
# Bulk Modulus (GPa) = 26.94699 42.65064 34.79881
# Shear Modulus (GPa) = 34.10113 41.09816 37.59965
#
# Velocity S-wave (km/s) = 3.67687 4.03650 3.86088
# Velocity P-wave (km/s) = 5.35808 6.21557 5.80268
#
# Compressibility (1/GPa) = 0.03710990
#
# Stress axis : x y z
#
# Youngs Moduli (GPa) = 45.99064 79.52148 117.21004
#
# Poissons Ratio (x) = 0.13566 0.18980
# Poissons Ratio (y) = 0.07846 -0.05333
# Poissons Ratio (z) = 0.07447 -0.03618
#
# Static dielectric constant tensor:
#      x y z
#    x 2.076810 0.048730 0.026570 
#    y 0.048730 2.034970 -0.013600 
#    z 0.026570 -0.013600 2.004280 
# 
# From -- ./inp_files/600075.got.cif
#   From: 2010.05.17/outbox.cif.g08.bks.cpg/sg2_301_cif.got.tgz:600075.got - 2010.06.03 11:33:40.
