data_PCOD9043839
_publ_section_title
;
Structure prediction by ZEFSAII (Michael W. Deem and Ramdas Pophale) SiO2 
 PCOD9043839
Probable space group: P -1
;
_chemical_formula_sum "Si O2"
_cell_formula_units_Z 14
_cell_length_a 10.574765
_cell_length_b 18.031671
_cell_length_c 11.229130
_cell_angle_alpha 44.972643
_cell_angle_beta 53.708868
_cell_angle_gamma 23.529900
_cell_volume 591.820158
_symmetry_space_group_name_H-M "P -1"
_symmetry_group_IT_number 2
_symmetry_cell_setting 'triclinic'
loop_
_space_group_symop_operation_xyz
x,y,z
-x,-y,-z
loop_
_atom_site_type_symbol
_atom_site_label
_atom_site_fract_x
_atom_site_fract_y
_atom_site_fract_z
Si Si1 0.310847 0.874899 0.142618
Si Si2 0.241009 0.084364 0.307555
Si Si3 0.192420 0.007702 0.653292
Si Si4 0.877535 0.306068 0.021371
Si Si5 0.023052 0.363927 0.666115
Si Si6 0.254029 0.558524 0.505875
Si Si7 0.674137 0.739330 0.865538
O O1 0.619167 0.628621 0.303241
O O2 0.410900 0.861875 0.973728
O O3 0.036213 0.946689 0.216157
O O4 0.137091 0.069373 0.092699
O O5 0.252037 0.182003 0.267823
O O6 0.971349 0.256832 0.162657
O O7 0.175794 0.026276 0.499193
O O8 0.594903 0.877346 0.289149
O O9 0.547763 0.778111 0.764254
O O10 0.076335 0.187164 0.567813
O O11 0.500000 0.500000 0.000000
O O12 0.933364 0.377226 0.831767
O O13 0.000000 0.500000 0.500000
O O14 0.798869 0.432430 0.616444
O O15 0.500000 0.500000 0.500000
O O16 0.000000 0.500000 0.000000
#
# Coordination Sequence:
#
# PCOD9043839 Si02
#       7
#     2   2   2   2   2   2   2
#     4  11  25  47  75 102 152 193 247 298 377 439
#     4  12  27  47  72 105 152 189 253 311 370 449
#     4  11  25  47  73 111 148 193 244 303 379 448
#     4  12  30  50  72 105 150 199 256 305 377 456
#     4  12  27  48  79 105 150 198 251 315 380 441
#     4  10  23  45  77 109 150 191 248 306 379 446
#     4  12  26  44  76 109 147 188 244 310 380 434
#
# _framework density 23.655836000000001
#
# number of rings (size 3 to 8) (size 9 to 14) (size 15 to 20)
#    0.000    0.571    2.857    3.000   12.000    1.714 
#    0.000    0.000    0.000    0.000    0.000    0.000 
#    0.000    0.000    0.000    0.000    0.000    0.000 
#
# Total GULP energy -78180.563226 kJ/mol
# GULP energy per Si atom -5584.325945 kJ/mol
# Density = 2.360199 g / cm^3
# Si number density = 23.655836 Si / 1000 Ang^3
#
#
#
# Elastic Constant Matrix: (Units=GPa)
#
#
# Indices 1 2 3 4 5 6 
#
# 1 87.9154 31.5667 58.3772 9.4475 21.0507 -19.1608
# 2 31.5667 48.6243 22.0194 -1.2354 -4.6247 -6.7870
# 3 58.3772 22.0194 131.5648 6.2322 11.9473 -11.8857
# 4 9.4475 -1.2354 6.2322 40.9214 -3.5223 10.6324
# 5 21.0507 -4.6247 11.9473 -3.5223 54.0160 -10.5116
# 6 -19.1608 -6.7870 -11.8857 10.6324 -10.5116 19.3195
#
#
#
# Elastic Compliance Matrix: (Units=1/GPa)
#
#
# Indices 1 2 3 4 5 6 
#
# 1 0.029060 -0.013400 -0.007370 -0.012457 -0.007281 0.022474
# 2 -0.013400 0.030032 -0.000156 0.005045 0.007901 -0.001313
# 3 -0.007370 -0.000156 0.010791 0.000259 0.000358 -0.000673
# 4 -0.012457 0.005045 0.000259 0.035037 0.001939 -0.028651
# 5 -0.007281 0.007901 0.000358 0.001939 0.023537 0.007514
# 6 0.022474 -0.001313 -0.000673 -0.028651 0.007514 0.093031
#
#
# Mechanical properties :
#
#
# Convention : Reuss Voigt Hill
#
# Bulk Modulus (GPa) = 35.67374 54.67012 45.17193
# Shear Modulus (GPa) = 18.33628 33.26080 25.79854
#
# Velocity S-wave (km/s) = 2.78713 3.75377 3.30597
# Velocity P-wave (km/s) = 5.04683 6.47677 5.80599
#
# Compressibility (1/GPa) = 0.02803182
#
# Stress axis : x y z
#
# Youngs Moduli (GPa) = 34.41170 33.29768 92.66568
#
# Poissons Ratio (x) = 0.44620 0.68294
# Poissons Ratio (y) = 0.46113 0.01442
# Poissons Ratio (z) = 0.25361 0.00518
#
# Static dielectric constant tensor:
#      x y z
#    x 1.907050 -0.002290 0.040840 
#    y -0.002290 1.883560 0.027790 
#    z 0.040840 0.027790 1.813020 
# 
# From -- ./inp_files/152861.got.cif
#   From: 2010.05.17/outbox.cif.g08.bks.cpg/sg2_77_cif.got.tgz:152861.got - 2010.06.03 11:33:40.
