data_PCOD9043361
_publ_section_title
;
Structure prediction by ZEFSAII (Michael W. Deem and Ramdas Pophale) SiO2 
 PCOD9043361
Probable space group: P -1
;
_chemical_formula_sum "Si O2"
_cell_formula_units_Z 15
_cell_length_a 17.534544
_cell_length_b 5.345370
_cell_length_c 8.422501
_cell_angle_alpha 97.905305
_cell_angle_beta 117.648230
_cell_angle_gamma 57.267649
_cell_volume 581.395097
_symmetry_space_group_name_H-M "P -1"
_symmetry_group_IT_number 2
_symmetry_cell_setting 'triclinic'
loop_
_space_group_symop_operation_xyz
x,y,z
-x,-y,-z
loop_
_atom_site_type_symbol
_atom_site_label
_atom_site_fract_x
_atom_site_fract_y
_atom_site_fract_z
Si Si1 0.109324 0.167908 0.777142
Si Si2 0.424588 0.337553 0.011114
Si Si3 0.583976 0.402046 0.314883
Si Si4 0.500000 0.000000 0.500000
Si Si5 0.804506 0.142105 0.503321
Si Si6 0.723171 0.715907 0.639669
Si Si7 0.785060 0.459423 0.012577
Si Si8 0.071721 0.338369 0.205634
O O1 0.160019 0.360592 0.882712
O O2 0.987403 0.405176 0.694464
O O3 0.149526 0.011508 0.632731
O O4 0.144041 0.890978 0.906251
O O5 0.408333 0.541267 0.861304
O O6 0.317302 0.401081 0.969250
O O7 0.487794 0.363626 0.219184
O O8 0.500000 0.000000 0.000000
O O9 0.551268 0.693337 0.412605
O O10 0.701631 0.136612 0.439657
O O11 0.608112 0.989051 0.580271
O O12 0.753732 0.498048 0.497779
O O13 0.898179 0.968628 0.703965
O O14 0.817372 0.752949 0.749594
O O15 0.743650 0.508259 0.797825
O O16 0.000000 0.500000 0.000000
#
# Coordination Sequence:
#
# PCOD9043361 Si02
#       8
#     2   2   2   1   2   2   2   2
#     4  12  28  49  80 114 155 203 265 322 394 464
#     4  11  23  41  77 105 158 203 263 317 390 471
#     4  10  23  45  70 115 151 200 259 319 397 465
#     4  10  24  44  74 114 152 204 252 322 398 468
#     4  11  26  47  73 114 150 203 255 333 385 465
#     4  11  27  47  77 108 159 202 262 321 395 469
#     4  12  27  48  79 113 156 207 258 320 393 470
#     4  12  27  49  77 107 156 205 265 319 393 466
#
# _framework density 25.800011000000001
#
# number of rings (size 3 to 8) (size 9 to 14) (size 15 to 20)
#    0.000    0.800    2.667    2.800    7.467    4.800 
#    0.000    4.667    0.000    0.000    0.000    0.000 
#    0.000    0.000    0.000    0.000    0.000    0.000 
#
# Total GULP energy -83665.917715 kJ/mol
# GULP energy per Si atom -5577.727848 kJ/mol
# Density = 2.574129 g / cm^3
# Si number density = 25.800011 Si / 1000 Ang^3
#
#
#
# Elastic Constant Matrix: (Units=GPa)
#
#
# Indices 1 2 3 4 5 6 
#
# 1 101.6330 16.3677 19.7522 -10.9892 5.9077 -26.2192
# 2 16.3677 113.5739 32.5597 5.1030 -12.0363 -22.0224
# 3 19.7522 32.5597 123.5153 -13.9203 4.8404 -7.6759
# 4 -10.9892 5.1030 -13.9203 49.8042 -8.4808 5.4291
# 5 5.9077 -12.0363 4.8404 -8.4808 18.2095 10.7969
# 6 -26.2192 -22.0224 -7.6759 5.4291 10.7969 53.4725
#
#
#
# Elastic Compliance Matrix: (Units=1/GPa)
#
#
# Indices 1 2 3 4 5 6 
#
# 1 0.012633 -0.001084 -0.000894 0.000353 -0.008775 0.007356
# 2 -0.001084 0.011025 -0.002986 -0.001390 0.006337 0.002442
# 3 -0.000894 -0.002986 0.009405 0.002173 -0.003240 0.000116
# 4 0.000353 -0.001390 0.002173 0.023540 0.012293 -0.004960
# 5 -0.008775 0.006337 -0.003240 0.012293 0.080154 -0.019590
# 6 0.007356 0.002442 0.000116 -0.004960 -0.019590 0.027789
#
#
# Mechanical properties :
#
#
# Convention : Reuss Voigt Hill
#
# Bulk Modulus (GPa) = 43.22314 52.89791 48.06053
# Shear Modulus (GPa) = 27.44433 42.30008 34.87220
#
# Velocity S-wave (km/s) = 3.26503 4.05351 3.68045
# Velocity P-wave (km/s) = 5.56807 6.51579 6.06048
#
# Compressibility (1/GPa) = 0.02313575
#
# Stress axis : x y z
#
# Youngs Moduli (GPa) = 79.15524 90.70538 106.32217
#
# Poissons Ratio (x) = 0.09831 0.09503
# Poissons Ratio (y) = 0.08579 0.31750
# Poissons Ratio (z) = 0.07075 0.27086
#
# Static dielectric constant tensor:
#      x y z
#    x 2.216830 0.044680 -0.060600 
#    y 0.044680 1.993150 -0.015200 
#    z -0.060600 -0.015200 2.167800 
# 
# From -- ./inp_files/323904.got.cif
#   From: 2010.05.17/outbox.cif.g08.bks.cpg/sg2_162_cif.got.tgz:323904.got - 2010.06.03 11:33:40.
