data_PCOD9043806
_publ_section_title
;
Structure prediction by ZEFSAII (Michael W. Deem and Ramdas Pophale) SiO2 
 PCOD9043806
Probable space group: P -1
;
_chemical_formula_sum "Si O2"
_cell_formula_units_Z 16
_cell_length_a 23.787638
_cell_length_b 5.835856
_cell_length_c 8.808830
_cell_angle_alpha 117.461115
_cell_angle_beta 54.240809
_cell_angle_gamma 82.282582
_cell_volume 729.043910
_symmetry_space_group_name_H-M "P -1"
_symmetry_group_IT_number 2
_symmetry_cell_setting 'triclinic'
loop_
_space_group_symop_operation_xyz
x,y,z
-x,-y,-z
loop_
_atom_site_type_symbol
_atom_site_label
_atom_site_fract_x
_atom_site_fract_y
_atom_site_fract_z
Si Si1 0.415486 0.840677 0.550795
Si Si2 0.244617 0.757291 0.303185
Si Si3 0.913352 0.596836 0.244643
Si Si4 0.984872 0.286651 0.354530
Si Si5 0.825144 0.494402 0.843069
Si Si6 0.395813 0.513373 0.781473
Si Si7 0.272408 0.842187 0.633276
Si Si8 0.834671 0.316937 0.100615
O O1 0.394554 0.711439 0.698270
O O2 0.515871 0.614562 0.314627
O O3 0.360331 0.799479 0.504252
O O4 0.396505 0.191827 0.666250
O O5 0.237265 0.471224 0.179467
O O6 0.260694 0.794448 0.462144
O O7 0.151486 0.047295 0.500812
O O8 0.315235 0.733285 0.079138
O O9 0.939728 0.406718 0.300984
O O10 0.857999 0.547442 0.199312
O O11 0.000000 0.500000 0.000000
O O12 0.918364 0.286304 0.567166
O O13 0.000000 0.500000 0.500000
O O14 0.078035 0.997141 0.086301
O O15 0.824113 0.318004 0.938660
O O16 0.792561 0.831341 0.072463
O O17 0.250192 0.617155 0.677879
#
# Coordination Sequence:
#
# PCOD9043806 Si02
#       8
#     2   2   2   2   2   2   2   2
#     4  10  23  46  75 107 147 183 233 301 360 422
#     4  12  25  43  70 101 134 188 232 285 357 432
#     4  12  25  43  65  99 140 180 237 294 350 420
#     4  12  23  39  64  91 128 182 230 288 352 416
#     4  12  24  44  63  96 132 178 232 290 347 418
#     4  10  23  45  76 108 142 190 235 290 363 433
#     4  12  25  43  68 100 138 177 231 291 353 420
#     4  12  24  44  66  92 137 182 233 297 356 418
#
# _framework density 21.946553000000002
#
# number of rings (size 3 to 8) (size 9 to 14) (size 15 to 20)
#    0.000    0.500    3.750    5.250    1.750    1.500 
#    0.000    0.000    0.000    5.250    0.000    0.000 
#    0.000    0.000    0.000    0.000    0.000    0.000 
#
# Total GULP energy -89122.142142 kJ/mol
# GULP energy per Si atom -5570.133884 kJ/mol
# Density = 2.189660 g / cm^3
# Si number density = 21.946553 Si / 1000 Ang^3
#
#
#
# Elastic Constant Matrix: (Units=GPa)
#
#
# Indices 1 2 3 4 5 6 
#
# 1 155.4340 46.5076 41.9406 -8.3402 11.5734 26.1189
# 2 46.5076 72.0689 33.6093 -16.4607 1.5533 7.6906
# 3 41.9406 33.6093 89.4725 -17.5512 -1.4431 13.1440
# 4 -8.3402 -16.4607 -17.5512 31.0908 3.4471 -6.8074
# 5 11.5734 1.5533 -1.4431 3.4471 37.3859 -8.9883
# 6 26.1189 7.6906 13.1440 -6.8074 -8.9883 39.8853
#
#
#
# Elastic Compliance Matrix: (Units=1/GPa)
#
#
# Indices 1 2 3 4 5 6 
#
# 1 0.009739 -0.004978 -0.002313 -0.002176 -0.004129 -0.005957
# 2 -0.004978 0.020552 -0.004193 0.007592 0.000317 0.002046
# 3 -0.002313 -0.004193 0.015119 0.005272 0.000597 -0.001624
# 4 -0.002176 0.007592 0.005272 0.039798 -0.002011 0.004563
# 5 -0.004129 0.000317 0.000597 -0.002011 0.030373 0.008947
# 6 -0.005957 0.002046 -0.001624 0.004563 0.008947 0.031909
#
#
# Mechanical properties :
#
#
# Convention : Reuss Voigt Hill
#
# Bulk Modulus (GPa) = 44.56179 62.34336 53.45258
# Shear Modulus (GPa) = 28.09958 34.66693 31.38325
#
# Velocity S-wave (km/s) = 3.58210 3.97874 3.78562
# Velocity P-wave (km/s) = 6.12024 7.04100 6.59671
#
# Compressibility (1/GPa) = 0.02244075
#
# Stress axis : x y z
#
# Youngs Moduli (GPa) = 102.67882 48.65643 66.14367
#
# Poissons Ratio (x) = 0.24222 0.15302
# Poissons Ratio (y) = 0.51115 0.27734
# Poissons Ratio (z) = 0.23755 0.20401
#
# Static dielectric constant tensor:
#      x y z
#    x 2.328680 1.005920 0.493570 
#    y 1.005920 3.642920 0.893330 
#    z 0.493570 0.893330 2.242170 
# 
# From -- ./inp_files/55479.got.cif
#   From: 2010.05.17/outbox.cif.g08.bks.cpg/sg2_28_cif.got.tgz:55479.got - 2010.06.03 11:33:40.
