data_PCOD9043747
_publ_section_title
;
Structure prediction by ZEFSAII (Michael W. Deem and Ramdas Pophale) SiO2 
 PCOD9043747
Probable space group: P -1
;
_chemical_formula_sum "Si O2"
_cell_formula_units_Z 14
_cell_length_a 6.220868
_cell_length_b 15.922931
_cell_length_c 16.145381
_cell_angle_alpha 25.957369
_cell_angle_beta 92.005922
_cell_angle_gamma 101.130691
_cell_volume 650.103118
_symmetry_space_group_name_H-M "P -1"
_symmetry_group_IT_number 2
_symmetry_cell_setting 'triclinic'
loop_
_space_group_symop_operation_xyz
x,y,z
-x,-y,-z
loop_
_atom_site_type_symbol
_atom_site_label
_atom_site_fract_x
_atom_site_fract_y
_atom_site_fract_z
Si Si1 0.612559 0.490866 0.096828
Si Si2 0.646563 0.398033 0.537310
Si Si3 0.233465 0.855663 0.643922
Si Si4 0.207771 0.173492 0.636206
Si Si5 0.073078 0.761279 0.912345
Si Si6 0.146047 0.332170 0.320816
Si Si7 0.966179 0.197958 0.783061
O O1 0.771209 0.369506 0.178632
O O2 0.405348 0.367912 0.263058
O O3 0.500000 0.500000 0.000000
O O4 0.794858 0.695812 0.957167
O O5 0.500000 0.500000 0.500000
O O6 0.479717 0.295371 0.549933
O O7 0.722929 0.229024 0.736847
O O8 0.879306 0.595206 0.348269
O O9 0.179382 0.851541 0.743950
O O10 0.030579 0.842848 0.587099
O O11 0.500000 0.000000 0.500000
O O12 0.118591 0.256194 0.481318
O O13 0.070311 0.201393 0.689591
O O14 0.165624 0.936561 0.826749
O O15 0.132163 0.559746 0.113145
O O16 0.000000 0.000000 0.000000
#
# Coordination Sequence:
#
# PCOD9043747 Si02
#       7
#     2   2   2   2   2   2   2
#     4  11  20  39  63  79 118 178 228 267 323 380
#     4   9  22  45  68  98 132 167 216 265 334 412
#     4  11  23  38  61  89 124 179 228 272 328 395
#     4  11  26  39  63 102 130 164 215 280 336 397
#     4  11  24  40  60  94 129 172 229 273 329 388
#     4  11  24  42  61  89 134 173 223 282 329 382
#     4  10  23  45  74  96 131 175 215 262 340 421
#
# _framework density 21.535046000000001
#
# number of rings (size 3 to 8) (size 9 to 14) (size 15 to 20)
#    0.000    1.429    2.857    1.714    2.000   13.714 
#    0.000    0.000    0.000    0.000    0.000    0.000 
#    0.000    0.000    0.000    0.000    0.000    0.000 
#
# Total GULP energy -78041.094716 kJ/mol
# GULP energy per Si atom -5574.363908 kJ/mol
# Density = 2.148603 g / cm^3
# Si number density = 21.535046 Si / 1000 Ang^3
#
#
#
# Elastic Constant Matrix: (Units=GPa)
#
#
# Indices 1 2 3 4 5 6 
#
# 1 87.7228 33.4794 26.6785 -4.2274 4.9684 9.9788
# 2 33.4794 112.4238 27.4721 -16.5608 0.1585 17.5216
# 3 26.6785 27.4721 85.7619 1.2973 22.1881 3.4400
# 4 -4.2274 -16.5608 1.2973 41.3397 -3.9208 -7.2153
# 5 4.9684 0.1585 22.1881 -3.9208 47.2987 -7.4688
# 6 9.9788 17.5216 3.4400 -7.2153 -7.4688 37.6658
#
#
#
# Elastic Compliance Matrix: (Units=1/GPa)
#
#
# Indices 1 2 3 4 5 6 
#
# 1 0.013754 -0.003022 -0.003156 -0.000084 -0.000281 -0.002022
# 2 -0.003022 0.011660 -0.003132 0.004041 0.001569 -0.003252
# 3 -0.003156 -0.003132 0.015662 -0.002981 -0.007439 -0.001184
# 4 -0.000084 0.004041 -0.002981 0.027085 0.004344 0.004464
# 5 -0.000281 0.001569 -0.007439 0.004344 0.025965 0.006005
# 6 -0.002022 -0.003252 -0.001184 0.004464 0.006005 0.030752
#
#
# Mechanical properties :
#
#
# Convention : Reuss Voigt Hill
#
# Bulk Modulus (GPa) = 44.52679 51.24092 47.88386
# Shear Modulus (GPa) = 33.11647 38.47941 35.79794
#
# Velocity S-wave (km/s) = 3.92573 4.23167 4.08157
# Velocity P-wave (km/s) = 6.42415 6.90811 6.67052
#
# Compressibility (1/GPa) = 0.02245839
#
# Stress axis : x y z
#
# Youngs Moduli (GPa) = 72.70427 85.76300 63.84768
#
# Poissons Ratio (x) = 0.25916 0.20149
# Poissons Ratio (y) = 0.21970 0.19995
# Poissons Ratio (z) = 0.22943 0.26858
#
# Static dielectric constant tensor:
#      x y z
#    x 2.746520 0.873690 0.489220 
#    y 0.873690 2.090150 0.322450 
#    z 0.489220 0.322450 2.085740 
# 
# From -- ./inp_files/484095.got.cif
#   From: 2010.05.17/outbox.cif.g08.bks.cpg/sg2_243_cif.got.tgz:484095.got - 2010.06.03 11:33:40.
