data_PCOD9043792
_publ_section_title
;
Structure prediction by ZEFSAII (Michael W. Deem and Ramdas Pophale) SiO2 
 PCOD9043792
Probable space group: P -1
;
_chemical_formula_sum "Si O2"
_cell_formula_units_Z 16
_cell_length_a 17.984373
_cell_length_b 24.596742
_cell_length_c 5.999929
_cell_angle_alpha 110.648223
_cell_angle_beta 79.904573
_cell_angle_gamma 160.811306
_cell_volume 700.767907
_symmetry_space_group_name_H-M "P -1"
_symmetry_group_IT_number 2
_symmetry_cell_setting 'triclinic'
loop_
_space_group_symop_operation_xyz
x,y,z
-x,-y,-z
loop_
_atom_site_type_symbol
_atom_site_label
_atom_site_fract_x
_atom_site_fract_y
_atom_site_fract_z
Si Si1 0.142603 0.611452 0.856232
Si Si2 0.389836 0.911832 0.182935
Si Si3 0.748221 0.939694 0.372351
Si Si4 0.765845 0.721317 0.069238
Si Si5 0.943770 0.660328 0.885744
Si Si6 0.050960 0.242344 0.313916
Si Si7 0.482617 0.624599 0.941580
Si Si8 0.296520 0.634190 0.520158
O O1 0.301184 0.669541 0.803387
O O2 0.912493 0.474752 0.636008
O O3 0.349802 0.814229 0.057831
O O4 0.000000 0.500000 0.000000
O O5 0.500000 0.000000 0.500000
O O6 0.145356 0.776494 0.110767
O O7 0.500000 0.000000 0.000000
O O8 0.612457 0.784818 0.090022
O O9 0.541046 0.808750 0.479525
O O10 0.003151 0.106539 0.620094
O O11 0.855894 0.071090 0.351042
O O12 0.704942 0.740287 0.035112
O O13 0.500000 0.500000 0.000000
O O14 0.843114 0.734536 0.848938
O O15 0.066710 0.799705 0.866064
O O16 0.706301 0.511747 0.938827
O O17 0.827037 0.520088 0.606884
O O18 0.290358 0.455732 0.609339
#
# Coordination Sequence:
#
# PCOD9043792 Si02
#       8
#     2   2   2   2   2   2   2   2
#     4  10  23  45  75  98 144 193 242 310 373 449
#     4  11  28  47  73 112 152 196 252 312 386 463
#     4  11  26  45  74 110 144 196 256 313 381 462
#     4  12  24  47  69 105 152 194 247 310 383 454
#     4  10  24  46  72 100 144 195 242 313 379 457
#     4  12  25  44  75 104 145 194 253 312 382 453
#     4  11  25  47  72 103 148 195 248 317 379 454
#     4   9  23  45  68 104 139 187 247 303 380 442
#
# _framework density 22.832093
#
# number of rings (size 3 to 8) (size 9 to 14) (size 15 to 20)
#    0.000    1.250    2.500    0.750    7.000    8.500 
#    0.000    0.000    0.000    0.000    0.000    0.000 
#    0.000    0.000    0.000    0.000    0.000    0.000 
#
# Total GULP energy -89265.859361 kJ/mol
# GULP energy per Si atom -5579.116210 kJ/mol
# Density = 2.278013 g / cm^3
# Si number density = 22.832093 Si / 1000 Ang^3
#
#
#
# Elastic Constant Matrix: (Units=GPa)
#
#
# Indices 1 2 3 4 5 6 
#
# 1 149.7723 17.0432 87.0904 -15.3943 -73.5030 -4.9091
# 2 17.0432 -147.7633 310.1707 -75.6233 -414.6607 -48.4254
# 3 87.0904 310.1707 -201.6894 88.4005 412.5198 40.6722
# 4 -15.3943 -75.6233 88.4005 8.3577 -100.1401 -8.1852
# 5 -73.5030 -414.6607 412.5198 -100.1401 -576.7990 -57.5509
# 6 -4.9091 -48.4254 40.6722 -8.1852 -57.5509 34.2217
#
#
#
# Elastic Compliance Matrix: (Units=1/GPa)
#
#
# Indices 1 2 3 4 5 6 
#
# 1 0.008667 -0.003750 -0.003111 0.002480 -0.000931 -0.001338
# 2 -0.003750 0.008487 0.000038 0.000671 -0.005882 0.001695
# 3 -0.003111 0.000038 0.013513 -0.009176 0.011549 0.000775
# 4 0.002480 0.000671 -0.009176 0.045329 -0.015011 -0.002193
# 5 -0.000931 -0.005882 0.011549 -0.015011 0.013745 -0.002659
# 6 -0.001338 0.001695 0.000775 -0.002193 -0.002659 0.025511
#
#
# Mechanical properties :
#
#
# Convention : Reuss Voigt Hill
#
# Bulk Modulus (GPa) = 58.75697 69.88091 64.31894
# Shear Modulus (GPa) = 37.15461 -147.77624 -55.31082
#
# Velocity S-wave (km/s) = 4.03835 -8.05379 -4.92723
# Velocity P-wave (km/s) = 6.89454 7.47073 2.03435
#
# Compressibility (1/GPa) = 0.01701926
#
# Stress axis : x y z
#
# Youngs Moduli (GPa) = 115.38029 117.82320 74.00491
#
# Poissons Ratio (x) = 0.44184 0.23026
# Poissons Ratio (y) = 0.43268 -0.00279
# Poissons Ratio (z) = 0.35900 -0.00444
#
# Static dielectric constant tensor:
#      x y z
#    x 1.733860 -0.246010 1.069980 
#    y -0.246010 0.639160 4.634080 
#    z 1.069980 4.634080 -16.048660 
# 
# From -- ./inp_files/112951.got.cif
#   From: 2010.05.17/outbox.cif.g08.bks.cpg/sg2_57_cif.got.tgz:112951.got - 2010.06.03 11:33:40.
