data_PCOD9043413
_publ_section_title
;
Structure prediction by ZEFSAII (Michael W. Deem and Ramdas Pophale) SiO2 
 PCOD9043413
Probable space group: P -1
;
_chemical_formula_sum "Si O2"
_cell_formula_units_Z 12
_cell_length_a 7.407880
_cell_length_b 13.071908
_cell_length_c 23.056180
_cell_angle_alpha 22.665122
_cell_angle_beta 37.525248
_cell_angle_gamma 48.180593
_cell_volume 503.512846
_symmetry_space_group_name_H-M "P -1"
_symmetry_group_IT_number 2
_symmetry_cell_setting 'triclinic'
loop_
_space_group_symop_operation_xyz
x,y,z
-x,-y,-z
loop_
_atom_site_type_symbol
_atom_site_label
_atom_site_fract_x
_atom_site_fract_y
_atom_site_fract_z
Si Si1 0.915806 0.608381 0.221172
Si Si2 0.431786 0.040732 0.928166
Si Si3 0.314852 0.738233 0.779461
Si Si4 0.007502 0.786613 0.380632
Si Si5 0.107675 0.210560 0.461412
Si Si6 0.248984 0.367319 0.179146
O O1 0.623642 0.675102 0.231852
O O2 0.912976 0.328089 0.401711
O O3 0.125540 0.604575 0.114172
O O4 0.106170 0.828869 0.103883
O O5 0.703014 0.004150 0.836245
O O6 0.500000 0.000000 0.000000
O O7 0.522020 0.684470 0.699681
O O8 0.566659 0.744541 0.760785
O O9 0.238886 0.032468 0.647956
O O10 0.000000 0.500000 0.000000
O O11 0.000000 0.500000 0.500000
O O12 0.016637 0.721746 0.480521
O O13 0.015541 0.880952 0.650035
O O14 0.500000 0.500000 0.000000
#
# Coordination Sequence:
#
# PCOD9043413 Si02
#       6
#     2   2   2   2   2   2
#     4  10  23  45  71 100 141 196 239 303 359 438
#     4  11  25  45  69 103 152 188 242 298 374 438
#     4  11  24  45  73 105 144 189 249 303 363 440
#     4  12  27  42  70 110 144 188 240 308 376 434
#     4  11  24  48  73 101 147 191 245 303 366 439
#     4  11  24  43  74 101 140 193 247 298 370 430
#
# _framework density 23.832557999999999
#
# number of rings (size 3 to 8) (size 9 to 14) (size 15 to 20)
#    0.000    1.000    0.000    7.500    7.000    0.667 
#    6.000    0.000    0.000    0.000    0.000    0.000 
#    0.000    0.000    0.000    0.000    0.000    0.000 
#
# Total GULP energy -66903.423138 kJ/mol
# GULP energy per Si atom -5575.285262 kJ/mol
# Density = 2.377831 g / cm^3
# Si number density = 23.832558 Si / 1000 Ang^3
#
#
#
# Elastic Constant Matrix: (Units=GPa)
#
#
# Indices 1 2 3 4 5 6 
#
# 1 123.2952 76.6044 30.3094 17.7284 12.1295 3.7425
# 2 76.6044 135.5844 34.1310 17.2651 13.9479 1.9027
# 3 30.3094 34.1310 102.7658 11.5212 -5.3718 7.8332
# 4 17.7284 17.2651 11.5212 52.8357 9.7658 8.2887
# 5 12.1295 13.9479 -5.3718 9.7658 37.6811 -1.8495
# 6 3.7425 1.9027 7.8332 8.2887 -1.8495 44.6114
#
#
#
# Elastic Compliance Matrix: (Units=1/GPa)
#
#
# Indices 1 2 3 4 5 6 
#
# 1 0.012954 -0.006575 -0.001524 -0.001525 -0.001574 -0.000321
# 2 -0.006575 0.011966 -0.002095 -0.000886 -0.002359 0.000476
# 3 -0.001524 -0.002095 0.011334 -0.001668 0.003249 -0.001328
# 4 -0.001525 -0.000886 -0.001668 0.021648 -0.005215 -0.003780
# 5 -0.001574 -0.002359 0.003249 -0.005215 0.029825 0.001868
# 6 -0.000321 0.000476 -0.001328 -0.003780 0.001868 0.023435
#
#
# Mechanical properties :
#
#
# Convention : Reuss Voigt Hill
#
# Bulk Modulus (GPa) = 63.02562 71.52610 67.27586
# Shear Modulus (GPa) = 36.53898 41.73234 39.13566
#
# Velocity S-wave (km/s) = 3.91980 4.18911 4.05669
# Velocity P-wave (km/s) = 6.85485 7.31268 7.08746
#
# Compressibility (1/GPa) = 0.01586656
#
# Stress axis : x y z
#
# Youngs Moduli (GPa) = 77.19632 83.56688 88.22765
#
# Poissons Ratio (x) = 0.54943 0.13445
# Poissons Ratio (y) = 0.50755 0.18488
# Poissons Ratio (z) = 0.11764 0.17511
#
# Static dielectric constant tensor:
#      x y z
#    x 1.785410 -0.113500 -0.120380 
#    y -0.113500 1.859130 -0.131810 
#    z -0.120380 -0.131810 1.977990 
# 
# From -- ./inp_files/617234.got.cif
#   From: 2010.05.17/outbox.cif.g08.bks.cpg/sg2_309_cif.got.tgz:617234.got - 2010.06.03 11:33:40.
