data_PCOD9043935
_publ_section_title
;
Structure prediction by ZEFSAII (Michael W. Deem and Ramdas Pophale) SiO2 
 PCOD9043935
Probable space group: P -1
;
_chemical_formula_sum "Si O2"
_cell_formula_units_Z 16
_cell_length_a 5.686952
_cell_length_b 8.620052
_cell_length_c 16.424632
_cell_angle_alpha 72.226445
_cell_angle_beta 101.220961
_cell_angle_gamma 120.751813
_cell_volume 658.194763
_symmetry_space_group_name_H-M "P -1"
_symmetry_group_IT_number 2
_symmetry_cell_setting 'triclinic'
loop_
_space_group_symop_operation_xyz
x,y,z
-x,-y,-z
loop_
_atom_site_type_symbol
_atom_site_label
_atom_site_fract_x
_atom_site_fract_y
_atom_site_fract_z
Si Si1 0.921127 0.736379 0.315002
Si Si2 0.862739 0.337096 0.147097
Si Si3 0.483732 0.512575 0.097555
Si Si4 0.843821 0.072013 0.323970
Si Si5 0.952488 0.847484 0.129144
Si Si6 0.384640 0.730463 0.437831
Si Si7 0.803352 0.140507 0.020597
Si Si8 0.597304 0.594870 0.617706
O O1 0.060123 0.801998 0.225797
O O2 0.640202 0.543749 0.315066
O O3 0.088368 0.706460 0.403368
O O4 0.895678 0.913441 0.313024
O O5 0.189548 0.423048 0.137789
O O6 0.685833 0.431408 0.150385
O O7 0.769115 0.165042 0.229870
O O8 0.775289 0.277537 0.058089
O O9 0.630984 0.717759 0.113707
O O10 0.500000 0.500000 0.000000
O O11 0.112735 0.244418 0.355000
O O12 0.599790 0.941147 0.390045
O O13 0.982523 0.052289 0.087845
O O14 0.064898 0.790099 0.068365
O O15 0.470424 0.696292 0.537331
O O16 0.379741 0.563346 0.409356
O O17 0.500000 0.000000 0.000000
#
# Coordination Sequence:
#
# PCOD9043935 Si02
#       8
#     2   2   2   2   2   2   2   2
#     4  11  24  42  68 102 136 181 234 292 357 429
#     4  12  27  45  70 102 141 184 245 292 352 427
#     4  12  26  46  69 100 136 189 241 298 355 418
#     4  11  25  42  69 101 141 181 232 295 355 429
#     4  11  25  42  64  96 134 181 234 292 354 421
#     4  10  24  43  72  99 138 179 229 292 358 439
#     4  11  25  41  66  91 136 187 229 289 351 423
#     4  10  23  46  67 103 136 180 230 287 365 434
#
# _framework density 24.308914000000001
#
# number of rings (size 3 to 8) (size 9 to 14) (size 15 to 20)
#    0.000    1.000    2.500    2.625    8.750    1.500 
#    0.000    0.000    0.000    0.000    0.000    0.000 
#    0.000    0.000    0.000    0.000    0.000    0.000 
#
# Total GULP energy -89258.866295 kJ/mol
# GULP energy per Si atom -5578.679143 kJ/mol
# Density = 2.425359 g / cm^3
# Si number density = 24.308914 Si / 1000 Ang^3
#
#
#
# Elastic Constant Matrix: (Units=GPa)
#
#
# Indices 1 2 3 4 5 6 
#
# 1 85.4045 41.7331 28.6618 -21.1186 15.2233 2.6616
# 2 41.7331 99.7880 -11.4860 -10.1745 -13.3699 19.8038
# 3 28.6618 -11.4860 5.5329 -23.6868 -30.8041 -16.7109
# 4 -21.1186 -10.1745 -23.6868 38.2698 -6.5497 3.3324
# 5 15.2233 -13.3699 -30.8041 -6.5497 16.7978 -12.3413
# 6 2.6616 19.8038 -16.7109 3.3324 -12.3413 44.5450
#
#
#
# Elastic Compliance Matrix: (Units=1/GPa)
#
#
# Indices 1 2 3 4 5 6 
#
# 1 0.013063 -0.003763 0.006678 0.010764 0.004411 0.003814
# 2 -0.003763 0.011908 -0.005212 -0.002000 -0.003139 -0.007744
# 3 0.006678 -0.005212 -0.003068 -0.002666 -0.020284 -0.004653
# 4 0.010764 -0.002000 -0.002666 0.028825 -0.008958 -0.005392
# 5 0.004411 -0.003139 -0.020284 -0.008958 0.010145 -0.002997
# 6 0.003814 -0.007744 -0.004653 -0.005392 -0.002997 0.023492
#
#
# Mechanical properties :
#
#
# Convention : Reuss Voigt Hill
#
# Bulk Modulus (GPa) = 57.77447 34.28259 46.02853
# Shear Modulus (GPa) = 52.78159 28.71027 40.74593
#
# Velocity S-wave (km/s) = 4.66476 3.44038 4.09855
# Velocity P-wave (km/s) = 7.26854 5.46947 6.43222
#
# Compressibility (1/GPa) = 0.01730868
#
# Stress axis : x y z
#
# Youngs Moduli (GPa) = 76.54929 83.97944 -325.97628
#
# Poissons Ratio (x) = 0.31603 2.17677
# Poissons Ratio (y) = 0.28807 -1.69894
# Poissons Ratio (z) = -0.51117 0.43769
#
# Static dielectric constant tensor:
#      x y z
#    x 1.961820 0.072400 -0.015310 
#    y 0.072400 2.086500 -0.094770 
#    z -0.015310 -0.094770 1.960520 
# 
# From -- ./inp_files/47354.got.cif
#   From: 2010.05.17/outbox.cif.g08.bks.cpg/sg2_24_cif.got.tgz:47354.got - 2010.06.03 11:33:40.
