data_PCOD9043530
_publ_section_title
;
Structure prediction by ZEFSAII (Michael W. Deem and Ramdas Pophale) SiO2 
 PCOD9043530
Probable space group: P -1
;
_chemical_formula_sum "Si O2"
_cell_formula_units_Z 14
_cell_length_a 15.300180
_cell_length_b 14.776385
_cell_length_c 8.115678
_cell_angle_alpha 62.846473
_cell_angle_beta 79.825773
_cell_angle_gamma 27.673752
_cell_volume 632.956993
_symmetry_space_group_name_H-M "P -1"
_symmetry_group_IT_number 2
_symmetry_cell_setting 'triclinic'
loop_
_space_group_symop_operation_xyz
x,y,z
-x,-y,-z
loop_
_atom_site_type_symbol
_atom_site_label
_atom_site_fract_x
_atom_site_fract_y
_atom_site_fract_z
Si Si1 0.835904 0.583697 0.422818
Si Si2 0.193532 0.825727 0.709380
Si Si3 0.859506 0.880390 0.473808
Si Si4 0.376980 0.280560 0.309364
Si Si5 0.634758 0.357888 0.742560
Si Si6 0.843477 0.573199 0.054239
Si Si7 0.909469 0.224503 0.927867
O O1 0.657574 0.749090 0.488227
O O2 0.000000 0.500000 0.500000
O O3 0.755778 0.689781 0.172894
O O4 0.992083 0.319051 0.561053
O O5 0.168409 0.970703 0.638338
O O6 0.441019 0.549522 0.782563
O O7 0.154900 0.791701 0.900664
O O8 0.000000 0.000000 0.500000
O O9 0.619832 0.076830 0.391361
O O10 0.998656 0.691485 0.741705
O O11 0.188976 0.566225 0.154104
O O12 0.326605 0.275010 0.161103
O O13 0.500000 0.500000 0.500000
O O14 0.767856 0.325445 0.739771
O O15 0.822932 0.071711 0.931824
O O16 0.000000 0.500000 0.000000
#
# Coordination Sequence:
#
# PCOD9043530 Si02
#       7
#     2   2   2   2   2   2   2
#     4  10  24  45  70 102 138 172 225 296 346 408
#     4  12  23  44  66  96 145 186 225 285 337 397
#     4  10  26  43  67 103 137 182 233 284 343 414
#     4  12  23  47  70  99 143 179 229 287 341 415
#     4  11  24  40  62  95 135 180 230 276 331 395
#     4  10  23  45  72 101 131 175 231 280 354 418
#     4  11  26  40  66  98 137 188 228 273 341 407
#
# _framework density 22.118409
#
# number of rings (size 3 to 8) (size 9 to 14) (size 15 to 20)
#    0.857    0.286    4.286    1.286    4.000    2.286 
#    2.571    1.429    0.000    0.000    0.000    0.000 
#    0.000    0.000    0.000    0.000    0.000    0.000 
#
# Total GULP energy -78250.088379 kJ/mol
# GULP energy per Si atom -5589.292027 kJ/mol
# Density = 2.206807 g / cm^3
# Si number density = 22.118409 Si / 1000 Ang^3
#
#
#
# Elastic Constant Matrix: (Units=GPa)
#
#
# Indices 1 2 3 4 5 6 
#
# 1 106.4807 45.7505 52.8826 11.7800 13.0660 1.4043
# 2 45.7505 122.2216 73.6993 0.1746 9.0394 -5.5462
# 3 52.8826 73.6993 110.0888 13.6536 12.6506 5.9748
# 4 11.7800 0.1746 13.6536 55.1704 4.8569 -3.4554
# 5 13.0660 9.0394 12.6506 4.8569 49.2936 0.1403
# 6 1.4043 -5.5462 5.9748 -3.4554 0.1403 37.0973
#
#
#
# Elastic Compliance Matrix: (Units=1/GPa)
#
#
# Indices 1 2 3 4 5 6 
#
# 1 0.012835 -0.002021 -0.004414 -0.001501 -0.001750 -0.000210
# 2 -0.002021 0.014922 -0.009614 0.003027 -0.000043 0.004138
# 3 -0.004414 -0.009614 0.018522 -0.003773 -0.001436 -0.004599
# 4 -0.001501 0.003027 -0.003773 0.019655 -0.001134 0.002952
# 5 -0.001750 -0.000043 -0.001436 -0.001134 0.021238 0.000105
# 6 -0.000210 0.004138 -0.004599 0.002952 0.000105 0.028598
#
#
# Mechanical properties :
#
#
# Convention : Reuss Voigt Hill
#
# Bulk Modulus (GPa) = 70.50986 75.93954 73.22470
# Shear Modulus (GPa) = 32.76613 39.40950 36.08781
#
# Velocity S-wave (km/s) = 3.85307 4.22566 4.04366
# Velocity P-wave (km/s) = 7.19322 7.62994 7.41479
#
# Compressibility (1/GPa) = 0.01418241
#
# Stress axis : x y z
#
# Youngs Moduli (GPa) = 77.90897 67.01470 53.98848
#
# Poissons Ratio (x) = 0.13543 0.23831
# Poissons Ratio (y) = 0.15745 0.51904
# Poissons Ratio (z) = 0.34390 0.64427
#
# Static dielectric constant tensor:
#      x y z
#    x 1.885610 0.090080 0.057140 
#    y 0.090080 1.877670 0.069010 
#    z 0.057140 0.069010 1.894330 
# 
# From -- ./inp_files/312684.got.cif
#   From: 2010.05.17/outbox.cif.g08.bks.cpg/sg2_157_cif.got.tgz:312684.got - 2010.06.03 11:33:40.
