data_PCOD9043728
_publ_section_title
;
Structure prediction by ZEFSAII (Michael W. Deem and Ramdas Pophale) SiO2 
 PCOD9043728
Probable space group: P -1
;
_chemical_formula_sum "Si O2"
_cell_formula_units_Z 14
_cell_length_a 11.943470
_cell_length_b 16.964815
_cell_length_c 9.215944
_cell_angle_alpha 139.560500
_cell_angle_beta 35.410128
_cell_angle_gamma 149.204401
_cell_volume 542.113917
_symmetry_space_group_name_H-M "P -1"
_symmetry_group_IT_number 2
_symmetry_cell_setting 'triclinic'
loop_
_space_group_symop_operation_xyz
x,y,z
-x,-y,-z
loop_
_atom_site_type_symbol
_atom_site_label
_atom_site_fract_x
_atom_site_fract_y
_atom_site_fract_z
Si Si1 0.390069 0.972455 0.736811
Si Si2 0.583388 0.496646 0.071507
Si Si3 0.884102 0.638616 0.438846
Si Si4 0.034442 0.040216 0.188496
Si Si5 0.361694 0.064522 0.336336
Si Si6 0.174034 0.644647 0.410709
Si Si7 0.086342 0.738771 0.053358
O O1 0.579031 0.020351 0.731056
O O2 0.500000 0.000000 0.500000
O O3 0.216526 0.785447 0.650229
O O4 0.264592 0.049508 0.002628
O O5 0.591590 0.351310 0.858407
O O6 0.859362 0.639075 0.039638
O O7 0.500000 0.500000 0.000000
O O8 0.392943 0.480159 0.365504
O O9 0.921392 0.799418 0.624121
O O10 0.055540 0.636719 0.371816
O O11 0.960906 0.637058 0.191462
O O12 0.799145 0.910732 0.358417
O O13 0.000000 0.000000 0.000000
O O14 0.174742 0.916602 0.220715
O O15 0.638112 0.213582 0.199531
O O16 0.000000 0.500000 0.500000
#
# Coordination Sequence:
#
# PCOD9043728 Si02
#       7
#     2   2   2   2   2   2   2
#     4  12  22  41  75 113 154 193 256 324 382 454
#     4  12  26  47  76 110 152 203 260 316 380 469
#     4  11  24  47  76 111 157 198 259 316 393 461
#     4  11  21  41  74 117 148 201 254 323 388 450
#     4  10  23  45  74 106 157 197 256 318 380 465
#     4  12  25  44  72 116 153 199 252 315 391 451
#     4  10  24  50  73 110 156 205 253 313 396 457
#
# _framework density 25.824831
#
# number of rings (size 3 to 8) (size 9 to 14) (size 15 to 20)
#    0.000    0.857    4.286    3.000    0.000    0.571 
#    0.000   10.714    0.000    0.000    0.000    0.000 
#    0.000    0.000    0.000    0.000    0.000    0.000 
#
# Total GULP energy -78232.284448 kJ/mol
# GULP energy per Si atom -5588.020318 kJ/mol
# Density = 2.576605 g / cm^3
# Si number density = 25.824831 Si / 1000 Ang^3
#
#
#
# Elastic Constant Matrix: (Units=GPa)
#
#
# Indices 1 2 3 4 5 6 
#
# 1 174.2359 56.9856 51.3300 -5.5890 -6.6850 -3.3267
# 2 56.9856 114.1225 44.9454 -22.3225 8.7330 2.5304
# 3 51.3300 44.9454 152.7224 -44.8819 -10.4108 -5.5652
# 4 -5.5890 -22.3225 -44.8819 53.1173 -7.8298 -5.3986
# 5 -6.6850 8.7330 -10.4108 -7.8298 46.7201 10.7916
# 6 -3.3267 2.5304 -5.5652 -5.3986 10.7916 46.6091
#
#
#
# Elastic Compliance Matrix: (Units=1/GPa)
#
#
# Indices 1 2 3 4 5 6 
#
# 1 0.007432 -0.003392 -0.002123 -0.002314 0.000837 -0.000001
# 2 -0.003392 0.011880 -0.001721 0.002784 -0.002583 -0.000172
# 3 -0.002123 -0.001721 0.010608 0.008677 0.003512 0.001400
# 4 -0.002314 0.002784 0.008677 0.028127 0.005153 0.002785
# 5 0.000837 -0.002583 0.003512 0.005153 0.024693 -0.004501
# 6 -0.000001 -0.000172 0.001400 0.002785 -0.004501 0.022996
#
#
# Mechanical properties :
#
#
# Convention : Reuss Voigt Hill
#
# Bulk Modulus (GPa) = 64.72472 83.06700 73.89586
# Shear Modulus (GPa) = 39.88691 48.47730 44.18210
#
# Velocity S-wave (km/s) = 3.93430 4.33732 4.14072
# Velocity P-wave (km/s) = 6.76429 7.57090 7.17893
#
# Compressibility (1/GPa) = 0.01545005
#
# Stress axis : x y z
#
# Youngs Moduli (GPa) = 134.55703 84.17798 94.26818
#
# Poissons Ratio (x) = 0.28550 0.20009
# Poissons Ratio (y) = 0.45636 0.16219
# Poissons Ratio (z) = 0.28561 0.14483
#
# Static dielectric constant tensor:
#      x y z
#    x 2.041340 0.062000 0.131310 
#    y 0.062000 2.213450 -0.019130 
#    z 0.131310 -0.019130 2.106840 
# 
# From -- ./inp_files/276773.got.cif
#   From: 2010.05.17/outbox.cif.g08.bks.cpg/sg2_139_cif.got.tgz:276773.got - 2010.06.03 11:33:40.
