data_PCOD9043224
_publ_section_title
;
Structure prediction by ZEFSAII (Michael W. Deem and Ramdas Pophale) SiO2 
 PCOD9043224
Probable space group: P -1
;
_chemical_formula_sum "Si O2"
_cell_formula_units_Z 14
_cell_length_a 10.126344
_cell_length_b 8.576727
_cell_length_c 22.241202
_cell_angle_alpha 140.616227
_cell_angle_beta 27.686245
_cell_angle_gamma 137.561244
_cell_volume 559.996369
_symmetry_space_group_name_H-M "P -1"
_symmetry_group_IT_number 2
_symmetry_cell_setting 'triclinic'
loop_
_space_group_symop_operation_xyz
x,y,z
-x,-y,-z
loop_
_atom_site_type_symbol
_atom_site_label
_atom_site_fract_x
_atom_site_fract_y
_atom_site_fract_z
Si Si1 0.213744 0.868943 0.336753
Si Si2 0.932269 0.322787 0.263158
Si Si3 0.501423 0.781649 0.844609
Si Si4 0.889871 0.102465 0.867001
Si Si5 0.323608 0.708994 0.769398
Si Si6 0.436418 0.174562 0.522010
Si Si7 0.563256 0.266031 0.673525
O O1 0.424530 0.773745 0.272287
O O2 0.051982 0.615907 0.296914
O O3 0.387238 0.084749 0.291101
O O4 0.000000 0.000000 0.500000
O O5 0.859106 0.234684 0.198162
O O6 0.670297 0.285285 0.407467
O O7 0.141184 0.156580 0.159330
O O8 0.272621 0.756007 0.874024
O O9 0.673274 0.552661 0.698714
O O10 0.744543 0.022422 0.837041
O O11 0.299166 0.735923 0.971575
O O12 0.230269 0.205835 0.766752
O O13 0.358264 0.423837 0.656487
O O14 0.500000 0.000000 0.500000
O O15 0.262651 0.938488 0.484664
#
# Coordination Sequence:
#
# PCOD9043224 Si02
#       7
#     2   2   2   2   2   2   2
#     4  12  23  41  67  96 136 182 210 260 342 394
#     4  11  23  43  66  93 137 174 216 271 327 396
#     4  11  24  43  70  95 129 174 226 274 325 386
#     4  10  23  45  69  93 128 175 227 272 324 387
#     4  12  24  42  65 101 135 169 220 272 331 390
#     4  11  21  40  66  96 131 169 216 268 324 395
#     4  11  22  43  67  95 132 175 219 271 328 388
#
# _framework density 25.000162
#
# number of rings (size 3 to 8) (size 9 to 14) (size 15 to 20)
#    0.000    0.857    7.143    1.714    0.000    1.714 
#    5.143    5.000    0.000    0.000    0.000    0.000 
#    0.000    0.000    0.000    0.000    0.000    0.000 
#
# Total GULP energy -77962.363241 kJ/mol
# GULP energy per Si atom -5568.740232 kJ/mol
# Density = 2.494326 g / cm^3
# Si number density = 25.000162 Si / 1000 Ang^3
#
#
#
# Elastic Constant Matrix: (Units=GPa)
#
#
# Indices 1 2 3 4 5 6 
#
# 1 170.2299 18.5137 35.4747 -1.9005 32.2279 21.8502
# 2 18.5137 91.7746 16.8190 19.7414 7.8847 2.9104
# 3 35.4747 16.8190 60.0169 16.2061 10.5802 6.7533
# 4 -1.9005 19.7414 16.2061 27.5218 5.5268 -0.5819
# 5 32.2279 7.8847 10.5802 5.5268 37.9614 12.0506
# 6 21.8502 2.9104 6.7533 -0.5819 12.0506 40.1088
#
#
#
# Elastic Compliance Matrix: (Units=1/GPa)
#
#
# Indices 1 2 3 4 5 6 
#
# 1 0.008435 -0.001465 -0.004871 0.005611 -0.005723 -0.001868
# 2 -0.001465 0.013288 -0.000272 -0.009483 0.000024 -0.000265
# 3 -0.004871 -0.000272 0.023565 -0.014084 0.000166 -0.001549
# 4 0.005611 -0.009483 -0.014084 0.053413 -0.007619 0.003066
# 5 -0.005723 0.000024 0.000166 -0.007619 0.034615 -0.007423
# 6 -0.001868 -0.000265 -0.001549 0.003066 -0.007423 0.028504
#
#
# Mechanical properties :
#
#
# Convention : Reuss Voigt Hill
#
# Bulk Modulus (GPa) = 31.17956 51.51511 41.34734
# Shear Modulus (GPa) = 26.92131 37.86600 32.39365
#
# Velocity S-wave (km/s) = 3.28509 3.89605 3.60354
# Velocity P-wave (km/s) = 5.18536 6.39449 5.82140
#
# Compressibility (1/GPa) = 0.03207229
#
# Stress axis : x y z
#
# Youngs Moduli (GPa) = 118.55769 75.25729 42.43502
#
# Poissons Ratio (x) = 0.11025 0.20671
# Poissons Ratio (y) = 0.17368 0.01152
# Poissons Ratio (z) = 0.57752 0.02044
#
# Static dielectric constant tensor:
#      x y z
#    x 2.164230 0.044260 0.045830 
#    y 0.044260 1.915970 -0.019990 
#    z 0.045830 -0.019990 2.016240 
# 
# From -- ./inp_files/221762.got.cif
#   From: 2010.05.17/outbox.cif.g08.bks.cpg/sg2_111_cif.got.tgz:221762.got - 2010.06.03 11:33:40.
