data_PCOD9043630
_publ_section_title
;
Structure prediction by ZEFSAII (Michael W. Deem and Ramdas Pophale) SiO2 
 PCOD9043630
Probable space group: P -1
;
_chemical_formula_sum "Si O2"
_cell_formula_units_Z 12
_cell_length_a 19.465380
_cell_length_b 12.900272
_cell_length_c 16.145546
_cell_angle_alpha 151.285910
_cell_angle_beta 15.138041
_cell_angle_gamma 153.600407
_cell_volume 468.064730
_symmetry_space_group_name_H-M "P -1"
_symmetry_group_IT_number 2
_symmetry_cell_setting 'triclinic'
loop_
_space_group_symop_operation_xyz
x,y,z
-x,-y,-z
loop_
_atom_site_type_symbol
_atom_site_label
_atom_site_fract_x
_atom_site_fract_y
_atom_site_fract_z
Si Si1 0.497023 0.759430 0.718314
Si Si2 0.829667 0.517803 0.630474
Si Si3 0.882664 0.967982 0.816944
Si Si4 0.573161 0.619486 0.351792
Si Si5 0.314253 0.167820 0.225707
Si Si6 0.601632 0.022619 0.491902
O O1 0.445608 0.709970 0.644559
O O2 0.302894 0.540727 0.848375
O O3 0.831638 0.808372 0.379731
O O4 0.473089 0.996357 0.939984
O O5 0.995291 0.780331 0.592011
O O6 0.000000 0.500000 0.500000
O O7 0.814450 0.293214 0.439937
O O8 0.500000 0.500000 0.000000
O O9 0.695725 0.829575 0.860023
O O10 0.684160 0.017989 0.150115
O O11 0.404277 0.417774 0.339828
O O12 0.715376 0.847673 0.287040
O O13 0.000000 0.000000 0.500000
O O14 0.500000 0.000000 0.500000
#
# Coordination Sequence:
#
# PCOD9043630 Si02
#       6
#     2   2   2   2   2   2
#     4  11  25  46  70 113 145 185 244 309 385 443
#     4  10  23  45  73 104 143 202 251 305 375 445
#     4  11  24  46  75 100 150 193 238 318 369 450
#     4  11  24  44  73 105 148 186 242 309 370 456
#     4  12  25  45  71 109 146 190 239 297 388 454
#     4  11  24  48  71 109 148 199 258 304 378 451
#
# _framework density 25.637478000000002
#
# number of rings (size 3 to 8) (size 9 to 14) (size 15 to 20)
#    0.000    1.000    3.333    2.500    2.333    4.000 
#    3.000    4.167    0.000    0.000    0.000    0.000 
#    0.000    0.000    0.000    0.000    0.000    0.000 
#
# Total GULP energy -66870.336201 kJ/mol
# GULP energy per Si atom -5572.528017 kJ/mol
# Density = 2.557913 g / cm^3
# Si number density = 25.637478 Si / 1000 Ang^3
#
#
#
# Elastic Constant Matrix: (Units=GPa)
#
#
# Indices 1 2 3 4 5 6 
#
# 1 218.5054 5.1284 22.1078 17.9771 19.5102 3.6975
# 2 5.1284 52.0986 10.2448 16.4894 1.4986 -0.5448
# 3 22.1078 10.2448 95.6114 -7.9804 4.3986 1.9943
# 4 17.9771 16.4894 -7.9804 27.4076 -2.6254 0.3021
# 5 19.5102 1.4986 4.3986 -2.6254 32.2691 14.1444
# 6 3.6975 -0.5448 1.9943 0.3021 14.1444 67.7614
#
#
#
# Elastic Compliance Matrix: (Units=1/GPa)
#
#
# Indices 1 2 3 4 5 6 
#
# 1 0.005501 0.001656 -0.001742 -0.005490 -0.003874 0.000598
# 2 0.001656 0.025828 -0.004537 -0.018297 -0.003541 0.001071
# 3 -0.001742 -0.004537 0.011955 0.007398 0.000417 -0.000413
# 4 -0.005490 -0.018297 0.007398 0.054084 0.008470 -0.002074
# 5 -0.003874 -0.003541 0.000417 0.008470 0.037501 -0.007695
# 6 0.000598 0.001071 -0.000413 -0.002074 -0.007695 0.016361
#
#
# Mechanical properties :
#
#
# Convention : Reuss Voigt Hill
#
# Bulk Modulus (GPa) = 29.37860 49.01970 39.19915
# Shear Modulus (GPa) = 29.09983 47.40324 38.25154
#
# Velocity S-wave (km/s) = 3.37271 4.30464 3.86685
# Velocity P-wave (km/s) = 5.16246 6.62333 5.93799
#
# Compressibility (1/GPa) = 0.03403839
#
# Stress axis : x y z
#
# Youngs Moduli (GPa) = 181.77168 38.71798 83.64819
#
# Poissons Ratio (x) = -0.06413 0.14571
# Poissons Ratio (y) = -0.30106 0.37952
# Poissons Ratio (z) = 0.31664 0.17567
#
# Static dielectric constant tensor:
#      x y z
#    x 2.449950 0.014040 -0.629220 
#    y 0.014040 1.962800 -0.171920 
#    z -0.629220 -0.171920 3.239890 
# 
# From -- ./inp_files/538478.got.cif
#   From: 2010.05.17/outbox.cif.g08.bks.cpg/sg2_270_cif.got.tgz:538478.got - 2010.06.03 11:33:40.
