data_PCOD9043410
_publ_section_title
;
Structure prediction by ZEFSAII (Michael W. Deem and Ramdas Pophale) SiO2 
 PCOD9043410
Probable space group: P -1
;
_chemical_formula_sum "Si O2"
_cell_formula_units_Z 16
_cell_length_a 11.726652
_cell_length_b 5.593739
_cell_length_c 15.239165
_cell_angle_alpha 91.786282
_cell_angle_beta 73.281009
_cell_angle_gamma 44.576745
_cell_volume 629.135315
_symmetry_space_group_name_H-M "P -1"
_symmetry_group_IT_number 2
_symmetry_cell_setting 'triclinic'
loop_
_space_group_symop_operation_xyz
x,y,z
-x,-y,-z
loop_
_atom_site_type_symbol
_atom_site_label
_atom_site_fract_x
_atom_site_fract_y
_atom_site_fract_z
Si Si1 0.971621 0.467535 0.647056
Si Si2 0.807331 0.820024 0.994931
Si Si3 0.524720 0.607445 0.796346
Si Si4 0.960422 0.143761 0.108920
Si Si5 0.437029 0.227426 0.733307
Si Si6 0.127967 0.604174 0.505806
Si Si7 0.800066 0.494767 0.843402
Si Si8 0.337946 0.583753 0.569599
O O1 0.042251 0.624416 0.613477
O O2 0.864113 0.583027 0.580455
O O3 0.843991 0.612478 0.757909
O O4 0.151467 0.026755 0.613393
O O5 0.880926 0.904529 0.911458
O O6 0.727873 0.727435 0.951322
O O7 0.000000 0.500000 0.000000
O O8 0.657575 0.123576 0.100857
O O9 0.531895 0.329078 0.750893
O O10 0.680229 0.469714 0.825828
O O11 0.518774 0.837470 0.729546
O O12 0.753171 0.520623 0.169011
O O13 0.003957 0.881818 0.168751
O O14 0.000000 0.000000 0.000000
O O15 0.382064 0.388300 0.649034
O O16 0.312374 0.428217 0.497091
O O17 0.000000 0.000000 0.500000
O O18 0.500000 0.500000 0.500000
#
# Coordination Sequence:
#
# PCOD9043410 Si02
#       8
#     2   2   2   2   2   2   2   2
#     4  10  23  45  71 100 140 189 245 300 373 441
#     4  12  24  43  72 103 147 192 246 303 370 437
#     4  12  29  48  71 111 155 193 250 308 368 441
#     4  12  23  44  73 103 144 194 246 302 370 439
#     4  12  27  49  73 108 151 198 249 306 371 443
#     4   9  22  43  67  99 138 181 236 304 370 432
#     4  12  27  43  73 104 143 201 244 310 365 449
#     4  11  26  43  73 103 142 189 246 307 369 439
#
# _framework density 25.431733000000001
#
# number of rings (size 3 to 8) (size 9 to 14) (size 15 to 20)
#    0.000    0.750    5.000    0.375    7.000    4.000 
#    0.000    0.000    0.000    0.000    0.000    0.000 
#    0.000    0.000    0.000    0.000    0.000    0.000 
#
# Total GULP energy -89351.981153 kJ/mol
# GULP energy per Si atom -5584.498822 kJ/mol
# Density = 2.537385 g / cm^3
# Si number density = 25.431733 Si / 1000 Ang^3
#
#
#
# Elastic Constant Matrix: (Units=GPa)
#
#
# Indices 1 2 3 4 5 6 
#
# 1 161.0989 31.8786 43.7209 -12.9663 8.4850 -7.6205
# 2 31.8786 112.7514 39.5660 -25.4638 5.7275 -0.8788
# 3 43.7209 39.5660 116.8906 -20.6204 -2.5921 -12.7379
# 4 -12.9663 -25.4638 -20.6204 43.2244 0.8509 -0.5439
# 5 8.4850 5.7275 -2.5921 0.8509 38.3323 -12.0930
# 6 -7.6205 -0.8788 -12.7379 -0.5439 -12.0930 36.5011
#
#
#
# Elastic Compliance Matrix: (Units=1/GPa)
#
#
# Indices 1 2 3 4 5 6 
#
# 1 0.007153 -0.001043 -0.002250 0.000491 -0.001533 0.000182
# 2 -0.001043 0.011398 -0.002794 0.005094 -0.002278 -0.001597
# 3 -0.002250 -0.002794 0.011456 0.003141 0.003045 0.004517
# 4 0.000491 0.005094 0.003141 0.027816 -0.000812 0.001467
# 5 -0.001533 -0.002278 0.003045 -0.000812 0.030380 0.010741
# 6 0.000182 -0.001597 0.004517 0.001467 0.010741 0.032553
#
#
# Mechanical properties :
#
#
# Convention : Reuss Voigt Hill
#
# Bulk Modulus (GPa) = 56.07424 69.00800 62.54112
# Shear Modulus (GPa) = 36.00380 41.98326 38.99353
#
# Velocity S-wave (km/s) = 3.76667 4.06744 3.91994
# Velocity P-wave (km/s) = 6.40420 7.01800 6.71811
#
# Compressibility (1/GPa) = 0.01783350
#
# Stress axis : x y z
#
# Youngs Moduli (GPa) = 139.79670 87.73472 87.28868
#
# Poissons Ratio (x) = 0.09149 0.19641
# Poissons Ratio (y) = 0.14578 0.24389
# Poissons Ratio (z) = 0.31457 0.24514
#
# Static dielectric constant tensor:
#      x y z
#    x 2.308390 0.306350 -0.143450 
#    y 0.306350 2.319460 -0.081830 
#    z -0.143450 -0.081830 2.062510 
# 
# From -- ./inp_files/510973.got.cif
#   From: 2010.05.17/outbox.cif.g08.bks.cpg/sg2_256_cif.got.tgz:510973.got - 2010.06.03 11:33:40.
