data_PCOD9043803
_publ_section_title
;
Structure prediction by ZEFSAII (Michael W. Deem and Ramdas Pophale) SiO2 
 PCOD9043803
Probable space group: P -1
;
_chemical_formula_sum "Si O2"
_cell_formula_units_Z 16
_cell_length_a 12.862831
_cell_length_b 10.958457
_cell_length_c 11.821910
_cell_angle_alpha 71.399077
_cell_angle_beta 144.654156
_cell_angle_gamma 82.606224
_cell_volume 644.104464
_symmetry_space_group_name_H-M "P -1"
_symmetry_group_IT_number 2
_symmetry_cell_setting 'triclinic'
loop_
_space_group_symop_operation_xyz
x,y,z
-x,-y,-z
loop_
_atom_site_type_symbol
_atom_site_label
_atom_site_fract_x
_atom_site_fract_y
_atom_site_fract_z
Si Si1 0.822195 0.232767 0.226768
Si Si2 0.117335 0.714234 0.148707
Si Si3 0.072910 0.232265 0.656922
Si Si4 0.366448 0.015654 0.199657
Si Si5 0.397166 0.360654 0.371293
Si Si6 0.410564 0.373090 0.133747
Si Si7 0.830179 0.983457 0.613229
Si Si8 0.329973 0.349020 0.809534
O O1 0.945749 0.200135 0.466507
O O2 0.032169 0.105110 0.356559
O O3 0.664749 0.441186 0.995627
O O4 0.611535 0.230377 0.051101
O O5 0.194006 0.538541 0.214962
O O6 0.372978 0.652463 0.439353
O O7 0.026548 0.851085 0.924644
O O8 0.878633 0.829266 0.986124
O O9 0.231830 0.258225 0.718558
O O10 0.853664 0.439479 0.452384
O O11 0.252483 0.075448 0.954691
O O12 0.490066 0.821077 0.412840
O O13 0.590696 0.007855 0.406810
O O14 0.298805 0.380546 0.151539
O O15 0.707539 0.185619 0.458305
O O16 0.328350 0.356325 0.944174
#
# Coordination Sequence:
#
# PCOD9043803 Si02
#       8
#     2   2   2   2   2   2   2   2
#     4  11  26  47  76 105 148 198 239 299 363 422
#     4  11  26  46  70 109 141 186 243 296 360 444
#     4  10  23  47  74 110 146 191 246 295 364 433
#     4  12  26  46  72 104 147 189 229 306 365 424
#     4  11  26  45  75 107 139 188 241 299 367 433
#     4  11  22  45  72 104 143 185 240 291 365 425
#     4  12  26  45  70 107 145 187 247 293 358 442
#     4  10  23  45  76 106 143 198 240 301 356 430
#
# _framework density 24.840689999999999
#
# number of rings (size 3 to 8) (size 9 to 14) (size 15 to 20)
#    0.000    1.000    3.750    2.250    3.500    2.500 
#    2.250    1.250    0.000    0.000    0.000    0.000 
#    0.000    0.000    0.000    0.000    0.000    0.000 
#
# Total GULP energy -89682.722244 kJ/mol
# GULP energy per Si atom -5605.170140 kJ/mol
# Density = 2.478415 g / cm^3
# Si number density = 24.840690 Si / 1000 Ang^3
#
#
#
# Elastic Constant Matrix: (Units=GPa)
#
#
# Indices 1 2 3 4 5 6 
#
# 1 103.0396 40.1643 33.5114 -11.2923 9.2261 -0.8434
# 2 40.1643 68.7251 25.7491 -37.2944 13.9501 -2.6565
# 3 33.5114 25.7491 79.9861 -21.8594 -5.8883 4.0899
# 4 -11.2923 -37.2944 -21.8594 42.0806 1.5106 5.5657
# 5 9.2261 13.9501 -5.8883 1.5106 58.8432 -0.6822
# 6 -0.8434 -2.6565 4.0899 5.5657 -0.6822 28.7986
#
#
#
# Elastic Compliance Matrix: (Units=1/GPa)
#
#
# Indices 1 2 3 4 5 6 
#
# 1 0.014986 -0.011985 -0.005098 -0.009509 0.000248 0.001901
# 2 -0.011985 0.042140 0.000607 0.035242 -0.008996 -0.003574
# 3 -0.005098 0.000607 0.017144 0.008547 0.002104 -0.004130
# 4 -0.009509 0.035242 0.008547 0.058445 -0.007622 -0.009717
# 5 0.000248 -0.008996 0.002104 -0.007622 0.019504 0.000814
# 6 0.001901 -0.003574 -0.004130 -0.009717 0.000814 0.036934
#
#
# Mechanical properties :
#
#
# Convention : Reuss Voigt Hill
#
# Bulk Modulus (GPa) = 24.20196 50.06671 37.13433
# Shear Modulus (GPa) = 21.19754 36.09953 28.64853
#
# Velocity S-wave (km/s) = 2.92437 3.81628 3.39970
# Velocity P-wave (km/s) = 4.60071 6.29424 5.51290
#
# Compressibility (1/GPa) = 0.04131896
#
# Stress axis : x y z
#
# Youngs Moduli (GPa) = 66.72892 23.73056 58.32803
#
# Poissons Ratio (x) = 0.28441 0.29736
# Poissons Ratio (y) = 0.79974 -0.03543
# Poissons Ratio (z) = 0.34019 -0.01441
#
# Static dielectric constant tensor:
#      x y z
#    x 1.964100 0.015570 -0.001580 
#    y 0.015570 1.963690 0.008800 
#    z -0.001580 0.008800 1.962210 
# 
# From -- ./inp_files/428033.got.cif
#   From: 2010.05.17/outbox.cif.g08.bks.cpg/sg2_215_cif.got.tgz:428033.got - 2010.06.03 11:33:40.
