data_PCOD9043635
_publ_section_title
;
Structure prediction by ZEFSAII (Michael W. Deem and Ramdas Pophale) SiO2 
 PCOD9043635
Probable space group: P -1
;
_chemical_formula_sum "Si O2"
_cell_formula_units_Z 16
_cell_length_a 17.050568
_cell_length_b 12.419109
_cell_length_c 12.559071
_cell_angle_alpha 118.884461
_cell_angle_beta 42.305770
_cell_angle_gamma 149.564971
_cell_volume 808.171751
_symmetry_space_group_name_H-M "P -1"
_symmetry_group_IT_number 2
_symmetry_cell_setting 'triclinic'
loop_
_space_group_symop_operation_xyz
x,y,z
-x,-y,-z
loop_
_atom_site_type_symbol
_atom_site_label
_atom_site_fract_x
_atom_site_fract_y
_atom_site_fract_z
Si Si1 0.171261 0.742684 0.761016
Si Si2 0.478460 0.252950 0.750038
Si Si3 0.655808 0.356649 0.389984
Si Si4 0.716372 0.621785 0.301963
Si Si5 0.290540 0.642271 0.230696
Si Si6 0.249004 0.841260 0.489125
Si Si7 0.886461 0.870376 0.939297
Si Si8 0.263162 0.507517 0.993353
O O1 0.212929 0.654602 0.739791
O O2 0.263819 0.801914 0.576268
O O3 0.919508 0.565105 0.909334
O O4 0.303346 0.979681 0.788226
O O5 0.609895 0.365147 0.559241
O O6 0.627199 0.367530 0.759709
O O7 0.658046 0.172250 0.694744
O O8 0.772480 0.563340 0.299239
O O9 0.410264 0.105096 0.462701
O O10 0.500000 0.500000 0.500000
O O11 0.659514 0.506092 0.189521
O O12 0.926800 0.905816 0.219861
O O13 0.338324 0.251775 0.900313
O O14 0.401311 0.712262 0.038202
O O15 0.016615 0.386751 0.376035
O O16 0.839114 0.684144 0.910509
O O17 0.000000 0.000000 0.000000
#
# Coordination Sequence:
#
# PCOD9043635 Si02
#       8
#     2   2   2   2   2   2   2   2
#     4  10  17  33  61  89 117 140 198 237 281 324
#     4  11  18  35  62  90 112 147 197 239 278 337
#     4  11  20  34  62  93 117 146 192 240 286 338
#     4  11  24  38  60  85 111 155 196 238 294 335
#     4  10  19  32  59  86 120 148 195 226 288 339
#     4   9  18  32  54  92 120 150 183 235 281 345
#     4  10  20  39  60  83 110 149 198 245 273 329
#     4  10  22  39  60  86 115 154 197 237 280 347
#
# _framework density 19.797771999999998
#
# number of rings (size 3 to 8) (size 9 to 14) (size 15 to 20)
#    0.000    1.750    5.000    2.250    3.500    1.000 
#    0.000    0.625    2.750    1.500    0.000    0.000 
#    0.000    0.000    0.000    0.000    0.000    0.000 
#
# Total GULP energy -89143.537713 kJ/mol
# GULP energy per Si atom -5571.471107 kJ/mol
# Density = 1.975271 g / cm^3
# Si number density = 19.797772 Si / 1000 Ang^3
#
#
#
# Elastic Constant Matrix: (Units=GPa)
#
#
# Indices 1 2 3 4 5 6 
#
# 1 112.5473 27.3245 16.5738 -5.3540 0.8025 -4.1133
# 2 27.3245 22.4804 17.0369 10.4107 4.9347 2.1274
# 3 16.5738 17.0369 86.2656 25.7202 2.7750 -6.9881
# 4 -5.3540 10.4107 25.7202 32.5482 -2.6530 7.7976
# 5 0.8025 4.9347 2.7750 -2.6530 26.7177 4.7343
# 6 -4.1133 2.1274 -6.9881 7.7976 4.7343 42.8706
#
#
#
# Elastic Compliance Matrix: (Units=1/GPa)
#
#
# Indices 1 2 3 4 5 6 
#
# 1 0.015712 -0.024524 -0.002216 0.012782 0.005661 -0.000587
# 2 -0.024524 0.097224 -0.003612 -0.034100 -0.020352 0.000683
# 3 -0.002216 -0.003612 0.017817 -0.015027 -0.003674 0.006010
# 4 0.012782 -0.034100 -0.015027 0.059780 0.015559 -0.012123
# 5 0.005661 -0.020352 -0.003674 0.015559 0.044140 -0.006750
# 6 -0.000587 0.000683 0.006010 -0.012123 -0.006750 0.027166
#
#
# Mechanical properties :
#
#
# Convention : Reuss Voigt Hill
#
# Bulk Modulus (GPa) = 14.27600 38.12929 26.20265
# Shear Modulus (GPa) = 14.45534 31.11786 22.78660
#
# Velocity S-wave (km/s) = 2.70506 3.96888 3.39627
# Velocity P-wave (km/s) = 4.12105 6.34853 5.35196
#
# Compressibility (1/GPa) = 0.07004762
#
# Stress axis : x y z
#
# Youngs Moduli (GPa) = 63.64670 10.28551 56.12729
#
# Poissons Ratio (x) = 0.25225 0.12436
# Poissons Ratio (y) = 1.56089 0.20275
# Poissons Ratio (z) = 0.14102 0.03716
#
# Static dielectric constant tensor:
#      x y z
#    x 1.701770 -0.006760 -0.001150 
#    y -0.006760 1.727650 0.007790 
#    z -0.001150 0.007790 1.752360 
# 
# From -- ./inp_files/450300.got.cif
#   From: 2010.05.17/outbox.cif.g08.bks.cpg/sg2_226_cif.got.tgz:450300.got - 2010.06.03 11:33:40.
