data_PCOD9043970
_publ_section_title
;
Structure prediction by ZEFSAII (Michael W. Deem and Ramdas Pophale) SiO2 
 PCOD9043970
Probable space group: P -1
;
_chemical_formula_sum "Si O2"
_cell_formula_units_Z 14
_cell_length_a 15.736945
_cell_length_b 24.813526
_cell_length_c 5.928517
_cell_angle_alpha 67.446877
_cell_angle_beta 105.474794
_cell_angle_gamma 162.802331
_cell_volume 588.602131
_symmetry_space_group_name_H-M "P -1"
_symmetry_group_IT_number 2
_symmetry_cell_setting 'triclinic'
loop_
_space_group_symop_operation_xyz
x,y,z
-x,-y,-z
loop_
_atom_site_type_symbol
_atom_site_label
_atom_site_fract_x
_atom_site_fract_y
_atom_site_fract_z
Si Si1 0.415138 0.701691 0.558108
Si Si2 0.270479 0.001565 0.179881
Si Si3 0.646241 0.445285 0.936284
Si Si4 0.302525 0.914612 0.664050
Si Si5 0.374568 0.399408 0.825431
Si Si6 0.286818 0.141589 0.914230
Si Si7 0.300143 0.755249 0.294247
O O1 0.684902 0.864629 0.307391
O O2 0.390075 0.754983 0.505273
O O3 0.064804 0.469531 0.592243
O O4 0.463650 0.678721 0.794932
O O5 0.212212 0.916234 0.463666
O O6 0.986382 0.814631 0.103741
O O7 0.271880 0.069912 0.148415
O O8 0.585985 0.187696 0.969976
O O9 0.442215 0.373449 0.917558
O O10 0.584366 0.373711 0.770323
O O11 0.989391 0.681465 0.864928
O O12 0.500000 0.000000 0.500000
O O13 0.513205 0.070668 0.766343
O O14 0.500000 0.500000 0.500000
O O15 0.500000 0.500000 0.000000
O O16 0.000000 0.000000 0.000000
#
# Coordination Sequence:
#
# PCOD9043970 Si02
#       7
#     2   2   2   2   2   2   2
#     4  10  24  44  71  99 140 186 237 308 367 442
#     4  11  24  45  69 100 143 189 238 305 364 442
#     4  12  25  42  68 103 140 186 240 303 363 445
#     4  12  25  41  70 102 138 185 237 299 366 444
#     4  12  27  46  71 107 152 197 245 310 378 443
#     4  11  24  44  68 101 138 183 244 295 371 437
#     4  10  23  46  68 101 140 186 241 300 373 438
#
# _framework density 23.785166
#
# number of rings (size 3 to 8) (size 9 to 14) (size 15 to 20)
#    0.000    0.857    2.857    3.429    2.000    5.143 
#    0.000    5.714    0.000    0.000    0.000    0.000 
#    0.000    0.000    0.000    0.000    0.000    0.000 
#
# Total GULP energy -78129.877344 kJ/mol
# GULP energy per Si atom -5580.705525 kJ/mol
# Density = 2.373103 g / cm^3
# Si number density = 23.785166 Si / 1000 Ang^3
#
#
#
# Elastic Constant Matrix: (Units=GPa)
#
#
# Indices 1 2 3 4 5 6 
#
# 1 143.3872 21.4089 34.0210 8.8065 13.7395 -12.5094
# 2 21.4089 85.0426 7.5163 -10.1171 0.6909 -22.9830
# 3 34.0210 7.5163 74.9571 -8.5467 13.7565 -0.4869
# 4 8.8065 -10.1171 -8.5467 31.0845 6.9795 4.0448
# 5 13.7395 0.6909 13.7565 6.9795 41.6665 -13.1554
# 6 -12.5094 -22.9830 -0.4869 4.0448 -13.1554 47.1413
#
#
#
# Elastic Compliance Matrix: (Units=1/GPa)
#
#
# Indices 1 2 3 4 5 6 
#
# 1 0.008690 -0.001887 -0.004215 -0.004413 -0.000175 0.001672
# 2 -0.001887 0.014562 -0.000511 0.003775 0.002080 0.006850
# 3 -0.004215 -0.000511 0.017437 0.007856 -0.006867 -0.003778
# 4 -0.004413 0.003775 0.007856 0.039636 -0.009516 -0.005305
# 5 -0.000175 0.002080 -0.006867 -0.009516 0.031172 0.010412
# 6 0.001672 0.006850 -0.003778 -0.005305 0.010412 0.028318
#
#
# Mechanical properties :
#
#
# Convention : Reuss Voigt Hill
#
# Bulk Modulus (GPa) = 36.41095 47.69770 42.05432
# Shear Modulus (GPa) = 30.82725 40.00782 35.41753
#
# Velocity S-wave (km/s) = 3.60400 4.10573 3.86302
# Velocity P-wave (km/s) = 5.71489 6.52481 6.13323
#
# Compressibility (1/GPa) = 0.02746427
#
# Stress axis : x y z
#
# Youngs Moduli (GPa) = 115.08004 68.66982 57.35044
#
# Poissons Ratio (x) = 0.12956 0.24173
# Poissons Ratio (y) = 0.21712 0.02928
# Poissons Ratio (z) = 0.48505 0.03506
#
# Static dielectric constant tensor:
#      x y z
#    x 1.869370 -0.045110 -0.023580 
#    y -0.045110 2.074070 0.153060 
#    z -0.023580 0.153060 2.049390 
# 
# From -- ./inp_files/27309.got.cif
#   From: 2010.05.17/outbox.cif.g08.bks.cpg/sg2_14_cif.got.tgz:27309.got - 2010.06.03 11:33:40.
