data_PCOD9043180
_publ_section_title
;
Structure prediction by ZEFSAII (Michael W. Deem and Ramdas Pophale) SiO2 
 PCOD9043180
Probable space group: P -1
;
_chemical_formula_sum "Si O2"
_cell_formula_units_Z 14
_cell_length_a 8.433645
_cell_length_b 6.918663
_cell_length_c 11.567650
_cell_angle_alpha 68.188316
_cell_angle_beta 124.831978
_cell_angle_gamma 122.695724
_cell_volume 464.303061
_symmetry_space_group_name_H-M "P -1"
_symmetry_group_IT_number 2
_symmetry_cell_setting 'triclinic'
loop_
_space_group_symop_operation_xyz
x,y,z
-x,-y,-z
loop_
_atom_site_type_symbol
_atom_site_label
_atom_site_fract_x
_atom_site_fract_y
_atom_site_fract_z
Si Si1 0.956297 0.093530 0.869962
Si Si2 0.361400 0.451174 0.818043
Si Si3 0.925065 0.678271 0.863007
Si Si4 0.357137 0.767678 0.924520
Si Si5 0.305503 0.967965 0.399024
Si Si6 0.060200 0.248693 0.525245
Si Si7 0.329638 0.608922 0.381598
O O1 0.823759 0.891414 0.748615
O O2 0.171785 0.276170 0.860695
O O3 0.769807 0.174033 0.733081
O O4 0.009144 0.864776 0.981838
O O5 0.572527 0.414989 0.940482
O O6 0.259488 0.360534 0.672176
O O7 0.401539 0.707678 0.823205
O O8 0.130580 0.773478 0.838486
O O9 0.000000 0.500000 0.000000
O O10 0.500000 0.000000 0.000000
O O11 0.275439 0.518777 0.246186
O O12 0.147172 0.814664 0.466841
O O13 0.518481 0.160527 0.511611
O O14 0.122912 0.438724 0.411221
O O15 0.000000 0.000000 0.500000
O O16 0.500000 0.500000 0.500000
#
# Coordination Sequence:
#
# PCOD9043180 Si02
#       7
#     2   2   2   2   2   2   2
#     4  11  22  44  67 100 141 182 231 299 357 427
#     4  10  23  45  69 104 143 187 242 300 361 443
#     4  12  25  44  71 103 140 186 240 300 362 438
#     4  11  23  44  71 102 143 186 244 297 365 434
#     4  11  24  47  69 103 141 189 238 296 367 439
#     4  11  24  46  74 102 146 194 242 304 371 440
#     4  12  26  47  71 104 143 189 247 305 368 441
#
# _framework density 30.152719000000001
#
# number of rings (size 3 to 8) (size 9 to 14) (size 15 to 20)
#    0.000    0.857    1.429    7.286    2.000    0.000 
#   10.286    0.000    0.000    0.000    0.000    0.000 
#    0.000    0.000    0.000    0.000    0.000    0.000 
#
# Total GULP energy -78190.162937 kJ/mol
# GULP energy per Si atom -5585.011638 kJ/mol
# Density = 3.008409 g / cm^3
# Si number density = 30.152719 Si / 1000 Ang^3
#
#
#
# Elastic Constant Matrix: (Units=GPa)
#
#
# Indices 1 2 3 4 5 6 
#
# 1 173.9703 79.0356 97.5602 7.0290 27.7949 -30.6332
# 2 79.0356 312.8907 80.5414 45.8388 -1.5837 -79.0353
# 3 97.5602 80.5414 356.3863 16.1295 50.5144 -0.4847
# 4 7.0290 45.8388 16.1295 73.3096 -5.2129 -10.3452
# 5 27.7949 -1.5837 50.5144 -5.2129 64.2034 -5.4532
# 6 -30.6332 -79.0353 -0.4847 -10.3452 -5.4532 88.7872
#
#
#
# Elastic Compliance Matrix: (Units=1/GPa)
#
#
# Indices 1 2 3 4 5 6 
#
# 1 0.007765 -0.001258 -0.001578 0.000457 -0.001988 0.001482
# 2 -0.001258 0.005064 -0.000915 -0.002183 0.001544 0.003910
# 3 -0.001578 -0.000915 0.003823 -0.000516 -0.002521 -0.001553
# 4 0.000457 -0.002183 -0.000516 0.015184 0.001393 0.000066
# 5 -0.001988 0.001544 -0.002521 0.001393 0.018740 0.001988
# 6 0.001482 0.003910 -0.001553 0.000066 0.001988 0.015376
#
#
# Mechanical properties :
#
#
# Convention : Reuss Voigt Hill
#
# Bulk Modulus (GPa) = 109.28286 150.83572 130.05929
# Shear Modulus (GPa) = 65.35572 84.33403 74.84488
#
# Velocity S-wave (km/s) = 4.66068 5.29431 4.98757
# Velocity P-wave (km/s) = 8.07988 9.35443 8.74042
#
# Compressibility (1/GPa) = 0.00915057
#
# Stress axis : x y z
#
# Youngs Moduli (GPa) = 128.78943 197.45295 261.54821
#
# Poissons Ratio (x) = 0.24835 0.41278
# Poissons Ratio (y) = 0.16199 0.23931
# Poissons Ratio (z) = 0.20326 0.18066
#
# Static dielectric constant tensor:
#      x y z
#    x 2.482820 -0.195530 0.064050 
#    y -0.195530 2.328550 0.153240 
#    z 0.064050 0.153240 2.235200 
# 
# From -- ./inp_files/487782.got.cif
#   From: 2010.05.17/outbox.cif.g08.bks.cpg/sg2_244_cif.got.tgz:487782.got - 2010.06.03 11:33:40.
