data_PCOD9043519
_publ_section_title
;
Structure prediction by ZEFSAII (Michael W. Deem and Ramdas Pophale) SiO2 
 PCOD9043519
Probable space group: P -1
;
_chemical_formula_sum "Si O2"
_cell_formula_units_Z 16
_cell_length_a 8.673491
_cell_length_b 13.681476
_cell_length_c 6.714047
_cell_angle_alpha 96.360511
_cell_angle_beta 68.586808
_cell_angle_gamma 66.879629
_cell_volume 651.414822
_symmetry_space_group_name_H-M "P -1"
_symmetry_group_IT_number 2
_symmetry_cell_setting 'triclinic'
loop_
_space_group_symop_operation_xyz
x,y,z
-x,-y,-z
loop_
_atom_site_type_symbol
_atom_site_label
_atom_site_fract_x
_atom_site_fract_y
_atom_site_fract_z
Si Si1 0.413950 0.316473 0.072426
Si Si2 0.456175 0.705455 0.432537
Si Si3 0.255434 0.855879 0.903277
Si Si4 0.317893 0.178391 0.591862
Si Si5 0.085778 0.724033 0.186725
Si Si6 0.994272 0.412670 0.142473
Si Si7 0.617943 0.983726 0.139635
Si Si8 0.315982 0.541815 0.375489
O O1 0.531421 0.210130 0.126228
O O2 0.424110 0.420505 0.197576
O O3 0.197430 0.355254 0.139265
O O4 0.528868 0.283281 0.806324
O O5 0.283609 0.802082 0.656646
O O6 0.639605 0.717237 0.410272
O O7 0.439432 0.593361 0.432203
O O8 0.213370 0.983652 0.958137
O O9 0.146868 0.812180 0.089270
O O10 0.481215 0.075949 0.380477
O O11 0.117954 0.209811 0.602719
O O12 0.321277 0.132965 0.804908
O O13 0.211482 0.628968 0.263157
O O14 0.055826 0.665205 0.992115
O O15 0.838157 0.457441 0.398740
O O16 0.000000 0.500000 0.000000
O O17 0.500000 0.000000 0.000000
#
# Coordination Sequence:
#
# PCOD9043519 Si02
#       8
#     2   2   2   2   2   2   2   2
#     4  12  25  41  67  97 136 187 225 272 329 399
#     4  11  23  43  66  96 136 182 224 274 330 394
#     4  11  26  43  70  98 136 178 229 273 336 401
#     4  10  24  44  72  96 135 172 222 278 343 403
#     4  12  25  44  66 102 134 179 225 278 334 398
#     4  12  27  44  64  97 139 180 229 280 329 391
#     4  10  23  45  72 100 126 173 222 279 343 406
#     4  12  27  41  66  99 141 179 231 273 329 393
#
# _framework density 24.561920000000001
#
# number of rings (size 3 to 8) (size 9 to 14) (size 15 to 20)
#    0.000    0.750    5.000    1.500    5.250    1.000 
#    0.000    0.625    0.000    0.000    0.000    0.000 
#    0.000    0.000    0.000    0.000    0.000    0.000 
#
# Total GULP energy -89438.347486 kJ/mol
# GULP energy per Si atom -5589.896718 kJ/mol
# Density = 2.450602 g / cm^3
# Si number density = 24.561920 Si / 1000 Ang^3
#
#
#
# Elastic Constant Matrix: (Units=GPa)
#
#
# Indices 1 2 3 4 5 6 
#
# 1 93.0849 39.5095 12.5551 -13.0958 0.7086 26.2240
# 2 39.5095 114.0395 25.7416 -21.9506 -0.6283 32.2307
# 3 12.5551 25.7416 101.3603 -24.9873 -1.5089 17.5879
# 4 -13.0958 -21.9506 -24.9873 33.9027 8.1518 -0.3373
# 5 0.7086 -0.6283 -1.5089 8.1518 31.2457 -2.0715
# 6 26.2240 32.2307 17.5879 -0.3373 -2.0715 46.7337
#
#
#
# Elastic Compliance Matrix: (Units=1/GPa)
#
#
# Indices 1 2 3 4 5 6 
#
# 1 0.014283 -0.002201 0.001351 0.005551 -0.002220 -0.007064
# 2 -0.002201 0.013410 0.000379 0.008620 -0.002455 -0.008203
# 3 0.001351 0.000379 0.013387 0.011224 -0.002709 -0.006096
# 4 0.005551 0.008620 0.011224 0.048474 -0.012953 -0.013508
# 5 -0.002220 -0.002455 -0.002709 -0.012953 0.035615 0.005443
# 6 -0.007064 -0.008203 -0.006096 -0.013508 0.005443 0.033457
#
#
# Mechanical properties :
#
#
# Convention : Reuss Voigt Hill
#
# Bulk Modulus (GPa) = 24.91457 51.56635 38.24046
# Shear Modulus (GPa) = 28.91084 37.75497 33.33290
#
# Velocity S-wave (km/s) = 3.43455 3.92488 3.68788
# Velocity P-wave (km/s) = 5.08859 6.44823 5.80833
#
# Compressibility (1/GPa) = 0.04013716
#
# Stress axis : x y z
#
# Youngs Moduli (GPa) = 70.01562 74.57264 74.70075
#
# Poissons Ratio (x) = 0.16410 -0.10091
# Poissons Ratio (y) = 0.15407 -0.02830
# Poissons Ratio (z) = -0.09458 -0.02825
#
# Static dielectric constant tensor:
#      x y z
#    x 2.062160 0.028650 -0.016510 
#    y 0.028650 1.939130 0.004950 
#    z -0.016510 0.004950 2.004150 
# 
# From -- ./inp_files/39192.got.cif
#   From: 2010.05.17/outbox.cif.g08.bks.cpg/sg2_20_cif.got.tgz:39192.got - 2010.06.03 11:33:40.
