data_PCOD9043409
_publ_section_title
;
Structure prediction by ZEFSAII (Michael W. Deem and Ramdas Pophale) SiO2 
 PCOD9043409
Probable space group: P -1
;
_chemical_formula_sum "Si O2"
_cell_formula_units_Z 16
_cell_length_a 18.134457
_cell_length_b 5.309521
_cell_length_c 8.497271
_cell_angle_alpha 61.391669
_cell_angle_beta 62.161236
_cell_angle_gamma 86.653544
_cell_volume 620.593205
_symmetry_space_group_name_H-M "P -1"
_symmetry_group_IT_number 2
_symmetry_cell_setting 'triclinic'
loop_
_space_group_symop_operation_xyz
x,y,z
-x,-y,-z
loop_
_atom_site_type_symbol
_atom_site_label
_atom_site_fract_x
_atom_site_fract_y
_atom_site_fract_z
Si Si1 0.481062 0.297014 0.867886
Si Si2 0.161844 0.958615 0.858152
Si Si3 0.242342 0.562908 0.505897
Si Si4 0.947866 0.552857 0.689081
Si Si5 0.636832 0.524316 0.845547
Si Si6 0.114000 0.935572 0.545909
Si Si7 0.345015 0.950101 0.791525
Si Si8 0.603666 0.351832 0.461967
O O1 0.556447 0.535799 0.807546
O O2 0.514299 0.302916 0.656080
O O3 0.389551 0.321817 0.017889
O O4 0.500000 0.000000 0.000000
O O5 0.133603 0.929448 0.713313
O O6 0.249420 0.858408 0.843800
O O7 0.184893 0.312713 0.747531
O O8 0.092934 0.753865 0.097059
O O9 0.282315 0.403319 0.371475
O O10 0.182468 0.774058 0.445724
O O11 0.324930 0.736768 0.466838
O O12 0.000000 0.500000 0.500000
O O13 0.017909 0.751442 0.671957
O O14 0.883264 0.751506 0.633011
O O15 0.643503 0.211530 0.008861
O O16 0.401195 0.830068 0.638659
O O17 0.360486 0.299010 0.691453
#
# Coordination Sequence:
#
# PCOD9043409 Si02
#       8
#     2   2   2   2   2   2   2   2
#     4  10  24  44  69  95 143 194 234 300 360 431
#     4  11  25  45  70 100 144 186 233 299 370 421
#     4  10  23  45  71 100 139 191 233 300 353 438
#     4  11  27  46  69 106 137 184 240 295 361 443
#     4  10  25  42  68 105 136 187 244 292 361 427
#     4  11  24  45  71 100 142 185 234 297 360 437
#     4  11  25  44  70 108 141 186 242 307 355 438
#     4  10  24  45  69 104 144 185 244 294 373 422
#
# _framework density 25.781783000000001
#
# number of rings (size 3 to 8) (size 9 to 14) (size 15 to 20)
#    0.000    1.500    1.250    1.125   12.250    6.000 
#    0.000    0.000    0.000    0.000    0.000    0.000 
#    0.000    0.000    0.000    0.000    0.000    0.000 
#
# Total GULP energy -89532.512145 kJ/mol
# GULP energy per Si atom -5595.782009 kJ/mol
# Density = 2.572310 g / cm^3
# Si number density = 25.781783 Si / 1000 Ang^3
#
#
#
# Elastic Constant Matrix: (Units=GPa)
#
#
# Indices 1 2 3 4 5 6 
#
# 1 138.7882 17.9249 33.6972 5.7160 13.7348 -2.0772
# 2 17.9249 102.0652 32.2844 4.0937 -2.1937 -21.9683
# 3 33.6972 32.2844 129.5847 -15.7448 -1.7282 -16.6051
# 4 5.7160 4.0937 -15.7448 37.6293 -1.9809 4.6230
# 5 13.7348 -2.1937 -1.7282 -1.9809 33.2720 -2.7672
# 6 -2.0772 -21.9683 -16.6051 4.6230 -2.7672 39.1776
#
#
#
# Elastic Compliance Matrix: (Units=1/GPa)
#
#
# Indices 1 2 3 4 5 6 
#
# 1 0.008370 -0.000941 -0.002409 -0.002244 -0.003869 -0.001113
# 2 -0.000941 0.012183 -0.002318 -0.002844 0.001420 0.006235
# 3 -0.002409 -0.002318 0.009792 0.004526 0.001812 0.002317
# 4 -0.002244 -0.002844 0.004526 0.029633 0.002479 -0.003117
# 5 -0.003869 0.001420 0.001812 0.002479 0.032266 0.003346
# 6 -0.001113 0.006235 0.002317 -0.003117 0.003346 0.030548
#
#
# Mechanical properties :
#
#
# Convention : Reuss Voigt Hill
#
# Bulk Modulus (GPa) = 52.60727 59.80570 56.20649
# Shear Modulus (GPa) = 35.59645 41.11788 38.35717
#
# Velocity S-wave (km/s) = 3.71978 3.99788 3.86134
# Velocity P-wave (km/s) = 6.23684 6.67518 6.45973
#
# Compressibility (1/GPa) = 0.01900878
#
# Stress axis : x y z
#
# Youngs Moduli (GPa) = 119.47059 82.08383 102.12503
#
# Poissons Ratio (x) = 0.07722 0.24603
# Poissons Ratio (y) = 0.11239 0.23674
# Poissons Ratio (z) = 0.28782 0.19028
#
# Static dielectric constant tensor:
#      x y z
#    x 2.118410 0.073970 0.036880 
#    y 0.073970 2.092020 -0.013810 
#    z 0.036880 -0.013810 2.024290 
# 
# From -- ./inp_files/323287.got.cif
#   From: 2010.05.17/outbox.cif.g08.bks.cpg/sg2_162_cif.got.tgz:323287.got - 2010.06.03 11:33:40.
