data_PCOD9043532
_publ_section_title
;
Structure prediction by ZEFSAII (Michael W. Deem and Ramdas Pophale) SiO2 
 PCOD9043532
Probable space group: P -1
;
_chemical_formula_sum "Si O2"
_cell_formula_units_Z 14
_cell_length_a 18.420122
_cell_length_b 9.016398
_cell_length_c 6.182571
_cell_angle_alpha 53.230124
_cell_angle_beta 115.719831
_cell_angle_gamma 138.940442
_cell_volume 539.978636
_symmetry_space_group_name_H-M "P -1"
_symmetry_group_IT_number 2
_symmetry_cell_setting 'triclinic'
loop_
_space_group_symop_operation_xyz
x,y,z
-x,-y,-z
loop_
_atom_site_type_symbol
_atom_site_label
_atom_site_fract_x
_atom_site_fract_y
_atom_site_fract_z
Si Si1 0.933160 0.793516 0.410108
Si Si2 0.395798 0.953310 0.271670
Si Si3 0.665856 0.725035 0.605400
Si Si4 0.817173 0.339846 0.981775
Si Si5 0.466654 0.664900 0.553772
Si Si6 0.909288 0.227580 0.509112
Si Si7 0.736463 0.474583 0.151351
O O1 0.875555 0.535229 0.690922
O O2 0.831905 0.715466 0.214478
O O3 0.030062 0.871383 0.316165
O O4 0.000000 0.000000 0.500000
O O5 0.304367 0.901047 0.049731
O O6 0.444306 0.846614 0.310990
O O7 0.334374 0.767700 0.566861
O O8 0.487724 0.239248 0.226688
O O9 0.568542 0.716930 0.532723
O O10 0.642321 0.614644 0.424851
O O11 0.779924 0.999904 0.592550
O O12 0.669044 0.533351 0.901671
O O13 0.890684 0.283949 0.197827
O O14 0.795670 0.441773 0.071444
O O15 0.000000 0.500000 0.500000
#
# Coordination Sequence:
#
# PCOD9043532 Si02
#       7
#     2   2   2   2   2   2   2
#     4  11  26  42  70 102 133 179 230 279 339 399
#     4  10  23  45  72 101 132 179 232 271 347 401
#     4  11  25  44  70 101 141 177 227 281 344 392
#     4  11  23  45  69 101 136 180 225 277 338 407
#     4  10  23  47  66 103 138 176 230 281 332 411
#     4  12  26  45  70 100 139 182 225 277 339 407
#     4  11  23  43  72 100 139 175 224 286 336 404
#
# _framework density 25.926950999999999
#
# number of rings (size 3 to 8) (size 9 to 14) (size 15 to 20)
#    0.000    1.143    2.857    2.143    6.000    3.429 
#   10.286    0.000    0.000    0.000    0.000    0.000 
#    0.000    0.000    0.000    0.000    0.000    0.000 
#
# Total GULP energy -78152.840606 kJ/mol
# GULP energy per Si atom -5582.345758 kJ/mol
# Density = 2.586794 g / cm^3
# Si number density = 25.926951 Si / 1000 Ang^3
#
#
#
# Elastic Constant Matrix: (Units=GPa)
#
#
# Indices 1 2 3 4 5 6 
#
# 1 112.1582 39.6140 12.8096 3.6956 6.2976 5.4836
# 2 39.6140 184.2889 35.0500 49.3374 16.7118 5.8319
# 3 12.8096 35.0500 92.2638 7.2560 15.1988 19.3817
# 4 3.6956 49.3374 7.2560 51.8277 13.1438 6.7334
# 5 6.2976 16.7118 15.1988 13.1438 29.5605 1.7932
# 6 5.4836 5.8319 19.3817 6.7334 1.7932 41.4103
#
#
#
# Elastic Compliance Matrix: (Units=1/GPa)
#
#
# Indices 1 2 3 4 5 6 
#
# 1 0.009895 -0.002543 -0.000071 0.002284 -0.001575 -0.001222
# 2 -0.002543 0.008493 -0.002688 -0.007875 0.000524 0.001657
# 3 -0.000071 -0.002688 0.014076 0.003127 -0.006704 -0.006418
# 4 0.002284 -0.007875 0.003127 0.029491 -0.010452 -0.005000
# 5 -0.001575 0.000524 -0.006704 -0.010452 0.041771 0.003163
# 6 -0.001222 0.001657 -0.006418 -0.005000 0.003163 0.027757
#
#
# Mechanical properties :
#
#
# Convention : Reuss Voigt Hill
#
# Bulk Modulus (GPa) = 45.74789 62.62866 54.18827
# Shear Modulus (GPa) = 33.47295 44.64219 39.05757
#
# Velocity S-wave (km/s) = 3.59701 4.15401 3.88551
# Velocity P-wave (km/s) = 5.91055 6.87139 6.40900
#
# Compressibility (1/GPa) = 0.02185893
#
# Stress axis : x y z
#
# Youngs Moduli (GPa) = 101.05735 117.75005 71.04173
#
# Poissons Ratio (x) = 0.29949 0.00505
# Poissons Ratio (y) = 0.25704 0.19097
# Poissons Ratio (z) = 0.00718 0.31652
#
# Static dielectric constant tensor:
#      x y z
#    x 2.075050 0.014870 -0.067820 
#    y 0.014870 2.174090 -0.045920 
#    z -0.067820 -0.045920 2.018570 
# 
# From -- ./inp_files/55701.got.cif
#   From: 2010.05.17/outbox.cif.g08.bks.cpg/sg2_28_cif.got.tgz:55701.got - 2010.06.03 11:33:40.
