data_PCOD9043056
_publ_section_title
;
Structure prediction by ZEFSAII (Michael W. Deem and Ramdas Pophale) SiO2 
 PCOD9043056
Probable space group: P -1
;
_chemical_formula_sum "Si O2"
_cell_formula_units_Z 16
_cell_length_a 11.306887
_cell_length_b 8.174552
_cell_length_c 8.920684
_cell_angle_alpha 67.659357
_cell_angle_beta 113.592478
_cell_angle_gamma 121.765845
_cell_volume 627.054318
_symmetry_space_group_name_H-M "P -1"
_symmetry_group_IT_number 2
_symmetry_cell_setting 'triclinic'
loop_
_space_group_symop_operation_xyz
x,y,z
-x,-y,-z
loop_
_atom_site_type_symbol
_atom_site_label
_atom_site_fract_x
_atom_site_fract_y
_atom_site_fract_z
Si Si1 0.619952 0.724520 0.999539
Si Si2 0.506815 0.851603 0.426050
Si Si3 0.821592 0.594149 0.265946
Si Si4 0.948292 0.151507 0.491684
Si Si5 0.293265 0.799269 0.788802
Si Si6 0.023548 0.319796 0.010392
Si Si7 0.251305 0.194636 0.292060
Si Si8 0.302356 0.852683 0.100853
O O1 0.696398 0.782142 0.858437
O O2 0.592369 0.913357 0.948478
O O3 0.500000 0.500000 0.000000
O O4 0.729201 0.716577 0.181160
O O5 0.594474 0.731790 0.568007
O O6 0.351395 0.762329 0.297150
O O7 0.500000 0.000000 0.500000
O O8 0.605892 0.986137 0.295299
O O9 0.711162 0.365384 0.272699
O O10 0.926719 0.658923 0.435924
O O11 0.907936 0.644628 0.134289
O O12 0.864950 0.212612 0.305367
O O13 0.837982 0.025993 0.611630
O O14 0.000000 0.000000 0.500000
O O15 0.309976 0.750900 0.984854
O O16 0.857202 0.159741 0.963907
O O17 0.000000 0.500000 0.000000
O O18 0.131676 0.277987 0.190339
#
# Coordination Sequence:
#
# PCOD9043056 Si02
#       8
#     2   2   2   2   2   2   2   2
#     4  11  23  41  71  99 140 185 241 292 353 421
#     4  11  24  44  68 100 139 191 234 289 358 416
#     4  11  23  40  67 105 137 181 240 291 348 430
#     4  11  23  42  70 100 143 186 231 296 363 413
#     4  11  24  42  67 101 142 182 239 287 349 431
#     4  11  23  43  74 104 140 182 235 297 357 421
#     4  10  23  45  68 103 140 183 239 293 348 433
#     4  12  23  45  75 101 140 192 235 290 360 426
#
# _framework density 25.516128999999999
#
# number of rings (size 3 to 8) (size 9 to 14) (size 15 to 20)
#    0.000    1.000    2.500    4.500    1.750    2.000 
#    0.000    0.625    2.750    0.000    0.000    0.000 
#    0.000    0.000    0.000    0.000    0.000    0.000 
#
# Total GULP energy -89381.927878 kJ/mol
# GULP energy per Si atom -5586.370492 kJ/mol
# Density = 2.545805 g / cm^3
# Si number density = 25.516129 Si / 1000 Ang^3
#
#
#
# Elastic Constant Matrix: (Units=GPa)
#
#
# Indices 1 2 3 4 5 6 
#
# 1 87.0360 8.9127 50.0642 -0.8992 30.9241 -4.2592
# 2 8.9127 77.5103 12.8575 8.6633 3.8540 -0.7458
# 3 50.0642 12.8575 138.8448 11.6061 40.1874 -15.8927
# 4 -0.8992 8.6633 11.6061 32.7604 -5.1337 -2.5509
# 5 30.9241 3.8540 40.1874 -5.1337 60.3953 -18.5297
# 6 -4.2592 -0.7458 -15.8927 -2.5509 -18.5297 33.2718
#
#
#
# Elastic Compliance Matrix: (Units=1/GPa)
#
#
# Indices 1 2 3 4 5 6 
#
# 1 0.016199 -0.000964 -0.004418 0.001011 -0.006273 -0.003474
# 2 -0.000964 0.013516 -0.000533 -0.003540 -0.000508 -0.000629
# 3 -0.004418 -0.000533 0.010774 -0.004421 -0.004765 0.001576
# 4 0.001011 -0.003540 -0.004421 0.034490 0.006948 0.004452
# 5 -0.006273 -0.000508 -0.004765 0.006948 0.027472 0.012742
# 6 -0.003474 -0.000629 0.001576 0.004452 0.012742 0.037787
#
#
# Mechanical properties :
#
#
# Convention : Reuss Voigt Hill
#
# Bulk Modulus (GPa) = 34.89486 49.67331 42.28408
# Shear Modulus (GPa) = 30.93641 40.72262 35.82951
#
# Velocity S-wave (km/s) = 3.48577 3.99928 3.75132
# Velocity P-wave (km/s) = 5.46864 6.39025 5.94733
#
# Compressibility (1/GPa) = 0.02865752
#
# Stress axis : x y z
#
# Youngs Moduli (GPa) = 61.73282 73.98788 92.81670
#
# Poissons Ratio (x) = 0.07135 0.41009
# Poissons Ratio (y) = 0.05953 0.04946
# Poissons Ratio (z) = 0.27275 0.03943
#
# Static dielectric constant tensor:
#      x y z
#    x 2.104390 0.054320 0.100620 
#    y 0.054320 2.124160 0.079210 
#    z 0.100620 0.079210 2.033410 
# 
# From -- ./inp_files/243198.got.cif
#   From: 2010.05.17/outbox.cif.g08.bks.cpg/sg2_122_cif.got.tgz:243198.got - 2010.06.03 11:33:40.
