data_PCOD9043020
_publ_section_title
;
Structure prediction by ZEFSAII (Michael W. Deem and Ramdas Pophale) SiO2 
 PCOD9043020
Probable space group: P -1
;
_chemical_formula_sum "Si O2"
_cell_formula_units_Z 14
_cell_length_a 16.249149
_cell_length_b 8.626725
_cell_length_c 14.465863
_cell_angle_alpha 92.800964
_cell_angle_beta 20.402348
_cell_angle_gamma 104.178655
_cell_volume 579.179863
_symmetry_space_group_name_H-M "P -1"
_symmetry_group_IT_number 2
_symmetry_cell_setting 'triclinic'
loop_
_space_group_symop_operation_xyz
x,y,z
-x,-y,-z
loop_
_atom_site_type_symbol
_atom_site_label
_atom_site_fract_x
_atom_site_fract_y
_atom_site_fract_z
Si Si1 0.729895 0.012520 0.190849
Si Si2 0.311768 0.613632 0.922254
Si Si3 0.157686 0.971648 0.126969
Si Si4 0.336684 0.295183 0.622580
Si Si5 0.723131 0.527856 0.574483
Si Si6 0.669270 0.965613 0.696589
Si Si7 0.462844 0.781945 0.097114
O O1 0.500000 0.000000 0.500000
O O2 0.754076 0.849389 0.201904
O O3 0.659909 0.977199 0.155933
O O4 0.036960 0.213718 0.882932
O O5 0.451711 0.697576 0.677002
O O6 0.451216 0.500205 0.804883
O O7 0.432767 0.793574 0.870181
O O8 0.963112 0.495155 0.281110
O O9 0.922528 0.751745 0.380220
O O10 0.957121 0.047175 0.336450
O O11 0.349447 0.058562 0.017684
O O12 0.500000 0.500000 0.500000
O O13 0.627549 0.411515 0.767150
O O14 0.762033 0.160389 0.662738
O O15 0.611006 0.834784 0.844494
#
# Coordination Sequence:
#
# PCOD9043020 Si02
#       7
#     2   2   2   2   2   2   2
#     4  11  25  43  71 101 139 186 236 298 361 418
#     4  11  24  49  69 102 147 185 232 297 357 416
#     4  11  23  44  68  99 143 184 231 299 351 423
#     4  11  26  44  69 101 138 187 239 295 353 436
#     4  11  25  43  72 100 142 186 235 290 349 422
#     4  10  23  45  67  99 144 179 238 287 357 419
#     4  11  25  41  71 103 132 191 235 290 348 432
#
# _framework density 24.172111000000001
#
# number of rings (size 3 to 8) (size 9 to 14) (size 15 to 20)
#    0.000    1.143    4.286    1.286    4.000    4.571 
#    0.000    0.000    0.000    0.000    0.000    0.000 
#    0.000    0.000    0.000    0.000    0.000    0.000 
#
# Total GULP energy -77955.139273 kJ/mol
# GULP energy per Si atom -5568.224234 kJ/mol
# Density = 2.411709 g / cm^3
# Si number density = 24.172111 Si / 1000 Ang^3
#
#
#
# Elastic Constant Matrix: (Units=GPa)
#
#
# Indices 1 2 3 4 5 6 
#
# 1 75.2239 101.1936 -24.5131 -9.0942 38.4711 -33.8499
# 2 101.1936 -16.7233 106.0613 4.9512 -2.9349 41.0386
# 3 -24.5131 106.0613 30.2468 11.6885 15.6538 -43.1139
# 4 -9.0942 4.9512 11.6885 42.4721 -0.8803 -2.9666
# 5 38.4711 -2.9349 15.6538 -0.8803 62.8095 23.7616
# 6 -33.8499 41.0386 -43.1139 -2.9666 23.7616 30.0675
#
#
#
# Elastic Compliance Matrix: (Units=1/GPa)
#
#
# Indices 1 2 3 4 5 6 
#
# 1 0.007932 0.002817 -0.006492 0.002960 -0.002253 -0.002151
# 2 0.002817 0.003748 0.004009 -0.000479 -0.005673 0.008241
# 3 -0.006492 0.004009 0.008529 -0.004389 0.003350 -0.003631
# 4 0.002960 -0.000479 -0.004389 0.025479 -0.000660 0.000728
# 5 -0.002253 -0.005673 0.003350 -0.000660 0.017730 -0.004066
# 6 -0.002151 0.008241 -0.003631 0.000728 -0.004066 0.017668
#
#
# Mechanical properties :
#
#
# Convention : Reuss Voigt Hill
#
# Bulk Modulus (GPa) = 47.90320 50.47008 49.18664
# Shear Modulus (GPa) = 57.22347 20.80352 39.01349
#
# Velocity S-wave (km/s) = 4.87080 2.93685 4.02181
# Velocity P-wave (km/s) = 7.17590 5.69429 6.47760
#
# Compressibility (1/GPa) = 0.02087543
#
# Stress axis : x y z
#
# Youngs Moduli (GPa) = 126.07828 266.83346 117.25188
#
# Poissons Ratio (x) = -0.75158 0.76117
# Poissons Ratio (y) = -0.35512 -0.47005
# Poissons Ratio (z) = 0.81847 -1.06970
#
# Static dielectric constant tensor:
#      x y z
#    x 1.812970 0.120900 0.092500 
#    y 0.120900 1.746130 -0.173900 
#    z 0.092500 -0.173900 1.760390 
# 
# From -- ./inp_files/315307.got.cif
#   From: 2010.05.17/outbox.cif.g08.bks.cpg/sg2_158_cif.got.tgz:315307.got - 2010.06.03 11:33:40.
