data_PCOD9043323
_publ_section_title
;
Structure prediction by ZEFSAII (Michael W. Deem and Ramdas Pophale) SiO2 
 PCOD9043323
Probable space group: P -1
;
_chemical_formula_sum "Si O2"
_cell_formula_units_Z 14
_cell_length_a 21.748127
_cell_length_b 7.093528
_cell_length_c 9.037059
_cell_angle_alpha 52.101406
_cell_angle_beta 130.944428
_cell_angle_gamma 148.343836
_cell_volume 547.041634
_symmetry_space_group_name_H-M "P -1"
_symmetry_group_IT_number 2
_symmetry_cell_setting 'triclinic'
loop_
_space_group_symop_operation_xyz
x,y,z
-x,-y,-z
loop_
_atom_site_type_symbol
_atom_site_label
_atom_site_fract_x
_atom_site_fract_y
_atom_site_fract_z
Si Si1 0.233530 0.112882 0.753843
Si Si2 0.343902 0.192450 0.165761
Si Si3 0.024365 0.327146 0.730626
Si Si4 0.574573 0.963458 0.225322
Si Si5 0.147284 0.399484 0.632026
Si Si6 0.628916 0.249596 0.506435
Si Si7 0.896182 0.247585 0.827781
O O1 0.158415 0.169812 0.678792
O O2 0.285897 0.330054 0.578621
O O3 0.151299 0.698290 0.823178
O O4 0.342787 0.293158 0.951190
O O5 0.481201 0.534816 0.279199
O O6 0.306422 0.833535 0.278755
O O7 0.237300 0.085280 0.145440
O O8 0.052581 0.186192 0.723380
O O9 0.000000 0.500000 0.500000
O O10 0.930891 0.123263 0.818855
O O11 0.715225 0.239164 0.260972
O O12 0.598063 0.099143 0.363760
O O13 0.500000 0.000000 0.000000
O O14 0.116957 0.539138 0.396514
O O15 0.500000 0.000000 0.500000
O O16 0.000000 0.500000 0.000000
#
# Coordination Sequence:
#
# PCOD9043323 Si02
#       7
#     2   2   2   2   2   2   2
#     4  11  23  46  71  98 145 186 225 296 358 403
#     4  12  23  44  72 100 142 186 228 295 349 419
#     4  10  24  41  72 100 134 188 239 288 343 416
#     4  11  22  44  71 100 140 182 229 286 363 420
#     4  10  23  45  70 104 136 183 240 282 356 420
#     4  11  26  42  67 109 137 184 233 283 361 426
#     4  11  22  43  67  98 138 186 237 286 350 406
#
# _framework density 25.592203000000001
#
# number of rings (size 3 to 8) (size 9 to 14) (size 15 to 20)
#    0.000    1.143    7.143    0.429    2.000    5.143 
#    0.000    0.714    3.143    0.000    0.000    0.000 
#    0.000    0.000    0.000    0.000    0.000    0.000 
#
# Total GULP energy -78297.504380 kJ/mol
# GULP energy per Si atom -5592.678884 kJ/mol
# Density = 2.553395 g / cm^3
# Si number density = 25.592203 Si / 1000 Ang^3
#
#
#
# Elastic Constant Matrix: (Units=GPa)
#
#
# Indices 1 2 3 4 5 6 
#
# 1 117.5464 6.5871 7.2098 -8.3860 -8.8518 28.1919
# 2 6.5871 96.6288 11.9671 7.2058 5.5208 12.4906
# 3 7.2098 11.9671 137.8865 0.3777 11.8169 -0.7111
# 4 -8.3860 7.2058 0.3777 48.5308 4.3005 -4.3141
# 5 -8.8518 5.5208 11.8169 4.3005 19.3735 -4.6857
# 6 28.1919 12.4906 -0.7111 -4.3141 -4.6857 40.2537
#
#
#
# Elastic Compliance Matrix: (Units=1/GPa)
#
#
# Indices 1 2 3 4 5 6 
#
# 1 0.010543 0.000017 -0.000890 0.000904 0.003485 -0.006903
# 2 0.000017 0.011289 -0.000707 -0.001733 -0.003387 -0.004107
# 3 -0.000890 -0.000707 0.007784 0.000367 -0.004926 0.000446
# 4 0.000904 -0.001733 0.000367 0.021499 -0.003657 0.001790
# 5 0.003485 -0.003387 -0.004926 -0.003657 0.059206 0.005023
# 6 -0.006903 -0.004107 0.000446 0.001790 0.005023 0.031736
#
#
# Mechanical properties :
#
#
# Convention : Reuss Voigt Hill
#
# Bulk Modulus (GPa) = 37.79641 44.84328 41.31985
# Shear Modulus (GPa) = 32.46040 43.38477 37.92259
#
# Velocity S-wave (km/s) = 3.56528 4.12179 3.85359
# Velocity P-wave (km/s) = 5.63463 6.34133 5.99840
#
# Compressibility (1/GPa) = 0.02645754
#
# Stress axis : x y z
#
# Youngs Moduli (GPa) = 94.84716 88.58259 128.47403
#
# Poissons Ratio (x) = -0.00152 0.11428
# Poissons Ratio (y) = -0.00163 0.09081
# Poissons Ratio (z) = 0.08437 0.06261
#
# Static dielectric constant tensor:
#      x y z
#    x 2.083440 -0.065660 0.014880 
#    y -0.065660 2.245630 0.021810 
#    z 0.014880 0.021810 2.101070 
# 
# From -- ./inp_files/351627.got.cif
#   From: 2010.05.17/outbox.cif.g08.bks.cpg/sg2_176_cif.got.tgz:351627.got - 2010.06.03 11:33:40.
