data_PCOD9043024
_publ_section_title
;
Structure prediction by ZEFSAII (Michael W. Deem and Ramdas Pophale) SiO2 
 PCOD9043024
Probable space group: P -1
;
_chemical_formula_sum "Si O2"
_cell_formula_units_Z 10
_cell_length_a 7.242972
_cell_length_b 7.849404
_cell_length_c 10.337810
_cell_angle_alpha 116.706896
_cell_angle_beta 100.798180
_cell_angle_gamma 53.974832
_cell_volume 422.209186
_symmetry_space_group_name_H-M "P -1"
_symmetry_group_IT_number 2
_symmetry_cell_setting 'triclinic'
loop_
_space_group_symop_operation_xyz
x,y,z
-x,-y,-z
loop_
_atom_site_type_symbol
_atom_site_label
_atom_site_fract_x
_atom_site_fract_y
_atom_site_fract_z
Si Si1 0.434727 0.222769 0.252895
Si Si2 0.959228 0.378535 0.834776
Si Si3 0.695703 0.982338 0.434092
Si Si4 0.885186 0.043133 0.136312
Si Si5 0.060501 0.252079 0.375451
O O1 0.643280 0.075352 0.128496
O O2 0.274730 0.149251 0.268116
O O3 0.252654 0.453644 0.229196
O O4 0.572655 0.202974 0.396344
O O5 0.182252 0.234894 0.722963
O O6 0.941590 0.183581 0.832813
O O7 0.000000 0.500000 0.000000
O O8 0.883543 0.906677 0.544227
O O9 0.500000 0.000000 0.500000
O O10 0.863749 0.263564 0.272537
O O11 0.000000 0.000000 0.000000
O O12 0.000000 0.500000 0.500000
#
# Coordination Sequence:
#
# PCOD9043024 Si02
#       5
#     2   2   2   2   2
#     4  10  23  45  68 100 136 181 228 284 345 406
#     4  11  23  43  71 101 138 183 232 284 349 415
#     4   9  21  40  67 100 134 177 226 283 341 405
#     4  11  27  45  67 102 141 180 232 285 344 415
#     4  11  22  45  71  99 140 179 228 284 342 410
#
# _framework density 23.684944000000002
#
# number of rings (size 3 to 8) (size 9 to 14) (size 15 to 20)
#    0.000    1.600    2.000    1.200    0.000   13.600 
#   10.800    0.000    0.000    0.000    0.000    0.000 
#    0.000    0.000    0.000    0.000    0.000    0.000 
#
# Total GULP energy -55707.133919 kJ/mol
# GULP energy per Si atom -5570.713392 kJ/mol
# Density = 2.363104 g / cm^3
# Si number density = 23.684944 Si / 1000 Ang^3
#
#
#
# Elastic Constant Matrix: (Units=GPa)
#
#
# Indices 1 2 3 4 5 6 
#
# 1 91.5302 28.1974 67.5194 -5.5977 -31.7305 -2.5702
# 2 28.1974 152.7445 65.2976 -43.6337 -5.8051 -9.9579
# 3 67.5194 65.2976 167.6438 -4.2970 -24.2636 2.4614
# 4 -5.5977 -43.6337 -4.2970 44.3009 11.8523 0.1126
# 5 -31.7305 -5.8051 -24.2636 11.8523 59.2194 1.3370
# 6 -2.5702 -9.9579 2.4614 0.1126 1.3370 34.5599
#
#
#
# Elastic Compliance Matrix: (Units=1/GPa)
#
#
# Indices 1 2 3 4 5 6 
#
# 1 0.018076 -0.000671 -0.006003 -0.000919 0.007315 0.001299
# 2 -0.000671 0.012531 -0.004890 0.012786 -0.003784 0.004014
# 3 -0.006003 -0.004890 0.010435 -0.004994 0.001639 -0.002646
# 4 -0.000919 0.012786 -0.004994 0.036900 -0.008765 0.004190
# 5 0.007315 -0.003784 0.001639 -0.008765 0.022895 -0.001520
# 6 0.001299 0.004014 -0.002646 0.004190 -0.001520 0.030422
#
#
# Mechanical properties :
#
#
# Convention : Reuss Voigt Hill
#
# Bulk Modulus (GPa) = 55.81521 81.54970 68.68245
# Shear Modulus (GPa) = 31.18008 44.34296 37.76152
#
# Velocity S-wave (km/s) = 3.63223 4.33159 3.99723
# Velocity P-wave (km/s) = 6.41932 7.71509 7.09684
#
# Compressibility (1/GPa) = 0.01791626
#
# Stress axis : x y z
#
# Youngs Moduli (GPa) = 55.32115 79.79997 95.82725
#
# Poissons Ratio (x) = 0.05351 0.57526
# Poissons Ratio (y) = 0.03709 0.46858
# Poissons Ratio (z) = 0.33210 0.39021
#
# Static dielectric constant tensor:
#      x y z
#    x 1.948700 -0.041340 0.054140 
#    y -0.041340 1.981640 -0.017640 
#    z 0.054140 -0.017640 1.956280 
# 
# From -- ./inp_files/69649.got.cif
#   From: 2010.05.17/outbox.cif.g08.bks.cpg/sg2_35_cif.got.tgz:69649.got - 2010.06.03 11:33:40.
