data_PCOD9043221
_publ_section_title
;
Structure prediction by ZEFSAII (Michael W. Deem and Ramdas Pophale) SiO2 
 PCOD9043221
Probable space group: P -1
;
_chemical_formula_sum "Si O2"
_cell_formula_units_Z 16
_cell_length_a 14.190435
_cell_length_b 7.716070
_cell_length_c 13.502983
_cell_angle_alpha 56.738789
_cell_angle_beta 32.222028
_cell_angle_gamma 63.368373
_cell_volume 658.781719
_symmetry_space_group_name_H-M "P -1"
_symmetry_group_IT_number 2
_symmetry_cell_setting 'triclinic'
loop_
_space_group_symop_operation_xyz
x,y,z
-x,-y,-z
loop_
_atom_site_type_symbol
_atom_site_label
_atom_site_fract_x
_atom_site_fract_y
_atom_site_fract_z
Si Si1 0.301981 0.599703 0.919063
Si Si2 0.951949 0.677081 0.096350
Si Si3 0.261014 0.975980 0.136004
Si Si4 0.395036 0.259484 0.102036
Si Si5 0.853146 0.912662 0.291037
Si Si6 0.485542 0.024073 0.623714
Si Si7 0.329024 0.345283 0.800868
Si Si8 0.926859 0.722731 0.476785
O O1 0.343314 0.838998 0.832648
O O2 0.404285 0.521659 0.753203
O O3 0.364650 0.459787 0.997210
O O4 0.101101 0.569919 0.064069
O O5 0.824366 0.780706 0.258342
O O6 0.829243 0.572557 0.153548
O O7 0.049441 0.874589 0.894882
O O8 0.063117 0.888536 0.352147
O O9 0.321577 0.073474 0.155718
O O10 0.402542 0.799875 0.039271
O O11 0.271005 0.157335 0.986923
O O12 0.267940 0.274307 0.304290
O O13 0.684287 0.965913 0.488719
O O14 0.954016 0.771371 0.321587
O O15 0.500000 0.000000 0.500000
O O16 0.451375 0.231711 0.649112
O O17 0.000000 0.500000 0.500000
#
# Coordination Sequence:
#
# PCOD9043221 Si02
#       8
#     2   2   2   2   2   2   2   2
#     4  11  25  42  68  98 129 176 218 266 340 394
#     4  11  20  42  66  91 137 168 213 273 327 400
#     4  10  23  45  69  92 132 179 217 277 337 381
#     4  10  24  46  66  96 133 171 225 279 327 396
#     4  11  23  40  64  97 130 175 216 269 337 391
#     4  12  23  42  65  93 134 171 211 275 324 387
#     4  11  23  43  68  96 132 173 218 270 332 400
#     4  12  25  39  67 102 129 173 227 270 331 400
#
# _framework density 24.287254000000001
#
# number of rings (size 3 to 8) (size 9 to 14) (size 15 to 20)
#    0.000    1.000    3.750    3.000    3.500    1.000 
#    0.000    0.000    0.000    0.000    0.000    0.000 
#    0.000    0.000    0.000    0.000    0.000    0.000 
#
# Total GULP energy -89389.122885 kJ/mol
# GULP energy per Si atom -5586.820180 kJ/mol
# Density = 2.423198 g / cm^3
# Si number density = 24.287254 Si / 1000 Ang^3
#
#
#
# Elastic Constant Matrix: (Units=GPa)
#
#
# Indices 1 2 3 4 5 6 
#
# 1 76.8482 20.2958 15.8084 -3.6844 22.7892 0.9954
# 2 20.2958 85.3294 26.3843 13.7353 21.0226 -16.9989
# 3 15.8084 26.3843 73.5191 17.0019 11.8146 -5.8084
# 4 -3.6844 13.7353 17.0019 33.8499 2.9514 3.6229
# 5 22.7892 21.0226 11.8146 2.9514 26.9530 2.6984
# 6 0.9954 -16.9989 -5.8084 3.6229 2.6984 50.3225
#
#
#
# Elastic Compliance Matrix: (Units=1/GPa)
#
#
# Indices 1 2 3 4 5 6 
#
# 1 0.018178 -0.001030 -0.002482 0.004924 -0.013958 -0.000600
# 2 -0.001030 0.018034 -0.002376 -0.005913 -0.012199 0.006918
# 3 -0.002482 -0.002376 0.017495 -0.008043 -0.003037 0.002008
# 4 0.004924 -0.005913 -0.008043 0.037087 0.000486 -0.005719
# 5 -0.013958 -0.012199 -0.003037 0.000486 0.060445 -0.007471
# 6 -0.000600 0.006918 0.002008 -0.005719 -0.007471 0.023265
#
#
# Mechanical properties :
#
#
# Convention : Reuss Voigt Hill
#
# Bulk Modulus (GPa) = 23.84845 40.07486 31.96165
# Shear Modulus (GPa) = 24.96775 33.77229 29.37002
#
# Velocity S-wave (km/s) = 3.20975 3.73303 3.48124
# Velocity P-wave (km/s) = 4.85565 5.92595 5.41730
#
# Compressibility (1/GPa) = 0.04193145
#
# Stress axis : x y z
#
# Youngs Moduli (GPa) = 55.01053 55.44929 57.15842
#
# Poissons Ratio (x) = 0.05709 0.14189
# Poissons Ratio (y) = 0.05663 0.13583
# Poissons Ratio (z) = 0.13656 0.13177
#
# Static dielectric constant tensor:
#      x y z
#    x 1.999510 -0.105990 -0.085510 
#    y -0.105990 1.981670 0.094700 
#    z -0.085510 0.094700 2.010950 
# 
# From -- ./inp_files/529349.got.cif
#   From: 2010.05.17/outbox.cif.g08.bks.cpg/sg2_265_cif.got.tgz:529349.got - 2010.06.03 11:33:40.
