data_PCOD9043092
_publ_section_title
;
Structure prediction by ZEFSAII (Michael W. Deem and Ramdas Pophale) SiO2 
 PCOD9043092
Probable space group: P -1
;
_chemical_formula_sum "Si O2"
_cell_formula_units_Z 16
_cell_length_a 12.126392
_cell_length_b 19.429701
_cell_length_c 9.830369
_cell_angle_alpha 23.495073
_cell_angle_beta 53.417384
_cell_angle_gamma 47.975656
_cell_volume 684.680767
_symmetry_space_group_name_H-M "P -1"
_symmetry_group_IT_number 2
_symmetry_cell_setting 'triclinic'
loop_
_space_group_symop_operation_xyz
x,y,z
-x,-y,-z
loop_
_atom_site_type_symbol
_atom_site_label
_atom_site_fract_x
_atom_site_fract_y
_atom_site_fract_z
Si Si1 0.763745 0.892978 0.266595
Si Si2 0.217839 0.708732 0.494316
Si Si3 0.995772 0.684055 0.248567
Si Si4 0.454617 0.141887 0.938740
Si Si5 0.890636 0.765013 0.697496
Si Si6 0.611996 0.317347 0.317264
Si Si7 0.743198 0.504888 0.410391
Si Si8 0.823558 0.976622 0.632372
O O1 0.867402 0.746109 0.347033
O O2 0.796172 0.826406 0.517963
O O3 0.807188 0.073891 0.890405
O O4 0.588825 0.972577 0.216497
O O5 0.316192 0.632275 0.693446
O O6 0.286178 0.609515 0.483853
O O7 0.061112 0.691650 0.662183
O O8 0.000000 0.500000 0.500000
O O9 0.153792 0.629486 0.306076
O O10 0.951665 0.854303 0.864575
O O11 0.520947 0.194060 0.660000
O O12 0.403332 0.332115 0.720765
O O13 0.305562 0.105758 0.098920
O O14 0.865100 0.928153 0.532473
O O15 0.844674 0.611783 0.083136
O O16 0.742816 0.188126 0.357897
O O17 0.500000 0.500000 0.000000
#
# Coordination Sequence:
#
# PCOD9043092 Si02
#       8
#     2   2   2   2   2   2   2   2
#     4  11  25  42  70  95 138 184 217 274 354 392
#     4  11  24  44  64  96 141 176 219 278 338 410
#     4  12  22  42  70  99 129 177 232 271 332 399
#     4  10  23  45  68  95 136 178 224 278 334 407
#     4  11  24  42  68 100 132 173 228 284 325 400
#     4  11  26  43  65 101 135 180 222 277 345 399
#     4  11  25  40  71 102 130 176 234 270 340 397
#     4  11  24  44  68 101 132 174 234 278 334 398
#
# _framework density 23.368554
#
# number of rings (size 3 to 8) (size 9 to 14) (size 15 to 20)
#    0.000    1.000    6.250    1.125    0.000    9.500 
#    0.000    0.000    0.000    0.000    0.000    0.000 
#    0.000    0.000    0.000    0.000    0.000    0.000 
#
# Total GULP energy -89630.904346 kJ/mol
# GULP energy per Si atom -5601.931522 kJ/mol
# Density = 2.331537 g / cm^3
# Si number density = 23.368554 Si / 1000 Ang^3
#
#
#
# Elastic Constant Matrix: (Units=GPa)
#
#
# Indices 1 2 3 4 5 6 
#
# 1 109.2360 45.3947 37.6230 -9.2375 32.9065 13.8017
# 2 45.3947 187.8365 24.5894 -28.6028 23.6907 33.7165
# 3 37.6230 24.5894 89.4361 -5.7106 40.6541 8.3472
# 4 -9.2375 -28.6028 -5.7106 43.0821 -2.9650 -9.5852
# 5 32.9065 23.6907 40.6541 -2.9650 47.0569 7.1045
# 6 13.8017 33.7165 8.3472 -9.5852 7.1045 48.9913
#
#
#
# Elastic Compliance Matrix: (Units=1/GPa)
#
#
# Indices 1 2 3 4 5 6 
#
# 1 0.012539 -0.001739 -0.001913 0.000640 -0.006048 -0.001008
# 2 -0.001739 0.007098 0.000098 0.003460 -0.001698 -0.003489
# 3 -0.001913 0.000098 0.018804 0.001043 -0.014835 -0.000377
# 4 0.000640 0.003460 0.001043 0.026250 -0.001838 0.002663
# 5 -0.006048 -0.001698 -0.014835 -0.001838 0.039131 -0.000634
# 6 -0.001008 -0.003489 -0.000377 0.002663 -0.000634 0.023774
#
#
# Mechanical properties :
#
#
# Convention : Reuss Voigt Hill
#
# Bulk Modulus (GPa) = 31.91316 66.85808 49.38562
# Shear Modulus (GPa) = 34.44753 46.41950 40.43352
#
# Velocity S-wave (km/s) = 3.84356 4.46175 4.16414
# Velocity P-wave (km/s) = 5.77784 7.43070 6.65578
#
# Compressibility (1/GPa) = 0.03133504
#
# Stress axis : x y z
#
# Youngs Moduli (GPa) = 79.74931 140.87700 53.18097
#
# Poissons Ratio (x) = 0.24496 0.10171
# Poissons Ratio (y) = 0.13867 -0.00522
# Poissons Ratio (z) = 0.15252 -0.01382
#
# Static dielectric constant tensor:
#      x y z
#    x 1.904850 0.031740 -0.024460 
#    y 0.031740 1.922710 -0.027640 
#    z -0.024460 -0.027640 1.904650 
# 
# From -- ./inp_files/278671.got.cif
#   From: 2010.05.17/outbox.cif.g08.bks.cpg/sg2_140_cif.got.tgz:278671.got - 2010.06.03 11:33:40.
