data_PCOD9043126
_publ_section_title
;
Structure prediction by ZEFSAII (Michael W. Deem and Ramdas Pophale) SiO2 
 PCOD9043126
Probable space group: P -1
;
_chemical_formula_sum "Si O2"
_cell_formula_units_Z 16
_cell_length_a 15.958689
_cell_length_b 25.296810
_cell_length_c 9.113715
_cell_angle_alpha 122.416926
_cell_angle_beta 45.335622
_cell_angle_gamma 159.966173
_cell_volume 770.935012
_symmetry_space_group_name_H-M "P -1"
_symmetry_group_IT_number 2
_symmetry_cell_setting 'triclinic'
loop_
_space_group_symop_operation_xyz
x,y,z
-x,-y,-z
loop_
_atom_site_type_symbol
_atom_site_label
_atom_site_fract_x
_atom_site_fract_y
_atom_site_fract_z
Si Si1 0.298463 0.051865 0.065807
Si Si2 0.704863 0.845804 0.015507
Si Si3 0.645079 0.238133 0.488898
Si Si4 0.934720 0.320857 0.820426
Si Si5 0.683204 0.464650 0.053514
Si Si6 0.745731 0.063433 0.298309
Si Si7 0.289225 0.010175 0.322953
Si Si8 0.809480 0.680948 0.608647
O O1 0.226476 0.076427 0.093761
O O2 0.706603 0.248535 0.883147
O O3 0.186153 0.934462 0.938533
O O4 0.144258 0.970834 0.297463
O O5 0.387693 0.717554 0.303741
O O6 0.619878 0.733336 0.906695
O O7 0.000000 0.000000 0.000000
O O8 0.461048 0.092571 0.591940
O O9 0.424973 0.129315 0.448093
O O10 0.013230 0.400547 0.228580
O O11 0.187604 0.480928 0.858533
O O12 0.122541 0.357488 0.565761
O O13 0.630304 0.146300 0.043824
O O14 0.556668 0.472634 0.200655
O O15 0.500000 0.000000 0.500000
O O16 0.070597 0.243202 0.261510
O O17 0.054094 0.842704 0.440295
#
# Coordination Sequence:
#
# PCOD9043126 Si02
#       8
#     2   2   2   2   2   2   2   2
#     4   9  19  34  59  84 113 141 196 234 287 325
#     4  11  22  40  63  81 109 149 201 243 282 339
#     4   9  20  37  57  84 113 151 188 231 292 337
#     4   9  19  34  56  83 118 144 185 231 290 335
#     4  11  22  36  57  83 116 156 188 234 289 340
#     4  10  17  33  60  83 112 152 188 231 274 335
#     4   8  17  34  58  86 109 147 188 233 283 334
#     4  11  19  34  60  87 116 152 191 227 283 343
#
# _framework density 20.754021000000002
#
# number of rings (size 3 to 8) (size 9 to 14) (size 15 to 20)
#    0.750    1.500    1.250    3.375    0.000    1.500 
#    0.000    3.125   11.000    0.000    0.000    0.000 
#    0.000    0.000    0.000    0.000    0.000    0.000 
#
# Total GULP energy -89193.848826 kJ/mol
# GULP energy per Si atom -5574.615552 kJ/mol
# Density = 2.070678 g / cm^3
# Si number density = 20.754021 Si / 1000 Ang^3
#
#
#
# Elastic Constant Matrix: (Units=GPa)
#
#
# Indices 1 2 3 4 5 6 
#
# 1 62.0039 7.8261 0.9442 8.9856 -3.4424 26.3954
# 2 7.8261 60.3584 0.8029 7.2412 3.7172 16.8926
# 3 0.9442 0.8029 44.3790 5.7911 -6.4885 1.1032
# 4 8.9856 7.2412 5.7911 29.1400 6.8313 -1.2262
# 5 -3.4424 3.7172 -6.4885 6.8313 27.2016 6.0446
# 6 26.3954 16.8926 1.1032 -1.2262 6.0446 28.2109
#
#
#
# Elastic Compliance Matrix: (Units=1/GPa)
#
#
# Indices 1 2 3 4 5 6 
#
# 1 0.041058 0.010265 0.006646 -0.023982 0.022673 -0.050723
# 2 0.010265 0.023483 0.002739 -0.012425 0.007630 -0.025948
# 3 0.006646 0.002739 0.025873 -0.011214 0.012111 -0.011952
# 4 -0.023982 -0.012425 -0.011214 0.054806 -0.026294 0.038333
# 5 0.022673 0.007630 0.012111 -0.026294 0.056878 -0.039585
# 6 -0.050723 -0.025948 -0.011952 0.038333 -0.039585 0.109058
#
#
# Mechanical properties :
#
#
# Convention : Reuss Voigt Hill
#
# Bulk Modulus (GPa) = 7.70931 20.65419 14.18175
# Shear Modulus (GPa) = 15.86820 27.38838 21.62829
#
# Velocity S-wave (km/s) = 2.76811 3.63666 3.23170
# Velocity P-wave (km/s) = 3.73353 5.25426 4.55777
#
# Compressibility (1/GPa) = 0.12971323
#
# Stress axis : x y z
#
# Youngs Moduli (GPa) = 24.35561 42.58368 38.64986
#
# Poissons Ratio (x) = -0.43710 -0.25686
# Poissons Ratio (y) = -0.25000 -0.10585
# Poissons Ratio (z) = -0.16187 -0.11662
#
# Static dielectric constant tensor:
#      x y z
#    x 1.732630 0.033630 -0.008690 
#    y 0.033630 1.774090 0.004040 
#    z -0.008690 0.004040 1.793430 
# 
# From -- ./inp_files/269976.got.cif
#   From: 2010.05.17/outbox.cif.g08.bks.cpg/sg2_135_cif.got.tgz:269976.got - 2010.06.03 11:33:40.
