data_PCOD9043338
_publ_section_title
;
Structure prediction by ZEFSAII (Michael W. Deem and Ramdas Pophale) SiO2 
 PCOD9043338
Probable space group: P -1
;
_chemical_formula_sum "Si O2"
_cell_formula_units_Z 14
_cell_length_a 7.887141
_cell_length_b 13.425401
_cell_length_c 5.965208
_cell_angle_alpha 115.905103
_cell_angle_beta 63.820662
_cell_angle_gamma 90.660977
_cell_volume 496.878079
_symmetry_space_group_name_H-M "P -1"
_symmetry_group_IT_number 2
_symmetry_cell_setting 'triclinic'
loop_
_space_group_symop_operation_xyz
x,y,z
-x,-y,-z
loop_
_atom_site_type_symbol
_atom_site_label
_atom_site_fract_x
_atom_site_fract_y
_atom_site_fract_z
Si Si1 0.640182 0.665548 0.148399
Si Si2 0.323886 0.937512 0.251740
Si Si3 0.936987 0.314314 0.544852
Si Si4 0.667135 0.823434 0.672773
Si Si5 0.625917 0.498441 0.686795
Si Si6 0.076346 0.601072 0.931432
Si Si7 0.818993 0.106701 0.206827
O O1 0.571226 0.766206 0.467527
O O2 0.537422 0.568423 0.218131
O O3 0.581038 0.632216 0.899678
O O4 0.871958 0.659316 0.989810
O O5 0.279893 0.907637 0.502818
O O6 0.263937 0.073831 0.392194
O O7 0.551436 0.887734 0.017322
O O8 0.250906 0.895945 0.014449
O O9 0.824975 0.437812 0.649990
O O10 0.875688 0.226358 0.329389
O O11 0.162744 0.274378 0.424864
O O12 0.867602 0.311500 0.839018
O O13 0.723533 0.458472 0.357257
O O14 0.000000 0.500000 0.000000
O O15 0.000000 0.000000 0.000000
#
# Coordination Sequence:
#
# PCOD9043338 Si02
#       7
#     2   2   2   2   2   2   2
#     4  10  23  45  70 106 139 195 240 305 374 444
#     4  11  26  51  71 109 151 193 253 312 372 442
#     4  11  25  44  71 106 139 200 239 306 384 440
#     4  10  24  46  73 105 145 195 248 309 377 443
#     4  11  24  46  71 103 150 186 247 311 365 457
#     4  11  24  45  68 105 144 190 244 307 370 448
#     4  12  26  47  77 108 148 196 251 312 372 449
#
# _framework density 28.175924999999999
#
# number of rings (size 3 to 8) (size 9 to 14) (size 15 to 20)
#    0.000    1.143    2.857    1.714    4.000    4.000 
#    7.714    0.000    0.000    0.000    0.000    0.000 
#    0.000    0.000    0.000    0.000    0.000    0.000 
#
# Total GULP energy -78010.104401 kJ/mol
# GULP energy per Si atom -5572.150314 kJ/mol
# Density = 2.811180 g / cm^3
# Si number density = 28.175925 Si / 1000 Ang^3
#
#
#
# Elastic Constant Matrix: (Units=GPa)
#
#
# Indices 1 2 3 4 5 6 
#
# 1 94.5544 30.8841 40.7134 -3.5989 28.7675 -2.4060
# 2 30.8841 86.1737 40.0196 -10.1652 17.2980 9.5980
# 3 40.7134 40.0196 158.5324 -4.2453 14.0472 15.7119
# 4 -3.5989 -10.1652 -4.2453 56.1197 20.1249 9.0673
# 5 28.7675 17.2980 14.0472 20.1249 74.2467 15.2432
# 6 -2.4060 9.5980 15.7119 9.0673 15.2432 53.4622
#
#
#
# Elastic Compliance Matrix: (Units=1/GPa)
#
#
# Indices 1 2 3 4 5 6 
#
# 1 0.014590 -0.002998 -0.002783 0.001637 -0.005553 0.003318
# 2 -0.002998 0.014957 -0.002502 0.003508 -0.002390 -0.001998
# 3 -0.002783 -0.002502 0.007818 0.000094 0.000600 -0.002161
# 4 0.001637 0.003508 0.000094 0.021370 -0.006796 -0.002270
# 5 -0.005553 -0.002390 0.000600 -0.006796 0.018767 -0.004196
# 6 0.003318 -0.001998 -0.002161 -0.002270 -0.004196 0.021429
#
#
# Mechanical properties :
#
#
# Convention : Reuss Voigt Hill
#
# Bulk Modulus (GPa) = 48.08156 62.49941 55.29048
# Shear Modulus (GPa) = 40.83977 51.94195 46.39086
#
# Velocity S-wave (km/s) = 3.81130 4.29824 4.06208
# Velocity P-wave (km/s) = 6.03903 6.84567 6.45496
#
# Compressibility (1/GPa) = 0.02079800
#
# Stress axis : x y z
#
# Youngs Moduli (GPa) = 68.54140 66.85792 127.91649
#
# Poissons Ratio (x) = 0.20046 0.35599
# Poissons Ratio (y) = 0.20550 0.32004
# Poissons Ratio (z) = 0.19075 0.16728
#
# Static dielectric constant tensor:
#      x y z
#    x 2.323260 -0.058460 0.038200 
#    y -0.058460 2.274720 -0.109590 
#    z 0.038200 -0.109590 2.513820 
# 
# From -- ./inp_files/39601.got.cif
#   From: 2010.05.17/outbox.cif.g08.bks.cpg/sg2_20_cif.got.tgz:39601.got - 2010.06.03 11:33:40.
