data_PCOD9043705
_publ_section_title
;
Structure prediction by ZEFSAII (Michael W. Deem and Ramdas Pophale) SiO2 
 PCOD9043705
Probable space group: P -1
;
_chemical_formula_sum "Si O2"
_cell_formula_units_Z 14
_cell_length_a 10.606401
_cell_length_b 17.516311
_cell_length_c 9.306070
_cell_angle_alpha 143.952175
_cell_angle_beta 136.935639
_cell_angle_gamma 39.122426
_cell_volume 616.601753
_symmetry_space_group_name_H-M "P -1"
_symmetry_group_IT_number 2
_symmetry_cell_setting 'triclinic'
loop_
_space_group_symop_operation_xyz
x,y,z
-x,-y,-z
loop_
_atom_site_type_symbol
_atom_site_label
_atom_site_fract_x
_atom_site_fract_y
_atom_site_fract_z
Si Si1 0.788423 0.694079 0.372706
Si Si2 0.815347 0.093343 0.596783
Si Si3 0.938026 0.151039 0.098171
Si Si4 0.209693 0.423049 0.271985
Si Si5 0.523393 0.255236 0.057589
Si Si6 0.597098 0.908141 0.084613
Si Si7 0.561567 0.609547 0.301623
O O1 0.608537 0.762195 0.209089
O O2 0.694033 0.654525 0.372026
O O3 0.889954 0.796272 0.655932
O O4 0.977435 0.545752 0.243310
O O5 0.646527 0.242703 0.610462
O O6 0.699541 0.994933 0.385112
O O7 0.891946 0.136289 0.871238
O O8 0.000000 0.000000 0.500000
O O9 0.724182 0.257349 0.163764
O O10 0.000000 0.000000 0.000000
O O11 0.302769 0.454887 0.542185
O O12 0.365486 0.397603 0.230842
O O13 0.231497 0.259047 0.060681
O O14 0.564732 0.123521 0.003554
O O15 0.500000 0.000000 0.000000
O O16 0.500000 0.500000 0.000000
#
# Coordination Sequence:
#
# PCOD9043705 Si02
#       7
#     2   2   2   2   2   2   2
#     4  12  26  50  75 108 155 195 252 309 381 446
#     4  12  27  44  73 107 150 194 252 308 369 451
#     4  12  29  45  74 113 146 198 249 311 378 447
#     4  10  25  45  77 106 145 201 246 308 376 450
#     4  10  25  49  73 108 148 192 248 312 370 445
#     4  10  23  45  74 104 142 195 248 308 366 446
#     4  12  27  48  75 108 151 199 252 315 374 443
#
# _framework density 22.705093999999999
#
# number of rings (size 3 to 8) (size 9 to 14) (size 15 to 20)
#    0.857    0.000    2.857    2.571   10.000    1.714 
#    2.571    0.000    0.000    0.000    0.000    0.000 
#    0.000    0.000    0.000    0.000    0.000    0.000 
#
# Total GULP energy -78358.274097 kJ/mol
# GULP energy per Si atom -5597.019578 kJ/mol
# Density = 2.265342 g / cm^3
# Si number density = 22.705094 Si / 1000 Ang^3
#
#
#
# Elastic Constant Matrix: (Units=GPa)
#
#
# Indices 1 2 3 4 5 6 
#
# 1 140.2753 15.7250 37.1563 -1.2013 -1.8880 -7.1777
# 2 15.7250 68.9266 -8.4835 15.0423 5.5107 -1.6053
# 3 37.1563 -8.4835 99.8701 -3.1125 18.7661 11.2743
# 4 -1.2013 15.0423 -3.1125 44.2654 3.8799 -8.5933
# 5 -1.8880 5.5107 18.7661 3.8799 44.9462 7.7003
# 6 -7.1777 -1.6053 11.2743 -8.5933 7.7003 36.5697
#
#
#
# Elastic Compliance Matrix: (Units=1/GPa)
#
#
# Indices 1 2 3 4 5 6 
#
# 1 0.008713 -0.002858 -0.004103 0.001295 0.001844 0.002766
# 2 -0.002858 0.016951 0.003005 -0.005683 -0.002704 -0.001509
# 3 -0.004103 0.003005 0.013212 -0.000454 -0.005380 -0.003720
# 4 0.001295 -0.005683 -0.000454 0.026060 -0.002472 0.006789
# 5 0.001844 -0.002704 -0.005380 -0.002472 0.025823 -0.004116
# 6 0.002766 -0.001509 -0.003720 0.006789 -0.004116 0.031431
#
#
# Mechanical properties :
#
#
# Convention : Reuss Voigt Hill
#
# Bulk Modulus (GPa) = 32.29658 44.20752 38.25205
# Shear Modulus (GPa) = 35.60642 42.80122 39.20382
#
# Velocity S-wave (km/s) = 3.96436 4.34648 4.15981
# Velocity P-wave (km/s) = 5.93381 6.68593 6.32107
#
# Compressibility (1/GPa) = 0.03096303
#
# Stress axis : x y z
#
# Youngs Moduli (GPa) = 114.76449 58.99237 75.69123
#
# Poissons Ratio (x) = 0.16863 0.31056
# Poissons Ratio (y) = 0.32805 -0.22743
# Poissons Ratio (z) = 0.47088 -0.17726
#
# Static dielectric constant tensor:
#      x y z
#    x 1.851460 0.004070 -0.028690 
#    y 0.004070 1.902940 0.014560 
#    z -0.028690 0.014560 1.836720 
# 
# From -- ./inp_files/281348.got.cif
#   From: 2010.05.17/outbox.cif.g08.bks.cpg/sg2_141_cif.got.tgz:281348.got - 2010.06.03 11:33:40.
