data_PCOD9043153
_publ_section_title
;
Structure prediction by ZEFSAII (Michael W. Deem and Ramdas Pophale) SiO2 
 PCOD9043153
Probable space group: P -1
;
_chemical_formula_sum "Si O2"
_cell_formula_units_Z 16
_cell_length_a 9.808433
_cell_length_b 8.645656
_cell_length_c 14.757069
_cell_angle_alpha 89.922526
_cell_angle_beta 42.448735
_cell_angle_gamma 63.797075
_cell_volume 639.860939
_symmetry_space_group_name_H-M "P -1"
_symmetry_group_IT_number 2
_symmetry_cell_setting 'triclinic'
loop_
_space_group_symop_operation_xyz
x,y,z
-x,-y,-z
loop_
_atom_site_type_symbol
_atom_site_label
_atom_site_fract_x
_atom_site_fract_y
_atom_site_fract_z
Si Si1 0.971296 0.085327 0.769112
Si Si2 0.785342 0.050481 0.037791
Si Si3 0.636646 0.972448 0.764373
Si Si4 0.404020 0.528084 0.251518
Si Si5 0.679882 0.170494 0.570712
Si Si6 0.587854 0.651278 0.016983
Si Si7 0.801286 0.695907 0.321903
Si Si8 0.985284 0.499105 0.615613
O O1 0.935605 0.981200 0.867702
O O2 0.659308 0.295300 0.919178
O O3 0.162142 0.136084 0.699752
O O4 0.088080 0.959715 0.618308
O O5 0.643064 0.962800 0.129259
O O6 0.555781 0.291493 0.170709
O O7 0.000000 0.000000 0.000000
O O8 0.821642 0.740297 0.710530
O O9 0.728993 0.029832 0.632623
O O10 0.546418 0.119476 0.892924
O O11 0.335986 0.649176 0.378000
O O12 0.589461 0.557622 0.109888
O O13 0.150509 0.605525 0.314496
O O14 0.409504 0.259967 0.648019
O O15 0.890319 0.515788 0.838613
O O16 0.757631 0.652082 0.446063
O O17 0.000000 0.500000 0.500000
#
# Coordination Sequence:
#
# PCOD9043153 Si02
#       8
#     2   2   2   2   2   2   2   2
#     4  12  24  44  74 104 137 186 240 291 346 424
#     4  11  24  43  69  97 144 184 231 285 364 415
#     4  10  25  43  67 104 140 185 233 289 355 423
#     4  10  23  45  69 101 136 192 231 279 355 435
#     4  11  27  45  76 105 143 181 242 296 349 414
#     4  11  23  42  76  98 132 181 249 280 337 427
#     4  12  24  44  74 104 137 186 240 291 346 424
#     4  11  24  43  69  97 144 184 231 285 364 415
#
# _framework density 25.005434000000001
#
# number of rings (size 3 to 8) (size 9 to 14) (size 15 to 20)
#    0.000    1.000    2.500    3.750    3.500    6.000 
#    0.000    1.250    0.000    0.000    0.000    0.000 
#    0.000    0.000    0.000    0.000    0.000    0.000 
#
# Total GULP energy -89246.231809 kJ/mol
# GULP energy per Si atom -5577.889488 kJ/mol
# Density = 2.494852 g / cm^3
# Si number density = 25.005434 Si / 1000 Ang^3
#
#
#
# Elastic Constant Matrix: (Units=GPa)
#
#
# Indices 1 2 3 4 5 6 
#
# 1 127.7983 17.0953 29.0497 4.2509 -0.0405 -1.8110
# 2 17.0953 60.0661 29.7934 -7.4447 11.2585 12.5672
# 3 29.0497 29.7934 120.5521 -5.9493 20.7197 3.5458
# 4 4.2509 -7.4447 -5.9493 31.9820 4.4729 7.3505
# 5 -0.0405 11.2585 20.7197 4.4729 40.6130 3.3496
# 6 -1.8110 12.5672 3.5458 7.3505 3.3496 39.2732
#
#
#
# Elastic Compliance Matrix: (Units=1/GPa)
#
#
# Indices 1 2 3 4 5 6 
#
# 1 0.008740 -0.002576 -0.001986 -0.002803 0.001899 0.001769
# 2 -0.002576 0.022620 -0.003575 0.007433 -0.004605 -0.008033
# 3 -0.001986 -0.003575 0.010548 0.002014 -0.004624 0.000118
# 4 -0.002803 0.007433 0.002014 0.036711 -0.006390 -0.009015
# 5 0.001899 -0.004605 -0.004624 -0.006390 0.028905 0.000709
# 6 0.001769 -0.008033 0.000118 -0.009015 0.000709 0.029731
#
#
# Mechanical properties :
#
#
# Convention : Reuss Voigt Hill
#
# Bulk Modulus (GPa) = 39.01127 51.14370 45.07748
# Shear Modulus (GPa) = 30.85041 37.87219 34.36130
#
# Velocity S-wave (km/s) = 3.51629 3.89595 3.71098
# Velocity P-wave (km/s) = 5.66751 6.38243 6.03556
#
# Compressibility (1/GPa) = 0.02563362
#
# Stress axis : x y z
#
# Youngs Moduli (GPa) = 114.41972 44.20937 94.80551
#
# Poissons Ratio (x) = 0.11387 0.18830
# Poissons Ratio (y) = 0.29471 0.33893
# Poissons Ratio (z) = 0.22726 0.15805
#
# Static dielectric constant tensor:
#      x y z
#    x 1.958870 0.060940 0.140990 
#    y 0.060940 2.057070 -0.151240 
#    z 0.140990 -0.151240 2.011810 
# 
# From -- ./inp_files/495138.got.cif
#   From: 2010.05.17/outbox.cif.g08.bks.cpg/sg2_248_cif.got.tgz:495138.got - 2010.06.03 11:33:40.
