data_PCOD9043656
_publ_section_title
;
Structure prediction by ZEFSAII (Michael W. Deem and Ramdas Pophale) SiO2 
 PCOD9043656
Probable space group: P -1
;
_chemical_formula_sum "Si O2"
_cell_formula_units_Z 14
_cell_length_a 13.066010
_cell_length_b 11.202822
_cell_length_c 13.766229
_cell_angle_alpha 134.007589
_cell_angle_beta 148.835684
_cell_angle_gamma 37.238771
_cell_volume 630.434448
_symmetry_space_group_name_H-M "P -1"
_symmetry_group_IT_number 2
_symmetry_cell_setting 'triclinic'
loop_
_space_group_symop_operation_xyz
x,y,z
-x,-y,-z
loop_
_atom_site_type_symbol
_atom_site_label
_atom_site_fract_x
_atom_site_fract_y
_atom_site_fract_z
Si Si1 0.658870 0.028783 0.069172
Si Si2 0.311939 0.225780 0.510196
Si Si3 0.465430 0.010648 0.270679
Si Si4 0.544819 0.634060 0.475808
Si Si5 0.366139 0.452790 0.101243
Si Si6 0.013433 0.796958 0.892434
Si Si7 0.983049 0.388418 0.829403
O O1 0.568089 0.020585 0.884659
O O2 0.609619 0.245587 0.166075
O O3 0.500000 0.000000 0.000000
O O4 0.916917 0.837064 0.188065
O O5 0.386867 0.194682 0.665602
O O6 0.348433 0.360270 0.540952
O O7 0.063608 0.253639 0.299272
O O8 0.500000 0.000000 0.500000
O O9 0.573585 0.144284 0.453538
O O10 0.198573 0.153843 0.177299
O O11 0.263831 0.620017 0.030994
O O12 0.740885 0.494880 0.634356
O O13 0.170244 0.397756 0.916911
O O14 0.382510 0.554065 0.269734
O O15 0.000000 0.000000 0.000000
O O16 0.000000 0.500000 0.000000
#
# Coordination Sequence:
#
# PCOD9043656 Si02
#       7
#     2   2   2   2   2   2   2
#     4  10  23  38  58  83 121 159 190 243 295 337
#     4   8  16  31  56  85 111 141 187 245 281 330
#     4  10  18  38  60  84 120 153 193 244 286 344
#     4  10  19  35  63  86 110 149 200 237 290 346
#     4  11  21  36  60  88 117 149 194 244 297 339
#     4  10  17  33  61  90 116 149 194 237 291 355
#     4  11  20  40  60  81 116 156 201 240 284 341
#
# _framework density 22.206907000000001
#
# number of rings (size 3 to 8) (size 9 to 14) (size 15 to 20)
#    0.000    2.286    4.286    2.571    0.000    1.143 
#    0.000    3.571   12.571    0.000    0.000    0.000 
#    0.000    0.000    0.000    0.000    0.000    0.000 
#
# Total GULP energy -78021.195322 kJ/mol
# GULP energy per Si atom -5572.942523 kJ/mol
# Density = 2.215636 g / cm^3
# Si number density = 22.206907 Si / 1000 Ang^3
#
#
#
# Elastic Constant Matrix: (Units=GPa)
#
#
# Indices 1 2 3 4 5 6 
#
# 1 40.0159 13.8325 24.1231 -6.8143 -22.4557 8.2515
# 2 13.8325 129.7310 24.3292 -26.1454 -6.9308 17.3714
# 3 24.1231 24.3292 108.0295 -27.7419 -18.3731 22.0861
# 4 -6.8143 -26.1454 -27.7419 41.6081 15.8794 -5.9592
# 5 -22.4557 -6.9308 -18.3731 15.8794 36.5534 -5.0336
# 6 8.2515 17.3714 22.0861 -5.9592 -5.0336 17.7933
#
#
#
# Elastic Compliance Matrix: (Units=1/GPa)
#
#
# Indices 1 2 3 4 5 6 
#
# 1 0.044546 -0.003465 -0.005988 -0.010089 0.027326 -0.005492
# 2 -0.003465 0.010196 0.001442 0.006947 -0.003709 -0.008859
# 3 -0.005988 0.001442 0.015313 0.008533 -0.001509 -0.015207
# 4 -0.010089 0.006947 0.008533 0.038625 -0.018041 -0.004863
# 5 0.027326 -0.003709 -0.001509 -0.018041 0.050673 0.001115
# 6 -0.005492 -0.008859 -0.015207 -0.004863 0.001115 0.084960
#
#
# Mechanical properties :
#
#
# Convention : Reuss Voigt Hill
#
# Bulk Modulus (GPa) = 18.50699 44.70511 31.60605
# Shear Modulus (GPa) = 17.96336 33.55707 25.76021
#
# Velocity S-wave (km/s) = 2.84722 3.89152 3.40959
# Velocity P-wave (km/s) = 4.37731 6.35348 5.45562
#
# Compressibility (1/GPa) = 0.05403364
#
# Stress axis : x y z
#
# Youngs Moduli (GPa) = 22.44862 98.08223 65.30537
#
# Poissons Ratio (x) = 0.33985 0.39102
# Poissons Ratio (y) = 0.07778 -0.09418
# Poissons Ratio (z) = 0.13441 -0.14145
#
# Static dielectric constant tensor:
#      x y z
#    x 1.583100 0.055250 -0.265170 
#    y 0.055250 1.888070 0.022540 
#    z -0.265170 0.022540 1.633240 
# 
# From -- ./inp_files/530678.got.cif
#   From: 2010.05.17/outbox.cif.g08.bks.cpg/sg2_266_cif.got.tgz:530678.got - 2010.06.03 11:33:40.
