data_PCOD9043518
_publ_section_title
;
Structure prediction by ZEFSAII (Michael W. Deem and Ramdas Pophale) SiO2 
 PCOD9043518
Probable space group: P -1
;
_chemical_formula_sum "Si O2"
_cell_formula_units_Z 15
_cell_length_a 4.944131
_cell_length_b 16.458536
_cell_length_c 7.773549
_cell_angle_alpha 118.673823
_cell_angle_beta 93.254069
_cell_angle_gamma 103.626847
_cell_volume 528.558391
_symmetry_space_group_name_H-M "P -1"
_symmetry_group_IT_number 2
_symmetry_cell_setting 'triclinic'
loop_
_space_group_symop_operation_xyz
x,y,z
-x,-y,-z
loop_
_atom_site_type_symbol
_atom_site_label
_atom_site_fract_x
_atom_site_fract_y
_atom_site_fract_z
Si Si1 0.848087 0.012179 0.332646
Si Si2 0.084881 0.397920 0.499501
Si Si3 0.568317 0.236599 0.209509
Si Si4 0.209440 0.214627 0.486456
Si Si5 0.917697 0.556625 0.837478
Si Si6 0.500000 0.500000 0.000000
Si Si7 0.490403 0.302986 0.924319
Si Si8 0.710257 0.061556 0.922793
O O1 0.925730 0.127394 0.419099
O O2 0.615217 0.764812 0.310261
O O3 0.000000 0.000000 0.500000
O O4 0.016683 0.968335 0.151349
O O5 0.755506 0.341710 0.389366
O O6 0.200675 0.429844 0.344518
O O7 0.174039 0.315618 0.520893
O O8 0.138749 0.489625 0.720074
O O9 0.378464 0.184622 0.307286
O O10 0.399090 0.250877 0.049294
O O11 0.768550 0.172926 0.092949
O O12 0.170351 0.652692 0.001006
O O13 0.718079 0.467201 0.856024
O O14 0.359582 0.393895 0.988982
O O15 0.485058 0.041172 0.737029
O O16 0.500000 0.000000 0.000000
#
# Coordination Sequence:
#
# PCOD9043518 Si02
#       8
#     2   2   2   2   2   1   2   2
#     4  12  28  50  77 114 155 198 250 315 384 451
#     4  10  23  45  72 104 137 194 242 303 359 445
#     4  11  25  45  73 104 147 187 254 299 371 440
#     4  12  25  45  74 105 145 188 252 302 368 444
#     4  10  23  45  71  99 147 186 241 297 373 438
#     4  12  22  42  66 100 140 182 236 288 374 424
#     4  11  25  43  68 108 139 193 237 306 362 438
#     4  12  25  50  79 109 151 204 247 310 385 452
#
# _framework density 28.379076000000001
#
# number of rings (size 3 to 8) (size 9 to 14) (size 15 to 20)
#    0.000    0.800    1.333    5.200    1.867    1.067 
#    7.200    5.333    0.000    2.400    0.000    0.000 
#    0.000    0.000    0.000    0.000    0.000    0.000 
#
# Total GULP energy -83939.930580 kJ/mol
# GULP energy per Si atom -5595.995372 kJ/mol
# Density = 2.831448 g / cm^3
# Si number density = 28.379076 Si / 1000 Ang^3
#
#
#
# Elastic Constant Matrix: (Units=GPa)
#
#
# Indices 1 2 3 4 5 6 
#
# 1 106.9426 10.5280 16.2794 9.3379 9.9933 13.0303
# 2 10.5280 103.6597 26.4639 9.9437 6.1363 1.5976
# 3 16.2794 26.4639 122.6098 -3.2858 20.0577 9.1882
# 4 9.3379 9.9437 -3.2858 44.4190 4.5310 -3.2314
# 5 9.9933 6.1363 20.0577 4.5310 45.4743 1.3591
# 6 13.0303 1.5976 9.1882 -3.2314 1.3591 47.6982
#
#
#
# Elastic Compliance Matrix: (Units=1/GPa)
#
#
# Indices 1 2 3 4 5 6 
#
# 1 0.010185 -0.000479 -0.000858 -0.002141 -0.001501 -0.002703
# 2 -0.000479 0.010507 -0.002260 -0.002407 -0.000077 0.000054
# 3 -0.000858 -0.002260 0.009528 0.001688 -0.003839 -0.001302
# 4 -0.002141 -0.002407 0.001688 0.024020 -0.002403 0.002036
# 5 -0.001501 -0.000077 -0.003839 -0.002403 0.024254 0.000298
# 6 -0.002703 0.000054 -0.001302 0.002036 0.000298 0.022082
#
#
# Mechanical properties :
#
#
# Convention : Reuss Voigt Hill
#
# Bulk Modulus (GPa) = 43.42988 48.86165 46.14577
# Shear Modulus (GPa) = 43.30965 46.18102 44.74533
#
# Velocity S-wave (km/s) = 3.91079 4.03835 3.97508
# Velocity P-wave (km/s) = 5.97738 6.24493 6.11262
#
# Compressibility (1/GPa) = 0.02302562
#
# Stress axis : x y z
#
# Youngs Moduli (GPa) = 98.18157 95.17226 104.94916
#
# Poissons Ratio (x) = 0.04563 0.09006
# Poissons Ratio (y) = 0.04708 0.23719
# Poissons Ratio (z) = 0.08425 0.21510
#
# Static dielectric constant tensor:
#      x y z
#    x 2.172930 -0.065340 -0.137210 
#    y -0.065340 2.168920 -0.016710 
#    z -0.137210 -0.016710 2.333280 
# 
# From -- ./inp_files/134439.got.cif
#   From: 2010.05.17/outbox.cif.g08.bks.cpg/sg2_68_cif.got.tgz:134439.got - 2010.06.03 11:33:40.
