data_PCOD9043325
_publ_section_title
;
Structure prediction by ZEFSAII (Michael W. Deem and Ramdas Pophale) SiO2 
 PCOD9043325
Probable space group: P -1
;
_chemical_formula_sum "Si O2"
_cell_formula_units_Z 16
_cell_length_a 5.162333
_cell_length_b 11.438844
_cell_length_c 11.594300
_cell_angle_alpha 113.746974
_cell_angle_beta 102.979117
_cell_angle_gamma 90.407383
_cell_volume 607.014247
_symmetry_space_group_name_H-M "P -1"
_symmetry_group_IT_number 2
_symmetry_cell_setting 'triclinic'
loop_
_space_group_symop_operation_xyz
x,y,z
-x,-y,-z
loop_
_atom_site_type_symbol
_atom_site_label
_atom_site_fract_x
_atom_site_fract_y
_atom_site_fract_z
Si Si1 0.176097 0.619171 0.119303
Si Si2 0.916579 0.857574 0.602466
Si Si3 0.192284 0.730941 0.777840
Si Si4 0.535906 0.987206 0.335636
Si Si5 0.721393 0.721823 0.212988
Si Si6 0.048151 0.556748 0.325062
Si Si7 0.729800 0.061086 0.963632
Si Si8 0.527408 0.348744 0.436645
O O1 0.453314 0.658626 0.101499
O O2 0.236693 0.575843 0.239136
O O3 0.981331 0.732142 0.160682
O O4 0.000000 0.500000 0.000000
O O5 0.687369 0.734347 0.539765
O O6 0.039880 0.833751 0.732880
O O7 0.716484 0.967381 0.604710
O O8 0.198904 0.909888 0.590517
O O9 0.233962 0.790129 0.931833
O O10 0.445503 0.707007 0.711694
O O11 0.025634 0.590780 0.710188
O O12 0.645745 0.851017 0.313522
O O13 0.398681 0.967917 0.186433
O O14 0.802021 0.621804 0.275565
O O15 0.176871 0.643606 0.475179
O O16 0.500000 0.000000 0.000000
O O17 0.000000 0.000000 0.000000
O O18 0.500000 0.500000 0.500000
#
# Coordination Sequence:
#
# PCOD9043325 Si02
#       8
#     2   2   2   2   2   2   2   2
#     4  10  23  45  70 104 140 184 243 290 354 425
#     4  12  24  44  73 104 143 184 241 288 362 419
#     4  12  25  43  71 112 143 185 241 296 363 430
#     4  12  24  47  69 105 149 187 231 297 350 436
#     4  10  25  45  71 101 142 190 234 287 365 417
#     4  10  27  44  72 104 143 186 241 296 361 424
#     4  12  24  42  68 106 145 186 230 286 362 432
#     4  12  26  46  74 106 148 190 238 307 365 421
#
# _framework density 26.358526000000001
#
# number of rings (size 3 to 8) (size 9 to 14) (size 15 to 20)
#    0.750    0.000    5.000    1.500    3.500    0.000 
#    0.000    1.250    0.000    0.000    0.000    0.000 
#    0.000    0.000    0.000    0.000    0.000    0.000 
#
# Total GULP energy -89327.329057 kJ/mol
# GULP energy per Si atom -5582.958066 kJ/mol
# Density = 2.629853 g / cm^3
# Si number density = 26.358526 Si / 1000 Ang^3
#
#
#
# Elastic Constant Matrix: (Units=GPa)
#
#
# Indices 1 2 3 4 5 6 
#
# 1 188.0849 36.8037 39.3222 -0.1291 25.3566 -11.7591
# 2 36.8037 97.7670 17.4028 22.2851 9.3540 -17.9501
# 3 39.3222 17.4028 100.3836 21.9295 -3.0956 2.5101
# 4 -0.1291 22.2851 21.9295 43.3186 8.0445 0.5441
# 5 25.3566 9.3540 -3.0956 8.0445 37.5145 9.0162
# 6 -11.7591 -17.9501 2.5101 0.5441 9.0162 37.9160
#
#
#
# Elastic Compliance Matrix: (Units=1/GPa)
#
#
# Indices 1 2 3 4 5 6 
#
# 1 0.007586 -0.001885 -0.003831 0.004123 -0.006634 0.003232
# 2 -0.001885 0.014005 -0.000496 -0.006585 -0.002471 0.006761
# 3 -0.003831 -0.000496 0.013530 -0.007745 0.006386 -0.003726
# 4 0.004123 -0.006585 -0.007745 0.032021 -0.008720 0.000288
# 5 -0.006634 -0.002471 0.006386 -0.008720 0.037123 -0.012353
# 6 0.003232 0.006761 -0.003726 0.000288 -0.012353 0.033757
#
#
# Mechanical properties :
#
#
# Convention : Reuss Voigt Hill
#
# Bulk Modulus (GPa) = 44.05900 63.69920 53.87910
# Shear Modulus (GPa) = 31.64297 43.26360 37.45329
#
# Velocity S-wave (km/s) = 3.46856 4.05575 3.77360
# Velocity P-wave (km/s) = 5.72650 6.79346 6.28267
#
# Compressibility (1/GPa) = 0.02269684
#
# Stress axis : x y z
#
# Youngs Moduli (GPa) = 131.82330 71.40182 73.90743
#
# Poissons Ratio (x) = 0.13463 0.28313
# Poissons Ratio (y) = 0.24855 0.03666
# Poissons Ratio (z) = 0.50500 0.03542
#
# Static dielectric constant tensor:
#      x y z
#    x 2.146520 -0.085470 -0.013540 
#    y -0.085470 2.163920 0.042020 
#    z -0.013540 0.042020 2.191140 
# 
# From -- ./inp_files/482296.got.cif
#   From: 2010.05.17/outbox.cif.g08.bks.cpg/sg2_242_cif.got.tgz:482296.got - 2010.06.03 11:33:40.
