data_PCOD9043758
_publ_section_title
;
Structure prediction by ZEFSAII (Michael W. Deem and Ramdas Pophale) SiO2 
 PCOD9043758
Probable space group: P -1
;
_chemical_formula_sum "Si O2"
_cell_formula_units_Z 16
_cell_length_a 8.849173
_cell_length_b 12.472906
_cell_length_c 13.962361
_cell_angle_alpha 68.183492
_cell_angle_beta 150.362335
_cell_angle_gamma 100.967873
_cell_volume 677.283787
_symmetry_space_group_name_H-M "P -1"
_symmetry_group_IT_number 2
_symmetry_cell_setting 'triclinic'
loop_
_space_group_symop_operation_xyz
x,y,z
-x,-y,-z
loop_
_atom_site_type_symbol
_atom_site_label
_atom_site_fract_x
_atom_site_fract_y
_atom_site_fract_z
Si Si1 0.730350 0.952665 0.413336
Si Si2 0.216160 0.285572 0.372193
Si Si3 0.049695 0.648314 0.012327
Si Si4 0.891988 0.914067 0.890791
Si Si5 0.841757 0.494846 0.231632
Si Si6 0.693748 0.989561 0.014472
Si Si7 0.087760 0.722266 0.305018
Si Si8 0.441673 0.566628 0.713557
O O1 0.844414 0.833986 0.578677
O O2 0.483075 0.053136 0.307961
O O3 0.535424 0.932267 0.218810
O O4 0.000000 0.000000 0.500000
O O5 0.050169 0.319562 0.165359
O O6 0.592229 0.267459 0.572764
O O7 0.085592 0.388557 0.344066
O O8 0.043851 0.771002 0.021971
O O9 0.762992 0.600131 0.912317
O O10 0.388433 0.544524 0.228492
O O11 0.000000 0.000000 0.000000
O O12 0.996883 0.962092 0.833211
O O13 0.771463 0.471714 0.311385
O O14 0.946721 0.614641 0.233613
O O15 0.500000 0.500000 0.000000
O O16 0.819620 0.848485 0.105724
O O17 0.500000 0.000000 0.000000
O O18 0.217646 0.681745 0.497059
#
# Coordination Sequence:
#
# PCOD9043758 Si02
#       8
#     2   2   2   2   2   2   2   2
#     4  11  27  45  69 103 138 185 243 292 361 426
#     4  11  25  47  70 107 141 194 237 293 369 427
#     4  10  23  45  75 101 150 178 241 296 357 427
#     4  10  24  47  71 103 141 190 234 294 363 430
#     4  12  26  43  74 107 144 183 244 300 360 416
#     4  11  27  46  70 103 140 187 240 296 367 425
#     4  11  26  48  69 100 150 188 242 293 364 437
#     4  10  24  46  70 112 133 195 233 296 359 420
#
# _framework density 23.623774999999998
#
# number of rings (size 3 to 8) (size 9 to 14) (size 15 to 20)
#    0.000    1.250    2.500    0.750    8.750    4.500 
#    0.000    0.000    0.000    0.000    0.000    0.000 
#    0.000    0.000    0.000    0.000    0.000    0.000 
#
# Total GULP energy -89461.463576 kJ/mol
# GULP energy per Si atom -5591.341473 kJ/mol
# Density = 2.357001 g / cm^3
# Si number density = 23.623775 Si / 1000 Ang^3
#
#
#
# Elastic Constant Matrix: (Units=GPa)
#
#
# Indices 1 2 3 4 5 6 
#
# 1 120.8498 33.3979 20.3481 8.9933 23.4909 22.3118
# 2 33.3979 131.9416 8.5409 -12.6401 12.8715 10.3614
# 3 20.3481 8.5409 49.1163 2.2945 -6.3329 3.7933
# 4 8.9933 -12.6401 2.2945 32.6601 4.1167 2.4006
# 5 23.4909 12.8715 -6.3329 4.1167 42.2811 -2.0790
# 6 22.3118 10.3614 3.7933 2.4006 -2.0790 43.1148
#
#
#
# Elastic Compliance Matrix: (Units=1/GPa)
#
#
# Indices 1 2 3 4 5 6 
#
# 1 0.012242 -0.001872 -0.005104 -0.002436 -0.007036 -0.005640
# 2 -0.001872 0.008895 -0.001171 0.004441 -0.002346 -0.001426
# 3 -0.005104 -0.001171 0.023553 -0.001672 0.006945 0.001278
# 4 -0.002436 0.004441 -0.001672 0.033707 -0.003615 -0.001711
# 5 -0.007036 -0.002346 0.006945 -0.003615 0.029924 0.005238
# 6 -0.005640 -0.001426 0.001278 -0.001711 0.005238 0.026690
#
#
# Mechanical properties :
#
#
# Convention : Reuss Voigt Hill
#
# Bulk Modulus (GPa) = 35.21681 47.38684 41.30182
# Shear Modulus (GPa) = 31.10030 39.58591 35.34311
#
# Velocity S-wave (km/s) = 3.63227 4.09795 3.87212
# Velocity P-wave (km/s) = 5.70359 6.51870 6.12472
#
# Compressibility (1/GPa) = 0.02839553
#
# Stress axis : x y z
#
# Youngs Moduli (GPa) = 81.68823 112.42150 42.45784
#
# Poissons Ratio (x) = 0.21049 0.21670
# Poissons Ratio (y) = 0.15295 0.04971
# Poissons Ratio (z) = 0.41692 0.13163
#
# Static dielectric constant tensor:
#      x y z
#    x 1.921280 -0.008420 -0.050620 
#    y -0.008420 1.785140 -0.046010 
#    z -0.050620 -0.046010 1.814890 
# 
# From -- ./inp_files/500333.got.cif
#   From: 2010.05.17/outbox.cif.g08.bks.cpg/sg2_251_cif.got.tgz:500333.got - 2010.06.03 11:33:40.
