data_PCOD9043942
_publ_section_title
;
Structure prediction by ZEFSAII (Michael W. Deem and Ramdas Pophale) SiO2 
 PCOD9043942
Probable space group: P -1
;
_chemical_formula_sum "Si O2"
_cell_formula_units_Z 14
_cell_length_a 9.618250
_cell_length_b 12.303154
_cell_length_c 9.344223
_cell_angle_alpha 39.458227
_cell_angle_beta 97.036541
_cell_angle_gamma 119.468019
_cell_volume 541.621754
_symmetry_space_group_name_H-M "P -1"
_symmetry_group_IT_number 2
_symmetry_cell_setting 'triclinic'
loop_
_space_group_symop_operation_xyz
x,y,z
-x,-y,-z
loop_
_atom_site_type_symbol
_atom_site_label
_atom_site_fract_x
_atom_site_fract_y
_atom_site_fract_z
Si Si1 0.955394 0.632110 0.215254
Si Si2 0.052579 0.673249 0.700319
Si Si3 0.327309 0.351899 0.727796
Si Si4 0.457461 0.908490 0.751591
Si Si5 0.180969 0.984992 0.664523
Si Si6 0.824838 0.116346 0.763793
Si Si7 0.588000 0.510101 0.854309
O O1 0.895769 0.439920 0.292937
O O2 0.794416 0.576571 0.348190
O O3 0.883247 0.276497 0.743820
O O4 0.021358 0.830224 0.912368
O O5 0.131942 0.881537 0.604116
O O6 0.022377 0.772610 0.453927
O O7 0.000000 0.500000 0.000000
O O8 0.500000 0.500000 0.500000
O O9 0.420065 0.400214 0.842187
O O10 0.209992 0.093361 0.953388
O O11 0.336982 0.965654 0.744729
O O12 0.637001 0.015923 0.758267
O O13 0.500000 0.000000 0.500000
O O14 0.354044 0.645032 0.992913
O O15 0.259551 0.234659 0.418662
O O16 0.500000 0.500000 0.000000
#
# Coordination Sequence:
#
# PCOD9043942 Si02
#       7
#     2   2   2   2   2   2   2
#     4  11  26  47  73 102 150 195 245 301 375 440
#     4  10  23  46  67 105 147 186 239 299 358 433
#     4  11  26  50  71 104 146 189 247 316 369 439
#     4  11  22  42  76 107 153 187 248 307 354 443
#     4  11  23  47  72 109 150 193 245 307 363 435
#     4  11  23  47  71 108 141 195 247 294 370 443
#     4  11  23  42  76 110 138 197 251 297 375 429
#
# _framework density 25.848298
#
# number of rings (size 3 to 8) (size 9 to 14) (size 15 to 20)
#    0.000    1.143    2.857    2.571    4.000    0.571 
#   20.571    2.143    0.000    0.000    0.000    0.000 
#    0.000    0.000    0.000    0.000    0.000    0.000 
#
# Total GULP energy -78007.850076 kJ/mol
# GULP energy per Si atom -5571.989291 kJ/mol
# Density = 2.578947 g / cm^3
# Si number density = 25.848298 Si / 1000 Ang^3
#
#
#
# Elastic Constant Matrix: (Units=GPa)
#
#
# Indices 1 2 3 4 5 6 
#
# 1 106.2965 50.1087 24.9744 9.4443 6.6008 -16.5053
# 2 50.1087 149.3250 60.6767 -18.8068 1.1443 0.3169
# 3 24.9744 60.6767 152.9215 -36.1054 2.8683 -23.6537
# 4 9.4443 -18.8068 -36.1054 67.2506 -8.8040 8.5127
# 5 6.6008 1.1443 2.8683 -8.8040 26.6804 7.1263
# 6 -16.5053 0.3169 -23.6537 8.5127 7.1263 33.4801
#
#
#
# Elastic Compliance Matrix: (Units=1/GPa)
#
#
# Indices 1 2 3 4 5 6 
#
# 1 0.014817 -0.005813 0.000307 -0.006011 -0.008339 0.010880
# 2 -0.005813 0.010536 -0.003670 0.003302 0.004431 -0.007341
# 3 0.000307 -0.003670 0.009735 0.003091 -0.001720 0.006644
# 4 -0.006011 0.003302 0.003091 0.020644 0.010013 -0.008191
# 5 -0.008339 0.004431 -0.001720 0.010013 0.047666 -0.018060
# 6 0.010880 -0.007341 0.006644 -0.008191 -0.018060 0.045922
#
#
# Mechanical properties :
#
#
# Convention : Reuss Voigt Hill
#
# Bulk Modulus (GPa) = 59.75333 75.56251 67.65792
# Shear Modulus (GPa) = 28.85947 43.66777 36.26362
#
# Velocity S-wave (km/s) = 3.34502 4.11467 3.74965
# Velocity P-wave (km/s) = 6.17139 7.20212 6.70659
#
# Compressibility (1/GPa) = 0.01673547
#
# Stress axis : x y z
#
# Youngs Moduli (GPa) = 67.48997 94.90972 102.71879
#
# Poissons Ratio (x) = 0.55171 -0.03151
# Poissons Ratio (y) = 0.39232 0.37702
# Poissons Ratio (z) = -0.02070 0.34836
#
# Static dielectric constant tensor:
#      x y z
#    x 2.035790 -0.259520 -0.003140 
#    y -0.259520 1.675100 -0.030270 
#    z -0.003140 -0.030270 2.281850 
# 
# From -- ./inp_files/430742.got.cif
#   From: 2010.05.17/outbox.cif.g08.bks.cpg/sg2_216_cif.got.tgz:430742.got - 2010.06.03 11:33:40.
