data_PCOD9043196
_publ_section_title
;
Structure prediction by ZEFSAII (Michael W. Deem and Ramdas Pophale) SiO2 
 PCOD9043196
Probable space group: P -1
;
_chemical_formula_sum "Si O2"
_cell_formula_units_Z 14
_cell_length_a 8.788266
_cell_length_b 11.770129
_cell_length_c 9.110134
_cell_angle_alpha 85.006312
_cell_angle_beta 113.789469
_cell_angle_gamma 129.450386
_cell_volume 646.440512
_symmetry_space_group_name_H-M "P -1"
_symmetry_group_IT_number 2
_symmetry_cell_setting 'triclinic'
loop_
_space_group_symop_operation_xyz
x,y,z
-x,-y,-z
loop_
_atom_site_type_symbol
_atom_site_label
_atom_site_fract_x
_atom_site_fract_y
_atom_site_fract_z
Si Si1 0.484458 0.961832 0.167749
Si Si2 0.107004 0.930885 0.494715
Si Si3 0.346291 0.113804 0.271696
Si Si4 0.724796 0.616864 0.230958
Si Si5 0.107970 0.660863 0.959449
Si Si6 0.815844 0.401777 0.318011
Si Si7 0.249732 0.315673 0.098556
O O1 0.717774 0.043928 0.326541
O O2 0.346692 0.001489 0.184301
O O3 0.334623 0.781593 0.123686
O O4 0.500000 0.000000 0.000000
O O5 0.251747 0.029665 0.397962
O O6 0.000000 0.000000 0.500000
O O7 0.907426 0.755480 0.391880
O O8 0.602051 0.265454 0.340517
O O9 0.230396 0.178655 0.168074
O O10 0.785485 0.514178 0.227529
O O11 0.476506 0.486488 0.210901
O O12 0.730878 0.685708 0.070872
O O13 0.144197 0.660170 0.799444
O O14 0.951037 0.697367 0.925657
O O15 0.000000 0.500000 0.000000
O O16 0.000000 0.500000 0.500000
#
# Coordination Sequence:
#
# PCOD9043196 Si02
#       7
#     2   2   2   2   2   2   2
#     4  12  28  49  74 106 150 195 244 297 368 436
#     4  12  30  46  75 110 150 190 244 305 365 433
#     4  11  26  47  72 104 149 190 238 303 364 431
#     4  10  23  45  69 105 148 187 240 296 366 426
#     4  12  26  44  75 106 142 192 249 293 358 440
#     4  11  24  43  70 101 143 189 239 299 362 426
#     4  10  24  44  77 107 142 195 240 299 362 432
#
# _framework density 21.657057999999999
#
# number of rings (size 3 to 8) (size 9 to 14) (size 15 to 20)
#    0.000    0.857    2.857    2.143    8.000    1.143 
#    0.000    2.857    0.000    0.000    0.000    0.000 
#    0.000    0.000    0.000    0.000    0.000    0.000 
#
# Total GULP energy -78245.950750 kJ/mol
# GULP energy per Si atom -5588.996482 kJ/mol
# Density = 2.160777 g / cm^3
# Si number density = 21.657058 Si / 1000 Ang^3
#
#
#
# Elastic Constant Matrix: (Units=GPa)
#
#
# Indices 1 2 3 4 5 6 
#
# 1 128.3428 23.3833 53.2037 7.6363 -9.6065 -6.9621
# 2 23.3833 121.2911 60.3411 24.6519 0.3835 -6.2690
# 3 53.2037 60.3411 134.1416 17.0112 6.7885 2.0267
# 4 7.6363 24.6519 17.0112 50.8865 2.4071 -1.7173
# 5 -9.6065 0.3835 6.7885 2.4071 32.2462 -3.4136
# 6 -6.9621 -6.2690 2.0267 -1.7173 -3.4136 27.5762
#
#
#
# Elastic Compliance Matrix: (Units=1/GPa)
#
#
# Indices 1 2 3 4 5 6 
#
# 1 0.010081 0.000514 -0.004456 -0.000359 0.004333 0.003503
# 2 0.000514 0.011632 -0.005063 -0.003995 0.001708 0.003109
# 3 -0.004456 -0.005063 0.011861 -0.000775 -0.004099 -0.003703
# 4 -0.000359 -0.003995 -0.000775 0.021980 -0.001512 0.000240
# 5 0.004333 0.001708 -0.004099 -0.001512 0.033880 0.005883
# 6 0.003503 0.003109 -0.003703 0.000240 0.005883 0.038870
#
#
# Mechanical properties :
#
#
# Convention : Reuss Voigt Hill
#
# Bulk Modulus (GPa) = 64.25294 73.07017 68.66155
# Shear Modulus (GPa) = 33.00294 38.59827 35.80061
#
# Velocity S-wave (km/s) = 3.90794 4.22625 4.07021
# Velocity P-wave (km/s) = 7.07781 7.59130 7.33905
#
# Compressibility (1/GPa) = 0.01556349
#
# Stress axis : x y z
#
# Youngs Moduli (GPa) = 99.19619 85.97298 84.30831
#
# Poissons Ratio (x) = -0.04416 0.37569
# Poissons Ratio (y) = -0.05096 0.42683
# Poissons Ratio (z) = 0.44203 0.43525
#
# Static dielectric constant tensor:
#      x y z
#    x 1.798930 0.015280 0.036010 
#    y 0.015280 1.821270 0.018220 
#    z 0.036010 0.018220 1.820210 
# 
# From -- ./inp_files/157653.got.cif
#   From: 2010.05.17/outbox.cif.g08.bks.cpg/sg2_79_cif.got.tgz:157653.got - 2010.06.03 11:33:40.
