data_PCOD9043652
_publ_section_title
;
Structure prediction by ZEFSAII (Michael W. Deem and Ramdas Pophale) SiO2 
 PCOD9043652
Probable space group: P -1
;
_chemical_formula_sum "Si O2"
_cell_formula_units_Z 16
_cell_length_a 14.964954
_cell_length_b 7.864419
_cell_length_c 8.220704
_cell_angle_alpha 107.590563
_cell_angle_beta 40.520461
_cell_angle_gamma 115.089292
_cell_volume 568.960755
_symmetry_space_group_name_H-M "P -1"
_symmetry_group_IT_number 2
_symmetry_cell_setting 'triclinic'
loop_
_space_group_symop_operation_xyz
x,y,z
-x,-y,-z
loop_
_atom_site_type_symbol
_atom_site_label
_atom_site_fract_x
_atom_site_fract_y
_atom_site_fract_z
Si Si1 0.641898 0.568133 0.438004
Si Si2 0.419170 0.606954 0.998891
Si Si3 0.200589 0.228851 0.318395
Si Si4 0.723046 0.939518 0.251817
Si Si5 0.972632 0.298332 0.886107
Si Si6 0.057703 0.716776 0.444670
Si Si7 0.559615 0.210395 0.624390
Si Si8 0.667088 0.084012 0.840251
O O1 0.500000 0.500000 0.500000
O O2 0.572126 0.624597 0.714010
O O3 0.740602 0.755109 0.264030
O O4 0.661932 0.370225 0.408746
O O5 0.309018 0.404972 0.127088
O O6 0.436411 0.694801 0.179604
O O7 0.729159 0.933733 0.795927
O O8 0.348554 0.722147 0.009900
O O9 0.128675 0.282771 0.599415
O O10 0.063992 0.179383 0.367905
O O11 0.600492 0.865072 0.256092
O O12 0.625336 0.042336 0.516464
O O13 0.870682 0.108235 0.058868
O O14 0.899488 0.287114 0.806184
O O15 0.000000 0.500000 0.000000
O O16 0.000000 0.500000 0.500000
O O17 0.181150 0.812485 0.432361
O O18 0.500000 0.000000 0.000000
#
# Coordination Sequence:
#
# PCOD9043652 Si02
#       8
#     2   2   2   2   2   2   2   2
#     4  10  25  45  67 110 157 207 260 334 417 488
#     4  12  26  44  76 114 158 203 272 342 407 484
#     4  10  26  49  80 116 166 212 271 332 411 487
#     4  10  23  45  73 107 160 210 261 332 412 490
#     4  10  23  48  81 114 160 222 271 327 408 498
#     4  10  23  52  78 116 163 212 269 333 409 487
#     4  10  24  43  68 112 161 202 259 342 413 471
#     4  12  28  44  79 125 157 206 272 342 406 480
#
# _framework density 28.121445999999999
#
# number of rings (size 3 to 8) (size 9 to 14) (size 15 to 20)
#    0.750    0.750    1.250    1.500    7.000    3.000 
#    0.000    1.250    0.000    5.250    0.000    0.000 
#    0.000    0.000    0.000    0.000    0.000    0.000 
#
# Total GULP energy -89181.975098 kJ/mol
# GULP energy per Si atom -5573.873444 kJ/mol
# Density = 2.805744 g / cm^3
# Si number density = 28.121446 Si / 1000 Ang^3
#
#
#
# Elastic Constant Matrix: (Units=GPa)
#
#
# Indices 1 2 3 4 5 6 
#
# 1 137.7711 60.9755 60.9059 -3.1352 -34.7375 -1.2297
# 2 60.9755 169.7491 78.1097 -26.5033 -6.5318 -15.3397
# 3 60.9059 78.1097 182.8149 -41.6946 -14.1706 -1.7038
# 4 -3.1352 -26.5033 -41.6946 70.0558 0.5058 10.3432
# 5 -34.7375 -6.5318 -14.1706 0.5058 66.8373 10.5389
# 6 -1.2297 -15.3397 -1.7038 10.3432 10.5389 65.7345
#
#
#
# Elastic Compliance Matrix: (Units=1/GPa)
#
#
# Indices 1 2 3 4 5 6 
#
# 1 0.010863 -0.003005 -0.002403 -0.001961 0.005025 -0.001057
# 2 -0.003005 0.008385 -0.002374 0.001359 -0.001551 0.001874
# 3 -0.002403 -0.002374 0.008230 0.004050 0.000405 -0.001088
# 4 -0.001961 0.001359 0.004050 0.017464 0.000218 -0.002397
# 5 0.005025 -0.001551 0.000405 0.000218 0.018007 -0.003179
# 6 -0.001057 0.001874 -0.001088 -0.002397 -0.003179 0.016489
#
#
# Mechanical properties :
#
#
# Convention : Reuss Voigt Hill
#
# Bulk Modulus (GPa) = 83.93493 98.92416 91.42955
# Shear Modulus (GPa) = 50.51882 59.88180 55.20031
#
# Velocity S-wave (km/s) = 4.24306 4.61955 4.43530
# Velocity P-wave (km/s) = 7.34281 7.98170 7.66891
#
# Compressibility (1/GPa) = 0.01191399
#
# Stress axis : x y z
#
# Youngs Moduli (GPa) = 92.05164 119.26409 121.50778
#
# Poissons Ratio (x) = 0.35838 0.29198
# Poissons Ratio (y) = 0.27661 0.28848
# Poissons Ratio (z) = 0.22120 0.28316
#
# Static dielectric constant tensor:
#      x y z
#    x 2.660270 0.031310 -0.126390 
#    y 0.031310 2.400690 -0.050140 
#    z -0.126390 -0.050140 2.304640 
# 
# From -- ./inp_files/445825.got.cif
#   From: 2010.05.17/outbox.cif.g08.bks.cpg/sg2_223_cif.got.tgz:445825.got - 2010.06.03 11:33:40.
