data_PCOD9043549
_publ_section_title
;
Structure prediction by ZEFSAII (Michael W. Deem and Ramdas Pophale) SiO2 
 PCOD9043549
Probable space group: P -1
;
_chemical_formula_sum "Si O2"
_cell_formula_units_Z 14
_cell_length_a 11.250860
_cell_length_b 7.724555
_cell_length_c 9.245177
_cell_angle_alpha 99.060724
_cell_angle_beta 89.003921
_cell_angle_gamma 139.022316
_cell_volume 513.886668
_symmetry_space_group_name_H-M "P -1"
_symmetry_group_IT_number 2
_symmetry_cell_setting 'triclinic'
loop_
_space_group_symop_operation_xyz
x,y,z
-x,-y,-z
loop_
_atom_site_type_symbol
_atom_site_label
_atom_site_fract_x
_atom_site_fract_y
_atom_site_fract_z
Si Si1 0.155260 0.688612 0.664595
Si Si2 0.384961 0.698192 0.486911
Si Si3 0.903639 0.976235 0.757511
Si Si4 0.754525 0.389766 0.093457
Si Si5 0.514437 0.611860 0.859344
Si Si6 0.857132 0.554483 0.790121
Si Si7 0.300839 0.180857 0.548803
O O1 0.222983 0.581860 0.578621
O O2 0.251744 0.791035 0.832896
O O3 0.948617 0.499981 0.691473
O O4 0.206032 0.904966 0.587883
O O5 0.318754 0.580241 0.312669
O O6 0.525984 0.707459 0.528064
O O7 0.500000 0.000000 0.500000
O O8 0.724791 0.841030 0.831509
O O9 0.968326 0.862139 0.811532
O O10 0.832120 0.882494 0.578388
O O11 0.071100 0.298746 0.812194
O O12 0.568671 0.287838 0.106638
O O13 0.803408 0.427670 0.930181
O O14 0.377617 0.369634 0.711682
O O15 0.500000 0.500000 0.000000
#
# Coordination Sequence:
#
# PCOD9043549 Si02
#       7
#     2   2   2   2   2   2   2
#     4  11  27  45  72 101 146 190 241 288 364 431
#     4  10  23  45  72 102 142 187 240 298 353 432
#     4  12  27  45  79 106 147 187 245 302 357 433
#     4  12  28  48  73 110 146 191 241 300 362 431
#     4  12  25  49  77 108 145 188 243 301 366 427
#     4  12  25  48  69 104 147 187 243 297 358 425
#     4  11  25  48  73 107 142 191 242 301 361 424
#
# _framework density 27.243359999999999
#
# number of rings (size 3 to 8) (size 9 to 14) (size 15 to 20)
#    0.000    0.571    2.857    3.429   10.000    1.143 
#    0.000    3.571    0.000    0.000    0.000    0.000 
#    0.000    0.000    0.000    0.000    0.000    0.000 
#
# Total GULP energy -78397.830977 kJ/mol
# GULP energy per Si atom -5599.845070 kJ/mol
# Density = 2.718135 g / cm^3
# Si number density = 27.243360 Si / 1000 Ang^3
#
#
#
# Elastic Constant Matrix: (Units=GPa)
#
#
# Indices 1 2 3 4 5 6 
#
# 1 130.2312 22.2282 44.3087 -29.3002 -4.2972 15.4097
# 2 22.2282 59.1449 51.6656 -9.9335 -11.2522 8.4080
# 3 44.3087 51.6656 186.8788 -39.5845 13.7606 1.2309
# 4 -29.3002 -9.9335 -39.5845 40.4738 -6.6227 3.9587
# 5 -4.2972 -11.2522 13.7606 -6.6227 53.7083 -19.2724
# 6 15.4097 8.4080 1.2309 3.9587 -19.2724 44.4060
#
#
#
# Elastic Compliance Matrix: (Units=1/GPa)
#
#
# Indices 1 2 3 4 5 6 
#
# 1 0.010108 -0.001706 -0.000459 0.006828 0.000064 -0.003753
# 2 -0.001706 0.025050 -0.007193 -0.000961 0.006454 -0.001065
# 3 -0.000459 -0.007193 0.009024 0.006253 -0.003351 -0.000741
# 4 0.006828 -0.000961 0.006253 0.036250 0.001429 -0.004972
# 5 0.000064 0.006454 -0.003351 0.001429 0.024343 0.009286
# 6 -0.003753 -0.001065 -0.000741 -0.004972 0.009286 0.028518
#
#
# Mechanical properties :
#
#
# Convention : Reuss Voigt Hill
#
# Bulk Modulus (GPa) = 39.26528 68.07331 53.66930
# Shear Modulus (GPa) = 31.15332 44.92111 38.03722
#
# Velocity S-wave (km/s) = 3.38527 4.06505 3.74063
# Velocity P-wave (km/s) = 5.45198 6.86106 6.19671
#
# Compressibility (1/GPa) = 0.02546779
#
# Stress axis : x y z
#
# Youngs Moduli (GPa) = 98.92923 39.92083 110.80983
#
# Poissons Ratio (x) = 0.06809 0.05084
# Poissons Ratio (y) = 0.16874 0.79703
# Poissons Ratio (z) = 0.04539 0.28714
#
# Static dielectric constant tensor:
#      x y z
#    x 1.884650 0.149640 0.029510 
#    y 0.149640 2.083140 0.031760 
#    z 0.029510 0.031760 2.146970 
# 
# From -- ./inp_files/243804.got.cif
#   From: 2010.05.17/outbox.cif.g08.bks.cpg/sg2_122_cif.got.tgz:243804.got - 2010.06.03 11:33:40.
