data_PCOD9043879
_publ_section_title
;
Structure prediction by ZEFSAII (Michael W. Deem and Ramdas Pophale) SiO2 
 PCOD9043879
Probable space group: P -1
;
_chemical_formula_sum "Si O2"
_cell_formula_units_Z 14
_cell_length_a 12.265815
_cell_length_b 8.025152
_cell_length_c 18.257826
_cell_angle_alpha 63.405308
_cell_angle_beta 151.373228
_cell_angle_gamma 133.792666
_cell_volume 551.236382
_symmetry_space_group_name_H-M "P -1"
_symmetry_group_IT_number 2
_symmetry_cell_setting 'triclinic'
loop_
_space_group_symop_operation_xyz
x,y,z
-x,-y,-z
loop_
_atom_site_type_symbol
_atom_site_label
_atom_site_fract_x
_atom_site_fract_y
_atom_site_fract_z
Si Si1 0.621454 0.292430 0.962689
Si Si2 0.646186 0.375905 0.692390
Si Si3 0.535131 0.371813 0.201777
Si Si4 0.324863 0.202070 0.957233
Si Si5 0.748633 0.019921 0.336718
Si Si6 0.180479 0.632094 0.492676
Si Si7 0.589342 0.781493 0.574601
O O1 0.629654 0.522121 0.908036
O O2 0.480405 0.187746 0.982025
O O3 0.392463 0.077939 0.808226
O O4 0.975060 0.416293 0.136240
O O5 0.527077 0.184686 0.727168
O O6 0.537606 0.528928 0.606820
O O7 0.490070 0.219192 0.555614
O O8 0.562001 0.270008 0.312404
O O9 0.910552 0.626259 0.355727
O O10 0.382788 0.176931 0.080866
O O11 0.500000 0.500000 0.000000
O O12 0.954701 0.015782 0.763250
O O13 0.000000 0.000000 0.500000
O O14 0.951813 0.320790 0.411129
O O15 0.353658 0.754055 0.494745
#
# Coordination Sequence:
#
# PCOD9043879 Si02
#       7
#     2   2   2   2   2   2   2
#     4  11  23  44  67 100 138 173 228 275 340 396
#     4  11  25  41  70 104 134 177 221 286 337 397
#     4  10  23  46  64  95 140 175 226 265 342 397
#     4  10  24  44  66  97 137 180 219 281 336 403
#     4  12  22  43  71 101 139 173 226 279 339 398
#     4  11  24  44  70 100 134 183 221 279 333 403
#     4  11  24  44  68 102 135 172 236 274 337 401
#
# _framework density 25.397451
#
# number of rings (size 3 to 8) (size 9 to 14) (size 15 to 20)
#    0.000    1.143    2.857    2.143    6.000    1.143 
#   10.286    5.714    0.000    0.000    0.000    0.000 
#    0.000    0.000    0.000    0.000    0.000    0.000 
#
# Total GULP energy -78511.700100 kJ/mol
# GULP energy per Si atom -5607.978579 kJ/mol
# Density = 2.533965 g / cm^3
# Si number density = 25.397451 Si / 1000 Ang^3
#
#
#
# Elastic Constant Matrix: (Units=GPa)
#
#
# Indices 1 2 3 4 5 6 
#
# 1 141.8428 28.5714 41.8241 7.3748 -22.6349 10.8296
# 2 28.5714 72.5098 2.5485 2.1235 -13.2265 13.6646
# 3 41.8241 2.5485 137.7528 1.9927 -27.3241 7.1871
# 4 7.3748 2.1235 1.9927 42.9926 -2.0397 4.4024
# 5 -22.6349 -13.2265 -27.3241 -2.0397 69.3658 -0.5798
# 6 10.8296 13.6646 7.1871 4.4024 -0.5798 36.8827
#
#
#
# Elastic Compliance Matrix: (Units=1/GPa)
#
#
# Indices 1 2 3 4 5 6 
#
# 1 0.008628 -0.002878 -0.002238 -0.001080 0.001346 -0.000881
# 2 -0.002878 0.016395 0.001388 0.000310 0.002697 -0.005494
# 3 -0.002238 0.001388 0.008564 0.000210 0.002902 -0.001505
# 4 -0.001080 0.000310 0.000210 0.023715 0.000465 -0.002662
# 5 0.001346 0.002697 0.002902 0.000465 0.016512 -0.001756
# 6 -0.000881 -0.005494 -0.001505 -0.002662 -0.001756 0.029991
#
#
# Mechanical properties :
#
#
# Convention : Reuss Voigt Hill
#
# Bulk Modulus (GPa) = 38.26940 55.33260 46.80100
# Shear Modulus (GPa) = 41.67719 48.45898 45.06808
#
# Velocity S-wave (km/s) = 4.05532 4.37283 4.21707
# Velocity P-wave (km/s) = 6.08510 6.87965 6.49453
#
# Compressibility (1/GPa) = 0.02613054
#
# Stress axis : x y z
#
# Youngs Moduli (GPa) = 115.90486 60.99560 116.76578
#
# Poissons Ratio (x) = 0.17553 0.26129
# Poissons Ratio (y) = 0.33355 -0.16202
# Poissons Ratio (z) = 0.25936 -0.08463
#
# Static dielectric constant tensor:
#      x y z
#    x 2.008930 -0.035510 -0.017480 
#    y -0.035510 2.076980 -0.056460 
#    z -0.017480 -0.056460 1.943610 
# 
# From -- ./inp_files/393262.got.cif
#   From: 2010.05.17/outbox.cif.g08.bks.cpg/sg2_197_cif.got.tgz:393262.got - 2010.06.03 11:33:40.
