data_PCOD9043091
_publ_section_title
;
Structure prediction by ZEFSAII (Michael W. Deem and Ramdas Pophale) SiO2 
 PCOD9043091
Probable space group: P -1
;
_chemical_formula_sum "Si O2"
_cell_formula_units_Z 14
_cell_length_a 8.054815
_cell_length_b 12.591703
_cell_length_c 8.821019
_cell_angle_alpha 102.374192
_cell_angle_beta 116.288055
_cell_angle_gamma 57.512254
_cell_volume 676.276493
_symmetry_space_group_name_H-M "P -1"
_symmetry_group_IT_number 2
_symmetry_cell_setting 'triclinic'
loop_
_space_group_symop_operation_xyz
x,y,z
-x,-y,-z
loop_
_atom_site_type_symbol
_atom_site_label
_atom_site_fract_x
_atom_site_fract_y
_atom_site_fract_z
Si Si1 0.954925 0.328910 0.298137
Si Si2 0.767063 0.661656 0.820244
Si Si3 0.582777 0.059820 0.176443
Si Si4 0.495700 0.480101 0.313211
Si Si5 0.896210 0.294357 0.924758
Si Si6 0.017045 0.019032 0.835679
Si Si7 0.261028 0.063064 0.485367
O O1 0.734118 0.417559 0.321804
O O2 0.096286 0.384511 0.295836
O O3 0.892778 0.284069 0.103159
O O4 0.112390 0.209004 0.426169
O O5 0.609087 0.812805 0.792457
O O6 0.621177 0.602317 0.780026
O O7 0.942509 0.650088 0.011856
O O8 0.711108 0.964397 0.334087
O O9 0.752206 0.084640 0.165472
O O10 0.500000 0.000000 0.000000
O O11 0.500000 0.500000 0.500000
O O12 0.335254 0.611064 0.206011
O O13 0.989198 0.156882 0.851832
O O14 0.844098 0.008484 0.662676
O O15 0.000000 0.000000 0.000000
O O16 0.500000 0.000000 0.500000
#
# Coordination Sequence:
#
# PCOD9043091 Si02
#       7
#     2   2   2   2   2   2   2
#     4  10  23  46  67  94 136 175 224 281 339 401
#     4  10  23  45  68  95 136 176 226 275 340 403
#     4  12  23  42  69 101 137 177 219 277 352 413
#     4  12  27  42  69  98 130 182 236 281 330 396
#     4  10  23  46  64  94 136 178 226 274 340 405
#     4  12  23  42  68 105 135 176 226 280 352 413
#     4  12  23  42  67 102 139 174 222 285 346 413
#
# _framework density 20.701592000000002
#
# number of rings (size 3 to 8) (size 9 to 14) (size 15 to 20)
#    0.857    0.000    4.286    3.000    4.000    0.571 
#    0.000    0.000    0.000    0.000    0.000    0.000 
#    0.000    0.000    0.000    0.000    0.000    0.000 
#
# Total GULP energy -78127.353138 kJ/mol
# GULP energy per Si atom -5580.525224 kJ/mol
# Density = 2.065447 g / cm^3
# Si number density = 20.701592 Si / 1000 Ang^3
#
#
#
# Elastic Constant Matrix: (Units=GPa)
#
#
# Indices 1 2 3 4 5 6 
#
# 1 138.3210 22.7336 30.1274 4.0717 -3.4458 -33.6021
# 2 22.7336 73.8322 10.5597 -17.3118 1.9170 -23.5053
# 3 30.1274 10.5597 109.1763 -18.1934 1.9397 -9.2295
# 4 4.0717 -17.3118 -18.1934 38.5341 4.4113 6.3319
# 5 -3.4458 1.9170 1.9397 4.4113 38.2455 2.0204
# 6 -33.6021 -23.5053 -9.2295 6.3319 2.0204 38.5780
#
#
#
# Elastic Compliance Matrix: (Units=1/GPa)
#
#
# Indices 1 2 3 4 5 6 
#
# 1 0.010156 -0.001212 -0.002752 -0.004386 0.001193 0.008107
# 2 -0.001212 0.018631 0.000621 0.007536 -0.002437 0.009335
# 3 -0.002752 0.000621 0.010844 0.005913 -0.001494 -0.000317
# 4 -0.004386 0.007536 0.005913 0.033647 -0.004791 -0.003085
# 5 0.001193 -0.002437 -0.001494 -0.004791 0.027081 -0.001435
# 6 0.008107 0.009335 -0.000317 -0.003085 -0.001435 0.039176
#
#
# Mechanical properties :
#
#
# Convention : Reuss Voigt Hill
#
# Bulk Modulus (GPa) = 30.35410 49.79675 40.07543
# Shear Modulus (GPa) = 31.80582 40.26544 36.03563
#
# Velocity S-wave (km/s) = 3.92394 4.41505 4.17672
# Velocity P-wave (km/s) = 5.93500 7.07792 6.53151
#
# Compressibility (1/GPa) = 0.03294448
#
# Stress axis : x y z
#
# Youngs Moduli (GPa) = 98.45997 53.67413 92.21696
#
# Poissons Ratio (x) = 0.06506 0.25380
# Poissons Ratio (y) = 0.11934 -0.05725
# Poissons Ratio (z) = 0.27098 -0.03332
#
# Static dielectric constant tensor:
#      x y z
#    x 1.820200 0.015270 0.015050 
#    y 0.015270 1.731850 -0.006250 
#    z 0.015050 -0.006250 1.697490 
# 
# From -- ./inp_files/190322.got.cif
#   From: 2010.05.17/outbox.cif.g08.bks.cpg/sg2_96_cif.got.tgz:190322.got - 2010.06.03 11:33:40.
