data_PCOD9043359
_publ_section_title
;
Structure prediction by ZEFSAII (Michael W. Deem and Ramdas Pophale) SiO2 
 PCOD9043359
Probable space group: P -1
;
_chemical_formula_sum "Si O2"
_cell_formula_units_Z 16
_cell_length_a 8.045877
_cell_length_b 8.874445
_cell_length_c 18.246848
_cell_angle_alpha 141.285194
_cell_angle_beta 50.248369
_cell_angle_gamma 109.934274
_cell_volume 591.705490
_symmetry_space_group_name_H-M "P -1"
_symmetry_group_IT_number 2
_symmetry_cell_setting 'triclinic'
loop_
_space_group_symop_operation_xyz
x,y,z
-x,-y,-z
loop_
_atom_site_type_symbol
_atom_site_label
_atom_site_fract_x
_atom_site_fract_y
_atom_site_fract_z
Si Si1 0.233408 0.356868 0.461615
Si Si2 0.641287 0.201019 0.472247
Si Si3 0.692197 0.954214 0.820772
Si Si4 0.149805 0.566047 0.793369
Si Si5 0.562387 0.837978 0.249555
Si Si6 0.794228 0.988913 0.972328
Si Si7 0.761903 0.438147 0.928912
Si Si8 0.837278 0.234529 0.589077
O O1 0.285918 0.618153 0.537133
O O2 0.003138 0.395744 0.586863
O O3 0.224058 0.270959 0.347069
O O4 0.418425 0.102019 0.348359
O O5 0.374253 0.356906 0.621033
O O6 0.337322 0.066177 0.671885
O O7 0.763541 0.175493 0.506474
O O8 0.808621 0.157714 0.839748
O O9 0.744872 0.925559 0.880422
O O10 0.414156 0.039752 0.930026
O O11 0.036972 0.796256 0.856027
O O12 0.949982 0.450937 0.823122
O O13 0.212102 0.720875 0.902302
O O14 0.391528 0.687952 0.268273
O O15 0.747312 0.650890 0.074599
O O16 0.500000 0.500000 0.000000
O O17 0.000000 0.000000 0.500000
#
# Coordination Sequence:
#
# PCOD9043359 Si02
#       8
#     2   2   2   2   2   2   2   2
#     4  11  23  48  73 108 145 195 251 305 368 443
#     4  12  26  49  76 111 150 192 252 310 373 444
#     4  11  23  45  75 106 149 192 260 299 368 448
#     4  11  25  46  75 111 152 194 246 313 378 433
#     4  11  26  47  73 108 150 193 248 308 372 438
#     4  10  23  45  70 111 151 196 242 312 373 443
#     4  12  25  46  76 108 150 201 246 308 372 450
#     4  10  26  50  76 105 149 202 245 304 371 450
#
# _framework density 27.040476999999999
#
# number of rings (size 3 to 8) (size 9 to 14) (size 15 to 20)
#    0.000    1.000    3.750    1.125    5.250    2.500 
#    6.750    0.000    0.000    0.000    0.000    0.000 
#    0.000    0.000    0.000    0.000    0.000    0.000 
#
# Total GULP energy -89791.675046 kJ/mol
# GULP energy per Si atom -5611.979690 kJ/mol
# Density = 2.697893 g / cm^3
# Si number density = 27.040477 Si / 1000 Ang^3
#
#
#
# Elastic Constant Matrix: (Units=GPa)
#
#
# Indices 1 2 3 4 5 6 
#
# 1 100.7130 18.9686 38.4498 -3.2472 -7.7079 2.7536
# 2 18.9686 144.7786 24.1598 -25.6762 -11.9760 29.6723
# 3 38.4498 24.1598 90.1693 -2.1576 10.5055 18.6073
# 4 -3.2472 -25.6762 -2.1576 42.7599 8.5425 -5.8669
# 5 -7.7079 -11.9760 10.5055 8.5425 40.6725 -0.1206
# 6 2.7536 29.6723 18.6073 -5.8669 -0.1206 50.1299
#
#
#
# Elastic Compliance Matrix: (Units=1/GPa)
#
#
# Indices 1 2 3 4 5 6 
#
# 1 0.012601 -0.000796 -0.006018 -0.000307 0.003778 0.001986
# 2 -0.000796 0.009041 -0.001315 0.004325 0.001930 -0.004308
# 3 -0.006018 -0.001315 0.015630 0.000011 -0.005581 -0.004705
# 4 -0.000307 0.004325 0.000011 0.026930 -0.004442 0.000594
# 5 0.003778 0.001930 -0.005581 -0.004442 0.028246 0.000270
# 6 0.001986 -0.004308 -0.004705 0.000594 0.000270 0.024206
#
#
# Mechanical properties :
#
#
# Convention : Reuss Voigt Hill
#
# Bulk Modulus (GPa) = 47.58514 55.42413 51.50463
# Shear Modulus (GPa) = 35.73586 43.65131 39.69359
#
# Velocity S-wave (km/s) = 3.63928 4.02219 3.83552
# Velocity P-wave (km/s) = 5.94097 6.48937 6.22121
#
# Compressibility (1/GPa) = 0.02101497
#
# Stress axis : x y z
#
# Youngs Moduli (GPa) = 79.35612 110.61306 63.97942
#
# Poissons Ratio (x) = 0.08801 0.38500
# Poissons Ratio (y) = 0.06314 0.08415
# Poissons Ratio (z) = 0.47753 0.14549
#
# Static dielectric constant tensor:
#      x y z
#    x 2.175700 -0.012000 -0.045930 
#    y -0.012000 2.127740 0.022830 
#    z -0.045930 0.022830 2.034160 
# 
# From -- ./inp_files/587525.got.cif
#   From: 2010.05.17/outbox.cif.g08.bks.cpg/sg2_294_cif.got.tgz:587525.got - 2010.06.03 11:33:40.
