data_PCOD9043285
_publ_section_title
;
Structure prediction by ZEFSAII (Michael W. Deem and Ramdas Pophale) SiO2 
 PCOD9043285
Probable space group: P -1
;
_chemical_formula_sum "Si O2"
_cell_formula_units_Z 15
_cell_length_a 5.253583
_cell_length_b 6.305356
_cell_length_c 18.648422
_cell_angle_alpha 98.631835
_cell_angle_beta 77.571862
_cell_angle_gamma 79.164054
_cell_volume 580.700448
_symmetry_space_group_name_H-M "P -1"
_symmetry_group_IT_number 2
_symmetry_cell_setting 'triclinic'
loop_
_space_group_symop_operation_xyz
x,y,z
-x,-y,-z
loop_
_atom_site_type_symbol
_atom_site_label
_atom_site_fract_x
_atom_site_fract_y
_atom_site_fract_z
Si Si1 0.942417 0.267762 0.313846
Si Si2 0.595251 0.169395 0.705668
Si Si3 0.642879 0.027620 0.411163
Si Si4 0.842466 0.806203 0.843155
Si Si5 0.100987 0.636617 0.397606
Si Si6 0.296202 0.061533 0.848434
Si Si7 0.723050 0.642789 0.997689
Si Si8 0.500000 0.500000 0.500000
O O1 0.923522 0.456071 0.384250
O O2 0.963657 0.339214 0.234854
O O3 0.697909 0.161916 0.342506
O O4 0.186297 0.055033 0.300279
O O5 0.739018 0.366718 0.688450
O O6 0.497402 0.138297 0.629684
O O7 0.376720 0.197347 0.783178
O O8 0.504682 0.227995 0.478904
O O9 0.913350 0.881898 0.421669
O O10 0.545999 0.852723 0.828843
O O11 0.007151 0.002691 0.853433
O O12 0.336551 0.173239 0.927653
O O13 0.791545 0.724120 0.920173
O O14 0.275615 0.557331 0.451835
O O15 0.500000 0.500000 0.000000
O O16 0.000000 0.500000 0.000000
#
# Coordination Sequence:
#
# PCOD9043285 Si02
#       8
#     2   2   2   2   2   2   2   1
#     4  10  23  45  70 101 138 181 246 293 365 434
#     4  10  23  45  70 101 137 182 243 294 363 433
#     4  11  24  47  68 103 136 184 238 299 364 442
#     4  11  23  44  74  99 141 198 239 297 365 431
#     4  11  26  44  71 100 139 186 236 303 365 443
#     4  11  23  45  73  99 145 192 243 300 360 432
#     4  12  26  42  65 111 149 187 243 298 360 427
#     4  12  26  48  70 100 146 182 236 296 378 440
#
# _framework density 25.830877000000001
#
# number of rings (size 3 to 8) (size 9 to 14) (size 15 to 20)
#    0.000    1.067    2.667    2.800    3.733    2.133 
#    0.000    0.000    0.000    0.000    0.000    0.000 
#    0.000    0.000    0.000    0.000    0.000    0.000 
#
# Total GULP energy -83556.247889 kJ/mol
# GULP energy per Si atom -5570.416526 kJ/mol
# Density = 2.577208 g / cm^3
# Si number density = 25.830877 Si / 1000 Ang^3
#
#
#
# Elastic Constant Matrix: (Units=GPa)
#
#
# Indices 1 2 3 4 5 6 
#
# 1 104.0416 21.0729 17.8520 -12.2653 3.9905 9.0520
# 2 21.0729 75.3238 26.7495 -18.2926 5.4752 -8.2461
# 3 17.8520 26.7495 169.3082 -18.1461 -3.7287 6.6387
# 4 -12.2653 -18.2926 -18.1461 36.3371 11.7300 7.5236
# 5 3.9905 5.4752 -3.7287 11.7300 46.4465 -2.4959
# 6 9.0520 -8.2461 6.6387 7.5236 -2.4959 39.2781
#
#
#
# Elastic Compliance Matrix: (Units=1/GPa)
#
#
# Indices 1 2 3 4 5 6 
#
# 1 0.010981 -0.002341 -0.000274 0.003779 -0.001849 -0.003817
# 2 -0.002341 0.016956 -0.001822 0.007456 -0.003679 0.002745
# 3 -0.000274 -0.001822 0.006587 0.002689 -0.000017 -0.001949
# 4 0.003779 0.007456 0.002689 0.039198 -0.011316 -0.007987
# 5 -0.001849 -0.003679 -0.000017 -0.011316 0.025163 0.003423
# 6 -0.003817 0.002745 -0.001949 -0.007987 0.003423 0.028992
#
#
# Mechanical properties :
#
#
# Convention : Reuss Voigt Hill
#
# Bulk Modulus (GPa) = 38.98363 53.33583 46.15973
# Shear Modulus (GPa) = 34.41094 43.27893 38.84494
#
# Velocity S-wave (km/s) = 3.65384 4.09769 3.88212
# Velocity P-wave (km/s) = 5.73806 6.56362 6.16467
#
# Compressibility (1/GPa) = 0.02565180
#
# Stress axis : x y z
#
# Youngs Moduli (GPa) = 91.06542 58.97474 151.80605
#
# Poissons Ratio (x) = 0.13804 0.04161
# Poissons Ratio (y) = 0.21315 0.27656
# Poissons Ratio (z) = 0.02496 0.10744
#
# Static dielectric constant tensor:
#      x y z
#    x 2.627580 -0.599490 -1.223870 
#    y -0.599490 2.667480 1.141300 
#    z -1.223870 1.141300 4.283460 
# 
# From -- ./inp_files/602731.got.cif
#   From: 2010.05.17/outbox.cif.g08.bks.cpg/sg2_302_cif.got.tgz:602731.got - 2010.06.03 11:33:40.
