data_PCOD9043658
_publ_section_title
;
Structure prediction by ZEFSAII (Michael W. Deem and Ramdas Pophale) SiO2 
 PCOD9043658
Probable space group: P -1
;
_chemical_formula_sum "Si O2"
_cell_formula_units_Z 14
_cell_length_a 5.260078
_cell_length_b 12.715113
_cell_length_c 11.201241
_cell_angle_alpha 117.056846
_cell_angle_beta 99.547391
_cell_angle_gamma 108.869083
_cell_volume 586.165781
_symmetry_space_group_name_H-M "P -1"
_symmetry_group_IT_number 2
_symmetry_cell_setting 'triclinic'
loop_
_space_group_symop_operation_xyz
x,y,z
-x,-y,-z
loop_
_atom_site_type_symbol
_atom_site_label
_atom_site_fract_x
_atom_site_fract_y
_atom_site_fract_z
Si Si1 0.048959 0.834640 0.319091
Si Si2 0.802017 0.527771 0.096889
Si Si3 0.231540 0.065965 0.855135
Si Si4 0.661415 0.308235 0.169936
Si Si5 0.379333 0.933083 0.610259
Si Si6 0.701739 0.804950 0.678503
Si Si7 0.843208 0.588588 0.578583
O O1 0.090194 0.884975 0.484535
O O2 0.965405 0.681102 0.226221
O O3 0.847713 0.865591 0.228308
O O4 0.374946 0.927995 0.349095
O O5 0.708659 0.432735 0.156157
O O6 0.500000 0.500000 0.000000
O O7 0.000000 0.500000 0.000000
O O8 0.358767 0.973110 0.763738
O O9 0.467930 0.177852 0.011549
O O10 0.926054 0.951652 0.818547
O O11 0.491466 0.276073 0.265975
O O12 0.993129 0.348747 0.251789
O O13 0.503161 0.826809 0.574728
O O14 0.859020 0.722674 0.591961
O O15 0.500000 0.500000 0.500000
O O16 0.000000 0.500000 0.500000
#
# Coordination Sequence:
#
# PCOD9043658 Si02
#       7
#     2   2   2   2   2   2   2
#     4  10  23  45  73 108 152 205 255 315 381 449
#     4  12  28  49  75 111 153 200 255 313 382 455
#     4  11  23  45  77 112 153 199 265 313 390 449
#     4  12  27  47  77 111 157 199 255 322 384 456
#     4  10  23  46  73 111 153 200 257 321 374 456
#     4  11  26  46  75 112 155 202 257 317 388 451
#     4  12  28  51  74 110 155 201 252 305 384 464
#
# _framework density 23.884027
#
# number of rings (size 3 to 8) (size 9 to 14) (size 15 to 20)
#    0.000    0.857    2.857    2.571    4.000    4.571 
#    0.000    0.000    0.000    0.000    0.000    0.000 
#    0.000    0.000    0.000    0.000    0.000    0.000 
#
# Total GULP energy -78079.129061 kJ/mol
# GULP energy per Si atom -5577.080647 kJ/mol
# Density = 2.382967 g / cm^3
# Si number density = 23.884027 Si / 1000 Ang^3
#
#
#
# Elastic Constant Matrix: (Units=GPa)
#
#
# Indices 1 2 3 4 5 6 
#
# 1 119.8811 55.8719 58.3137 7.8064 25.3684 -5.3919
# 2 55.8719 173.6282 49.1332 15.7783 7.9076 8.6710
# 3 58.3137 49.1332 157.0490 27.1866 40.2789 -9.4894
# 4 7.8064 15.7783 27.1866 37.7675 -6.7023 -9.4406
# 5 25.3684 7.9076 40.2789 -6.7023 42.3359 -3.6452
# 6 -5.3919 8.6710 -9.4894 -9.4406 -3.6452 36.1805
#
#
#
# Elastic Compliance Matrix: (Units=1/GPa)
#
#
# Indices 1 2 3 4 5 6 
#
# 1 0.011824 -0.003051 -0.002290 0.000110 -0.004191 0.001499
# 2 -0.003051 0.007393 -0.001270 -0.002106 0.001064 -0.003002
# 3 -0.002290 -0.001270 0.012365 -0.010152 -0.011816 -0.000633
# 4 0.000110 -0.002106 -0.010152 0.040221 0.017222 0.010088
# 5 -0.004191 0.001064 -0.011816 0.017222 0.040296 0.004575
# 6 0.001499 -0.003002 -0.000633 0.010088 0.004575 0.031509
#
#
# Mechanical properties :
#
#
# Convention : Reuss Voigt Hill
#
# Bulk Modulus (GPa) = 54.46200 86.35510 70.40855
# Shear Modulus (GPa) = 30.68438 42.40607 36.54523
#
# Velocity S-wave (km/s) = 3.58819 4.21824 3.91591
# Velocity P-wave (km/s) = 6.32606 7.74333 7.07030
#
# Compressibility (1/GPa) = 0.01836143
#
# Stress axis : x y z
#
# Youngs Moduli (GPa) = 84.57093 135.25575 80.87623
#
# Poissons Ratio (x) = 0.41268 0.18517
# Poissons Ratio (y) = 0.25803 0.10270
# Poissons Ratio (z) = 0.19363 0.17175
#
# Static dielectric constant tensor:
#      x y z
#    x 2.242580 0.171310 -0.018420 
#    y 0.171310 2.093800 -0.016680 
#    z -0.018420 -0.016680 1.968900 
# 
# From -- ./inp_files/365316.got.cif
#   From: 2010.05.17/outbox.cif.g08.bks.cpg/sg2_183_cif.got.tgz:365316.got - 2010.06.03 11:33:40.
