data_PCOD9043944
_publ_section_title
;
Structure prediction by ZEFSAII (Michael W. Deem and Ramdas Pophale) SiO2 
 PCOD9043944
Probable space group: P -1
;
_chemical_formula_sum "Si O2"
_cell_formula_units_Z 16
_cell_length_a 19.746013
_cell_length_b 7.429087
_cell_length_c 13.890180
_cell_angle_alpha 56.537854
_cell_angle_beta 158.496674
_cell_angle_gamma 123.277301
_cell_volume 618.844201
_symmetry_space_group_name_H-M "P -1"
_symmetry_group_IT_number 2
_symmetry_cell_setting 'triclinic'
loop_
_space_group_symop_operation_xyz
x,y,z
-x,-y,-z
loop_
_atom_site_type_symbol
_atom_site_label
_atom_site_fract_x
_atom_site_fract_y
_atom_site_fract_z
Si Si1 0.800256 0.480238 0.039259
Si Si2 0.133391 0.260347 0.605589
Si Si3 0.869263 0.380601 0.943852
Si Si4 0.896725 0.924444 0.591116
Si Si5 0.467696 0.392882 0.758593
Si Si6 0.675283 0.279987 0.254323
Si Si7 0.469845 0.202690 0.463763
Si Si8 0.449346 0.130049 0.180840
O O1 0.894619 0.451155 0.068195
O O2 0.607892 0.366112 0.864241
O O3 0.721304 0.709618 0.843609
O O4 0.946759 0.379446 0.333497
O O5 0.113335 0.108984 0.528682
O O6 0.276586 0.477049 0.714249
O O7 0.234010 0.148422 0.859862
O O8 0.650208 0.381278 0.636504
O O9 0.000000 0.500000 0.000000
O O10 0.920539 0.136424 0.095133
O O11 0.735974 0.739172 0.473768
O O12 0.850999 0.157405 0.495975
O O13 0.483063 0.651664 0.731192
O O14 0.560749 0.288092 0.003759
O O15 0.558778 0.149711 0.220222
O O16 0.500000 0.000000 0.500000
O O17 0.498659 0.089838 0.637468
#
# Coordination Sequence:
#
# PCOD9043944 Si02
#       8
#     2   2   2   2   2   2   2   2
#     4  11  26  45  73 100 142 186 232 299 367 416
#     4  10  23  46  67 107 145 186 238 299 358 424
#     4  11  28  48  69  99 144 194 242 294 359 439
#     4  11  23  41  70 103 140 184 245 291 353 428
#     4  11  21  43  68 102 143 187 231 294 363 427
#     4  11  23  38  73 105 143 191 237 290 365 425
#     4  12  27  47  72 106 141 187 242 297 362 429
#     4  11  23  43  74 103 146 182 241 298 359 426
#
# _framework density 25.854649999999999
#
# number of rings (size 3 to 8) (size 9 to 14) (size 15 to 20)
#    0.000    1.000    3.750    2.250    5.250    3.000 
#    0.000    3.750    0.000    0.000    0.000    0.000 
#    0.000    0.000    0.000    0.000    0.000    0.000 
#
# Total GULP energy -89337.820301 kJ/mol
# GULP energy per Si atom -5583.613769 kJ/mol
# Density = 2.579580 g / cm^3
# Si number density = 25.854650 Si / 1000 Ang^3
#
#
#
# Elastic Constant Matrix: (Units=GPa)
#
#
# Indices 1 2 3 4 5 6 
#
# 1 113.5079 35.4952 -1.4599 -13.4799 -11.6539 20.0145
# 2 35.4952 85.8840 8.3513 -9.3127 -3.3916 8.8331
# 3 -1.4599 8.3513 113.5746 -35.4180 1.0122 4.5411
# 4 -13.4799 -9.3127 -35.4180 50.3834 -2.6401 6.0923
# 5 -11.6539 -3.3916 1.0122 -2.6401 30.6107 -5.0780
# 6 20.0145 8.8331 4.5411 6.0923 -5.0780 47.2534
#
#
#
# Elastic Compliance Matrix: (Units=1/GPa)
#
#
# Indices 1 2 3 4 5 6 
#
# 1 0.011816 -0.003958 0.002037 0.004615 0.003617 -0.004667
# 2 -0.003958 0.013557 -0.000671 0.001086 -0.000045 -0.000938
# 3 0.002037 -0.000671 0.011845 0.009140 0.000602 -0.002989
# 4 0.004615 0.001086 0.009140 0.028640 0.002982 -0.006408
# 5 0.003617 -0.000045 0.000602 0.002982 0.034568 0.001749
# 6 -0.004667 -0.000938 -0.002989 -0.006408 0.001749 0.024616
#
#
# Mechanical properties :
#
#
# Convention : Reuss Voigt Hill
#
# Bulk Modulus (GPa) = 31.21817 44.19330 37.70573
# Shear Modulus (GPa) = 35.48478 43.68819 39.58648
#
# Velocity S-wave (km/s) = 3.70871 4.11513 3.91719
# Velocity P-wave (km/s) = 5.51725 6.30152 5.92238
#
# Compressibility (1/GPa) = 0.03203263
#
# Stress axis : x y z
#
# Youngs Moduli (GPa) = 84.62874 73.76093 84.42460
#
# Poissons Ratio (x) = 0.29197 -0.17194
# Poissons Ratio (y) = 0.33499 0.05666
# Poissons Ratio (z) = -0.17235 0.04951
#
# Static dielectric constant tensor:
#      x y z
#    x 2.101450 0.039220 -0.026650 
#    y 0.039220 2.061200 -0.018850 
#    z -0.026650 -0.018850 2.126830 
# 
# From -- ./inp_files/540426.got.cif
#   From: 2010.05.17/outbox.cif.g08.bks.cpg/sg2_271_cif.got.tgz:540426.got - 2010.06.03 11:33:40.
