data_PCOD9043330
_publ_section_title
;
Structure prediction by ZEFSAII (Michael W. Deem and Ramdas Pophale) SiO2 
 PCOD9043330
Probable space group: P -1
;
_chemical_formula_sum "Si O2"
_cell_formula_units_Z 16
_cell_length_a 8.478307
_cell_length_b 15.215859
_cell_length_c 7.997948
_cell_angle_alpha 140.289843
_cell_angle_beta 102.421583
_cell_angle_gamma 80.778733
_cell_volume 643.750450
_symmetry_space_group_name_H-M "P -1"
_symmetry_group_IT_number 2
_symmetry_cell_setting 'triclinic'
loop_
_space_group_symop_operation_xyz
x,y,z
-x,-y,-z
loop_
_atom_site_type_symbol
_atom_site_label
_atom_site_fract_x
_atom_site_fract_y
_atom_site_fract_z
Si Si1 0.642583 0.107777 0.710306
Si Si2 0.552174 0.659293 0.061385
Si Si3 0.126455 0.411220 0.176165
Si Si4 0.987697 0.299379 0.534088
Si Si5 0.660292 0.796844 0.629635
Si Si6 0.943414 0.154970 0.670891
Si Si7 0.615134 0.556606 0.465062
Si Si8 0.177466 0.938967 0.991770
O O1 0.550777 0.243431 0.941548
O O2 0.750863 0.144729 0.629209
O O3 0.772804 0.056125 0.797070
O O4 0.500000 0.000000 0.500000
O O5 0.577040 0.747033 0.364778
O O6 0.724606 0.627652 0.971287
O O7 0.438003 0.524105 0.833826
O O8 0.037830 0.538355 0.253900
O O9 0.207290 0.458821 0.438821
O O10 0.020631 0.273247 0.980339
O O11 0.987367 0.223872 0.603984
O O12 0.158659 0.263270 0.438712
O O13 0.839364 0.218718 0.294255
O O14 0.586824 0.715324 0.647909
O O15 0.689497 0.957962 0.904520
O O16 0.000000 0.000000 0.500000
O O17 0.500000 0.500000 0.500000
O O18 0.000000 0.000000 0.000000
#
# Coordination Sequence:
#
# PCOD9043330 Si02
#       8
#     2   2   2   2   2   2   2   2
#     4  12  25  45  71 109 144 189 240 297 371 432
#     4  11  23  45  70  99 147 188 237 298 372 429
#     4  11  25  47  71 104 148 188 249 300 368 436
#     4  11  25  44  72 106 141 190 251 301 360 433
#     4  11  22  42  72 100 143 192 242 301 363 434
#     4  12  26  44  74 107 146 191 244 302 360 441
#     4  10  25  41  66 100 144 185 234 296 370 424
#     4  10  23  45  70 105 144 190 244 298 361 438
#
# _framework density 24.854353
#
# number of rings (size 3 to 8) (size 9 to 14) (size 15 to 20)
#    0.000    1.000    2.500    3.750    7.000    2.500 
#    0.000    0.625    0.000    0.000    0.000    0.000 
#    0.000    0.000    0.000    0.000    0.000    0.000 
#
# Total GULP energy -89354.316852 kJ/mol
# GULP energy per Si atom -5584.644803 kJ/mol
# Density = 2.479778 g / cm^3
# Si number density = 24.854353 Si / 1000 Ang^3
#
#
#
# Elastic Constant Matrix: (Units=GPa)
#
#
# Indices 1 2 3 4 5 6 
#
# 1 95.3398 34.9873 34.3853 10.8022 10.8058 -4.0282
# 2 34.9873 120.3984 40.7680 20.3753 11.8028 4.7080
# 3 34.3853 40.7680 135.7250 19.9974 46.3210 -2.0866
# 4 10.8022 20.3753 19.9974 56.5569 -3.9277 4.1879
# 5 10.8058 11.8028 46.3210 -3.9277 40.3461 6.5582
# 6 -4.0282 4.7080 -2.0866 4.1879 6.5582 38.6800
#
#
#
# Elastic Compliance Matrix: (Units=1/GPa)
#
#
# Indices 1 2 3 4 5 6 
#
# 1 0.012469 -0.002828 -0.001931 -0.000855 -0.000662 0.001743
# 2 -0.002828 0.010270 -0.002122 -0.002288 0.000202 -0.001446
# 3 -0.001931 -0.002122 0.015651 -0.006005 -0.018169 0.004632
# 4 -0.000855 -0.002288 -0.006005 0.021848 0.010619 -0.004300
# 5 -0.000662 0.000202 -0.018169 0.010619 0.048495 -0.010446
# 6 0.001743 -0.001446 0.004632 -0.004300 -0.010446 0.028697
#
#
# Mechanical properties :
#
#
# Convention : Reuss Voigt Hill
#
# Bulk Modulus (GPa) = 40.60446 63.52715 52.06580
# Shear Modulus (GPa) = 31.36731 43.20478 37.28604
#
# Velocity S-wave (km/s) = 3.55638 4.17384 3.87742
# Velocity P-wave (km/s) = 5.76509 6.98879 6.40622
#
# Compressibility (1/GPa) = 0.02462784
#
# Stress axis : x y z
#
# Youngs Moduli (GPa) = 80.20194 97.36857 63.89303
#
# Poissons Ratio (x) = 0.27537 0.12335
# Poissons Ratio (y) = 0.22682 0.13560
# Poissons Ratio (z) = 0.15483 0.20665
#
# Static dielectric constant tensor:
#      x y z
#    x 1.930670 -0.082330 -0.074170 
#    y -0.082330 1.823930 -0.210350 
#    z -0.074170 -0.210350 1.976060 
# 
# From -- ./inp_files/209560.got.cif
#   From: 2010.05.17/outbox.cif.g08.bks.cpg/sg2_105_cif.got.tgz:209560.got - 2010.06.03 11:33:40.
