data_PCOD9043202
_publ_section_title
;
Structure prediction by ZEFSAII (Michael W. Deem and Ramdas Pophale) SiO2 
 PCOD9043202
Probable space group: P -1
;
_chemical_formula_sum "Si O2"
_cell_formula_units_Z 13
_cell_length_a 9.091897
_cell_length_b 5.335328
_cell_length_c 11.940305
_cell_angle_alpha 95.202749
_cell_angle_beta 53.263453
_cell_angle_gamma 103.677916
_cell_volume 450.047329
_symmetry_space_group_name_H-M "P -1"
_symmetry_group_IT_number 2
_symmetry_cell_setting 'triclinic'
loop_
_space_group_symop_operation_xyz
x,y,z
-x,-y,-z
loop_
_atom_site_type_symbol
_atom_site_label
_atom_site_fract_x
_atom_site_fract_y
_atom_site_fract_z
Si Si1 0.684303 0.674089 0.813846
Si Si2 0.746533 0.461779 0.996620
Si Si3 0.680592 0.130232 0.679925
Si Si4 0.000000 0.000000 0.500000
Si Si5 0.782255 0.664619 0.402796
Si Si6 0.078230 0.199913 0.874344
Si Si7 0.421601 0.813346 0.629254
O O1 0.467893 0.692097 0.929331
O O2 0.676554 0.392036 0.754172
O O3 0.768020 0.907933 0.700338
O O4 0.776732 0.674508 0.892752
O O5 0.779351 0.580930 0.109687
O O6 0.897709 0.291190 0.912437
O O7 0.841183 0.147260 0.515127
O O8 0.473172 0.989366 0.724298
O O9 0.065818 0.254031 0.567856
O O10 0.819668 0.860192 0.286195
O O11 0.583868 0.643977 0.556432
O O12 0.761256 0.395713 0.333463
O O13 0.000000 0.000000 0.000000
O O14 0.500000 0.000000 0.500000
#
# Coordination Sequence:
#
# PCOD9043202 Si02
#       7
#     2   2   2   1   2   2   2
#     4  11  26  46  76 104 150 197 257 316 373 466
#     4  10  26  44  67 109 140 201 256 307 376 452
#     4  11  26  45  75 107 150 196 249 317 391 448
#     4  10  24  46  72 110 144 194 240 324 382 456
#     4  10  23  45  69 106 146 185 257 301 388 446
#     4  11  25  44  73 106 154 199 250 318 387 464
#     4  10  24  43  73 105 140 200 248 317 373 466
#
# _framework density 28.885852
#
# number of rings (size 3 to 8) (size 9 to 14) (size 15 to 20)
#    0.000    1.538    0.000    1.846   15.077    4.308 
#    5.538    0.000    0.000    0.000    0.000    0.000 
#    0.000    0.000    0.000    0.000    0.000    0.000 
#
# Total GULP energy -72609.800972 kJ/mol
# GULP energy per Si atom -5585.369306 kJ/mol
# Density = 2.882011 g / cm^3
# Si number density = 28.885852 Si / 1000 Ang^3
#
#
#
# Elastic Constant Matrix: (Units=GPa)
#
#
# Indices 1 2 3 4 5 6 
#
# 1 163.5970 53.6026 48.3731 0.9360 11.1383 10.6890
# 2 53.6026 152.5002 48.4162 3.6881 15.0035 21.9992
# 3 48.3731 48.4162 138.8373 0.4028 21.0035 -6.4082
# 4 0.9360 3.6881 0.4028 44.4543 -7.2201 4.5065
# 5 11.1383 15.0035 21.0035 -7.2201 69.6368 2.9564
# 6 10.6890 21.9992 -6.4082 4.5065 2.9564 49.4480
#
#
#
# Elastic Compliance Matrix: (Units=1/GPa)
#
#
# Indices 1 2 3 4 5 6 
#
# 1 0.007361 -0.001802 -0.001963 0.000095 -0.000143 -0.001044
# 2 -0.001802 0.008566 -0.002419 -0.000396 -0.000714 -0.003656
# 3 -0.001963 -0.002419 0.009182 -0.000473 -0.002105 0.002859
# 4 0.000095 -0.000396 -0.000473 0.023191 0.002710 -0.002181
# 5 -0.000143 -0.000714 -0.002105 0.002710 0.015499 -0.001098
# 6 -0.001044 -0.003656 0.002859 -0.002181 -0.001098 0.022711
#
#
# Mechanical properties :
#
#
# Convention : Reuss Voigt Hill
#
# Bulk Modulus (GPa) = 78.48736 83.96869 81.22803
# Shear Modulus (GPa) = 48.48506 53.01065 50.74785
#
# Velocity S-wave (km/s) = 4.10140 4.28854 4.19602
# Velocity P-wave (km/s) = 7.04693 7.32492 7.18727
#
# Compressibility (1/GPa) = 0.01274091
#
# Stress axis : x y z
#
# Youngs Moduli (GPa) = 135.85543 116.74273 108.90836
#
# Poissons Ratio (x) = 0.21032 0.21381
# Poissons Ratio (y) = 0.24475 0.26346
# Poissons Ratio (z) = 0.26671 0.28241
#
# Static dielectric constant tensor:
#      x y z
#    x 2.540530 0.117180 -0.846320 
#    y 0.117180 2.527670 -0.528350 
#    z -0.846320 -0.528350 4.419330 
# 
# From -- ./inp_files/372553.got.cif
#   From: 2010.05.17/outbox.cif.g08.bks.cpg/sg2_187_cif.got.tgz:372553.got - 2010.06.03 11:33:40.
