data_PCOD9043700
_publ_section_title
;
Structure prediction by ZEFSAII (Michael W. Deem and Ramdas Pophale) SiO2 
 PCOD9043700
Probable space group: P -1
;
_chemical_formula_sum "Si O2"
_cell_formula_units_Z 15
_cell_length_a 6.469635
_cell_length_b 5.170112
_cell_length_c 30.721506
_cell_angle_alpha 122.038537
_cell_angle_beta 130.944510
_cell_angle_gamma 80.806428
_cell_volume 629.008020
_symmetry_space_group_name_H-M "P -1"
_symmetry_group_IT_number 2
_symmetry_cell_setting 'triclinic'
loop_
_space_group_symop_operation_xyz
x,y,z
-x,-y,-z
loop_
_atom_site_type_symbol
_atom_site_label
_atom_site_fract_x
_atom_site_fract_y
_atom_site_fract_z
Si Si1 0.000000 0.500000 0.500000
Si Si2 0.524610 0.715369 0.253031
Si Si3 0.147348 0.179737 0.403902
Si Si4 0.571994 0.369999 0.597863
Si Si5 0.630258 0.312653 0.151378
Si Si6 0.315447 0.628740 0.932981
Si Si7 0.226279 0.263932 0.251374
Si Si8 0.792591 0.301870 0.988720
O O1 0.895322 0.618017 0.542666
O O2 0.754215 0.630546 0.452627
O O3 0.570378 0.550876 0.199573
O O4 0.378895 0.461537 0.247705
O O5 0.840092 0.923133 0.330126
O O6 0.336254 0.956113 0.242480
O O7 0.250331 0.399467 0.395158
O O8 0.367708 0.972786 0.425199
O O9 0.676735 0.522324 0.673082
O O10 0.761129 0.430273 0.132585
O O11 0.882536 0.184256 0.194301
O O12 0.326219 0.066093 0.073114
O O13 0.507465 0.406421 0.951895
O O14 0.092159 0.591146 0.937690
O O15 0.500000 0.000000 0.000000
O O16 0.000000 0.500000 0.000000
#
# Coordination Sequence:
#
# PCOD9043700 Si02
#       8
#     1   2   2   2   2   2   2   2
#     4  12  28  46  80 112 156 206 258 300 396 438
#     4  12  28  48  78 110 150 202 255 309 386 447
#     4  12  27  49  76 111 152 201 256 317 374 448
#     4  12  27  49  77 109 157 200 254 318 374 448
#     4  11  27  45  74 104 148 193 251 308 381 451
#     4   9  22  44  66 101 139 183 230 301 364 448
#     4  12  28  49  76 109 153 200 250 320 375 453
#     4  10  23  45  74 103 145 187 242 307 374 451
#
# _framework density 23.847073000000002
#
# number of rings (size 3 to 8) (size 9 to 14) (size 15 to 20)
#    0.000    0.800    2.667    2.400    3.733    7.467 
#    0.000    0.000    0.000    0.000    0.000    0.000 
#    0.000    0.000    0.000    0.000    0.000    0.000 
#
# Total GULP energy -83680.375375 kJ/mol
# GULP energy per Si atom -5578.691692 kJ/mol
# Density = 2.379280 g / cm^3
# Si number density = 23.847073 Si / 1000 Ang^3
#
#
#
# Elastic Constant Matrix: (Units=GPa)
#
#
# Indices 1 2 3 4 5 6 
#
# 1 150.6967 69.7780 85.4542 3.4481 -37.4657 -19.6430
# 2 69.7780 127.9187 27.3696 -4.9216 -26.7270 -18.3694
# 3 85.4542 27.3696 123.3006 -7.9880 -41.5723 -1.0792
# 4 3.4481 -4.9216 -7.9880 33.6211 1.3479 4.5142
# 5 -37.4657 -26.7270 -41.5723 1.3479 55.6287 -3.5527
# 6 -19.6430 -18.3694 -1.0792 4.5142 -3.5527 64.1411
#
#
#
# Elastic Compliance Matrix: (Units=1/GPa)
#
#
# Indices 1 2 3 4 5 6 
#
# 1 0.015536 -0.006001 -0.009457 -0.005195 0.000849 0.003293
# 2 -0.006001 0.011562 0.003076 0.002677 0.003847 0.001550
# 3 -0.009457 0.003076 0.016822 0.005346 0.007443 -0.001696
# 4 -0.005195 0.002677 0.005346 0.032303 0.000811 -0.002963
# 5 0.000849 0.003847 0.007443 0.000811 0.026123 0.002877
# 6 0.003293 0.001550 -0.001696 -0.002963 0.002877 0.017382
#
#
# Mechanical properties :
#
#
# Convention : Reuss Voigt Hill
#
# Bulk Modulus (GPa) = 52.19775 85.23550 68.71662
# Shear Modulus (GPa) = 33.13933 45.29911 39.21922
#
# Velocity S-wave (km/s) = 3.73186 4.36313 4.05978
# Velocity P-wave (km/s) = 6.36436 7.82321 7.13119
#
# Compressibility (1/GPa) = 0.01915791
#
# Stress axis : x y z
#
# Youngs Moduli (GPa) = 64.36476 86.49054 59.44430
#
# Poissons Ratio (x) = 0.51904 0.56216
# Poissons Ratio (y) = 0.38626 -0.18288
# Poissons Ratio (z) = 0.60869 -0.26609
#
# Static dielectric constant tensor:
#      x y z
#    x 1.909390 0.027470 0.049960 
#    y 0.027470 1.931860 0.025190 
#    z 0.049960 0.025190 1.969450 
# 
# From -- ./inp_files/614777.got.cif
#   From: 2010.05.17/outbox.cif.g08.bks.cpg/sg2_308_cif.got.tgz:614777.got - 2010.06.03 11:33:40.
