data_PCOD9043893
_publ_section_title
;
Structure prediction by ZEFSAII (Michael W. Deem and Ramdas Pophale) SiO2 
 PCOD9043893
Probable space group: P -1
;
_chemical_formula_sum "Si O2"
_cell_formula_units_Z 16
_cell_length_a 20.526954
_cell_length_b 8.167943
_cell_length_c 5.603135
_cell_angle_alpha 117.287600
_cell_angle_beta 61.466554
_cell_angle_gamma 123.717209
_cell_volume 662.047170
_symmetry_space_group_name_H-M "P -1"
_symmetry_group_IT_number 2
_symmetry_cell_setting 'triclinic'
loop_
_space_group_symop_operation_xyz
x,y,z
-x,-y,-z
loop_
_atom_site_type_symbol
_atom_site_label
_atom_site_fract_x
_atom_site_fract_y
_atom_site_fract_z
Si Si1 0.775948 0.953327 0.114194
Si Si2 0.378374 0.215566 0.006652
Si Si3 0.089792 0.726569 0.243186
Si Si4 0.915623 0.634928 0.264576
Si Si5 0.241887 0.670025 0.431522
Si Si6 0.910431 0.971975 0.213918
Si Si7 0.542936 0.419858 0.565569
Si Si8 0.329420 0.742966 0.838582
O O1 0.690898 0.784784 0.053865
O O2 0.838353 0.884776 0.090630
O O3 0.753579 0.102484 0.421184
O O4 0.829212 0.104371 0.910159
O O5 0.469241 0.292056 0.788859
O O6 0.349567 0.981575 0.971296
O O7 0.388413 0.376594 0.300617
O O8 0.008766 0.717328 0.245739
O O9 0.084463 0.810303 0.567642
O O10 0.091285 0.510861 0.047842
O O11 0.851725 0.490665 0.471711
O O12 0.891441 0.815210 0.360005
O O13 0.288461 0.663889 0.594919
O O14 0.276531 0.641520 0.098935
O O15 0.000000 0.000000 0.000000
O O16 0.500000 0.500000 0.500000
O O17 0.587593 0.285897 0.308827
#
# Coordination Sequence:
#
# PCOD9043893 Si02
#       8
#     2   2   2   2   2   2   2   2
#     4  10  24  46  72 102 149 196 248 305 372 443
#     4  10  26  49  75 108 151 196 240 310 374 448
#     4  10  23  46  65  95 148 187 251 306 372 438
#     4  10  23  46  66 103 142 196 248 315 368 430
#     4  10  26  47  74 111 149 204 254 303 371 445
#     4  12  25  42  71 107 139 198 252 312 373 442
#     4  11  27  48  78 117 145 189 249 304 381 455
#     4  11  26  51  76 109 155 199 247 303 378 451
#
# _framework density 24.167462
#
# number of rings (size 3 to 8) (size 9 to 14) (size 15 to 20)
#    0.000    1.500    1.250    0.750   12.250    4.000 
#    0.000    0.000    0.000    0.000    0.000    0.000 
#    0.000    0.000    0.000    0.000    0.000    0.000 
#
# Total GULP energy -89581.692491 kJ/mol
# GULP energy per Si atom -5598.855781 kJ/mol
# Density = 2.411246 g / cm^3
# Si number density = 24.167462 Si / 1000 Ang^3
#
#
#
# Elastic Constant Matrix: (Units=GPa)
#
#
# Indices 1 2 3 4 5 6 
#
# 1 155.2623 34.3497 40.4767 8.8435 -0.3175 12.3903
# 2 34.3497 75.1196 34.2063 9.8023 -0.6964 2.3291
# 3 40.4767 34.2063 101.9900 -5.9309 3.1239 5.9216
# 4 8.8435 9.8023 -5.9309 25.1573 5.3291 7.3915
# 5 -0.3175 -0.6964 3.1239 5.3291 23.1481 -2.3407
# 6 12.3903 2.3291 5.9216 7.3915 -2.3407 27.8682
#
#
#
# Elastic Compliance Matrix: (Units=1/GPa)
#
#
# Indices 1 2 3 4 5 6 
#
# 1 0.007831 -0.002169 -0.002381 -0.001937 0.000584 -0.002232
# 2 -0.002169 0.018315 -0.006183 -0.009750 0.003971 0.003667
# 3 -0.002381 -0.006183 0.013691 0.008586 -0.004446 -0.003984
# 4 -0.001937 -0.009750 0.008586 0.054201 -0.015557 -0.015831
# 5 0.000584 0.003971 -0.004446 -0.015557 0.048373 0.008542
# 6 -0.002232 0.003667 -0.003984 -0.015831 0.008542 0.042332
#
#
# Mechanical properties :
#
#
# Convention : Reuss Voigt Hill
#
# Bulk Modulus (GPa) = 54.43949 61.15970 57.79959
# Shear Modulus (GPa) = 23.54791 30.12399 26.83595
#
# Velocity S-wave (km/s) = 3.12487 3.53437 3.33591
# Velocity P-wave (km/s) = 5.96612 6.48207 6.22944
#
# Compressibility (1/GPa) = 0.01836902
#
# Stress axis : x y z
#
# Youngs Moduli (GPa) = 127.69714 54.60007 73.04272
#
# Poissons Ratio (x) = 0.11843 0.17394
# Poissons Ratio (y) = 0.27699 0.45165
# Poissons Ratio (z) = 0.30409 0.33761
#
# Static dielectric constant tensor:
#      x y z
#    x 1.931380 0.001280 0.039490 
#    y 0.001280 1.931540 -0.023610 
#    z 0.039490 -0.023610 1.964950 
# 
# From -- ./inp_files/117316.got.cif
#   From: 2010.05.17/outbox.cif.g08.bks.cpg/sg2_59_cif.got.tgz:117316.got - 2010.06.03 11:33:40.
