data_PCOD9043986
_publ_section_title
;
Structure prediction by ZEFSAII (Michael W. Deem and Ramdas Pophale) SiO2 
 PCOD9043986
Probable space group: P -1
;
_chemical_formula_sum "Si O2"
_cell_formula_units_Z 16
_cell_length_a 16.304118
_cell_length_b 15.258295
_cell_length_c 10.087404
_cell_angle_alpha 111.126428
_cell_angle_beta 144.515547
_cell_angle_gamma 43.509423
_cell_volume 819.934165
_symmetry_space_group_name_H-M "P -1"
_symmetry_group_IT_number 2
_symmetry_cell_setting 'triclinic'
loop_
_space_group_symop_operation_xyz
x,y,z
-x,-y,-z
loop_
_atom_site_type_symbol
_atom_site_label
_atom_site_fract_x
_atom_site_fract_y
_atom_site_fract_z
Si Si1 0.833564 0.744697 0.557324
Si Si2 0.694075 0.149633 0.818317
Si Si3 0.380892 0.847752 0.700059
Si Si4 0.848938 0.579699 0.709432
Si Si5 0.945384 0.892558 0.815955
Si Si6 0.144279 0.324408 0.751529
Si Si7 0.008923 0.060445 0.672417
Si Si8 0.687086 0.959348 0.058001
O O1 0.862994 0.665636 0.682985
O O2 0.973041 0.767813 0.766077
O O3 0.897342 0.661169 0.454059
O O4 0.557059 0.917994 0.274591
O O5 0.418179 0.293659 0.528936
O O6 0.815916 0.991756 0.833284
O O7 0.818204 0.172126 0.922916
O O8 0.787522 0.097498 0.061435
O O9 0.244516 0.822749 0.531649
O O10 0.237173 0.971883 0.460204
O O11 0.350898 0.935965 0.830778
O O12 0.659220 0.700636 0.969368
O O13 0.931861 0.458159 0.644173
O O14 0.000000 0.500000 0.000000
O O15 0.254635 0.166464 0.856610
O O16 0.096331 0.118399 0.787120
O O17 0.000000 0.000000 0.500000
#
# Coordination Sequence:
#
# PCOD9043986 Si02
#       8
#     2   2   2   2   2   2   2   2
#     4  11  21  40  64  90 117 163 212 253 293 356
#     4  10  22  39  59  91 121 158 196 254 307 360
#     4   9  16  32  58  89 116 150 195 251 298 341
#     4  12  27  42  57  87 136 166 196 244 312 369
#     4  10  19  37  66  88 115 149 210 253 300 351
#     4  11  21  38  61  93 126 160 202 248 306 366
#     4   9  18  32  58  89 121 144 195 261 298 341
#     4  10  17  33  62  93 113 147 212 255 285 349
#
# _framework density 19.513760999999999
#
# number of rings (size 3 to 8) (size 9 to 14) (size 15 to 20)
#    0.000    1.750    3.750    1.875    0.000    1.500 
#    0.000    2.500    0.000    0.000    0.000    0.000 
#    0.000    0.000    0.000    0.000    0.000    0.000 
#
# Total GULP energy -89169.357388 kJ/mol
# GULP energy per Si atom -5573.084837 kJ/mol
# Density = 1.946935 g / cm^3
# Si number density = 19.513761 Si / 1000 Ang^3
#
#
#
# Elastic Constant Matrix: (Units=GPa)
#
#
# Indices 1 2 3 4 5 6 
#
# 1 109.4089 33.4118 55.9119 -1.6110 4.5407 1.1948
# 2 33.4118 48.1735 25.0651 3.9782 4.3175 -2.6747
# 3 55.9119 25.0651 102.6452 2.4642 -2.1000 -8.8116
# 4 -1.6110 3.9782 2.4642 14.0150 1.6778 4.0130
# 5 4.5407 4.3175 -2.1000 1.6778 39.5335 -0.8974
# 6 1.1948 -2.6747 -8.8116 4.0130 -0.8974 22.5800
#
#
#
# Elastic Compliance Matrix: (Units=1/GPa)
#
#
# Indices 1 2 3 4 5 6 
#
# 1 0.015431 -0.007695 -0.007239 0.007127 -0.001753 -0.005889
# 2 -0.007695 0.028437 -0.002165 -0.009668 -0.001823 0.004577
# 3 -0.007239 -0.002165 0.014981 -0.005116 0.002239 0.006971
# 4 0.007127 -0.009668 -0.005116 0.081481 -0.003905 -0.018155
# 5 -0.001753 -0.001823 0.002239 -0.003905 0.026036 0.002479
# 6 -0.005889 0.004577 0.006971 -0.018155 0.002479 0.051186
#
#
# Mechanical properties :
#
#
# Convention : Reuss Voigt Hill
#
# Bulk Modulus (GPa) = 40.56422 54.33392 47.44907
# Shear Modulus (GPa) = 19.23305 24.94828 22.09067
#
# Velocity S-wave (km/s) = 3.14286 3.57949 3.36825
# Velocity P-wave (km/s) = 5.83118 6.70731 6.28453
#
# Compressibility (1/GPa) = 0.02465227
#
# Stress axis : x y z
#
# Youngs Moduli (GPa) = 64.80335 35.16484 66.74975
#
# Poissons Ratio (x) = 0.27058 0.48321
# Poissons Ratio (y) = 0.49863 0.14453
# Poissons Ratio (z) = 0.46912 0.07614
#
# Static dielectric constant tensor:
#      x y z
#    x 1.798940 -0.034720 0.007930 
#    y -0.034720 1.684470 0.023880 
#    z 0.007930 0.023880 1.720650 
# 
# From -- ./inp_files/308413.got.cif
#   From: 2010.05.17/outbox.cif.g08.bks.cpg/sg2_155_cif.got.tgz:308413.got - 2010.06.03 11:33:40.
