data_PCOD9043204
_publ_section_title
;
Structure prediction by ZEFSAII (Michael W. Deem and Ramdas Pophale) SiO2 
 PCOD9043204
Probable space group: P -1
;
_chemical_formula_sum "Si O2"
_cell_formula_units_Z 16
_cell_length_a 11.304539
_cell_length_b 9.828355
_cell_length_c 13.434028
_cell_angle_alpha 110.002638
_cell_angle_beta 40.783767
_cell_angle_gamma 79.112516
_cell_volume 626.448160
_symmetry_space_group_name_H-M "P -1"
_symmetry_group_IT_number 2
_symmetry_cell_setting 'triclinic'
loop_
_space_group_symop_operation_xyz
x,y,z
-x,-y,-z
loop_
_atom_site_type_symbol
_atom_site_label
_atom_site_fract_x
_atom_site_fract_y
_atom_site_fract_z
Si Si1 0.768581 0.050466 0.599765
Si Si2 0.687504 0.340782 0.252511
Si Si3 0.426135 0.916340 0.947835
Si Si4 0.735445 0.969465 0.136599
Si Si5 0.214844 0.304905 0.671072
Si Si6 0.493008 0.343051 0.016489
Si Si7 0.080492 0.365479 0.569129
Si Si8 0.639137 0.590024 0.203566
O O1 0.622232 0.201728 0.635475
O O2 0.869122 0.829314 0.472349
O O3 0.534681 0.206049 0.866481
O O4 0.000000 0.000000 0.500000
O O5 0.500000 0.500000 0.500000
O O6 0.714826 0.154687 0.194380
O O7 0.576495 0.466560 0.252014
O O8 0.983477 0.233846 0.047405
O O9 0.263072 0.065135 0.991889
O O10 0.330878 0.829759 0.049882
O O11 0.694664 0.722663 0.670886
O O12 0.500000 0.000000 0.000000
O O13 0.491044 0.068180 0.391386
O O14 0.117267 0.436647 0.663221
O O15 0.316163 0.336709 0.708824
O O16 0.922946 0.415823 0.921044
O O17 0.193953 0.490769 0.274044
O O18 0.500000 0.500000 0.000000
#
# Coordination Sequence:
#
# PCOD9043204 Si02
#       8
#     2   2   2   2   2   2   2   2
#     4  12  26  45  70 107 145 189 246 298 356 436
#     4  11  24  48  70 106 144 185 246 302 362 442
#     4  11  25  46  73 105 142 194 238 298 370 425
#     4  10  25  46  73 103 143 189 243 303 363 442
#     4  10  23  45  69 107 134 186 240 298 367 425
#     4  12  25  46  69 102 144 190 246 291 354 434
#     4  11  24  46  71 101 146 183 244 306 355 435
#     4  11  25  43  76 104 143 193 240 303 372 431
#
# _framework density 25.540821999999999
#
# number of rings (size 3 to 8) (size 9 to 14) (size 15 to 20)
#    0.000    1.000    5.000    0.375    1.750    8.000 
#    2.250    0.000    0.000    0.000    0.000    0.000 
#    0.000    0.000    0.000    0.000    0.000    0.000 
#
# Total GULP energy -89144.930753 kJ/mol
# GULP energy per Si atom -5571.558172 kJ/mol
# Density = 2.548269 g / cm^3
# Si number density = 25.540822 Si / 1000 Ang^3
#
#
#
# Elastic Constant Matrix: (Units=GPa)
#
#
# Indices 1 2 3 4 5 6 
#
# 1 111.7449 45.7021 23.2520 6.2477 7.7307 -13.9140
# 2 45.7021 171.4242 37.5365 8.0713 2.4273 -24.6048
# 3 23.2520 37.5365 83.2748 -3.6220 -7.2861 -18.1364
# 4 6.2477 8.0713 -3.6220 41.0342 -12.6129 1.0538
# 5 7.7307 2.4273 -7.2861 -12.6129 47.9462 -2.6344
# 6 -13.9140 -24.6048 -18.1364 1.0538 -2.6344 30.5259
#
#
#
# Elastic Compliance Matrix: (Units=1/GPa)
#
#
# Indices 1 2 3 4 5 6 
#
# 1 0.010711 -0.002006 -0.001963 -0.002196 -0.002393 0.001969
# 2 -0.002006 0.007465 -0.002084 -0.001626 -0.000586 0.003870
# 3 -0.001963 -0.002084 0.015471 0.003119 0.003970 0.006853
# 4 -0.002196 -0.001626 0.003119 0.027836 0.008194 -0.000713
# 5 -0.002393 -0.000586 0.003970 0.008194 0.024174 0.002599
# 6 0.001969 0.003870 0.006853 -0.000713 0.002599 0.041096
#
#
# Mechanical properties :
#
#
# Convention : Reuss Voigt Hill
#
# Bulk Modulus (GPa) = 46.42098 64.38059 55.40078
# Shear Modulus (GPa) = 34.23731 41.23149 37.73440
#
# Velocity S-wave (km/s) = 3.66525 4.02224 3.84789
# Velocity P-wave (km/s) = 6.01055 6.84345 6.44048
#
# Compressibility (1/GPa) = 0.02154198
#
# Stress axis : x y z
#
# Youngs Moduli (GPa) = 93.35980 133.95896 64.63619
#
# Poissons Ratio (x) = 0.26873 0.12686
# Poissons Ratio (y) = 0.18728 0.13470
# Poissons Ratio (z) = 0.18324 0.27916
#
# Static dielectric constant tensor:
#      x y z
#    x 2.109150 -0.003190 -0.027630 
#    y -0.003190 2.056980 0.071490 
#    z -0.027630 0.071490 2.100660 
# 
# From -- ./inp_files/428347.got.cif
#   From: 2010.05.17/outbox.cif.g08.bks.cpg/sg2_215_cif.got.tgz:428347.got - 2010.06.03 11:33:40.
