data_PCOD9043660
_publ_section_title
;
Structure prediction by ZEFSAII (Michael W. Deem and Ramdas Pophale) SiO2 
 PCOD9043660
Probable space group: P -1
;
_chemical_formula_sum "Si O2"
_cell_formula_units_Z 10
_cell_length_a 5.220650
_cell_length_b 11.142117
_cell_length_c 7.776526
_cell_angle_alpha 66.799378
_cell_angle_beta 120.519483
_cell_angle_gamma 102.647095
_cell_volume 358.067725
_symmetry_space_group_name_H-M "P -1"
_symmetry_group_IT_number 2
_symmetry_cell_setting 'triclinic'
loop_
_space_group_symop_operation_xyz
x,y,z
-x,-y,-z
loop_
_atom_site_type_symbol
_atom_site_label
_atom_site_fract_x
_atom_site_fract_y
_atom_site_fract_z
Si Si1 0.634387 0.795091 0.090528
Si Si2 0.513317 0.731523 0.600622
Si Si3 0.148855 0.634908 0.864586
Si Si4 0.337716 0.028769 0.659864
Si Si5 0.893821 0.412650 0.677903
O O1 0.677044 0.872608 0.237580
O O2 0.935511 0.724337 0.187172
O O3 0.392328 0.674427 0.069043
O O4 0.511539 0.903189 0.856316
O O5 0.325216 0.681857 0.725837
O O6 0.469893 0.882108 0.456842
O O7 0.433909 0.633972 0.469953
O O8 0.862711 0.719330 0.753541
O O9 0.019277 0.493243 0.839816
O O10 0.000000 0.000000 0.500000
O O11 0.000000 0.500000 0.500000
#
# Coordination Sequence:
#
# PCOD9043660 Si02
#       5
#     2   2   2   2   2
#     4  11  25  46  77 113 145 200 256 297 379 439
#     4  11  24  47  77 109 152 201 238 306 380 430
#     4  11  24  47  76 112 151 191 249 307 369 447
#     4  11  24  48  77 107 156 195 250 312 365 443
#     4  10  23  45  73 109 151 195 242 310 371 444
#
# _framework density 27.927679000000001
#
# number of rings (size 3 to 8) (size 9 to 14) (size 15 to 20)
#    0.000    1.200    2.000    3.600    0.000    4.800 
#    0.000    6.000    0.000    0.000    0.000    0.000 
#    0.000    0.000    0.000    0.000    0.000    0.000 
#
# Total GULP energy -56077.063349 kJ/mol
# GULP energy per Si atom -5607.706335 kJ/mol
# Density = 2.786411 g / cm^3
# Si number density = 27.927679 Si / 1000 Ang^3
#
#
#
# Elastic Constant Matrix: (Units=GPa)
#
#
# Indices 1 2 3 4 5 6 
#
# 1 67.7393 -1.8507 15.5927 3.9160 15.2503 10.2042
# 2 -1.8507 175.7920 35.6071 33.7321 -10.1214 -2.7446
# 3 15.5927 35.6071 125.6332 34.9949 4.6012 -2.1733
# 4 3.9160 33.7321 34.9949 68.8281 -11.9760 6.9818
# 5 15.2503 -10.1214 4.6012 -11.9760 37.1436 9.3423
# 6 10.2042 -2.7446 -2.1733 6.9818 9.3423 59.9630
#
#
#
# Elastic Compliance Matrix: (Units=1/GPa)
#
#
# Indices 1 2 3 4 5 6 
#
# 1 0.016983 0.000346 -0.001635 -0.001285 -0.006651 -0.001748
# 2 0.000346 0.006466 -0.001221 -0.002446 0.000898 0.000338
# 3 -0.001635 -0.001221 0.010070 -0.005112 -0.002971 0.001645
# 4 -0.001285 -0.002446 -0.005112 0.020147 0.007910 -0.003657
# 5 -0.006651 0.000898 -0.002971 0.007910 0.034117 -0.005171
# 6 -0.001748 0.000338 0.001645 -0.003657 -0.005171 0.018281
#
#
# Mechanical properties :
#
#
# Convention : Reuss Voigt Hill
#
# Bulk Modulus (GPa) = 35.08867 51.98472 43.53670
# Shear Modulus (GPa) = 41.46508 54.50796 47.98652
#
# Velocity S-wave (km/s) = 3.85740 4.42266 4.14967
# Velocity P-wave (km/s) = 5.69480 6.68837 6.21149
#
# Compressibility (1/GPa) = 0.02849923
#
# Stress axis : x y z
#
# Youngs Moduli (GPa) = 58.88219 154.65976 99.30449
#
# Poissons Ratio (x) = -0.05355 0.16234
# Poissons Ratio (y) = -0.02039 0.12128
# Poissons Ratio (z) = 0.09626 0.18889
#
# Static dielectric constant tensor:
#      x y z
#    x 2.222110 -0.047090 -0.126810 
#    y -0.047090 2.170410 -0.009650 
#    z -0.126810 -0.009650 2.238350 
# 
# From -- ./inp_files/18706.got.cif
#   From: 2010.05.17/outbox.cif.g08.bks.cpg/sg2_10_cif.got.tgz:18706.got - 2010.06.03 11:33:40.
