data_PCOD9043873
_publ_section_title
;
Structure prediction by ZEFSAII (Michael W. Deem and Ramdas Pophale) SiO2 
 PCOD9043873
Probable space group: P -1
;
_chemical_formula_sum "Si O2"
_cell_formula_units_Z 16
_cell_length_a 22.423603
_cell_length_b 9.458773
_cell_length_c 14.925617
_cell_angle_alpha 119.298486
_cell_angle_beta 160.316404
_cell_angle_gamma 49.762863
_cell_volume 721.814951
_symmetry_space_group_name_H-M "P -1"
_symmetry_group_IT_number 2
_symmetry_cell_setting 'triclinic'
loop_
_space_group_symop_operation_xyz
x,y,z
-x,-y,-z
loop_
_atom_site_type_symbol
_atom_site_label
_atom_site_fract_x
_atom_site_fract_y
_atom_site_fract_z
Si Si1 0.893460 0.336287 0.301876
Si Si2 0.288739 0.822068 0.237701
Si Si3 0.979637 0.934340 0.232614
Si Si4 0.348429 0.159338 0.203754
Si Si5 0.406605 0.048510 0.982969
Si Si6 0.288217 0.035085 0.467146
Si Si7 0.526793 0.350046 0.067768
Si Si8 0.149344 0.563234 0.933496
O O1 0.900170 0.405693 0.232605
O O2 0.687252 0.517549 0.126616
O O3 0.882080 0.148031 0.213455
O O4 0.137654 0.227738 0.658477
O O5 0.508742 0.804920 0.516538
O O6 0.245645 0.904122 0.303897
O O7 0.324982 0.610974 0.211119
O O8 0.073728 0.992325 0.923705
O O9 0.239643 0.766261 0.580514
O O10 0.834323 0.858521 0.024024
O O11 0.449229 0.044472 0.629454
O O12 0.231386 0.350471 0.027518
O O13 0.459425 0.832659 0.017530
O O14 0.553170 0.086914 0.260657
O O15 0.500000 0.000000 0.000000
O O16 0.069482 0.251351 0.261765
O O17 0.500000 0.500000 0.000000
#
# Coordination Sequence:
#
# PCOD9043873 Si02
#       8
#     2   2   2   2   2   2   2   2
#     4  10  25  43  67  93 133 171 209 266 324 382
#     4   9  22  43  66  90 135 168 211 268 324 378
#     4  10  23  46  63  95 133 171 213 261 326 383
#     4  10  24  37  69  94 129 167 216 263 320 378
#     4  11  24  44  67  96 134 167 215 264 323 380
#     4  10  24  38  67  95 132 166 214 265 327 373
#     4  11  28  42  68  96 130 172 217 264 316 385
#     4  11  21  42  64 100 128 163 216 267 323 384
#
# _framework density 22.166346000000001
#
# number of rings (size 3 to 8) (size 9 to 14) (size 15 to 20)
#    0.750    1.000    1.250    1.125    7.000    1.500 
#    4.500    0.625    0.000    0.000    0.000    0.000 
#    0.000    0.000    0.000    0.000    0.000    0.000 
#
# Total GULP energy -89341.524264 kJ/mol
# GULP energy per Si atom -5583.845266 kJ/mol
# Density = 2.211589 g / cm^3
# Si number density = 22.166346 Si / 1000 Ang^3
#
#
#
# Elastic Constant Matrix: (Units=GPa)
#
#
# Indices 1 2 3 4 5 6 
#
# 1 72.5287 45.0215 18.8018 -2.7227 -7.6162 -5.2902
# 2 45.0215 120.9285 49.8743 1.8129 -2.4401 8.1097
# 3 18.8018 49.8743 107.3474 -0.0958 -1.2967 -5.3964
# 4 -2.7227 1.8129 -0.0958 38.9070 -4.4303 1.6772
# 5 -7.6162 -2.4401 -1.2967 -4.4303 46.8158 -2.2290
# 6 -5.2902 8.1097 -5.3964 1.6772 -2.2290 39.9556
#
#
#
# Elastic Compliance Matrix: (Units=1/GPa)
#
#
# Indices 1 2 3 4 5 6 
#
# 1 0.019040 -0.007500 0.000399 0.001854 0.003093 0.004192
# 2 -0.007500 0.013498 -0.005194 -0.001086 -0.000975 -0.004443
# 3 0.000399 -0.005194 0.011798 0.000213 0.000270 0.002707
# 4 0.001854 -0.001086 0.000213 0.026211 0.002710 -0.000454
# 5 0.003093 -0.000975 0.000270 0.002710 0.022161 0.001766
# 6 0.004192 -0.004443 0.002707 -0.000454 0.001766 0.026968
#
#
# Mechanical properties :
#
#
# Convention : Reuss Voigt Hill
#
# Bulk Modulus (GPa) = 50.63897 58.68887 54.66392
# Shear Modulus (GPa) = 33.14634 37.60949 35.37791
#
# Velocity S-wave (km/s) = 3.87116 4.12356 3.99936
# Velocity P-wave (km/s) = 6.54796 7.01468 6.78533
#
# Compressibility (1/GPa) = 0.01974764
#
# Stress axis : x y z
#
# Youngs Moduli (GPa) = 52.52229 74.08460 84.75861
#
# Poissons Ratio (x) = 0.55560 -0.03385
# Poissons Ratio (y) = 0.39390 0.44022
# Poissons Ratio (z) = -0.02097 0.38478
#
# Static dielectric constant tensor:
#      x y z
#    x 1.820570 0.000030 -0.014940 
#    y 0.000030 1.847320 0.017710 
#    z -0.014940 0.017710 1.864910 
# 
# From -- ./inp_files/540526.got.cif
#   From: 2010.05.17/outbox.cif.g08.bks.cpg/sg2_271_cif.got.tgz:540526.got - 2010.06.03 11:33:40.
