data_PCOD9043062
_publ_section_title
;
Structure prediction by ZEFSAII (Michael W. Deem and Ramdas Pophale) SiO2 
 PCOD9043062
Probable space group: P -1
;
_chemical_formula_sum "Si O2"
_cell_formula_units_Z 14
_cell_length_a 5.248136
_cell_length_b 8.669323
_cell_length_c 13.546176
_cell_angle_alpha 107.494689
_cell_angle_beta 71.649850
_cell_angle_gamma 85.018576
_cell_volume 546.597029
_symmetry_space_group_name_H-M "P -1"
_symmetry_group_IT_number 2
_symmetry_cell_setting 'triclinic'
loop_
_space_group_symop_operation_xyz
x,y,z
-x,-y,-z
loop_
_atom_site_type_symbol
_atom_site_label
_atom_site_fract_x
_atom_site_fract_y
_atom_site_fract_z
Si Si1 0.635678 0.034261 0.840925
Si Si2 0.016829 0.454309 0.105599
Si Si3 0.864317 0.321666 0.583656
Si Si4 0.378320 0.225870 0.732022
Si Si5 0.624436 0.635905 0.568109
Si Si6 0.412416 0.752219 0.928929
Si Si7 0.803656 0.087052 0.362216
O O1 0.410200 0.148347 0.822412
O O2 0.522566 0.888636 0.878613
O O3 0.715597 0.152316 0.938578
O O4 0.894910 0.960494 0.727862
O O5 0.866257 0.616641 0.213548
O O6 0.817279 0.323606 0.112758
O O7 0.322070 0.383068 0.093582
O O8 0.000000 0.500000 0.000000
O O9 0.665818 0.278941 0.683414
O O10 0.784642 0.520820 0.611772
O O11 0.804445 0.196866 0.480363
O O12 0.188075 0.296788 0.522450
O O13 0.313127 0.078113 0.645009
O O14 0.500000 0.500000 0.500000
O O15 0.398322 0.787620 0.660082
#
# Coordination Sequence:
#
# PCOD9043062 Si02
#       7
#     2   2   2   2   2   2   2
#     4  11  27  45  73 108 145 193 248 299 382 437
#     4  12  26  50  78 110 151 192 254 305 379 437
#     4  10  23  45  68 104 144 190 244 305 365 441
#     4  12  27  41  74 107 148 194 246 305 373 439
#     4   9  21  42  68  94 138 189 241 296 367 432
#     4  11  28  50  78 108 152 199 241 317 369 455
#     4  11  24  43  69 103 147 188 246 303 366 447
#
# _framework density 25.613022000000001
#
# number of rings (size 3 to 8) (size 9 to 14) (size 15 to 20)
#    0.000    1.143    1.429    2.571    6.000    9.143 
#    0.000    0.000    0.000    0.000    0.000    0.000 
#    0.000    0.000    0.000    0.000    0.000    0.000 
#
# Total GULP energy -78427.704768 kJ/mol
# GULP energy per Si atom -5601.978912 kJ/mol
# Density = 2.555473 g / cm^3
# Si number density = 25.613022 Si / 1000 Ang^3
#
#
#
# Elastic Constant Matrix: (Units=GPa)
#
#
# Indices 1 2 3 4 5 6 
#
# 1 67.8055 7.2059 7.3932 0.8202 -13.8586 21.7141
# 2 7.2059 112.7725 37.3458 5.7443 -3.6537 15.1320
# 3 7.3932 37.3458 65.3587 10.9954 -3.9047 -4.4066
# 4 0.8202 5.7443 10.9954 51.6107 4.1914 -1.3401
# 5 -13.8586 -3.6537 -3.9047 4.1914 28.9950 3.8253
# 6 21.7141 15.1320 -4.4066 -1.3401 3.8253 45.5521
#
#
#
# Elastic Compliance Matrix: (Units=1/GPa)
#
#
# Indices 1 2 3 4 5 6 
#
# 1 0.021163 0.001805 -0.003359 -0.001078 0.011632 -0.012021
# 2 0.001805 0.012020 -0.007308 -0.000135 0.002171 -0.005747
# 3 -0.003359 -0.007308 0.020830 -0.003416 -0.000012 0.005944
# 4 -0.001078 -0.000135 -0.003416 0.020500 -0.004111 0.001177
# 5 0.011632 0.002171 -0.000012 -0.004111 0.042225 -0.009934
# 6 -0.012021 -0.005747 0.005944 0.001177 -0.009934 0.031036
#
#
# Mechanical properties :
#
#
# Convention : Reuss Voigt Hill
#
# Bulk Modulus (GPa) = 27.55619 38.86960 33.21290
# Shear Modulus (GPa) = 28.15393 38.16436 33.15914
#
# Velocity S-wave (km/s) = 3.31902 3.86429 3.60199
# Velocity P-wave (km/s) = 5.04677 5.92613 5.50404
#
# Compressibility (1/GPa) = 0.03628949
#
# Stress axis : x y z
#
# Youngs Moduli (GPa) = 47.25320 83.19197 48.00660
#
# Poissons Ratio (x) = -0.15016 0.16127
# Poissons Ratio (y) = -0.08529 0.35081
# Poissons Ratio (z) = 0.15874 0.60793
#
# Static dielectric constant tensor:
#      x y z
#    x 2.074560 -0.083710 0.074390 
#    y -0.083710 2.012660 -0.043960 
#    z 0.074390 -0.043960 2.019070 
# 
# From -- ./inp_files/479676.got.cif
#   From: 2010.05.17/outbox.cif.g08.bks.cpg/sg2_240_cif.got.tgz:479676.got - 2010.06.03 11:33:40.
