data_PCOD9043912
_publ_section_title
;
Structure prediction by ZEFSAII (Michael W. Deem and Ramdas Pophale) SiO2 
 PCOD9043912
Probable space group: P -1
;
_chemical_formula_sum "Si O2"
_cell_formula_units_Z 16
_cell_length_a 9.050352
_cell_length_b 11.198690
_cell_length_c 18.400541
_cell_angle_alpha 40.638838
_cell_angle_beta 52.489677
_cell_angle_gamma 83.391285
_cell_volume 713.861208
_symmetry_space_group_name_H-M "P -1"
_symmetry_group_IT_number 2
_symmetry_cell_setting 'triclinic'
loop_
_space_group_symop_operation_xyz
x,y,z
-x,-y,-z
loop_
_atom_site_type_symbol
_atom_site_label
_atom_site_fract_x
_atom_site_fract_y
_atom_site_fract_z
Si Si1 0.911112 0.720302 0.450586
Si Si2 0.618586 0.733353 0.406251
Si Si3 0.738032 0.187961 0.478821
Si Si4 0.085022 0.584415 0.817698
Si Si5 0.369422 0.621682 0.856629
Si Si6 0.134642 0.911435 0.964142
Si Si7 0.153747 0.252984 0.381906
Si Si8 0.600032 0.134886 0.828408
O O1 0.772132 0.744047 0.419765
O O2 0.897046 0.814245 0.487591
O O3 0.752135 0.428889 0.649302
O O4 0.190241 0.858567 0.274169
O O5 0.500000 0.500000 0.500000
O O6 0.396440 0.712691 0.510396
O O7 0.784530 0.964710 0.196538
O O8 0.762501 0.179602 0.388974
O O9 0.010996 0.345079 0.360579
O O10 0.551906 0.908498 0.693273
O O11 0.236989 0.597935 0.832622
O O12 0.847135 0.532518 0.947325
O O13 0.009682 0.369920 0.884445
O O14 0.554989 0.574964 0.806381
O O15 0.366667 0.012208 0.900452
O O16 0.000000 0.000000 0.000000
O O17 0.000000 0.000000 0.500000
O O18 0.500000 0.000000 0.000000
#
# Coordination Sequence:
#
# PCOD9043912 Si02
#       8
#     2   2   2   2   2   2   2   2
#     4  11  25  45  72  99 139 185 227 284 349 406
#     4  12  23  43  69 102 138 181 225 280 345 416
#     4  11  23  43  70  96 136 178 226 278 345 401
#     4  11  24  41  68  99 132 180 223 286 337 406
#     4  10  23  46  66  96 138 173 235 277 338 406
#     4  12  25  43  68 103 140 178 229 284 343 414
#     4  10  24  44  70  99 135 182 233 282 338 405
#     4  11  26  46  70 102 141 178 229 284 347 415
#
# _framework density 22.413322000000001
#
# number of rings (size 3 to 8) (size 9 to 14) (size 15 to 20)
#    0.000    1.000    2.500    3.375    7.000    1.500 
#    0.000    0.000    0.000    0.000    0.000    0.000 
#    0.000    0.000    0.000    0.000    0.000    0.000 
#
# Total GULP energy -89449.982099 kJ/mol
# GULP energy per Si atom -5590.623881 kJ/mol
# Density = 2.236231 g / cm^3
# Si number density = 22.413322 Si / 1000 Ang^3
#
#
#
# Elastic Constant Matrix: (Units=GPa)
#
#
# Indices 1 2 3 4 5 6 
#
# 1 176.0389 67.1661 41.5892 36.5344 -17.1984 -16.5707
# 2 67.1661 98.2675 34.7674 36.9532 -15.5234 -1.1281
# 3 41.5892 34.7674 107.8582 40.5491 5.0948 -15.2179
# 4 36.5344 36.9532 40.5491 44.8739 -3.8480 -9.3329
# 5 -17.1984 -15.5234 5.0948 -3.8480 45.3823 13.5752
# 6 -16.5707 -1.1281 -15.2179 -9.3329 13.5752 38.0043
#
#
#
# Elastic Compliance Matrix: (Units=1/GPa)
#
#
# Indices 1 2 3 4 5 6 
#
# 1 0.008274 -0.004609 -0.000762 -0.001670 0.000760 0.002484
# 2 -0.004609 0.019047 -0.001196 -0.011785 0.005984 -0.006955
# 3 -0.000762 -0.001196 0.015162 -0.011554 -0.004744 0.004561
# 4 -0.001670 -0.011785 -0.011554 0.044881 -0.001290 0.005778
# 5 0.000760 0.005984 -0.004744 -0.001290 0.028331 -0.011827
# 6 0.002484 -0.006955 0.004561 0.005778 -0.011827 0.034659
#
#
# Mechanical properties :
#
#
# Convention : Reuss Voigt Hill
#
# Bulk Modulus (GPa) = 34.07249 74.35666 54.21458
# Shear Modulus (GPa) = 28.85672 41.56155 35.20913
#
# Velocity S-wave (km/s) = 3.59204 4.31086 3.96776
# Velocity P-wave (km/s) = 5.69549 7.61743 6.72547
#
# Compressibility (1/GPa) = 0.02934919
#
# Stress axis : x y z
#
# Youngs Moduli (GPa) = 120.86365 52.50241 65.95478
#
# Poissons Ratio (x) = 0.24197 0.05027
# Poissons Ratio (y) = 0.55704 0.07886
# Poissons Ratio (z) = 0.09212 0.06278
#
# Static dielectric constant tensor:
#      x y z
#    x 1.728100 -0.010480 -0.457090 
#    y -0.010480 1.846960 0.144030 
#    z -0.457090 0.144030 -0.228870 
# 
# From -- ./inp_files/519510.got.cif
#   From: 2010.05.17/outbox.cif.g08.bks.cpg/sg2_260_cif.got.tgz:519510.got - 2010.06.03 11:33:40.
