data_PCOD9043200
_publ_section_title
;
Structure prediction by ZEFSAII (Michael W. Deem and Ramdas Pophale) SiO2 
 PCOD9043200
Probable space group: P -1
;
_chemical_formula_sum "Si O2"
_cell_formula_units_Z 16
_cell_length_a 21.631288
_cell_length_b 5.994190
_cell_length_c 6.595709
_cell_angle_alpha 102.941576
_cell_angle_beta 85.226926
_cell_angle_gamma 121.425965
_cell_volume 710.649671
_symmetry_space_group_name_H-M "P -1"
_symmetry_group_IT_number 2
_symmetry_cell_setting 'triclinic'
loop_
_space_group_symop_operation_xyz
x,y,z
-x,-y,-z
loop_
_atom_site_type_symbol
_atom_site_label
_atom_site_fract_x
_atom_site_fract_y
_atom_site_fract_z
Si Si1 0.887736 0.023331 0.635338
Si Si2 0.771010 0.621848 0.873194
Si Si3 0.662325 0.676301 0.651337
Si Si4 0.446084 0.214359 0.055874
Si Si5 0.825780 0.542919 0.234613
Si Si6 0.981464 0.736440 0.090757
Si Si7 0.550796 0.160401 0.330371
Si Si8 0.208387 0.802873 0.466782
O O1 0.838498 0.902557 0.828058
O O2 0.858334 0.778123 0.439021
O O3 0.969846 0.135928 0.696086
O O4 0.868004 0.225427 0.575979
O O5 0.697765 0.589568 0.800386
O O6 0.780275 0.395245 0.716939
O O7 0.775926 0.585488 0.101770
O O8 0.616725 0.784327 0.799063
O O9 0.612322 0.436612 0.465211
O O10 0.728732 0.903585 0.551574
O O11 0.497070 0.180969 0.193499
O O12 0.500000 0.500000 0.000000
O O13 0.419460 0.998005 0.838306
O O14 0.788538 0.271748 0.317667
O O15 0.895340 0.581397 0.105665
O O16 0.000000 0.500000 0.000000
O O17 0.000000 0.000000 0.000000
O O18 0.500000 0.000000 0.500000
#
# Coordination Sequence:
#
# PCOD9043200 Si02
#       8
#     2   2   2   2   2   2   2   2
#     4  10  23  45  69 106 141 187 249 304 371 434
#     4  10  23  47  66 101 146 185 240 299 358 451
#     4  11  25  48  72 103 150 190 239 301 376 441
#     4  11  25  47  74 108 141 186 237 300 371 435
#     4  11  24  46  74 103 145 190 249 302 368 447
#     4  12  26  44  81 107 148 200 251 319 385 441
#     4  11  25  47  75 107 145 180 242 308 356 446
#     4  10  25  45  68 101 145 191 241 300 365 450
#
# _framework density 22.514610000000001
#
# number of rings (size 3 to 8) (size 9 to 14) (size 15 to 20)
#    0.000    1.250    2.500    1.500    5.250    2.500 
#   18.000    0.000    0.000    0.000    0.000    0.000 
#    0.000    0.000    0.000    0.000    0.000    0.000 
#
# Total GULP energy -89456.696695 kJ/mol
# GULP energy per Si atom -5591.043543 kJ/mol
# Density = 2.246337 g / cm^3
# Si number density = 22.514610 Si / 1000 Ang^3
#
#
#
# Elastic Constant Matrix: (Units=GPa)
#
#
# Indices 1 2 3 4 5 6 
#
# 1 109.6629 31.4074 48.8924 9.5274 7.5729 -17.8412
# 2 31.4074 89.0615 59.3985 -6.3811 5.3290 -14.7058
# 3 48.8924 59.3985 134.8779 -3.7631 16.2585 -7.9446
# 4 9.5274 -6.3811 -3.7631 42.1937 -8.9331 2.7134
# 5 7.5729 5.3290 16.2585 -8.9331 35.5630 -0.2206
# 6 -17.8412 -14.7058 -7.9446 2.7134 -0.2206 32.4002
#
#
#
# Elastic Compliance Matrix: (Units=1/GPa)
#
#
# Indices 1 2 3 4 5 6 
#
# 1 0.012469 -0.001294 -0.003502 -0.004085 -0.001851 0.005750
# 2 -0.001294 0.017245 -0.006930 0.002254 0.001458 0.005237
# 3 -0.003502 -0.006930 0.012059 0.000174 -0.003699 -0.002157
# 4 -0.004085 0.002254 0.000174 0.026708 0.007140 -0.003372
# 5 -0.001851 0.001458 -0.003699 0.007140 0.031769 -0.001646
# 6 0.005750 0.005237 -0.002157 -0.003372 -0.001646 0.036149
#
#
# Mechanical properties :
#
#
# Convention : Reuss Voigt Hill
#
# Bulk Modulus (GPa) = 54.58222 68.11098 61.34660
# Shear Modulus (GPa) = 30.12792 34.95830 32.54311
#
# Velocity S-wave (km/s) = 3.66204 3.94470 3.80600
# Velocity P-wave (km/s) = 6.49433 7.14599 6.82794
#
# Compressibility (1/GPa) = 0.01832098
#
# Stress axis : x y z
#
# Youngs Moduli (GPa) = 80.19868 57.98678 82.92397
#
# Poissons Ratio (x) = 0.07503 0.29043
# Poissons Ratio (y) = 0.10377 0.57466
# Poissons Ratio (z) = 0.28088 0.40185
#
# Static dielectric constant tensor:
#      x y z
#    x 1.834520 -0.030870 -0.013540 
#    y -0.030870 1.861320 0.004260 
#    z -0.013540 0.004260 1.840870 
# 
# From -- ./inp_files/12821.got.cif
#   From: 2010.05.17/outbox.cif.g08.bks.cpg/sg2_7_cif.got.tgz:12821.got - 2010.06.03 11:33:40.
