data_PCOD9043985
_publ_section_title
;
Structure prediction by ZEFSAII (Michael W. Deem and Ramdas Pophale) SiO2 
 PCOD9043985
Probable space group: P -1
;
_chemical_formula_sum "Si O2"
_cell_formula_units_Z 14
_cell_length_a 5.003122
_cell_length_b 17.136398
_cell_length_c 23.015229
_cell_angle_alpha 161.488734
_cell_angle_beta 73.728678
_cell_angle_gamma 98.317690
_cell_volume 551.936420
_symmetry_space_group_name_H-M "P -1"
_symmetry_group_IT_number 2
_symmetry_cell_setting 'triclinic'
loop_
_space_group_symop_operation_xyz
x,y,z
-x,-y,-z
loop_
_atom_site_type_symbol
_atom_site_label
_atom_site_fract_x
_atom_site_fract_y
_atom_site_fract_z
Si Si1 0.668383 0.166046 0.665500
Si Si2 0.609832 0.678703 0.968788
Si Si3 0.059342 0.196712 0.765824
Si Si4 0.066590 0.555875 0.758431
Si Si5 0.437655 0.873812 0.992212
Si Si6 0.347863 0.891436 0.641699
Si Si7 0.319952 0.460693 0.427751
O O1 0.386254 0.077620 0.627595
O O2 0.779073 0.204807 0.750432
O O3 0.531109 0.446681 0.837339
O O4 0.000000 0.000000 0.500000
O O5 0.407796 0.841262 0.041324
O O6 0.629072 0.876192 0.156008
O O7 0.936513 0.536551 0.816256
O O8 0.108622 0.023355 0.698532
O O9 0.000000 0.500000 0.000000
O O10 0.333719 0.289171 0.534735
O O11 0.185390 0.794589 0.922450
O O12 0.771736 0.646830 0.800020
O O13 0.446921 0.159522 0.182380
O O14 0.285815 0.685442 0.541961
O O15 0.500000 0.500000 0.500000
O O16 0.000000 0.500000 0.500000
#
# Coordination Sequence:
#
# PCOD9043985 Si02
#       7
#     2   2   2   2   2   2   2
#     4  12  27  47  76 104 147 194 242 303 364 434
#     4  10  24  46  73 103 146 189 237 295 360 423
#     4  12  28  47  69 111 143 187 249 293 368 433
#     4  10  25  45  69 110 142 188 241 289 363 427
#     4  10  23  46  68 102 151 174 245 292 349 431
#     4  12  26  48  77 103 148 191 236 308 356 427
#     4  12  25  45  74 111 137 191 246 285 365 439
#
# _framework density 25.365238000000002
#
# number of rings (size 3 to 8) (size 9 to 14) (size 15 to 20)
#    0.857    0.000    2.857    3.429    4.000    4.571 
#    2.571    0.000    0.000    0.000    0.000    0.000 
#    0.000    0.000    0.000    0.000    0.000    0.000 
#
# Total GULP energy -78468.476592 kJ/mol
# GULP energy per Si atom -5604.891185 kJ/mol
# Density = 2.530751 g / cm^3
# Si number density = 25.365238 Si / 1000 Ang^3
#
#
#
# Elastic Constant Matrix: (Units=GPa)
#
#
# Indices 1 2 3 4 5 6 
#
# 1 122.0369 32.1301 -0.7664 -3.9782 1.4412 5.7324
# 2 32.1301 163.6856 37.6023 31.0358 5.9320 -2.8341
# 3 -0.7664 37.6023 92.3553 -7.3863 -11.2936 2.4191
# 4 -3.9782 31.0358 -7.3863 50.3473 4.0669 -3.4112
# 5 1.4412 5.9320 -11.2936 4.0669 37.9559 1.5976
# 6 5.7324 -2.8341 2.4191 -3.4112 1.5976 32.1171
#
#
#
# Elastic Compliance Matrix: (Units=1/GPa)
#
#
# Indices 1 2 3 4 5 6 
#
# 1 0.009038 -0.002586 0.001398 0.002374 0.000295 -0.001709
# 2 -0.002586 0.008868 -0.004389 -0.006085 -0.001985 0.001027
# 3 0.001398 -0.004389 0.013532 0.004362 0.004251 -0.001404
# 4 0.002374 -0.006085 0.004362 0.024575 -0.000531 0.001347
# 5 0.000295 -0.001985 0.004251 -0.000531 0.028051 -0.002000
# 6 -0.001709 0.001027 -0.001404 0.001347 -0.002000 0.031880
#
#
# Mechanical properties :
#
#
# Convention : Reuss Voigt Hill
#
# Bulk Modulus (GPa) = 49.29401 57.33442 53.31421
# Shear Modulus (GPa) = 37.35309 44.69151 41.02230
#
# Velocity S-wave (km/s) = 3.84162 4.20208 4.02589
# Velocity P-wave (km/s) = 6.25726 6.79675 6.53258
#
# Compressibility (1/GPa) = 0.02028644
#
# Stress axis : x y z
#
# Youngs Moduli (GPa) = 110.64453 112.75966 73.90110
#
# Poissons Ratio (x) = 0.29155 -0.10334
# Poissons Ratio (y) = 0.28608 0.32432
# Poissons Ratio (z) = -0.15472 0.49485
#
# Static dielectric constant tensor:
#      x y z
#    x 1.915230 0.027610 -0.006770 
#    y 0.027610 1.980290 -0.121900 
#    z -0.006770 -0.121900 1.888500 
# 
# From -- ./inp_files/604900.got.cif
#   From: 2010.05.17/outbox.cif.g08.bks.cpg/sg2_303_cif.got.tgz:604900.got - 2010.06.03 11:33:40.
