data_PCOD9043830
_publ_section_title
;
Structure prediction by ZEFSAII (Michael W. Deem and Ramdas Pophale) SiO2 
 PCOD9043830
Probable space group: P -1
;
_chemical_formula_sum "Si O2"
_cell_formula_units_Z 12
_cell_length_a 11.550199
_cell_length_b 9.121226
_cell_length_c 9.233434
_cell_angle_alpha 78.949472
_cell_angle_beta 39.651428
_cell_angle_gamma 56.823073
_cell_volume 469.060945
_symmetry_space_group_name_H-M "P -1"
_symmetry_group_IT_number 2
_symmetry_cell_setting 'triclinic'
loop_
_space_group_symop_operation_xyz
x,y,z
-x,-y,-z
loop_
_atom_site_type_symbol
_atom_site_label
_atom_site_fract_x
_atom_site_fract_y
_atom_site_fract_z
Si Si1 0.923353 0.407128 0.771999
Si Si2 0.644461 0.145800 0.432427
Si Si3 0.983663 0.799618 0.992686
Si Si4 0.530357 0.143225 0.871009
Si Si5 0.790137 0.500300 0.386244
Si Si6 0.740847 0.314191 0.730428
O O1 0.937896 0.289656 0.643692
O O2 0.148246 0.390108 0.595325
O O3 0.883445 0.326838 0.967010
O O4 0.710912 0.635609 0.917903
O O5 0.869070 0.139632 0.224175
O O6 0.587402 0.111716 0.651157
O O7 0.425018 0.350149 0.539623
O O8 0.731055 0.981193 0.260250
O O9 0.991691 0.663477 0.894364
O O10 0.724600 0.145101 0.764834
O O11 0.500000 0.000000 0.000000
O O12 0.741439 0.387896 0.558921
O O13 0.500000 0.500000 0.000000
#
# Coordination Sequence:
#
# PCOD9043830 Si02
#       6
#     2   2   2   2   2   2
#     4  11  25  47  71 111 148 198 247 292 384 438
#     4  11  24  45  77 113 143 192 254 305 371 435
#     4  11  24  45  77 113 142 195 250 303 372 440
#     4  11  24  48  75 109 151 195 249 308 365 442
#     4  12  23  47  78 106 155 190 242 317 363 443
#     4  10  23  45  77 102 147 205 240 299 375 437
#
# _framework density 25.583029
#
# number of rings (size 3 to 8) (size 9 to 14) (size 15 to 20)
#    0.000    1.000    3.333    3.500    0.000    4.667 
#   12.000    1.667    0.000    0.000    0.000    0.000 
#    0.000    0.000    0.000    0.000    0.000    0.000 
#
# Total GULP energy -67288.240743 kJ/mol
# GULP energy per Si atom -5607.353395 kJ/mol
# Density = 2.552480 g / cm^3
# Si number density = 25.583029 Si / 1000 Ang^3
#
#
#
# Elastic Constant Matrix: (Units=GPa)
#
#
# Indices 1 2 3 4 5 6 
#
# 1 106.7838 47.7666 50.4835 -2.4548 14.3890 24.5434
# 2 47.7666 154.9330 67.9478 -31.5759 16.6129 13.3054
# 3 50.4835 67.9478 118.8333 -21.9665 24.9436 13.0200
# 4 -2.4548 -31.5759 -21.9665 49.9098 -1.0551 4.7827
# 5 14.3890 16.6129 24.9436 -1.0551 44.5557 -1.6561
# 6 24.5434 13.3054 13.0200 4.7827 -1.6561 37.1389
#
#
#
# Elastic Compliance Matrix: (Units=1/GPa)
#
#
# Indices 1 2 3 4 5 6 
#
# 1 0.013973 -0.002176 -0.003872 -0.001766 -0.001834 -0.006951
# 2 -0.002176 0.009839 -0.003457 0.004722 -0.000976 -0.001527
# 3 -0.003872 -0.003457 0.014077 0.003885 -0.005319 -0.001876
# 4 -0.001766 0.004722 0.003885 0.025087 -0.002967 -0.005250
# 5 -0.001834 -0.000976 -0.005319 -0.002967 0.026493 0.004990
# 6 -0.006951 -0.001527 -0.001876 -0.005250 0.004990 0.033623
#
#
# Mechanical properties :
#
#
# Convention : Reuss Voigt Hill
#
# Bulk Modulus (GPa) = 52.96626 79.21621 66.09124
# Shear Modulus (GPa) = 33.69410 40.61100 37.15255
#
# Velocity S-wave (km/s) = 3.63305 3.98857 3.81495
# Velocity P-wave (km/s) = 6.19253 7.22794 6.73018
#
# Compressibility (1/GPa) = 0.01887994
#
# Stress axis : x y z
#
# Youngs Moduli (GPa) = 71.56790 101.63169 71.04023
#
# Poissons Ratio (x) = 0.22118 0.27504
# Poissons Ratio (y) = 0.15575 0.24555
# Poissons Ratio (z) = 0.27708 0.35129
#
# Static dielectric constant tensor:
#      x y z
#    x 2.088730 0.045450 -0.022310 
#    y 0.045450 2.010930 0.035440 
#    z -0.022310 0.035440 2.007840 
# 
# From -- ./inp_files/173697.got.cif
#   From: 2010.05.17/outbox.cif.g08.bks.cpg/sg2_87_cif.got.tgz:173697.got - 2010.06.03 11:33:40.
