data_PCOD9043915
_publ_section_title
;
Structure prediction by ZEFSAII (Michael W. Deem and Ramdas Pophale) SiO2 
 PCOD9043915
Probable space group: P -1
;
_chemical_formula_sum "Si O2"
_cell_formula_units_Z 14
_cell_length_a 15.084592
_cell_length_b 5.221608
_cell_length_c 28.024157
_cell_angle_alpha 118.639522
_cell_angle_beta 19.134762
_cell_angle_gamma 109.761711
_cell_volume 582.362606
_symmetry_space_group_name_H-M "P -1"
_symmetry_group_IT_number 2
_symmetry_cell_setting 'triclinic'
loop_
_space_group_symop_operation_xyz
x,y,z
-x,-y,-z
loop_
_atom_site_type_symbol
_atom_site_label
_atom_site_fract_x
_atom_site_fract_y
_atom_site_fract_z
Si Si1 0.101273 0.180442 0.241877
Si Si2 0.877593 0.914923 0.886234
Si Si3 0.751261 0.559123 0.538734
Si Si4 0.368114 0.612181 0.235009
Si Si5 0.602094 0.513695 0.208941
Si Si6 0.427624 0.663153 0.109096
Si Si7 0.860653 0.964009 0.146277
O O1 0.831597 0.376578 0.430939
O O2 0.299520 0.389350 0.152377
O O3 0.037975 0.100258 0.213575
O O4 0.270623 0.881679 0.163450
O O5 0.120893 0.894954 0.799270
O O6 0.609170 0.257630 0.065318
O O7 0.759568 0.638364 0.931576
O O8 0.687731 0.406718 0.605146
O O9 0.039179 0.628601 0.408991
O O10 0.425100 0.819965 0.717993
O O11 0.490940 0.672506 0.227868
O O12 0.353153 0.818218 0.213784
O O13 0.803588 0.642078 0.149696
O O14 0.822173 0.151346 0.051322
#
# Coordination Sequence:
#
# PCOD9043915 Si02
#       7
#     2   2   2   2   2   2   2
#     4  11  26  41  74 104 140 172 231 279 344 393
#     4  11  23  44  68 102 139 183 221 280 338 412
#     4  11  23  41  66  99 138 179 222 290 331 409
#     4  10  24  40  72 102 134 177 235 277 344 391
#     4  10  23  46  66  98 134 184 226 287 332 411
#     4  11  22  43  68 107 134 176 223 287 326 406
#     4  10  25  43  66  96 139 179 232 270 351 399
#
# _framework density 24.040006000000002
#
# number of rings (size 3 to 8) (size 9 to 14) (size 15 to 20)
#    0.000    1.429    2.857    1.714    6.000    6.857 
#    0.000    0.714    0.000    0.000    0.000    0.000 
#    0.000    0.000    0.000    0.000    0.000    0.000 
#
# Total GULP energy -78065.414656 kJ/mol
# GULP energy per Si atom -5576.101047 kJ/mol
# Density = 2.398529 g / cm^3
# Si number density = 24.040006 Si / 1000 Ang^3
#
#
#
# Elastic Constant Matrix: (Units=GPa)
#
#
# Indices 1 2 3 4 5 6 
#
# 1 228.8320 59.8831 62.6772 -23.2426 19.6944 5.3011
# 2 59.8831 64.7076 11.9403 -3.8395 21.0188 -8.0876
# 3 62.6772 11.9403 109.0837 -10.7672 24.2113 -7.3876
# 4 -23.2426 -3.8395 -10.7672 29.7168 -14.8611 7.5879
# 5 19.6944 21.0188 24.2113 -14.8611 43.8985 -5.8393
# 6 5.3011 -8.0876 -7.3876 7.5879 -5.8393 30.5312
#
#
#
# Elastic Compliance Matrix: (Units=1/GPa)
#
#
# Indices 1 2 3 4 5 6 
#
# 1 0.008433 -0.008789 -0.004583 0.007692 0.004772 -0.005900
# 2 -0.008789 0.028054 0.004790 -0.011434 -0.014651 0.010156
# 3 -0.004583 0.004790 0.013015 -0.003388 -0.007960 0.004533
# 4 0.007692 -0.011434 -0.003388 0.050018 0.018964 -0.013988
# 5 0.004772 -0.014651 -0.007960 0.018964 0.037919 -0.004096
# 6 -0.005900 0.010156 0.004533 -0.013988 -0.004096 0.040258
#
#
# Mechanical properties :
#
#
# Convention : Reuss Voigt Hill
#
# Bulk Modulus (GPa) = 30.92224 74.62494 52.77359
# Shear Modulus (GPa) = 24.31427 38.70414 31.50920
#
# Velocity S-wave (km/s) = 3.18372 4.01682 3.62428
# Velocity P-wave (km/s) = 5.13863 7.25414 6.28601
#
# Compressibility (1/GPa) = 0.03233919
#
# Stress axis : x y z
#
# Youngs Moduli (GPa) = 118.58771 35.64526 76.83265
#
# Poissons Ratio (x) = 0.31330 0.35209
# Poissons Ratio (y) = 1.04231 -0.36806
# Poissons Ratio (z) = 0.54343 -0.17076
#
# Static dielectric constant tensor:
#      x y z
#    x 1.912160 -0.005080 0.040400 
#    y -0.005080 2.141870 0.063150 
#    z 0.040400 0.063150 1.973220 
# 
# From -- ./inp_files/619033.got.cif
#   From: 2010.05.17/outbox.cif.g08.bks.cpg/sg2_310_cif.got.tgz:619033.got - 2010.06.03 11:33:40.
