data_PCOD9043781
_publ_section_title
;
Structure prediction by ZEFSAII (Michael W. Deem and Ramdas Pophale) SiO2 
 PCOD9043781
Probable space group: P -1
;
_chemical_formula_sum "Si O2"
_cell_formula_units_Z 14
_cell_length_a 8.911631
_cell_length_b 5.327819
_cell_length_c 16.398720
_cell_angle_alpha 63.737377
_cell_angle_beta 127.969896
_cell_angle_gamma 104.000166
_cell_volume 549.934468
_symmetry_space_group_name_H-M "P -1"
_symmetry_group_IT_number 2
_symmetry_cell_setting 'triclinic'
loop_
_space_group_symop_operation_xyz
x,y,z
-x,-y,-z
loop_
_atom_site_type_symbol
_atom_site_label
_atom_site_fract_x
_atom_site_fract_y
_atom_site_fract_z
Si Si1 0.414030 0.584964 0.546769
Si Si2 0.546111 0.372216 0.168289
Si Si3 0.168681 0.091592 0.603378
Si Si4 0.664543 0.826927 0.034088
Si Si5 0.908707 0.071365 0.670571
Si Si6 0.169682 0.691857 0.054509
Si Si7 0.173303 0.550420 0.251205
O O1 0.500000 0.500000 0.500000
O O2 0.288164 0.871928 0.455029
O O3 0.605606 0.558959 0.665599
O O4 0.266851 0.360814 0.561646
O O5 0.666232 0.150323 0.294055
O O6 0.693242 0.562000 0.140474
O O7 0.381378 0.547220 0.135568
O O8 0.421948 0.246990 0.071515
O O9 0.000000 0.000000 0.500000
O O10 0.077649 0.146914 0.654735
O O11 0.500000 0.000000 0.000000
O O12 0.825756 0.040132 0.040523
O O13 0.877351 0.275608 0.708548
O O14 0.931844 0.743167 0.746098
O O15 0.144166 0.740380 0.134596
O O16 0.000000 0.500000 0.000000
#
# Coordination Sequence:
#
# PCOD9043781 Si02
#       7
#     2   2   2   2   2   2   2
#     4  10  23  45  75 108 156 201 258 319 381 464
#     4  10  24  47  78 110 154 206 263 329 397 470
#     4  12  26  47  78 118 159 209 262 319 396 480
#     4   9  21  48  76 109 149 199 263 328 395 465
#     4  11  26  49  73 116 155 210 263 316 386 477
#     4  11  26  47  76 116 150 205 265 334 400 470
#     4  11  26  49  79 110 156 207 260 328 396 457
#
# _framework density 25.457581000000001
#
# number of rings (size 3 to 8) (size 9 to 14) (size 15 to 20)
#    0.000    1.429    0.000    3.429    8.000    4.000 
#   18.000    0.000    0.000    0.000    0.000    0.000 
#    0.000    0.000    0.000    0.000    0.000    0.000 
#
# Total GULP energy -78397.679800 kJ/mol
# GULP energy per Si atom -5599.834271 kJ/mol
# Density = 2.539964 g / cm^3
# Si number density = 25.457581 Si / 1000 Ang^3
#
#
#
# Elastic Constant Matrix: (Units=GPa)
#
#
# Indices 1 2 3 4 5 6 
#
# 1 193.7240 66.8573 39.4967 -3.0135 -1.5355 2.4812
# 2 66.8573 104.3298 6.1969 -4.7396 -18.0593 21.5191
# 3 39.4967 6.1969 74.4049 4.7405 11.7780 2.0352
# 4 -3.0135 -4.7396 4.7405 25.7285 -10.0728 -3.6657
# 5 -1.5355 -18.0593 11.7780 -10.0728 55.9733 -11.1774
# 6 2.4812 21.5191 2.0352 -3.6657 -11.1774 63.8841
#
#
#
# Elastic Compliance Matrix: (Units=1/GPa)
#
#
# Indices 1 2 3 4 5 6 
#
# 1 0.007623 -0.004970 -0.003699 0.000808 -0.000168 0.001513
# 2 -0.004970 0.014360 0.000698 0.003019 0.004141 -0.003768
# 3 -0.003699 0.000698 0.016477 -0.005416 -0.004666 -0.001743
# 4 0.000808 0.003019 -0.005416 0.045355 0.011028 0.003656
# 5 -0.000168 0.004141 -0.004666 0.011028 0.022840 0.003389
# 6 0.001513 -0.003768 -0.001743 0.003656 0.003389 0.017722
#
#
# Mechanical properties :
#
#
# Convention : Reuss Voigt Hill
#
# Bulk Modulus (GPa) = 44.41098 66.39560 55.40329
# Shear Modulus (GPa) = 33.82380 46.44436 40.13408
#
# Velocity S-wave (km/s) = 3.64900 4.27591 3.97483
# Velocity P-wave (km/s) = 5.93604 7.10742 6.54797
#
# Compressibility (1/GPa) = 0.02251695
#
# Stress axis : x y z
#
# Youngs Moduli (GPa) = 131.17880 69.64006 60.69136
#
# Poissons Ratio (x) = 0.34610 0.22449
# Poissons Ratio (y) = 0.65194 -0.04233
# Poissons Ratio (z) = 0.48522 -0.04858
#
# Static dielectric constant tensor:
#      x y z
#    x 1.931540 0.025510 0.056730 
#    y 0.025510 2.039950 -0.039620 
#    z 0.056730 -0.039620 2.094200 
# 
# From -- ./inp_files/553307.got.cif
#   From: 2010.05.17/outbox.cif.g08.bks.cpg/sg2_277_cif.got.tgz:553307.got - 2010.06.03 11:33:40.
