data_PCOD9043256
_publ_section_title
;
Structure prediction by ZEFSAII (Michael W. Deem and Ramdas Pophale) SiO2 
 PCOD9043256
Probable space group: P -1
;
_chemical_formula_sum "Si O2"
_cell_formula_units_Z 14
_cell_length_a 15.591844
_cell_length_b 9.676149
_cell_length_c 14.480154
_cell_angle_alpha 139.340359
_cell_angle_beta 150.973489
_cell_angle_gamma 37.019353
_cell_volume 624.399589
_symmetry_space_group_name_H-M "P -1"
_symmetry_group_IT_number 2
_symmetry_cell_setting 'triclinic'
loop_
_space_group_symop_operation_xyz
x,y,z
-x,-y,-z
loop_
_atom_site_type_symbol
_atom_site_label
_atom_site_fract_x
_atom_site_fract_y
_atom_site_fract_z
Si Si1 0.609006 0.925422 0.942813
Si Si2 0.979838 0.885391 0.192145
Si Si3 0.031806 0.774939 0.974587
Si Si4 0.915118 0.394946 0.447532
Si Si5 0.262487 0.301743 0.863925
Si Si6 0.378375 0.615960 0.535278
Si Si7 0.346292 0.270805 0.477716
O O1 0.466727 0.798034 0.737332
O O2 0.460777 0.198277 0.939016
O O3 0.707568 0.866748 0.106050
O O4 0.789072 0.835072 0.997246
O O5 0.059123 0.815332 0.127855
O O6 0.151441 0.746702 0.356375
O O7 0.901561 0.163540 0.278933
O O8 0.208834 0.553565 0.984927
O O9 0.840060 0.732584 0.753183
O O10 0.000000 0.000000 0.000000
O O11 0.730505 0.592245 0.427508
O O12 0.000000 0.500000 0.500000
O O13 0.084585 0.310172 0.640807
O O14 0.500000 0.500000 0.500000
O O15 0.411995 0.427872 0.552193
O O16 0.500000 0.000000 0.500000
#
# Coordination Sequence:
#
# PCOD9043256 Si02
#       7
#     2   2   2   2   2   2   2
#     4  11  25  43  77 104 139 181 245 308 357 426
#     4  12  25  46  76 109 141 188 253 293 366 429
#     4  11  25  46  71  99 147 193 234 299 360 432
#     4  11  25  46  72 104 153 195 238 305 360 435
#     4  10  23  45  69  99 142 181 236 292 368 411
#     4  12  27  46  78 109 149 188 242 316 358 431
#     4  11  28  47  73 108 147 195 243 292 379 435
#
# _framework density 22.42154
#
# number of rings (size 3 to 8) (size 9 to 14) (size 15 to 20)
#    0.000    0.857    1.429    5.143   10.000    4.000 
#    0.000    2.143    0.000    0.000    0.000    0.000 
#    0.000    0.000    0.000    0.000    0.000    0.000 
#
# Total GULP energy -78309.589199 kJ/mol
# GULP energy per Si atom -5593.542086 kJ/mol
# Density = 2.237051 g / cm^3
# Si number density = 22.421540 Si / 1000 Ang^3
#
#
#
# Elastic Constant Matrix: (Units=GPa)
#
#
# Indices 1 2 3 4 5 6 
#
# 1 123.9071 55.6604 33.2822 16.1499 4.9663 -7.7698
# 2 55.6604 147.0154 43.2735 6.7255 10.9758 -18.1907
# 3 33.2822 43.2735 99.8234 5.7611 -1.9299 -3.2180
# 4 16.1499 6.7255 5.7611 34.1973 -5.5629 -0.0669
# 5 4.9663 10.9758 -1.9299 -5.5629 40.3465 0.9367
# 6 -7.7698 -18.1907 -3.2180 -0.0669 0.9367 31.4554
#
#
#
# Elastic Compliance Matrix: (Units=1/GPa)
#
#
# Indices 1 2 3 4 5 6 
#
# 1 0.010627 -0.003080 -0.001962 -0.004271 -0.001168 0.000668
# 2 -0.003080 0.009631 -0.003030 -0.000333 -0.002538 0.004573
# 3 -0.001962 -0.003030 0.011997 -0.000235 0.001632 -0.001059
# 4 -0.004271 -0.000333 -0.000235 0.032187 0.005074 -0.001354
# 5 -0.001168 -0.002538 0.001632 0.005074 0.026452 -0.002366
# 6 0.000668 0.004573 -0.001059 -0.001354 -0.002366 0.034560
#
#
# Mechanical properties :
#
#
# Convention : Reuss Voigt Hill
#
# Bulk Modulus (GPa) = 62.08060 70.57534 66.32797
# Shear Modulus (GPa) = 34.02080 37.10181 35.56131
#
# Velocity S-wave (km/s) = 3.89951 4.07226 3.98682
# Velocity P-wave (km/s) = 6.92986 7.32503 7.13018
#
# Compressibility (1/GPa) = 0.01610809
#
# Stress axis : x y z
#
# Youngs Moduli (GPa) = 94.10159 103.83336 83.35716
#
# Poissons Ratio (x) = 0.31985 0.16357
# Poissons Ratio (y) = 0.28987 0.25260
# Poissons Ratio (z) = 0.18465 0.31465
#
# Static dielectric constant tensor:
#      x y z
#    x 1.719700 0.006830 0.090100 
#    y 0.006830 1.813250 -0.020200 
#    z 0.090100 -0.020200 1.807180 
# 
# From -- ./inp_files/530276.got.cif
#   From: 2010.05.17/outbox.cif.g08.bks.cpg/sg2_266_cif.got.tgz:530276.got - 2010.06.03 11:33:40.
