data_PCOD9043002
_publ_section_title
;
Structure prediction by ZEFSAII (Michael W. Deem and Ramdas Pophale) SiO2 
 PCOD9043002
Probable space group: P -1
;
_chemical_formula_sum "Si O2"
_cell_formula_units_Z 16
_cell_length_a 8.676217
_cell_length_b 22.195273
_cell_length_c 8.435172
_cell_angle_alpha 38.290674
_cell_angle_beta 127.911711
_cell_angle_gamma 115.323537
_cell_volume 789.163920
_symmetry_space_group_name_H-M "P -1"
_symmetry_group_IT_number 2
_symmetry_cell_setting 'triclinic'
loop_
_space_group_symop_operation_xyz
x,y,z
-x,-y,-z
loop_
_atom_site_type_symbol
_atom_site_label
_atom_site_fract_x
_atom_site_fract_y
_atom_site_fract_z
Si Si1 0.771547 0.739383 0.633456
Si Si2 0.713273 0.954251 0.290861
Si Si3 0.833216 0.767119 0.242549
Si Si4 0.503801 0.410323 0.309932
Si Si5 0.108234 0.576593 0.305431
Si Si6 0.125789 0.924671 0.116177
Si Si7 0.457982 0.083706 0.429324
Si Si8 0.808923 0.547882 0.688530
O O1 0.751172 0.840485 0.504368
O O2 0.795461 0.765767 0.409952
O O3 0.582865 0.679758 0.644305
O O4 0.952085 0.663413 0.963823
O O5 0.695041 0.956064 0.462950
O O6 0.500000 0.000000 0.000000
O O7 0.855454 0.017075 0.155860
O O8 0.855470 0.654412 0.439405
O O9 0.016795 0.829342 0.212378
O O10 0.648398 0.821627 0.920007
O O11 0.723354 0.384335 0.563836
O O12 0.364295 0.438605 0.317369
O O13 0.500000 0.500000 0.000000
O O14 0.212741 0.519364 0.338727
O O15 0.000000 0.500000 0.500000
O O16 0.340927 0.900499 0.383584
O O17 0.000000 0.000000 0.000000
O O18 0.500000 0.000000 0.500000
O O19 0.000000 0.500000 0.000000
#
# Coordination Sequence:
#
# PCOD9043002 Si02
#       8
#     2   2   2   2   2   2   2   2
#     4  11  23  45  67  98 140 173 228 278 336 407
#     4  10  23  45  67  97 137 177 220 279 334 399
#     4  11  23  41  67  99 132 172 223 273 333 391
#     4  11  23  44  70  98 135 180 224 282 339 398
#     4  12  24  45  70  99 139 180 225 282 341 405
#     4  11  21  44  69  94 134 177 218 273 337 395
#     4  11  23  42  68  94 134 174 219 277 332 396
#     4  11  23  46  68  98 142 177 225 282 335 409
#
# _framework density 20.274621
#
# number of rings (size 3 to 8) (size 9 to 14) (size 15 to 20)
#    0.000    1.000    6.250    1.125    1.750    2.500 
#   11.250    0.000    0.000    0.000    0.000    0.000 
#    0.000    0.000    0.000    0.000    0.000    0.000 
#
# Total GULP energy -89402.483072 kJ/mol
# GULP energy per Si atom -5587.655192 kJ/mol
# Density = 2.022848 g / cm^3
# Si number density = 20.274621 Si / 1000 Ang^3
#
#
#
# Elastic Constant Matrix: (Units=GPa)
#
#
# Indices 1 2 3 4 5 6 
#
# 1 92.6956 34.0217 50.1716 -5.0123 -19.6054 9.2391
# 2 34.0217 106.1458 58.4549 -8.0517 -0.2447 20.1702
# 3 50.1716 58.4549 168.8968 -1.5894 -4.5285 11.6024
# 4 -5.0123 -8.0517 -1.5894 41.9841 6.7959 3.5097
# 5 -19.6054 -0.2447 -4.5285 6.7959 37.2328 3.0200
# 6 9.2391 20.1702 11.6024 3.5097 3.0200 42.9297
#
#
#
# Elastic Compliance Matrix: (Units=1/GPa)
#
#
# Indices 1 2 3 4 5 6 
#
# 1 0.015417 -0.002790 -0.003289 0.000054 0.007825 -0.001673
# 2 -0.002790 0.013364 -0.003490 0.002813 -0.001928 -0.004830
# 3 -0.003289 -0.003490 0.008063 -0.000670 -0.000674 0.000271
# 4 0.000054 0.002813 -0.000670 0.025297 -0.004416 -0.002910
# 5 0.007825 -0.001928 -0.000674 -0.004416 0.031891 -0.002479
# 6 -0.001673 -0.004830 0.000271 -0.002910 -0.002479 0.026262
#
#
# Mechanical properties :
#
#
# Convention : Reuss Voigt Hill
#
# Bulk Modulus (GPa) = 56.47847 72.55940 64.51893
# Shear Modulus (GPa) = 34.40365 39.43531 36.91948
#
# Velocity S-wave (km/s) = 4.12379 4.41507 4.27191
# Velocity P-wave (km/s) = 7.11276 7.86488 7.49826
#
# Compressibility (1/GPa) = 0.01770586
#
# Stress axis : x y z
#
# Youngs Moduli (GPa) = 64.86392 74.82854 124.03003
#
# Poissons Ratio (x) = 0.20879 0.40790
# Poissons Ratio (y) = 0.18098 0.43284
# Poissons Ratio (z) = 0.21332 0.26114
#
# Static dielectric constant tensor:
#      x y z
#    x 1.741450 -0.005760 -0.009150 
#    y -0.005760 1.730510 -0.007100 
#    z -0.009150 -0.007100 1.700070 
# 
# From -- ./inp_files/225868.got.cif
#   From: 2010.05.17/outbox.cif.g08.bks.cpg/sg2_113_cif.got.tgz:225868.got - 2010.06.03 11:33:40.
