data_PCOD9043559
_publ_section_title
;
Structure prediction by ZEFSAII (Michael W. Deem and Ramdas Pophale) SiO2 
 PCOD9043559
Probable space group: P -1
;
_chemical_formula_sum "Si O2"
_cell_formula_units_Z 14
_cell_length_a 8.236896
_cell_length_b 12.459861
_cell_length_c 12.169823
_cell_angle_alpha 131.265840
_cell_angle_beta 125.232491
_cell_angle_gamma 91.556688
_cell_volume 573.409541
_symmetry_space_group_name_H-M "P -1"
_symmetry_group_IT_number 2
_symmetry_cell_setting 'triclinic'
loop_
_space_group_symop_operation_xyz
x,y,z
-x,-y,-z
loop_
_atom_site_type_symbol
_atom_site_label
_atom_site_fract_x
_atom_site_fract_y
_atom_site_fract_z
Si Si1 0.689971 0.349493 0.320045
Si Si2 0.836162 0.767595 0.901567
Si Si3 0.661063 0.146643 0.761933
Si Si4 0.815115 0.537114 0.085994
Si Si5 0.423029 0.530108 0.816969
Si Si6 0.385595 0.817102 0.587715
Si Si7 0.830735 0.801843 0.680093
O O1 0.482288 0.375979 0.304330
O O2 0.563035 0.305334 0.118831
O O3 0.671837 0.231718 0.336645
O O4 0.000000 0.500000 0.500000
O O5 0.904330 0.764084 0.798952
O O6 0.035797 0.763636 0.044422
O O7 0.930958 0.975495 0.102912
O O8 0.500000 0.000000 0.500000
O O9 0.512831 0.024007 0.732535
O O10 0.673446 0.319770 0.863177
O O11 0.721935 0.539340 0.171344
O O12 0.125871 0.668285 0.312147
O O13 0.709577 0.600259 0.000406
O O14 0.251156 0.342276 0.545469
O O15 0.590972 0.792620 0.613775
#
# Coordination Sequence:
#
# PCOD9043559 Si02
#       7
#     2   2   2   2   2   2   2
#     4  11  23  44  68 103 143 189 233 287 357 417
#     4   9  21  40  68 103 134 178 241 293 339 415
#     4  11  25  45  75 108 140 185 240 295 357 418
#     4  11  25  46  67 104 147 187 235 289 354 428
#     4  11  25  43  66 103 145 187 233 283 358 427
#     4  10  23  45  72 104 140 181 244 293 339 430
#     4   9  20  41  68  99 136 177 235 294 344 406
#
# _framework density 24.415357
#
# number of rings (size 3 to 8) (size 9 to 14) (size 15 to 20)
#    0.000    1.714    1.429    2.571    6.000    2.286 
#    2.571    2.857    0.000    0.000    0.000    0.000 
#    0.000    0.000    0.000    0.000    0.000    0.000 
#
# Total GULP energy -78020.351251 kJ/mol
# GULP energy per Si atom -5572.882232 kJ/mol
# Density = 2.435979 g / cm^3
# Si number density = 24.415357 Si / 1000 Ang^3
#
#
#
# Elastic Constant Matrix: (Units=GPa)
#
#
# Indices 1 2 3 4 5 6 
#
# 1 76.7616 48.4573 44.3146 1.1751 5.1423 13.4180
# 2 48.4573 119.2546 36.5830 -21.8830 27.9935 19.8984
# 3 44.3146 36.5830 94.4137 -19.5977 12.3779 -0.9230
# 4 1.1751 -21.8830 -19.5977 43.4343 -1.6943 16.1793
# 5 5.1423 27.9935 12.3779 -1.6943 41.7181 -12.8448
# 6 13.4180 19.8984 -0.9230 16.1793 -12.8448 34.9316
#
#
#
# Elastic Compliance Matrix: (Units=1/GPa)
#
#
# Indices 1 2 3 4 5 6 
#
# 1 0.027341 -0.015797 -0.012103 -0.017904 0.013629 0.011481
# 2 -0.015797 0.034771 0.005285 0.034788 -0.034606 -0.042437
# 3 -0.012103 0.005285 0.018201 0.013679 -0.009244 -0.007615
# 4 -0.017904 0.034788 0.013679 0.067511 -0.040543 -0.058755
# 5 0.013629 -0.034606 -0.009244 -0.040543 0.064020 0.056553
# 6 0.011481 -0.042437 -0.007615 -0.058755 0.056553 0.096198
#
#
# Mechanical properties :
#
#
# Convention : Reuss Voigt Hill
#
# Bulk Modulus (GPa) = 28.50396 61.01551 44.75974
# Shear Modulus (GPa) = 13.69988 34.75514 24.22751
#
# Velocity S-wave (km/s) = 2.37136 3.77702 3.15351
# Velocity P-wave (km/s) = 4.38152 6.63822 5.62422
#
# Compressibility (1/GPa) = 0.03508285
#
# Stress axis : x y z
#
# Youngs Moduli (GPa) = 36.57545 28.75985 54.94087
#
# Poissons Ratio (x) = 0.45432 0.66494
# Poissons Ratio (y) = 0.57778 -0.29035
# Poissons Ratio (z) = 0.44267 -0.15199
#
# Static dielectric constant tensor:
#      x y z
#    x 2.018500 0.023640 0.025950 
#    y 0.023640 2.077380 0.000100 
#    z 0.025950 0.000100 1.938320 
# 
# From -- ./inp_files/397840.got.cif
#   From: 2010.05.17/outbox.cif.g08.bks.cpg/sg2_199_cif.got.tgz:397840.got - 2010.06.03 11:33:40.
