data_PCOD9043742
_publ_section_title
;
Structure prediction by ZEFSAII (Michael W. Deem and Ramdas Pophale) SiO2 
 PCOD9043742
Probable space group: P -1
;
_chemical_formula_sum "Si O2"
_cell_formula_units_Z 14
_cell_length_a 7.160134
_cell_length_b 9.043962
_cell_length_c 14.303668
_cell_angle_alpha 140.541344
_cell_angle_beta 80.930380
_cell_angle_gamma 106.002668
_cell_volume 563.523457
_symmetry_space_group_name_H-M "P -1"
_symmetry_group_IT_number 2
_symmetry_cell_setting 'triclinic'
loop_
_space_group_symop_operation_xyz
x,y,z
-x,-y,-z
loop_
_atom_site_type_symbol
_atom_site_label
_atom_site_fract_x
_atom_site_fract_y
_atom_site_fract_z
Si Si1 0.140019 0.960513 0.241797
Si Si2 0.954578 0.459265 0.813715
Si Si3 0.808882 0.198467 0.331701
Si Si4 0.637595 0.691502 0.018898
Si Si5 0.649834 0.591533 0.449778
Si Si6 0.643966 0.212358 0.036736
Si Si7 0.635994 0.253179 0.576872
O O1 0.258367 0.133162 0.396812
O O2 0.014093 0.126969 0.285230
O O3 0.024557 0.735783 0.204179
O O4 0.266774 0.879249 0.110148
O O5 0.844055 0.635263 0.960907
O O6 0.807015 0.349242 0.687162
O O7 0.797837 0.423157 0.377231
O O8 0.743487 0.223946 0.455901
O O9 0.667118 0.960570 0.183544
O O10 0.500000 0.500000 0.000000
O O11 0.511999 0.646899 0.914383
O O12 0.500000 0.500000 0.500000
O O13 0.516363 0.591386 0.369505
O O14 0.833363 0.380458 0.152140
O O15 0.500000 0.000000 0.000000
O O16 0.500000 0.000000 0.500000
#
# Coordination Sequence:
#
# PCOD9043742 Si02
#       7
#     2   2   2   2   2   2   2
#     4  12  23  51  80 113 159 213 274 323 407 488
#     4  12  26  49  84 121 160 209 274 335 402 488
#     4  11  25  46  77 113 159 212 261 328 402 479
#     4  12  24  48  82 112 156 213 268 328 404 481
#     4  10  23  45  74 112 158 210 256 323 402 478
#     4  12  28  50  79 117 161 212 273 341 398 475
#     4  11  23  48  78 118 162 205 271 331 397 484
#
# _framework density 24.843685000000001
#
# number of rings (size 3 to 8) (size 9 to 14) (size 15 to 20)
#    0.000    0.571    4.286    4.286    0.000    4.571 
#   12.857    0.000    0.000    0.000    0.000    0.000 
#    0.000    0.000    0.000    0.000    0.000    0.000 
#
# Total GULP energy -78255.065484 kJ/mol
# GULP energy per Si atom -5589.647535 kJ/mol
# Density = 2.478714 g / cm^3
# Si number density = 24.843685 Si / 1000 Ang^3
#
#
#
# Elastic Constant Matrix: (Units=GPa)
#
#
# Indices 1 2 3 4 5 6 
#
# 1 146.1943 56.3378 16.4541 4.5338 27.5118 0.4707
# 2 56.3378 159.5132 36.2841 -12.9064 14.2878 -1.1113
# 3 16.4541 36.2841 113.5806 -6.4667 33.1866 2.0912
# 4 4.5338 -12.9064 -6.4667 32.2766 -4.8808 2.3363
# 5 27.5118 14.2878 33.1866 -4.8808 52.4489 4.7468
# 6 0.4707 -1.1113 2.0912 2.3363 4.7468 57.8614
#
#
#
# Elastic Compliance Matrix: (Units=1/GPa)
#
#
# Indices 1 2 3 4 5 6 
#
# 1 0.008952 -0.003196 0.000923 -0.003091 -0.004728 0.000345
# 2 -0.003196 0.008083 -0.002287 0.003408 0.001236 0.000025
# 3 0.000923 -0.002287 0.011491 0.000172 -0.007126 0.000111
# 4 -0.003091 0.003408 0.000172 0.033510 0.003845 -0.001584
# 5 -0.004728 0.001236 -0.007126 0.003845 0.026257 -0.001990
# 6 0.000345 0.000025 0.000111 -0.001584 -0.001990 0.017504
#
#
# Mechanical properties :
#
#
# Convention : Reuss Voigt Hill
#
# Bulk Modulus (GPa) = 51.52635 70.82670 61.17653
# Shear Modulus (GPa) = 41.19117 49.19818 45.19467
#
# Velocity S-wave (km/s) = 4.07629 4.45489 4.26979
# Velocity P-wave (km/s) = 6.55287 7.41837 6.99901
#
# Compressibility (1/GPa) = 0.01940755
#
# Stress axis : x y z
#
# Youngs Moduli (GPa) = 111.70086 123.71245 87.02396
#
# Poissons Ratio (x) = 0.39539 -0.08035
# Poissons Ratio (y) = 0.35700 0.19902
# Poissons Ratio (z) = -0.10314 0.28292
#
# Static dielectric constant tensor:
#      x y z
#    x 2.051430 -0.042760 0.008210 
#    y -0.042760 1.930050 0.021440 
#    z 0.008210 0.021440 2.039730 
# 
# From -- ./inp_files/380586.got.cif
#   From: 2010.05.17/outbox.cif.g08.bks.cpg/sg2_191_cif.got.tgz:380586.got - 2010.06.03 11:33:40.
