data_PCOD9043938
_publ_section_title
;
Structure prediction by ZEFSAII (Michael W. Deem and Ramdas Pophale) SiO2 
 PCOD9043938
Probable space group: P -1
;
_chemical_formula_sum "Si O2"
_cell_formula_units_Z 15
_cell_length_a 10.496678
_cell_length_b 12.168193
_cell_length_c 7.088860
_cell_angle_alpha 45.979440
_cell_angle_beta 88.516817
_cell_angle_gamma 106.580852
_cell_volume 590.073281
_symmetry_space_group_name_H-M "P -1"
_symmetry_group_IT_number 2
_symmetry_cell_setting 'triclinic'
loop_
_space_group_symop_operation_xyz
x,y,z
-x,-y,-z
loop_
_atom_site_type_symbol
_atom_site_label
_atom_site_fract_x
_atom_site_fract_y
_atom_site_fract_z
Si Si1 0.974240 0.201576 0.428159
Si Si2 0.996581 0.286489 0.929632
Si Si3 0.363309 0.365538 0.555752
Si Si4 0.490050 0.314961 0.255786
Si Si5 0.711833 0.229798 0.541887
Si Si6 0.000000 0.000000 0.000000
Si Si7 0.216253 0.585812 0.312679
Si Si8 0.700568 0.895935 0.818449
O O1 0.877626 0.289126 0.414431
O O2 0.851798 0.020256 0.583223
O O3 0.056093 0.285052 0.138125
O O4 0.045127 0.151974 0.657099
O O5 0.104394 0.439716 0.621247
O O6 0.859392 0.324791 0.914040
O O7 0.959159 0.118819 0.009369
O O8 0.500000 0.500000 0.500000
O O9 0.401645 0.266306 0.511026
O O10 0.296464 0.486922 0.331870
O O11 0.276293 0.225269 0.882850
O O12 0.633260 0.300432 0.316224
O O13 0.407898 0.203025 0.217971
O O14 0.500000 0.500000 0.000000
O O15 0.691897 0.281974 0.690627
O O16 0.653921 0.028280 0.764694
#
# Coordination Sequence:
#
# PCOD9043938 Si02
#       8
#     2   2   2   2   2   1   2   2
#     4  10  25  43  72  99 142 181 235 293 351 422
#     4  11  25  45  74  99 144 188 234 299 349 427
#     4  12  24  43  70  98 145 183 230 296 357 417
#     4  12  24  42  72 103 140 189 234 290 354 429
#     4  10  23  46  67 103 144 179 239 292 346 431
#     4  12  22  46  66 102 132 184 240 288 348 420
#     4  11  24  46  68 107 143 187 240 287 359 426
#     4  10  24  44  65 104 137 184 237 290 350 430
#
# _framework density 25.420572
#
# number of rings (size 3 to 8) (size 9 to 14) (size 15 to 20)
#    0.800    0.267    4.000    1.600    1.867    4.267 
#    0.000    1.333    0.000    0.000    0.000    0.000 
#    0.000    0.000    0.000    0.000    0.000    0.000 
#
# Total GULP energy -83698.504873 kJ/mol
# GULP energy per Si atom -5579.900325 kJ/mol
# Density = 2.536271 g / cm^3
# Si number density = 25.420572 Si / 1000 Ang^3
#
#
#
# Elastic Constant Matrix: (Units=GPa)
#
#
# Indices 1 2 3 4 5 6 
#
# 1 67.5762 27.3865 17.9835 -11.1496 26.6089 -24.0119
# 2 27.3865 144.4320 28.8747 -12.2080 18.7197 -16.9752
# 3 17.9835 28.8747 100.8336 13.2210 21.0033 -11.7578
# 4 -11.1496 -12.2080 13.2210 36.3925 -3.5927 2.6916
# 5 26.6089 18.7197 21.0033 -3.5927 46.2930 -3.8075
# 6 -24.0119 -16.9752 -11.7578 2.6916 -3.8075 40.6759
#
#
#
# Elastic Compliance Matrix: (Units=1/GPa)
#
#
# Indices 1 2 3 4 5 6 
#
# 1 0.026043 -0.001097 -0.000937 0.005741 -0.012578 0.013088
# 2 -0.001097 0.008175 -0.002015 0.002864 -0.001386 0.001862
# 3 -0.000937 -0.002015 0.012722 -0.006217 -0.004715 0.002253
# 4 0.005741 0.002864 -0.006217 0.032496 0.000944 0.000725
# 5 -0.012578 -0.001386 -0.004715 0.000944 0.031068 -0.006521
# 6 0.013088 0.001862 0.002253 0.000725 -0.006521 0.033081
#
#
# Mechanical properties :
#
#
# Convention : Reuss Voigt Hill
#
# Bulk Modulus (GPa) = 25.74618 51.25900 38.50259
# Shear Modulus (GPa) = 30.37124 40.57874 35.47499
#
# Velocity S-wave (km/s) = 3.46027 3.99970 3.73972
# Velocity P-wave (km/s) = 5.11025 6.44502 5.81605
#
# Compressibility (1/GPa) = 0.03884072
#
# Stress axis : x y z
#
# Youngs Moduli (GPa) = 38.39855 122.32320 78.60654
#
# Poissons Ratio (x) = 0.13419 0.07367
# Poissons Ratio (y) = 0.04212 0.15840
# Poissons Ratio (z) = 0.03599 0.24649
#
# Static dielectric constant tensor:
#      x y z
#    x 2.136700 0.020450 -0.002710 
#    y 0.020450 2.009800 0.014230 
#    z -0.002710 0.014230 1.939730 
# 
# From -- ./inp_files/68169.got.cif
#   From: 2010.05.17/outbox.cif.g08.bks.cpg/sg2_35_cif.got.tgz:68169.got - 2010.06.03 11:33:40.
