data_PCOD9043982
_publ_section_title
;
Structure prediction by ZEFSAII (Michael W. Deem and Ramdas Pophale) SiO2 
 PCOD9043982
Probable space group: P -1
;
_chemical_formula_sum "Si O2"
_cell_formula_units_Z 16
_cell_length_a 13.812721
_cell_length_b 11.756577
_cell_length_c 16.613486
_cell_angle_alpha 132.240631
_cell_angle_beta 21.175842
_cell_angle_gamma 124.466086
_cell_volume 702.512039
_symmetry_space_group_name_H-M "P -1"
_symmetry_group_IT_number 2
_symmetry_cell_setting 'triclinic'
loop_
_space_group_symop_operation_xyz
x,y,z
-x,-y,-z
loop_
_atom_site_type_symbol
_atom_site_label
_atom_site_fract_x
_atom_site_fract_y
_atom_site_fract_z
Si Si1 0.829931 0.419409 0.531999
Si Si2 0.227746 0.083675 0.070446
Si Si3 0.698850 0.511083 0.492617
Si Si4 0.705644 0.076996 0.813277
Si Si5 0.168264 0.773276 0.058243
Si Si6 0.283288 0.043055 0.824381
Si Si7 0.742702 0.607199 0.050314
Si Si8 0.359843 0.275912 0.634203
O O1 0.803203 0.479775 0.489424
O O2 0.514114 0.444845 0.814619
O O3 0.000000 0.500000 0.500000
O O4 0.976156 0.234527 0.329178
O O5 0.480958 0.129920 0.943142
O O6 0.135537 0.943107 0.121792
O O7 0.326811 0.024643 0.877161
O O8 0.448981 0.661007 0.755324
O O9 0.592972 0.364135 0.465928
O O10 0.975061 0.518011 0.237419
O O11 0.792007 0.199249 0.865351
O O12 0.000000 0.000000 0.500000
O O13 0.500000 0.000000 0.000000
O O14 0.909246 0.704506 0.201609
O O15 0.517919 0.910249 0.538116
O O16 0.258264 0.223560 0.907192
O O17 0.000000 0.000000 0.000000
O O18 0.700321 0.642880 0.194156
#
# Coordination Sequence:
#
# PCOD9043982 Si02
#       8
#     2   2   2   2   2   2   2   2
#     4  11  24  46  70 100 133 178 235 291 354 423
#     4  11  23  44  71 103 136 181 242 289 355 433
#     4  11  24  46  63 103 143 176 233 285 356 429
#     4  10  23  46  68 102 141 181 240 298 354 426
#     4  11  24  44  70 103 138 190 230 290 358 426
#     4  12  20  40  69 102 139 178 231 290 350 421
#     4  11  23  43  68 101 140 178 230 295 352 423
#     4  11  23  40  67  99 137 182 231 289 351 429
#
# _framework density 22.775409
#
# number of rings (size 3 to 8) (size 9 to 14) (size 15 to 20)
#    0.000    1.000    2.500    4.500    0.000    2.000 
#   18.000    0.000    0.000    0.000    0.000    0.000 
#    0.000    0.000    0.000    0.000    0.000    0.000 
#
# Total GULP energy -89372.590432 kJ/mol
# GULP energy per Si atom -5585.786902 kJ/mol
# Density = 2.272357 g / cm^3
# Si number density = 22.775409 Si / 1000 Ang^3
#
#
#
# Elastic Constant Matrix: (Units=GPa)
#
#
# Indices 1 2 3 4 5 6 
#
# 1 118.9722 38.1204 22.7660 -19.4257 -19.5081 38.8715
# 2 38.1204 94.1654 25.8988 -14.2077 -6.2103 20.5991
# 3 22.7660 25.8988 145.4968 -7.9871 -26.2753 17.0832
# 4 -19.4257 -14.2077 -7.9871 36.9373 5.4285 -13.3661
# 5 -19.5081 -6.2103 -26.2753 5.4285 30.0303 -4.9081
# 6 38.8715 20.5991 17.0832 -13.3661 -4.9081 48.6143
#
#
#
# Elastic Compliance Matrix: (Units=1/GPa)
#
#
# Indices 1 2 3 4 5 6 
#
# 1 0.013503 -0.003061 0.000826 0.001971 0.007111 -0.008530
# 2 -0.003061 0.013045 -0.001769 0.002570 -0.001616 -0.001915
# 3 0.000826 -0.001769 0.008650 -0.000292 0.007419 -0.002282
# 4 0.001971 0.002570 -0.000292 0.031606 -0.003208 0.005804
# 5 0.007111 -0.001616 0.007419 -0.003208 0.043995 -0.004049
# 6 -0.008530 -0.001915 -0.002282 0.005804 -0.004049 0.030191
#
#
# Mechanical properties :
#
#
# Convention : Reuss Voigt Hill
#
# Bulk Modulus (GPa) = 36.77780 59.13387 47.95584
# Shear Modulus (GPa) = 31.63298 41.23966 36.43632
#
# Velocity S-wave (km/s) = 3.73085 4.25986 4.00410
# Velocity P-wave (km/s) = 5.89424 7.08629 6.51758
#
# Compressibility (1/GPa) = 0.02719031
#
# Stress axis : x y z
#
# Youngs Moduli (GPa) = 74.05805 76.65496 115.60144
#
# Poissons Ratio (x) = 0.23465 -0.09548
# Poissons Ratio (y) = 0.22670 0.20451
# Poissons Ratio (z) = -0.06117 0.13561
#
# Static dielectric constant tensor:
#      x y z
#    x 1.815580 -0.065670 0.031570 
#    y -0.065670 1.943810 -0.051920 
#    z 0.031570 -0.051920 1.885290 
# 
# From -- ./inp_files/573983.got.cif
#   From: 2010.05.17/outbox.cif.g08.bks.cpg/sg2_287_cif.got.tgz:573983.got - 2010.06.03 11:33:40.
