data_PCOD9043527
_publ_section_title
;
Structure prediction by ZEFSAII (Michael W. Deem and Ramdas Pophale) SiO2 
 PCOD9043527
Probable space group: P -1
;
_chemical_formula_sum "Si O2"
_cell_formula_units_Z 16
_cell_length_a 15.129557
_cell_length_b 4.995793
_cell_length_c 15.478374
_cell_angle_alpha 75.033049
_cell_angle_beta 37.485765
_cell_angle_gamma 79.264293
_cell_volume 687.471325
_symmetry_space_group_name_H-M "P -1"
_symmetry_group_IT_number 2
_symmetry_cell_setting 'triclinic'
loop_
_space_group_symop_operation_xyz
x,y,z
-x,-y,-z
loop_
_atom_site_type_symbol
_atom_site_label
_atom_site_fract_x
_atom_site_fract_y
_atom_site_fract_z
Si Si1 0.963070 0.810923 0.964808
Si Si2 0.784721 0.859434 0.340915
Si Si3 0.435449 0.466858 0.920990
Si Si4 0.701901 0.300588 0.834762
Si Si5 0.360209 0.252225 0.822170
Si Si6 0.641075 0.907872 0.629085
Si Si7 0.347126 0.592668 0.643891
Si Si8 0.165661 0.105076 0.357086
O O1 0.065781 0.954987 0.799278
O O2 0.000000 0.500000 0.000000
O O3 0.796766 0.876571 0.067864
O O4 0.000000 0.000000 0.000000
O O5 0.735353 0.812980 0.482119
O O6 0.765196 0.592302 0.315053
O O7 0.673303 0.084782 0.375637
O O8 0.541549 0.308548 0.915611
O O9 0.359593 0.285011 0.922350
O O10 0.545641 0.657839 0.763983
O O11 0.327296 0.644286 0.046918
O O12 0.800013 0.564983 0.702455
O O13 0.770668 0.026190 0.768608
O O14 0.346810 0.526225 0.751351
O O15 0.514076 0.121860 0.688498
O O16 0.746124 0.004411 0.618577
O O17 0.500000 0.500000 0.500000
O O18 0.000000 0.000000 0.500000
#
# Coordination Sequence:
#
# PCOD9043527 Si02
#       8
#     2   2   2   2   2   2   2   2
#     4  12  26  46  65  94 138 187 229 285 349 406
#     4  12  25  45  64  99 137 181 228 283 346 407
#     4  10  24  42  70 104 135 178 235 297 339 416
#     4  10  23  45  72 100 141 179 229 282 360 413
#     4  12  24  41  71  96 138 179 240 284 339 408
#     4  11  26  42  71 103 139 173 243 285 340 415
#     4  12  24  40  69  95 132 181 228 281 344 398
#     4  11  24  46  73 103 144 184 221 287 358 421
#
# _framework density 23.273696000000001
#
# number of rings (size 3 to 8) (size 9 to 14) (size 15 to 20)
#    0.000    0.750    5.000    1.500    5.250    2.500 
#    0.000    0.000    0.000    0.000    0.000    0.000 
#    0.000    0.000    0.000    0.000    0.000    0.000 
#
# Total GULP energy -89330.334543 kJ/mol
# GULP energy per Si atom -5583.145909 kJ/mol
# Density = 2.322072 g / cm^3
# Si number density = 23.273696 Si / 1000 Ang^3
#
#
#
# Elastic Constant Matrix: (Units=GPa)
#
#
# Indices 1 2 3 4 5 6 
#
# 1 95.2914 23.7577 40.3109 -1.7542 -21.8291 26.4770
# 2 23.7577 88.7901 -2.1615 -0.6843 4.6280 14.0731
# 3 40.3109 -2.1615 110.0699 0.6588 2.7038 7.1263
# 4 -1.7542 -0.6843 0.6588 36.3382 5.3367 4.1653
# 5 -21.8291 4.6280 2.7038 5.3367 43.5276 -3.1670
# 6 26.4770 14.0731 7.1263 4.1653 -3.1670 26.7157
#
#
#
# Elastic Compliance Matrix: (Units=1/GPa)
#
#
# Indices 1 2 3 4 5 6 
#
# 1 0.021317 -0.003821 -0.007089 0.001453 0.010177 -0.016242
# 2 -0.003821 0.013238 0.002031 0.001101 -0.003902 -0.004362
# 3 -0.007089 0.002031 0.011675 -0.000153 -0.004306 0.002355
# 4 0.001453 0.001101 -0.000153 0.028906 -0.003424 -0.006892
# 5 0.010177 -0.003902 -0.004306 -0.003424 0.028968 -0.002914
# 6 -0.016242 -0.004362 0.002355 -0.006892 -0.002914 0.055927
#
#
# Mechanical properties :
#
#
# Convention : Reuss Voigt Hill
#
# Bulk Modulus (GPa) = 35.12251 46.44063 40.78157
# Shear Modulus (GPa) = 26.69808 36.79927 31.74868
#
# Velocity S-wave (km/s) = 3.39061 3.98069 3.69744
# Velocity P-wave (km/s) = 5.51835 6.41290 5.98237
#
# Compressibility (1/GPa) = 0.02847177
#
# Stress axis : x y z
#
# Youngs Moduli (GPa) = 46.91162 75.54184 85.64982
#
# Poissons Ratio (x) = 0.28866 0.60717
# Poissons Ratio (y) = 0.17926 -0.17396
# Poissons Ratio (z) = 0.33255 -0.15343
#
# Static dielectric constant tensor:
#      x y z
#    x 1.899570 -0.006120 0.015380 
#    y -0.006120 1.910450 -0.045550 
#    z 0.015380 -0.045550 1.966230 
# 
# From -- ./inp_files/525676.got.cif
#   From: 2010.05.17/outbox.cif.g08.bks.cpg/sg2_263_cif.got.tgz:525676.got - 2010.06.03 11:33:40.
