data_PCOD9043086
_publ_section_title
;
Structure prediction by ZEFSAII (Michael W. Deem and Ramdas Pophale) SiO2 
 PCOD9043086
Probable space group: P -1
;
_chemical_formula_sum "Si O2"
_cell_formula_units_Z 14
_cell_length_a 15.152850
_cell_length_b 12.672235
_cell_length_c 10.218240
_cell_angle_alpha 135.449172
_cell_angle_beta 62.735532
_cell_angle_gamma 150.791597
_cell_volume 589.710145
_symmetry_space_group_name_H-M "P -1"
_symmetry_group_IT_number 2
_symmetry_cell_setting 'triclinic'
loop_
_space_group_symop_operation_xyz
x,y,z
-x,-y,-z
loop_
_atom_site_type_symbol
_atom_site_label
_atom_site_fract_x
_atom_site_fract_y
_atom_site_fract_z
Si Si1 0.907168 0.840508 0.563442
Si Si2 0.547578 0.914163 0.813047
Si Si3 0.661774 0.780274 0.744483
Si Si4 0.678334 0.734527 0.980436
Si Si5 0.991433 0.288525 0.441626
Si Si6 0.302807 0.584036 0.306614
Si Si7 0.745552 0.223664 0.669202
O O1 0.678647 0.461941 0.382301
O O2 0.864566 0.947243 0.747779
O O3 0.038795 0.894967 0.603831
O O4 0.000000 0.000000 0.500000
O O5 0.683965 0.980938 0.865367
O O6 0.670251 0.104634 0.763603
O O7 0.500000 0.000000 0.000000
O O8 0.500000 0.500000 0.500000
O O9 0.589318 0.665474 0.840324
O O10 0.762534 0.675325 0.862331
O O11 0.500000 0.500000 0.000000
O O12 0.850155 0.073207 0.220017
O O13 0.216570 0.569561 0.473334
O O14 0.929603 0.357281 0.619582
O O15 0.548682 0.907130 0.437651
O O16 0.232776 0.576091 0.216382
#
# Coordination Sequence:
#
# PCOD9043086 Si02
#       7
#     2   2   2   2   2   2   2
#     4  11  24  43  73 100 139 188 237 292 355 417
#     4  11  25  46  70  99 142 187 241 286 347 428
#     4  10  23  45  68  94 139 186 234 281 352 420
#     4  12  25  41  72 107 136 181 239 297 341 410
#     4  12  24  44  70 103 141 173 239 293 352 418
#     4  11  23  44  67 101 139 178 226 283 358 412
#     4  11  24  44  70  96 141 188 219 288 360 418
#
# _framework density 23.740478
#
# number of rings (size 3 to 8) (size 9 to 14) (size 15 to 20)
#    0.000    0.857    4.286    2.571    6.000    0.000 
#    2.571    1.429    0.000    0.000    0.000    0.000 
#    0.000    0.000    0.000    0.000    0.000    0.000 
#
# Total GULP energy -78286.113983 kJ/mol
# GULP energy per Si atom -5591.865284 kJ/mol
# Density = 2.368644 g / cm^3
# Si number density = 23.740478 Si / 1000 Ang^3
#
#
#
# Elastic Constant Matrix: (Units=GPa)
#
#
# Indices 1 2 3 4 5 6 
#
# 1 182.2576 46.3277 55.8815 -34.6741 -13.1245 -37.7367
# 2 46.3277 108.5326 21.7369 -42.2312 10.7677 -21.7249
# 3 55.8815 21.7369 82.8323 -21.6436 0.3688 -9.8655
# 4 -34.6741 -42.2312 -21.6436 44.1152 4.3964 12.4717
# 5 -13.1245 10.7677 0.3688 4.3964 41.9013 -12.3280
# 6 -37.7367 -21.7249 -9.8655 12.4717 -12.3280 49.8066
#
#
#
# Elastic Compliance Matrix: (Units=1/GPa)
#
#
# Indices 1 2 3 4 5 6 
#
# 1 0.009301 -0.001964 -0.004833 0.000742 0.005250 0.006347
# 2 -0.001964 0.016511 0.001073 0.015265 -0.006310 0.000542
# 3 -0.004833 0.001073 0.016428 0.006271 -0.003275 -0.002321
# 4 0.000742 0.015265 0.006271 0.043253 -0.009686 -0.004766
# 5 0.005250 -0.006310 -0.003275 -0.009686 0.031342 0.010760
# 6 0.006347 0.000542 -0.002321 -0.004766 0.010760 0.028520
#
#
# Mechanical properties :
#
#
# Convention : Reuss Voigt Hill
#
# Bulk Modulus (GPa) = 32.47475 69.05717 50.76596
# Shear Modulus (GPa) = 29.92785 43.80972 36.86879
#
# Velocity S-wave (km/s) = 3.55438 4.30043 3.94508
# Velocity P-wave (km/s) = 5.52753 7.33551 6.49474
#
# Compressibility (1/GPa) = 0.03079316
#
# Stress axis : x y z
#
# Youngs Moduli (GPa) = 107.51339 60.56415 60.87053
#
# Poissons Ratio (x) = 0.11895 0.29419
# Poissons Ratio (y) = 0.21117 -0.06534
# Poissons Ratio (z) = 0.51962 -0.06501
#
# Static dielectric constant tensor:
#      x y z
#    x 1.962650 0.013610 0.015670 
#    y 0.013610 1.914170 0.020670 
#    z 0.015670 0.020670 1.902560 
# 
# From -- ./inp_files/244538.got.cif
#   From: 2010.05.17/outbox.cif.g08.bks.cpg/sg2_123_cif.got.tgz:244538.got - 2010.06.03 11:33:40.
