data_PCOD9043522
_publ_section_title
;
Structure prediction by ZEFSAII (Michael W. Deem and Ramdas Pophale) SiO2 
 PCOD9043522
Probable space group: P -1
;
_chemical_formula_sum "Si O2"
_cell_formula_units_Z 12
_cell_length_a 9.184497
_cell_length_b 12.617604
_cell_length_c 15.973289
_cell_angle_alpha 25.637645
_cell_angle_beta 44.367688
_cell_angle_gamma 37.347280
_cell_volume 485.864644
_symmetry_space_group_name_H-M "P -1"
_symmetry_group_IT_number 2
_symmetry_cell_setting 'triclinic'
loop_
_space_group_symop_operation_xyz
x,y,z
-x,-y,-z
loop_
_atom_site_type_symbol
_atom_site_label
_atom_site_fract_x
_atom_site_fract_y
_atom_site_fract_z
Si Si1 0.871873 0.642035 0.835785
Si Si2 0.192091 0.958005 0.022650
Si Si3 0.261939 0.142577 0.438282
Si Si4 0.901444 0.344984 0.592893
Si Si5 0.298605 0.577807 0.791207
Si Si6 0.492593 0.244090 0.637966
O O1 0.773313 0.663262 0.766704
O O2 0.155818 0.530782 0.807419
O O3 0.725894 0.948973 0.725811
O O4 0.823703 0.442044 0.058163
O O5 0.080559 0.931934 0.174855
O O6 0.425553 0.647189 0.144772
O O7 0.313355 0.152464 0.822042
O O8 0.000000 0.000000 0.000000
O O9 0.044632 0.281730 0.493115
O O10 0.500000 0.000000 0.500000
O O11 0.250352 0.888088 0.581395
O O12 0.633030 0.590536 0.512185
O O13 0.000000 0.500000 0.500000
O O14 0.500000 0.500000 0.500000
#
# Coordination Sequence:
#
# PCOD9043522 Si02
#       6
#     2   2   2   2   2   2
#     4  10  23  47  71 101 144 187 239 295 360 427
#     4  11  24  44  75 101 144 191 239 302 362 425
#     4  12  26  41  71 106 141 190 237 297 360 434
#     4  12  25  45  68 102 146 189 240 294 368 431
#     4  10  23  45  72 100 139 187 238 294 358 430
#     4  11  24  44  76 106 140 187 242 303 357 433
#
# _framework density 24.698235
#
# number of rings (size 3 to 8) (size 9 to 14) (size 15 to 20)
#    0.000    1.000    1.667    4.500    2.333    4.000 
#    0.000    1.667    0.000    0.000    0.000    0.000 
#    0.000    0.000    0.000    0.000    0.000    0.000 
#
# Total GULP energy -67043.831107 kJ/mol
# GULP energy per Si atom -5586.985926 kJ/mol
# Density = 2.464202 g / cm^3
# Si number density = 24.698235 Si / 1000 Ang^3
#
#
#
# Elastic Constant Matrix: (Units=GPa)
#
#
# Indices 1 2 3 4 5 6 
#
# 1 115.1657 24.5895 20.4298 15.1146 18.4447 -14.4347
# 2 24.5895 112.1997 16.0884 2.6963 4.7220 -0.2302
# 3 20.4298 16.0884 140.0416 19.4875 8.7271 9.1022
# 4 15.1146 2.6963 19.4875 31.3702 1.4649 12.0385
# 5 18.4447 4.7220 8.7271 1.4649 49.5953 -5.3519
# 6 -14.4347 -0.2302 9.1022 12.0385 -5.3519 40.9314
#
#
#
# Elastic Compliance Matrix: (Units=1/GPa)
#
#
# Indices 1 2 3 4 5 6 
#
# 1 0.011381 -0.002094 -0.000631 -0.006991 -0.003090 0.005794
# 2 -0.002094 0.009473 -0.000871 0.001051 -0.000089 -0.000812
# 3 -0.000631 -0.000871 0.008046 -0.004218 -0.001073 -0.000916
# 4 -0.006991 0.001051 -0.004218 0.043192 0.000437 -0.014168
# 5 -0.003090 -0.000089 -0.001073 0.000437 0.021697 0.001856
# 6 0.005794 -0.000812 -0.000916 -0.014168 0.001856 0.031083
#
#
# Mechanical properties :
#
#
# Convention : Reuss Voigt Hill
#
# Bulk Modulus (GPa) = 46.06380 54.40247 50.23314
# Shear Modulus (GPa) = 35.89375 44.79934 40.34655
#
# Velocity S-wave (km/s) = 3.81634 4.26357 4.04614
# Velocity P-wave (km/s) = 6.17336 6.80530 6.49702
#
# Compressibility (1/GPa) = 0.02170902
#
# Stress axis : x y z
#
# Youngs Moduli (GPa) = 87.86744 105.56072 124.28301
#
# Poissons Ratio (x) = 0.22102 0.07841
# Poissons Ratio (y) = 0.18398 0.10823
# Poissons Ratio (z) = 0.05544 0.09193
#
# Static dielectric constant tensor:
#      x y z
#    x 1.977290 -0.058880 0.029850 
#    y -0.058880 2.310480 -0.089790 
#    z 0.029850 -0.089790 2.012900 
# 
# From -- ./inp_files/255386.got.cif
#   From: 2010.05.17/outbox.cif.g08.bks.cpg/sg2_128_cif.got.tgz:255386.got - 2010.06.03 11:33:40.
