data_PCOD9043023
_publ_section_title
;
Structure prediction by ZEFSAII (Michael W. Deem and Ramdas Pophale) SiO2 
 PCOD9043023
Probable space group: P -1
;
_chemical_formula_sum "Si O2"
_cell_formula_units_Z 14
_cell_length_a 12.416228
_cell_length_b 8.723367
_cell_length_c 9.604770
_cell_angle_alpha 136.557758
_cell_angle_beta 59.584925
_cell_angle_gamma 101.853901
_cell_volume 593.378596
_symmetry_space_group_name_H-M "P -1"
_symmetry_group_IT_number 2
_symmetry_cell_setting 'triclinic'
loop_
_space_group_symop_operation_xyz
x,y,z
-x,-y,-z
loop_
_atom_site_type_symbol
_atom_site_label
_atom_site_fract_x
_atom_site_fract_y
_atom_site_fract_z
Si Si1 0.156415 0.427432 0.630745
Si Si2 0.935219 0.241416 0.625805
Si Si3 0.363486 0.659177 0.750382
Si Si4 0.309281 0.899410 0.225161
Si Si5 0.671568 0.039340 0.291798
Si Si6 0.507721 0.741057 0.212153
Si Si7 0.089463 0.822780 0.715160
O O1 0.245008 0.537962 0.746156
O O2 0.231190 0.155672 0.395241
O O3 0.146417 0.578887 0.596344
O O4 0.007322 0.426411 0.759853
O O5 0.966131 0.216836 0.424062
O O6 0.785308 0.250753 0.754718
O O7 0.000000 0.000000 0.500000
O O8 0.500000 0.500000 0.500000
O O9 0.381220 0.759143 0.954130
O O10 0.318699 0.869047 0.808046
O O11 0.410360 0.920873 0.291478
O O12 0.549087 0.207125 0.562695
O O13 0.794558 0.060647 0.310808
O O14 0.646061 0.790584 0.144421
O O15 0.500000 0.500000 0.000000
O O16 0.000000 0.000000 0.000000
#
# Coordination Sequence:
#
# PCOD9043023 Si02
#       7
#     2   2   2   2   2   2   2
#     4  10  25  43  72  97 136 181 228 271 347 398
#     4  10  23  45  68 100 136 173 230 279 339 406
#     4  11  24  44  67 101 135 179 226 277 336 402
#     4  11  24  45  69  98 142 175 226 285 332 397
#     4  10  24  42  65  97 139 167 227 273 333 408
#     4  11  23  43  69 100 132 182 219 278 338 395
#     4  11  24  46  70 101 136 179 226 283 338 405
#
# _framework density 23.593706999999998
#
# number of rings (size 3 to 8) (size 9 to 14) (size 15 to 20)
#    0.000    1.429    1.429    2.143    8.000    7.429 
#    2.571    0.000    0.000    0.000    0.000    0.000 
#    0.000    0.000    0.000    0.000    0.000    0.000 
#
# Total GULP energy -78224.888036 kJ/mol
# GULP energy per Si atom -5587.492003 kJ/mol
# Density = 2.354001 g / cm^3
# Si number density = 23.593707 Si / 1000 Ang^3
#
#
#
# Elastic Constant Matrix: (Units=GPa)
#
#
# Indices 1 2 3 4 5 6 
#
# 1 92.7029 36.5432 3.7415 3.0211 14.7540 14.4848
# 2 36.5432 105.7710 32.8384 19.2748 8.2595 18.6747
# 3 3.7415 32.8384 79.3339 -5.4556 14.1996 -4.8408
# 4 3.0211 19.2748 -5.4556 31.3406 -5.8882 4.9698
# 5 14.7540 8.2595 14.1996 -5.8882 26.5828 1.8024
# 6 14.4848 18.6747 -4.8408 4.9698 1.8024 62.1056
#
#
#
# Elastic Compliance Matrix: (Units=1/GPa)
#
#
# Indices 1 2 3 4 5 6 
#
# 1 0.014029 -0.005076 0.002742 0.001091 -0.007337 -0.001406
# 2 -0.005076 0.015879 -0.007178 -0.010050 -0.000282 -0.003338
# 3 0.002742 -0.007178 0.017326 0.005326 -0.007547 0.002662
# 4 0.001091 -0.010050 0.005326 0.040592 0.008685 -0.000318
# 5 -0.007337 -0.000282 -0.007547 0.008685 0.047793 -0.000874
# 6 -0.001406 -0.003338 0.002662 -0.000318 -0.000874 0.017692
#
#
# Mechanical properties :
#
#
# Convention : Reuss Voigt Hill
#
# Bulk Modulus (GPa) = 35.44684 47.11713 41.28198
# Shear Modulus (GPa) = 27.51201 37.65146 32.58173
#
# Velocity S-wave (km/s) = 3.41849 3.99911 3.72015
# Velocity P-wave (km/s) = 5.53515 6.42942 5.99897
#
# Compressibility (1/GPa) = 0.02821126
#
# Stress axis : x y z
#
# Youngs Moduli (GPa) = 71.27948 62.97507 57.71579
#
# Poissons Ratio (x) = 0.31965 -0.15825
# Poissons Ratio (y) = 0.36181 0.41427
# Poissons Ratio (z) = -0.19544 0.45202
#
# Static dielectric constant tensor:
#      x y z
#    x 1.937470 0.019760 -0.036460 
#    y 0.019760 1.910280 0.000710 
#    z -0.036460 0.000710 1.866950 
# 
# From -- ./inp_files/245794.got.cif
#   From: 2010.05.17/outbox.cif.g08.bks.cpg/sg2_123_cif.got.tgz:245794.got - 2010.06.03 11:33:40.
