data_PCOD9043976
_publ_section_title
;
Structure prediction by ZEFSAII (Michael W. Deem and Ramdas Pophale) SiO2 
 PCOD9043976
Probable space group: P -1
;
_chemical_formula_sum "Si O2"
_cell_formula_units_Z 16
_cell_length_a 9.864719
_cell_length_b 9.021977
_cell_length_c 24.222432
_cell_angle_alpha 136.142376
_cell_angle_beta 152.331992
_cell_angle_gamma 46.094916
_cell_volume 683.427860
_symmetry_space_group_name_H-M "P -1"
_symmetry_group_IT_number 2
_symmetry_cell_setting 'triclinic'
loop_
_space_group_symop_operation_xyz
x,y,z
-x,-y,-z
loop_
_atom_site_type_symbol
_atom_site_label
_atom_site_fract_x
_atom_site_fract_y
_atom_site_fract_z
Si Si1 0.674528 0.605046 0.895152
Si Si2 0.572776 0.805567 0.570577
Si Si3 0.255423 0.373747 0.851214
Si Si4 0.417560 0.505107 0.336021
Si Si5 0.253554 0.997276 0.043933
Si Si6 0.657391 0.686773 0.366592
Si Si7 0.214362 0.782539 0.538728
Si Si8 0.817434 0.277143 0.166231
O O1 0.524700 0.399210 0.770820
O O2 0.479771 0.727999 0.907421
O O3 0.000000 0.500000 0.000000
O O4 0.699750 0.768669 0.897891
O O5 0.512684 0.676876 0.460109
O O6 0.373791 0.717571 0.521786
O O7 0.904311 0.777495 0.707094
O O8 0.457465 0.063255 0.592227
O O9 0.196873 0.479536 0.798148
O O10 0.937562 0.426406 0.780728
O O11 0.500000 0.500000 0.000000
O O12 0.430515 0.130019 0.853355
O O13 0.598753 0.538310 0.356139
O O14 0.510334 0.264446 0.331404
O O15 0.168853 0.875732 0.924312
O O16 0.000000 0.000000 0.000000
O O17 0.986450 0.659452 0.454969
O O18 0.000000 0.000000 0.500000
#
# Coordination Sequence:
#
# PCOD9043976 Si02
#       8
#     2   2   2   2   2   2   2   2
#     4  12  27  45  73 104 148 190 243 304 365 431
#     4  11  24  46  73 102 140 195 246 297 364 432
#     4  10  25  44  73 103 145 189 241 296 367 431
#     4  12  24  45  73 103 148 192 241 299 366 434
#     4  11  26  48  73 108 144 192 244 300 368 436
#     4  11  27  44  68 106 146 186 243 301 367 428
#     4  10  23  46  68 102 137 189 239 297 356 429
#     4  11  24  46  76 103 145 188 244 301 364 436
#
# _framework density 23.411394999999999
#
# number of rings (size 3 to 8) (size 9 to 14) (size 15 to 20)
#    0.000    1.000    1.250    3.750   10.500    0.000 
#   11.250    0.000    0.000    0.000    0.000    0.000 
#    0.000    0.000    0.000    0.000    0.000    0.000 
#
# Total GULP energy -89382.867383 kJ/mol
# GULP energy per Si atom -5586.429211 kJ/mol
# Density = 2.335811 g / cm^3
# Si number density = 23.411395 Si / 1000 Ang^3
#
#
#
# Elastic Constant Matrix: (Units=GPa)
#
#
# Indices 1 2 3 4 5 6 
#
# 1 137.7596 7.2666 31.1696 13.2979 24.0850 -6.9003
# 2 7.2666 125.8270 27.6983 -6.9735 8.7831 1.5293
# 3 31.1696 27.6983 111.9280 -14.0081 12.2663 -21.8204
# 4 13.2979 -6.9735 -14.0081 26.0520 -8.1056 2.0278
# 5 24.0850 8.7831 12.2663 -8.1056 38.6047 0.3957
# 6 -6.9003 1.5293 -21.8204 2.0278 0.3957 37.5333
#
#
#
# Elastic Compliance Matrix: (Units=1/GPa)
#
#
# Indices 1 2 3 4 5 6 
#
# 1 0.010133 0.000084 -0.003057 -0.009112 -0.007289 0.000651
# 2 0.000084 0.008581 -0.002249 0.000834 -0.001098 -0.001675
# 3 -0.003057 -0.002249 0.012499 0.007143 -0.000118 0.006411
# 4 -0.009112 0.000834 0.007143 0.051508 0.014045 -0.000487
# 5 -0.007289 -0.001098 -0.000118 0.014045 0.033713 -0.002478
# 6 0.000651 -0.001675 0.006411 -0.000487 -0.002478 0.030611
#
#
# Mechanical properties :
#
#
# Convention : Reuss Voigt Hill
#
# Bulk Modulus (GPa) = 48.14956 56.42039 52.28498
# Shear Modulus (GPa) = 30.41142 41.06334 35.73738
#
# Velocity S-wave (km/s) = 3.60808 4.19261 3.91128
# Velocity P-wave (km/s) = 6.16190 6.89849 6.54057
#
# Compressibility (1/GPa) = 0.02076862
#
# Stress axis : x y z
#
# Youngs Moduli (GPa) = 98.68743 116.53967 80.00653
#
# Poissons Ratio (x) = -0.00975 0.24459
# Poissons Ratio (y) = -0.00826 0.17990
# Poissons Ratio (z) = 0.30170 0.26205
#
# Static dielectric constant tensor:
#      x y z
#    x 1.852590 -0.009030 -0.039850 
#    y -0.009030 1.987120 0.001390 
#    z -0.039850 0.001390 1.952310 
# 
# From -- ./inp_files/606838.got.cif
#   From: 2010.05.17/outbox.cif.g08.bks.cpg/sg2_304_cif.got.tgz:606838.got - 2010.06.03 11:33:40.
