data_PCOD9043561
_publ_section_title
;
Structure prediction by ZEFSAII (Michael W. Deem and Ramdas Pophale) SiO2 
 PCOD9043561
Probable space group: P -1
;
_chemical_formula_sum "Si O2"
_cell_formula_units_Z 16
_cell_length_a 7.758455
_cell_length_b 17.451894
_cell_length_c 12.237812
_cell_angle_alpha 150.995000
_cell_angle_beta 52.724236
_cell_angle_gamma 123.311612
_cell_volume 638.515235
_symmetry_space_group_name_H-M "P -1"
_symmetry_group_IT_number 2
_symmetry_cell_setting 'triclinic'
loop_
_space_group_symop_operation_xyz
x,y,z
-x,-y,-z
loop_
_atom_site_type_symbol
_atom_site_label
_atom_site_fract_x
_atom_site_fract_y
_atom_site_fract_z
Si Si1 0.918995 0.145686 0.535521
Si Si2 0.582764 0.260327 0.625720
Si Si3 0.886975 0.824476 0.029601
Si Si4 0.182100 0.406991 0.054384
Si Si5 0.799372 0.561941 0.276836
Si Si6 0.729659 0.111231 0.165748
Si Si7 0.458213 0.234254 0.224872
Si Si8 0.402527 0.752848 0.057287
O O1 0.735671 0.202729 0.592117
O O2 0.794573 0.147590 0.700405
O O3 0.115788 0.278227 0.617907
O O4 0.969627 0.973957 0.257941
O O5 0.673424 0.435615 0.777345
O O6 0.620784 0.151675 0.371822
O O7 0.339666 0.279370 0.784245
O O8 0.630828 0.822150 0.101879
O O9 0.922630 0.668338 0.890862
O O10 0.018529 0.837193 0.881891
O O11 0.005454 0.464835 0.110257
O O12 0.685371 0.623101 0.505884
O O13 0.645309 0.429367 0.111774
O O14 0.614860 0.204159 0.228747
O O15 0.691002 0.926189 0.927783
O O16 0.578230 0.255073 0.090105
#
# Coordination Sequence:
#
# PCOD9043561 Si02
#       8
#     2   2   2   2   2   2   2   2
#     4  11  24  46  74 106 143 180 235 293 354 410
#     4  10  23  45  72 104 141 181 234 294 345 411
#     4  12  25  44  73 109 139 184 240 286 349 417
#     4  10  24  44  70 107 140 181 236 286 350 418
#     4  11  25  49  71 101 147 189 229 285 356 423
#     4  11  26  46  73 100 144 189 234 289 349 416
#     4  11  26  48  68 106 143 187 235 287 352 417
#     4  12  26  42  75 105 141 183 235 291 351 411
#
# _framework density 25.058133999999999
#
# number of rings (size 3 to 8) (size 9 to 14) (size 15 to 20)
#    0.000    1.000    2.500    2.625    7.000    2.500 
#    0.000    1.250    0.000    0.000    0.000    0.000 
#    0.000    0.000    0.000    0.000    0.000    0.000 
#
# Total GULP energy -89703.958261 kJ/mol
# GULP energy per Si atom -5606.497391 kJ/mol
# Density = 2.500110 g / cm^3
# Si number density = 25.058134 Si / 1000 Ang^3
#
#
#
# Elastic Constant Matrix: (Units=GPa)
#
#
# Indices 1 2 3 4 5 6 
#
# 1 42.1375 24.4597 2.2492 -0.0287 4.2590 5.0857
# 2 24.4597 82.7840 8.0721 -6.1508 -0.1598 11.6215
# 3 2.2492 8.0721 104.9031 -13.6821 5.4806 1.5677
# 4 -0.0287 -6.1508 -13.6821 46.2776 -2.1526 1.5373
# 5 4.2590 -0.1598 5.4806 -2.1526 25.4074 -1.5811
# 6 5.0857 11.6215 1.5677 1.5373 -1.5811 31.5118
#
#
#
# Elastic Compliance Matrix: (Units=1/GPa)
#
#
# Indices 1 2 3 4 5 6 
#
# 1 0.029442 -0.008565 0.000165 -0.001255 -0.005243 -0.001803
# 2 -0.008565 0.015442 -0.000758 0.002040 0.001602 -0.004294
# 3 0.000165 -0.000758 0.010064 0.002798 -0.001996 -0.000484
# 4 -0.001255 0.002040 0.002798 0.022831 0.001446 -0.001730
# 5 -0.005243 0.001602 -0.001996 0.001446 0.040946 0.002339
# 6 -0.001803 -0.004294 -0.000484 -0.001730 0.002339 0.033835
#
#
# Mechanical properties :
#
#
# Convention : Reuss Voigt Hill
#
# Bulk Modulus (GPa) = 27.29966 33.26519 30.28242
# Shear Modulus (GPa) = 27.30952 33.64225 30.47588
#
# Velocity S-wave (km/s) = 3.30486 3.66808 3.49120
# Velocity P-wave (km/s) = 5.04787 5.58961 5.32564
#
# Compressibility (1/GPa) = 0.03663050
#
# Stress axis : x y z
#
# Youngs Moduli (GPa) = 33.96548 64.75936 99.36534
#
# Poissons Ratio (x) = 0.55469 -0.01639
# Poissons Ratio (y) = 0.29093 0.07532
# Poissons Ratio (z) = -0.00560 0.04909
#
# Static dielectric constant tensor:
#      x y z
#    x 1.986760 0.021340 -0.023990 
#    y 0.021340 1.986260 -0.019970 
#    z -0.023990 -0.019970 1.945670 
# 
# From -- ./inp_files/403495.got.cif
#   From: 2010.05.17/outbox.cif.g08.bks.cpg/sg2_202_cif.got.tgz:403495.got - 2010.06.03 11:33:40.
