data_PCOD9043345
_publ_section_title
;
Structure prediction by ZEFSAII (Michael W. Deem and Ramdas Pophale) SiO2 
 PCOD9043345
Probable space group: P -1
;
_chemical_formula_sum "Si O2"
_cell_formula_units_Z 16
_cell_length_a 17.430851
_cell_length_b 20.073341
_cell_length_c 11.509947
_cell_angle_alpha 30.702878
_cell_angle_beta 32.334057
_cell_angle_gamma 20.183910
_cell_volume 692.855030
_symmetry_space_group_name_H-M "P -1"
_symmetry_group_IT_number 2
_symmetry_cell_setting 'triclinic'
loop_
_space_group_symop_operation_xyz
x,y,z
-x,-y,-z
loop_
_atom_site_type_symbol
_atom_site_label
_atom_site_fract_x
_atom_site_fract_y
_atom_site_fract_z
Si Si1 0.018902 0.974287 0.877394
Si Si2 0.210169 0.765617 0.540155
Si Si3 0.177479 0.439590 0.694877
Si Si4 0.993901 0.319331 0.677888
Si Si5 0.376680 0.242602 0.369563
Si Si6 0.632563 0.054956 0.558886
Si Si7 0.451970 0.665202 0.161545
Si Si8 0.958020 0.356652 0.213886
O O1 0.240920 0.894655 0.673035
O O2 0.787598 0.202894 0.786484
O O3 0.016087 0.826246 0.065156
O O4 0.000000 0.000000 0.000000
O O5 0.382624 0.724061 0.298080
O O6 0.360613 0.581004 0.718239
O O7 0.105706 0.722100 0.662238
O O8 0.000000 0.000000 0.500000
O O9 0.404374 0.220765 0.677045
O O10 0.071276 0.610010 0.478982
O O11 0.219038 0.478768 0.706292
O O12 0.005550 0.443057 0.937721
O O13 0.235044 0.215566 0.554409
O O14 0.805361 0.531428 0.674600
O O15 0.561231 0.083110 0.473567
O O16 0.469471 0.259395 0.116674
O O17 0.811994 0.831336 0.723696
#
# Coordination Sequence:
#
# PCOD9043345 Si02
#       8
#     2   2   2   2   2   2   2   2
#     4  12  24  45  69 108 144 182 232 289 349 427
#     4  11  27  48  69 102 139 187 236 292 351 421
#     4  10  24  43  71 101 137 193 227 292 345 415
#     4  10  24  44  71 104 144 183 233 289 350 421
#     4  10  23  45  70 107 139 183 235 290 354 419
#     4  11  23  44  70 107 142 185 234 288 354 417
#     4  11  25  46  71 102 140 187 233 287 351 419
#     4  11  23  47  69  99 143 176 244 290 346 418
#
# _framework density 23.092855
#
# number of rings (size 3 to 8) (size 9 to 14) (size 15 to 20)
#    0.000    1.250    2.500    1.875    1.750    5.500 
#    6.750    0.000    0.000    0.000    0.000    0.000 
#    0.000    0.000    0.000    0.000    0.000    0.000 
#
# Total GULP energy -89554.789685 kJ/mol
# GULP energy per Si atom -5597.174355 kJ/mol
# Density = 2.304029 g / cm^3
# Si number density = 23.092855 Si / 1000 Ang^3
#
#
#
# Elastic Constant Matrix: (Units=GPa)
#
#
# Indices 1 2 3 4 5 6 
#
# 1 90.0942 26.9739 28.1223 -2.7527 -10.7632 -1.1422
# 2 26.9739 82.0105 13.8590 -10.3705 10.9294 5.6747
# 3 28.1223 13.8590 104.4698 8.5061 0.2620 11.9763
# 4 -2.7527 -10.3705 8.5061 33.5547 -2.4381 6.3720
# 5 -10.7632 10.9294 0.2620 -2.4381 38.5943 -6.9503
# 6 -1.1422 5.6747 11.9763 6.3720 -6.9503 46.0556
#
#
#
# Elastic Compliance Matrix: (Units=1/GPa)
#
#
# Indices 1 2 3 4 5 6 
#
# 1 0.014526 -0.005113 -0.003601 0.000436 0.006051 0.002780
# 2 -0.005113 0.015661 -0.000678 0.004804 -0.006179 -0.003477
# 3 -0.003601 -0.000678 0.011189 -0.002934 -0.001568 -0.002746
# 4 0.000436 0.004804 -0.002934 0.032900 0.000074 -0.004359
# 5 0.006051 -0.006179 -0.001568 0.000074 0.030426 0.005901
# 6 0.002780 -0.003477 -0.002746 -0.004359 0.005901 0.024418
#
#
# Mechanical properties :
#
#
# Convention : Reuss Voigt Hill
#
# Bulk Modulus (GPa) = 44.26415 46.05387 45.15901
# Shear Modulus (GPa) = 32.16771 37.48219 34.82495
#
# Velocity S-wave (km/s) = 3.73630 4.03315 3.88756
# Velocity P-wave (km/s) = 6.15002 6.45559 6.30466
#
# Compressibility (1/GPa) = 0.02259164
#
# Stress axis : x y z
#
# Youngs Moduli (GPa) = 68.84274 63.85120 89.37170
#
# Poissons Ratio (x) = 0.32645 0.32186
# Poissons Ratio (y) = 0.35197 0.06063
# Poissons Ratio (z) = 0.24792 0.04332
#
# Static dielectric constant tensor:
#      x y z
#    x 1.870410 -0.012600 0.026010 
#    y -0.012600 1.879030 -0.006360 
#    z 0.026010 -0.006360 1.865960 
# 
# From -- ./inp_files/467027.got.cif
#   From: 2010.05.17/outbox.cif.g08.bks.cpg/sg2_234_cif.got.tgz:467027.got - 2010.06.03 11:33:40.
