data_PCOD9043032
_publ_section_title
;
Structure prediction by ZEFSAII (Michael W. Deem and Ramdas Pophale) SiO2 
 PCOD9043032
Probable space group: P -1
;
_chemical_formula_sum "Si O2"
_cell_formula_units_Z 15
_cell_length_a 12.440424
_cell_length_b 5.336344
_cell_length_c 12.544008
_cell_angle_alpha 100.878917
_cell_angle_beta 132.550557
_cell_angle_gamma 90.973294
_cell_volume 590.287204
_symmetry_space_group_name_H-M "P -1"
_symmetry_group_IT_number 2
_symmetry_cell_setting 'triclinic'
loop_
_space_group_symop_operation_xyz
x,y,z
-x,-y,-z
loop_
_atom_site_type_symbol
_atom_site_label
_atom_site_fract_x
_atom_site_fract_y
_atom_site_fract_z
Si Si1 0.566279 0.404499 0.779427
Si Si2 0.634123 0.199088 0.246863
Si Si3 0.364357 0.044270 0.483934
Si Si4 0.953865 0.324311 0.783511
Si Si5 0.236716 0.329573 0.254450
Si Si6 0.605760 0.310718 0.014826
Si Si7 0.957063 0.263611 0.536636
Si Si8 0.000000 0.000000 0.000000
O O1 0.456754 0.597454 0.750093
O O2 0.450901 0.135315 0.657326
O O3 0.657931 0.495540 0.742660
O O4 0.672866 0.404667 0.952933
O O5 0.778021 0.195326 0.412047
O O6 0.509555 0.950955 0.113121
O O7 0.701662 0.280969 0.179358
O O8 0.307384 0.288467 0.411405
O O9 0.500000 0.000000 0.500000
O O10 0.222000 0.813210 0.361587
O O11 0.931063 0.607493 0.837861
O O12 0.012470 0.325842 0.701375
O O13 0.019120 0.166003 0.905718
O O14 0.182678 0.048675 0.141048
O O15 0.500000 0.500000 0.000000
O O16 0.000000 0.500000 0.500000
O O17 0.000000 0.000000 0.500000
#
# Coordination Sequence:
#
# PCOD9043032 Si02
#       8
#     2   2   2   2   2   2   2   1
#     4  11  22  37  70 106 135 176 232 293 382 436
#     4  10  23  45  68 100 144 179 239 307 360 434
#     4  11  23  38  67 108 140 176 228 294 372 447
#     4  11  25  49  72  99 151 187 243 312 366 439
#     4  11  24  42  68 104 137 187 230 294 377 447
#     4   9  21  40  67  97 137 179 228 303 365 423
#     4  12  31  50  76 108 144 208 259 302 370 441
#     4  10  26  46  70  98 150 188 242 290 374 438
#
# _framework density 25.411359000000001
#
# number of rings (size 3 to 8) (size 9 to 14) (size 15 to 20)
#    0.000    1.333    1.333    2.400   13.067    1.067 
#    7.200    0.000    0.000    0.000    0.000    0.000 
#    0.000    0.000    0.000    0.000    0.000    0.000 
#
# Total GULP energy -83540.261726 kJ/mol
# GULP energy per Si atom -5569.350782 kJ/mol
# Density = 2.535352 g / cm^3
# Si number density = 25.411359 Si / 1000 Ang^3
#
#
#
# Elastic Constant Matrix: (Units=GPa)
#
#
# Indices 1 2 3 4 5 6 
#
# 1 84.4035 27.8750 21.0765 -2.6936 -28.8082 8.8647
# 2 27.8750 53.4614 -12.7183 -11.5608 -7.6192 -8.5549
# 3 21.0765 -12.7183 139.0622 -26.3697 -24.9034 -3.5926
# 4 -2.6936 -11.5608 -26.3697 44.9745 16.3484 -3.9410
# 5 -28.8082 -7.6192 -24.9034 16.3484 47.0138 6.7072
# 6 8.8647 -8.5549 -3.5926 -3.9410 6.7072 43.2503
#
#
#
# Elastic Compliance Matrix: (Units=1/GPa)
#
#
# Indices 1 2 3 4 5 6 
#
# 1 0.025161 -0.016857 -0.005223 -0.012881 0.016198 -0.012611
# 2 -0.016857 0.033814 0.007592 0.016402 -0.008469 0.013582
# 3 -0.005223 0.007592 0.010325 0.008011 0.000123 0.004141
# 4 -0.012881 0.016402 0.008011 0.037159 -0.015678 0.012367
# 5 0.016198 -0.008469 0.000123 -0.015678 0.037075 -0.012163
# 6 -0.012611 0.013582 0.004141 0.012367 -0.012163 0.031750
#
#
# Mechanical properties :
#
#
# Convention : Reuss Voigt Hill
#
# Bulk Modulus (GPa) = 24.79893 38.82150 31.81022
# Shear Modulus (GPa) = 22.96737 43.09398 33.03067
#
# Velocity S-wave (km/s) = 3.00963 4.12254 3.60924
# Velocity P-wave (km/s) = 4.67518 6.16205 5.46938
#
# Compressibility (1/GPa) = 0.04032432
#
# Stress axis : x y z
#
# Youngs Moduli (GPa) = 39.74394 29.57386 96.85293
#
# Poissons Ratio (x) = 0.49852 0.50585
# Poissons Ratio (y) = 0.66995 -0.73529
# Poissons Ratio (z) = 0.20758 -0.22452
#
# Static dielectric constant tensor:
#      x y z
#    x 1.991030 0.145200 0.028930 
#    y 0.145200 2.142410 -0.142640 
#    z 0.028930 -0.142640 1.817480 
# 
# From -- ./inp_files/369207.got.cif
#   From: 2010.05.17/outbox.cif.g08.bks.cpg/sg2_185_cif.got.tgz:369207.got - 2010.06.03 11:33:40.
