data_PCOD9043799
_publ_section_title
;
Structure prediction by ZEFSAII (Michael W. Deem and Ramdas Pophale) SiO2 
 PCOD9043799
Probable space group: P -1
;
_chemical_formula_sum "Si O2"
_cell_formula_units_Z 14
_cell_length_a 23.051897
_cell_length_b 6.644838
_cell_length_c 5.244162
_cell_angle_alpha 96.385717
_cell_angle_beta 76.123720
_cell_angle_gamma 128.939240
_cell_volume 605.736722
_symmetry_space_group_name_H-M "P -1"
_symmetry_group_IT_number 2
_symmetry_cell_setting 'triclinic'
loop_
_space_group_symop_operation_xyz
x,y,z
-x,-y,-z
loop_
_atom_site_type_symbol
_atom_site_label
_atom_site_fract_x
_atom_site_fract_y
_atom_site_fract_z
Si Si1 0.419474 0.939216 0.528845
Si Si2 0.831089 0.420565 0.047997
Si Si3 0.983227 0.782382 0.667126
Si Si4 0.264246 0.119475 0.176231
Si Si5 0.580677 0.784685 0.937270
Si Si6 0.264394 0.384384 0.692993
Si Si7 0.071314 0.652597 0.746700
O O1 0.418844 0.060335 0.280574
O O2 0.500000 0.000000 0.500000
O O3 0.351127 0.633887 0.572612
O O4 0.407157 0.068297 0.792636
O O5 0.781254 0.501108 0.210215
O O6 0.856057 0.296006 0.197933
O O7 0.913943 0.682486 0.915053
O O8 0.784266 0.189943 0.857460
O O9 0.948539 0.530669 0.495185
O O10 0.063043 0.866887 0.703590
O O11 0.000000 0.000000 0.500000
O O12 0.350143 0.227223 0.158821
O O13 0.236802 0.194856 0.453987
O O14 0.262171 0.252233 0.940496
O O15 0.500000 0.500000 0.000000
O O16 0.000000 0.500000 0.000000
#
# Coordination Sequence:
#
# PCOD9043799 Si02
#       7
#     2   2   2   2   2   2   2
#     4  12  24  45  74 108 153 194 261 314 364 453
#     4  11  27  47  72 105 153 190 250 314 376 453
#     4  10  23  45  76 104 142 186 248 299 383 449
#     4  12  28  48  73 109 154 198 256 310 384 449
#     4  12  24  45  75 107 155 200 250 317 375 435
#     4  12  28  47  75 110 150 203 254 310 384 442
#     4   9  22  44  68 101 140 182 235 300 371 446
#
# _framework density 23.112348999999998
#
# number of rings (size 3 to 8) (size 9 to 14) (size 15 to 20)
#    0.000    0.857    1.429    4.286    4.000    6.857 
#    0.000    0.000    0.000    0.000    0.000    0.000 
#    0.000    0.000    0.000    0.000    0.000    0.000 
#
# Total GULP energy -78336.556048 kJ/mol
# GULP energy per Si atom -5595.468289 kJ/mol
# Density = 2.305974 g / cm^3
# Si number density = 23.112349 Si / 1000 Ang^3
#
#
#
# Elastic Constant Matrix: (Units=GPa)
#
#
# Indices 1 2 3 4 5 6 
#
# 1 191.5657 48.6048 36.6453 -15.9366 -24.6648 -15.0674
# 2 48.6048 107.8341 36.1751 -6.8904 -11.8384 -9.5111
# 3 36.6453 36.1751 104.6073 1.1124 -9.6328 -9.4261
# 4 -15.9366 -6.8904 1.1124 55.8931 -12.4704 6.3225
# 5 -24.6648 -11.8384 -9.6328 -12.4704 43.4989 -4.2618
# 6 -15.0674 -9.5111 -9.4261 6.3225 -4.2618 36.2363
#
#
#
# Elastic Compliance Matrix: (Units=1/GPa)
#
#
# Indices 1 2 3 4 5 6 
#
# 1 0.006801 -0.001893 -0.001202 0.002379 0.003960 0.002069
# 2 -0.001893 0.011560 -0.003041 0.001201 0.001888 0.001469
# 3 -0.001202 -0.003041 0.011299 -0.000957 0.000906 0.001914
# 4 0.002379 0.001201 -0.000957 0.020530 0.007185 -0.001682
# 5 0.003960 0.001888 0.000906 0.007185 0.028446 0.004470
# 6 0.002069 0.001469 0.001914 -0.001682 0.004470 0.030159
#
#
# Mechanical properties :
#
#
# Convention : Reuss Voigt Hill
#
# Bulk Modulus (GPa) = 57.51363 71.87306 64.69334
# Shear Modulus (GPa) = 39.41236 45.96447 42.68842
#
# Velocity S-wave (km/s) = 4.13395 4.46437 4.30233
# Velocity P-wave (km/s) = 6.90829 7.59861 7.26166
#
# Compressibility (1/GPa) = 0.01738718
#
# Stress axis : x y z
#
# Youngs Moduli (GPa) = 147.04094 86.50160 88.50715
#
# Poissons Ratio (x) = 0.16374 0.10639
# Poissons Ratio (y) = 0.27834 0.26918
# Poissons Ratio (z) = 0.17675 0.26308
#
# Static dielectric constant tensor:
#      x y z
#    x 1.899030 0.055790 0.006300 
#    y 0.055790 1.914900 -0.016930 
#    z 0.006300 -0.016930 1.896380 
# 
# From -- ./inp_files/102820.got.cif
#   From: 2010.05.17/outbox.cif.g08.bks.cpg/sg2_52_cif.got.tgz:102820.got - 2010.06.03 11:33:40.
