data_PCOD9043120
_publ_section_title
;
Structure prediction by ZEFSAII (Michael W. Deem and Ramdas Pophale) SiO2 
 PCOD9043120
Probable space group: P -1
;
_chemical_formula_sum "Si O2"
_cell_formula_units_Z 16
_cell_length_a 16.236057
_cell_length_b 11.658870
_cell_length_c 8.293370
_cell_angle_alpha 82.992291
_cell_angle_beta 54.093548
_cell_angle_gamma 42.496359
_cell_volume 707.399501
_symmetry_space_group_name_H-M "P -1"
_symmetry_group_IT_number 2
_symmetry_cell_setting 'triclinic'
loop_
_space_group_symop_operation_xyz
x,y,z
-x,-y,-z
loop_
_atom_site_type_symbol
_atom_site_label
_atom_site_fract_x
_atom_site_fract_y
_atom_site_fract_z
Si Si1 0.016041 0.847500 0.975701
Si Si2 0.747016 0.750740 0.584037
Si Si3 0.123673 0.312590 0.214135
Si Si4 0.708222 0.295254 0.845682
Si Si5 0.388262 0.520489 0.741086
Si Si6 0.454129 0.935751 0.678127
Si Si7 0.982302 0.840533 0.634506
Si Si8 0.337064 0.923107 0.512586
O O1 0.220136 0.620145 0.826191
O O2 0.985697 0.844373 0.824386
O O3 0.000000 0.000000 0.000000
O O4 0.864997 0.931538 0.247650
O O5 0.776961 0.717359 0.746974
O O6 0.613369 0.782211 0.653876
O O7 0.949387 0.547167 0.314475
O O8 0.669747 0.949269 0.593644
O O9 0.042064 0.267300 0.376281
O O10 0.268478 0.142559 0.944054
O O11 0.835623 0.271471 0.621105
O O12 0.500000 0.500000 0.000000
O O13 0.702411 0.322895 0.038117
O O14 0.810997 0.078198 0.732462
O O15 0.500000 0.500000 0.500000
O O16 0.532216 0.292826 0.681761
O O17 0.422373 0.861165 0.605034
O O18 0.500000 0.000000 0.500000
#
# Coordination Sequence:
#
# PCOD9043120 Si02
#       8
#     2   2   2   2   2   2   2   2
#     4  12  23  43  68  96 139 174 221 272 328 402
#     4  10  26  45  69  97 132 175 227 282 335 396
#     4  11  24  46  70  96 136 176 226 276 343 395
#     4  11  26  43  67 101 140 175 226 277 331 403
#     4  12  25  42  69 100 134 178 222 269 335 400
#     4  10  23  45  68  99 129 172 227 280 333 395
#     4  11  25  44  68 100 134 183 223 275 336 398
#     4  11  25  42  69 100 133 176 222 276 334 397
#
# _framework density 22.618053
#
# number of rings (size 3 to 8) (size 9 to 14) (size 15 to 20)
#    0.000    1.000    3.750    1.125    5.250    5.000 
#    4.500    0.000    0.000    0.000    0.000    0.000 
#    0.000    0.000    0.000    0.000    0.000    0.000 
#
# Total GULP energy -89517.676752 kJ/mol
# GULP energy per Si atom -5594.854797 kJ/mol
# Density = 2.256657 g / cm^3
# Si number density = 22.618053 Si / 1000 Ang^3
#
#
#
# Elastic Constant Matrix: (Units=GPa)
#
#
# Indices 1 2 3 4 5 6 
#
# 1 65.9376 11.7845 0.8633 15.2222 -5.9180 -5.5025
# 2 11.7845 71.0826 20.2106 26.6500 -17.5873 -6.6677
# 3 0.8633 20.2106 91.5803 20.7578 -11.3952 -2.2644
# 4 15.2222 26.6500 20.7578 30.6907 -5.7723 -9.5205
# 5 -5.9180 -17.5873 -11.3952 -5.7723 37.2781 4.3139
# 6 -5.5025 -6.6677 -2.2644 -9.5205 4.3139 25.2138
#
#
#
# Elastic Compliance Matrix: (Units=1/GPa)
#
#
# Indices 1 2 3 4 5 6 
#
# 1 0.017654 0.001043 0.002354 -0.010862 0.002351 -0.000164
# 2 0.001043 0.023166 0.000430 -0.020167 0.008411 -0.002662
# 3 0.002354 0.000430 0.013652 -0.011037 0.003375 -0.002891
# 4 -0.010862 -0.020167 -0.011037 0.067288 -0.006251 0.017782
# 5 0.002351 0.008411 0.003375 -0.006251 0.031781 -0.004757
# 6 -0.000164 -0.002662 -0.002891 0.017782 -0.004757 0.046190
#
#
# Mechanical properties :
#
#
# Convention : Reuss Voigt Hill
#
# Bulk Modulus (GPa) = 16.09665 32.70191 24.39928
# Shear Modulus (GPa) = 23.49780 31.68598 27.59189
#
# Velocity S-wave (km/s) = 3.22669 3.74694 3.49650
# Velocity P-wave (km/s) = 4.58412 5.76274 5.20689
#
# Compressibility (1/GPa) = 0.06212472
#
# Stress axis : x y z
#
# Youngs Moduli (GPa) = 56.64551 43.16754 73.24691
#
# Poissons Ratio (x) = -0.04501 -0.17242
# Poissons Ratio (y) = -0.05907 -0.03148
# Poissons Ratio (z) = -0.13334 -0.01855
#
# Static dielectric constant tensor:
#      x y z
#    x 1.709410 -0.277670 -0.137340 
#    y -0.277670 1.657040 -0.128840 
#    z -0.137340 -0.128840 1.701000 
# 
# From -- ./inp_files/333218.got.cif
#   From: 2010.05.17/outbox.cif.g08.bks.cpg/sg2_167_cif.got.tgz:333218.got - 2010.06.03 11:33:40.
