data_PCOD9043430
_publ_section_title
;
Structure prediction by ZEFSAII (Michael W. Deem and Ramdas Pophale) SiO2 
 PCOD9043430
Probable space group: P -1
;
_chemical_formula_sum "Si O2"
_cell_formula_units_Z 12
_cell_length_a 8.382118
_cell_length_b 4.795329
_cell_length_c 15.281111
_cell_angle_alpha 63.915178
_cell_angle_beta 79.030600
_cell_angle_gamma 83.605564
_cell_volume 541.315230
_symmetry_space_group_name_H-M "P -1"
_symmetry_group_IT_number 2
_symmetry_cell_setting 'triclinic'
loop_
_space_group_symop_operation_xyz
x,y,z
-x,-y,-z
loop_
_atom_site_type_symbol
_atom_site_label
_atom_site_fract_x
_atom_site_fract_y
_atom_site_fract_z
Si Si1 0.242033 0.834884 0.795891
Si Si2 0.371116 0.234547 0.072227
Si Si3 0.404890 0.511280 0.202326
Si Si4 0.146300 0.424886 0.387721
Si Si5 0.079678 0.028339 0.611466
Si Si6 0.150015 0.198457 0.929064
O O1 0.421552 0.673885 0.790713
O O2 0.116877 0.556813 0.859680
O O3 0.189639 0.004062 0.689093
O O4 0.228164 0.041144 0.855980
O O5 0.302430 0.369813 0.151981
O O6 0.500000 0.500000 0.000000
O O7 0.573248 0.121994 0.866587
O O8 0.259604 0.213480 0.002216
O O9 0.303650 0.460899 0.307320
O O10 0.169475 0.189799 0.498907
O O11 0.080411 0.754886 0.384143
O O12 0.994146 0.294028 0.366961
O O13 0.000000 0.000000 0.000000
#
# Coordination Sequence:
#
# PCOD9043430 Si02
#       6
#     2   2   2   2   2   2
#     4  12  26  44  68 104 139 177 227 291 338 399
#     4  12  26  46  68  97 143 187 225 282 335 413
#     4  12  26  42  73 103 134 185 231 278 344 409
#     4  10  23  45  71 102 132 182 228 274 352 416
#     4  10  23  45  71  99 141 174 223 290 342 409
#     4  12  28  45  66 102 139 184 232 279 342 403
#
# _framework density 22.168227000000002
#
# number of rings (size 3 to 8) (size 9 to 14) (size 15 to 20)
#    0.000    0.667    1.667    5.000    7.000    0.667 
#    0.000    0.000    0.000   10.000    0.000    0.000 
#    0.000    0.000    0.000    0.000    0.000    0.000 
#
# Total GULP energy -67146.321677 kJ/mol
# GULP energy per Si atom -5595.526806 kJ/mol
# Density = 2.211777 g / cm^3
# Si number density = 22.168227 Si / 1000 Ang^3
#
#
#
# Elastic Constant Matrix: (Units=GPa)
#
#
# Indices 1 2 3 4 5 6 
#
# 1 71.9540 29.9892 64.8913 5.3176 14.2263 25.9133
# 2 29.9892 137.8629 38.7623 13.2333 10.9046 13.0892
# 3 64.8913 38.7623 148.1617 22.6216 13.7004 23.6378
# 4 5.3176 13.2333 22.6216 32.3585 -3.6927 0.1723
# 5 14.2263 10.9046 13.7004 -3.6927 29.2019 1.4929
# 6 25.9133 13.0892 23.6378 0.1723 1.4929 28.9888
#
#
#
# Elastic Compliance Matrix: (Units=1/GPa)
#
#
# Indices 1 2 3 4 5 6 
#
# 1 0.032399 -0.001794 -0.009960 0.001420 -0.009262 -0.019562
# 2 -0.001794 0.008415 -0.000458 -0.003086 -0.002358 -0.001683
# 3 -0.009960 -0.000458 0.012675 -0.007234 -0.001782 -0.001090
# 4 0.001420 -0.003086 -0.007234 0.037917 0.008375 0.005367
# 5 -0.009262 -0.002358 -0.001782 0.008375 0.041091 0.008631
# 6 -0.019562 -0.001683 -0.001090 0.005367 0.008631 0.053155
#
#
# Mechanical properties :
#
#
# Convention : Reuss Voigt Hill
#
# Bulk Modulus (GPa) = 34.40603 69.47381 51.93992
# Shear Modulus (GPa) = 22.75168 33.06556 27.90862
#
# Velocity S-wave (km/s) = 3.20710 3.86628 3.55201
# Velocity P-wave (km/s) = 5.41000 7.16507 6.34848
#
# Compressibility (1/GPa) = 0.02906468
#
# Stress axis : x y z
#
# Youngs Moduli (GPa) = 30.86522 118.83333 78.89654
#
# Poissons Ratio (x) = 0.21315 0.78582
# Poissons Ratio (y) = 0.05536 0.03615
# Poissons Ratio (z) = 0.30742 0.05445
#
# Static dielectric constant tensor:
#      x y z
#    x 1.849680 -0.007300 -0.001280 
#    y -0.007300 1.810560 0.009820 
#    z -0.001280 0.009820 1.824490 
# 
# From -- ./inp_files/486895.got.cif
#   From: 2010.05.17/outbox.cif.g08.bks.cpg/sg2_244_cif.got.tgz:486895.got - 2010.06.03 11:33:40.
