data_PCOD9043525
_publ_section_title
;
Structure prediction by ZEFSAII (Michael W. Deem and Ramdas Pophale) SiO2 
 PCOD9043525
Probable space group: P -1
;
_chemical_formula_sum "Si O2"
_cell_formula_units_Z 14
_cell_length_a 8.568880
_cell_length_b 12.625297
_cell_length_c 9.921365
_cell_angle_alpha 45.228248
_cell_angle_beta 46.508584
_cell_angle_gamma 65.900070
_cell_volume 546.686884
_symmetry_space_group_name_H-M "P -1"
_symmetry_group_IT_number 2
_symmetry_cell_setting 'triclinic'
loop_
_space_group_symop_operation_xyz
x,y,z
-x,-y,-z
loop_
_atom_site_type_symbol
_atom_site_label
_atom_site_fract_x
_atom_site_fract_y
_atom_site_fract_z
Si Si1 0.865854 0.793422 0.251097
Si Si2 0.072555 0.751705 0.911007
Si Si3 0.870522 0.213923 0.629157
Si Si4 0.587442 0.474478 0.621816
Si Si5 0.154570 0.450003 0.069964
Si Si6 0.781799 0.925778 0.772104
Si Si7 0.475663 0.962418 0.389811
O O1 0.751125 0.623455 0.436424
O O2 0.678672 0.896550 0.268933
O O3 0.980839 0.806818 0.313541
O O4 0.045086 0.835486 0.991695
O O5 0.272001 0.826826 0.634695
O O6 0.851265 0.780916 0.938022
O O7 0.131871 0.588610 0.059403
O O8 0.708598 0.329751 0.662838
O O9 0.751371 0.057034 0.779804
O O10 0.037585 0.299033 0.342868
O O11 0.500000 0.500000 0.500000
O O12 0.393985 0.454982 0.864246
O O13 0.000000 0.500000 0.000000
O O14 0.597537 0.912938 0.778481
O O15 0.000000 0.000000 0.500000
O O16 0.500000 0.000000 0.500000
#
# Coordination Sequence:
#
# PCOD9043525 Si02
#       7
#     2   2   2   2   2   2   2
#     4  12  25  44  70 105 144 181 241 293 351 416
#     4  11  24  45  71  99 142 190 231 290 355 419
#     4  12  26  44  72 106 142 185 235 296 348 422
#     4  12  24  43  71 103 140 184 235 291 348 422
#     4  12  23  43  75 100 138 186 232 284 360 415
#     4  10  23  45  72 100 140 184 235 288 355 416
#     4  11  24  44  70 101 143 186 236 295 349 419
#
# _framework density 25.608809000000001
#
# number of rings (size 3 to 8) (size 9 to 14) (size 15 to 20)
#    0.000    0.571    4.286    4.714    0.000    4.571 
#    0.000    4.286    0.000    0.000    0.000    0.000 
#    0.000    0.000    0.000    0.000    0.000    0.000 
#
# Total GULP energy -78459.605507 kJ/mol
# GULP energy per Si atom -5604.257536 kJ/mol
# Density = 2.555052 g / cm^3
# Si number density = 25.608809 Si / 1000 Ang^3
#
#
#
# Elastic Constant Matrix: (Units=GPa)
#
#
# Indices 1 2 3 4 5 6 
#
# 1 127.2005 46.3774 31.0346 5.6438 15.7824 -7.4955
# 2 46.3774 174.4478 42.2092 10.3507 -16.6103 -19.1224
# 3 31.0346 42.2092 140.9012 21.0791 -7.8112 -11.3592
# 4 5.6438 10.3507 21.0791 50.7337 -2.5891 -8.6097
# 5 15.7824 -16.6103 -7.8112 -2.5891 42.3948 8.6832
# 6 -7.4955 -19.1224 -11.3592 -8.6097 8.6832 48.3520
#
#
#
# Elastic Compliance Matrix: (Units=1/GPa)
#
#
# Indices 1 2 3 4 5 6 
#
# 1 0.009925 -0.002634 -0.001604 0.000013 -0.005239 0.001063
# 2 -0.002634 0.007225 -0.001245 -0.000238 0.003254 0.001530
# 3 -0.001604 -0.001245 0.008370 -0.002897 0.001380 0.000462
# 4 0.000013 -0.000238 -0.002897 0.021481 0.000057 0.003042
# 5 -0.005239 0.003254 0.001380 0.000057 0.027933 -0.004207
# 6 0.001063 0.001530 0.000462 0.003042 -0.004207 0.022857
#
#
# Mechanical properties :
#
#
# Convention : Reuss Voigt Hill
#
# Bulk Modulus (GPa) = 68.69905 75.75468 72.22687
# Shear Modulus (GPa) = 44.01064 49.82464 46.91764
#
# Velocity S-wave (km/s) = 4.15007 4.41569 4.28494
# Velocity P-wave (km/s) = 7.06036 7.45945 7.26265
#
# Compressibility (1/GPa) = 0.01455624
#
# Stress axis : x y z
#
# Youngs Moduli (GPa) = 100.75251 138.39915 119.46779
#
# Poissons Ratio (x) = 0.36450 0.19160
# Poissons Ratio (y) = 0.26535 0.14874
# Poissons Ratio (z) = 0.16159 0.17231
#
# Static dielectric constant tensor:
#      x y z
#    x 2.054880 0.133080 -0.030440 
#    y 0.133080 2.246440 -0.072530 
#    z -0.030440 -0.072530 2.036430 
# 
# From -- ./inp_files/184670.got.cif
#   From: 2010.05.17/outbox.cif.g08.bks.cpg/sg2_93_cif.got.tgz:184670.got - 2010.06.03 11:33:40.
