data_PCOD9043223
_publ_section_title
;
Structure prediction by ZEFSAII (Michael W. Deem and Ramdas Pophale) SiO2 
 PCOD9043223
Probable space group: P -1
;
_chemical_formula_sum "Si O2"
_cell_formula_units_Z 14
_cell_length_a 9.274749
_cell_length_b 13.417199
_cell_length_c 9.500144
_cell_angle_alpha 77.267337
_cell_angle_beta 91.940584
_cell_angle_gamma 148.895545
_cell_volume 566.884243
_symmetry_space_group_name_H-M "P -1"
_symmetry_group_IT_number 2
_symmetry_cell_setting 'triclinic'
loop_
_space_group_symop_operation_xyz
x,y,z
-x,-y,-z
loop_
_atom_site_type_symbol
_atom_site_label
_atom_site_fract_x
_atom_site_fract_y
_atom_site_fract_z
Si Si1 0.797296 0.641660 0.325667
Si Si2 0.671546 0.347951 0.541813
Si Si3 0.327169 0.672059 0.125140
Si Si4 0.773080 0.058041 0.535481
Si Si5 0.630323 0.657982 0.067815
Si Si6 0.210860 0.781913 0.756109
Si Si7 0.815883 0.110266 0.993750
O O1 0.681886 0.470197 0.450503
O O2 0.582560 0.578463 0.245356
O O3 0.967563 0.815693 0.391820
O O4 0.020636 0.738370 0.180224
O O5 0.589557 0.286757 0.721130
O O6 0.430577 0.141866 0.501424
O O7 0.000000 0.500000 0.500000
O O8 0.476295 0.670791 0.047548
O O9 0.980882 0.439499 0.172490
O O10 0.486014 0.873205 0.021214
O O11 0.543497 0.967512 0.664953
O O12 0.897691 0.218981 0.381441
O O13 0.500000 0.500000 0.000000
O O14 0.981448 0.867584 0.993620
O O15 0.165551 0.820932 0.880281
#
# Coordination Sequence:
#
# PCOD9043223 Si02
#       7
#     2   2   2   2   2   2   2
#     4  10  25  43  63 101 138 165 223 282 325 385
#     4  12  23  42  68  98 134 177 218 270 330 398
#     4  12  21  41  71  93 126 184 222 255 336 394
#     4  11  22  40  63  99 136 167 223 270 327 387
#     4  10  23  45  69  92 139 173 219 278 332 387
#     4  11  21  39  69  94 130 180 214 268 330 395
#     4  10  24  42  64  99 130 173 219 272 330 385
#
# _framework density 24.696400000000001
#
# number of rings (size 3 to 8) (size 9 to 14) (size 15 to 20)
#    0.857    0.286    5.714    1.286    0.000    3.429 
#    0.000    2.143    0.000    0.000    0.000    0.000 
#    0.000    0.000    0.000    0.000    0.000    0.000 
#
# Total GULP energy -78284.083467 kJ/mol
# GULP energy per Si atom -5591.720248 kJ/mol
# Density = 2.464019 g / cm^3
# Si number density = 24.696400 Si / 1000 Ang^3
#
#
#
# Elastic Constant Matrix: (Units=GPa)
#
#
# Indices 1 2 3 4 5 6 
#
# 1 37.2668 12.0913 22.1486 5.2054 -9.0570 10.1976
# 2 12.0913 108.1574 19.8331 7.3844 5.7344 -6.4677
# 3 22.1486 19.8331 111.5330 -2.5149 -9.6156 -8.3803
# 4 5.2054 7.3844 -2.5149 47.0633 -1.7086 -3.2987
# 5 -9.0570 5.7344 -9.6156 -1.7086 38.2186 6.4113
# 6 10.1976 -6.4677 -8.3803 -3.2987 6.4113 29.8192
#
#
#
# Elastic Compliance Matrix: (Units=1/GPa)
#
#
# Indices 1 2 3 4 5 6 
#
# 1 0.042869 -0.004802 -0.008336 -0.005484 0.012102 -0.021254
# 2 -0.004802 0.010477 -0.000926 -0.000993 -0.003716 0.004344
# 3 -0.008336 -0.000926 0.011294 0.002097 0.000086 0.006038
# 4 -0.005484 -0.000993 0.002097 0.022445 -0.000429 0.004825
# 5 0.012102 -0.003716 0.000086 -0.000429 0.031565 -0.011755
# 6 -0.021254 0.004344 0.006038 0.004825 -0.011755 0.046504
#
#
# Mechanical properties :
#
#
# Convention : Reuss Voigt Hill
#
# Bulk Modulus (GPa) = 27.38825 40.56700 33.97763
# Shear Modulus (GPa) = 24.33640 36.54584 30.44112
#
# Velocity S-wave (km/s) = 3.14255 3.85100 3.51467
# Velocity P-wave (km/s) = 4.92763 6.01959 5.50078
#
# Compressibility (1/GPa) = 0.03651201
#
# Stress axis : x y z
#
# Youngs Moduli (GPa) = 23.32681 95.44796 88.53931
#
# Poissons Ratio (x) = 0.45834 0.73810
# Poissons Ratio (y) = 0.11202 0.08197
# Poissons Ratio (z) = 0.19446 0.08837
#
# Static dielectric constant tensor:
#      x y z
#    x 2.019530 0.040300 0.004920 
#    y 0.040300 1.993540 -0.020000 
#    z 0.004920 -0.020000 1.931470 
# 
# From -- ./inp_files/272912.got.cif
#   From: 2010.05.17/outbox.cif.g08.bks.cpg/sg2_137_cif.got.tgz:272912.got - 2010.06.03 11:33:40.
