data_PCOD9043703
_publ_section_title
;
Structure prediction by ZEFSAII (Michael W. Deem and Ramdas Pophale) SiO2 
 PCOD9043703
Probable space group: P -1
;
_chemical_formula_sum "Si O2"
_cell_formula_units_Z 12
_cell_length_a 8.456536
_cell_length_b 9.563840
_cell_length_c 9.406992
_cell_angle_alpha 46.826972
_cell_angle_beta 74.029604
_cell_angle_gamma 67.138515
_cell_volume 511.216373
_symmetry_space_group_name_H-M "P -1"
_symmetry_group_IT_number 2
_symmetry_cell_setting 'triclinic'
loop_
_space_group_symop_operation_xyz
x,y,z
-x,-y,-z
loop_
_atom_site_type_symbol
_atom_site_label
_atom_site_fract_x
_atom_site_fract_y
_atom_site_fract_z
Si Si1 0.608074 0.467833 0.856967
Si Si2 0.507928 0.856154 0.433115
Si Si3 0.031488 0.516777 0.149250
Si Si4 0.058387 0.060609 0.097316
Si Si5 0.433821 0.811560 0.182016
Si Si6 0.190132 0.074306 0.544097
O O1 0.567910 0.685579 0.651464
O O2 0.804850 0.407769 0.896907
O O3 0.543865 0.333985 0.854390
O O4 0.500000 0.500000 0.000000
O O5 0.514150 0.743851 0.361581
O O6 0.665156 0.952249 0.346567
O O7 0.317793 0.988034 0.437875
O O8 0.072968 0.299703 0.369130
O O9 0.000000 0.500000 0.000000
O O10 0.893176 0.727839 0.075800
O O11 0.231810 0.888551 0.204575
O O12 0.935462 0.043082 0.274154
O O13 0.000000 0.000000 0.000000
O O14 0.500000 0.000000 0.000000
#
# Coordination Sequence:
#
# PCOD9043703 Si02
#       6
#     2   2   2   2   2   2
#     4  11  25  45  72 102 141 187 235 289 354 422
#     4  10  23  45  74 104 141 182 240 286 352 422
#     4  11  25  44  71 105 136 186 234 284 355 422
#     4  12  25  46  70 103 147 182 232 294 354 415
#     4  12  27  45  71 105 141 187 238 293 352 416
#     4  10  24  46  74 105 143 187 231 295 352 423
#
# _framework density 23.473426
#
# number of rings (size 3 to 8) (size 9 to 14) (size 15 to 20)
#    0.000    1.000    1.667    3.500    9.333    4.667 
#    3.000    0.000    0.000    0.000    0.000    0.000 
#    0.000    0.000    0.000    0.000    0.000    0.000 
#
# Total GULP energy -66881.536845 kJ/mol
# GULP energy per Si atom -5573.461404 kJ/mol
# Density = 2.342000 g / cm^3
# Si number density = 23.473426 Si / 1000 Ang^3
#
#
#
# Elastic Constant Matrix: (Units=GPa)
#
#
# Indices 1 2 3 4 5 6 
#
# 1 47.7772 11.4354 9.9631 18.0751 -3.5251 11.8018
# 2 11.4354 123.5596 7.6411 9.8697 5.5193 22.2550
# 3 9.9631 7.6411 91.8407 1.4656 9.6871 -2.4972
# 4 18.0751 9.8697 1.4656 40.2244 5.4426 9.0822
# 5 -3.5251 5.5193 9.6871 5.4426 35.9850 8.5324
# 6 11.8018 22.2550 -2.4972 9.0822 8.5324 38.4013
#
#
#
# Elastic Compliance Matrix: (Units=1/GPa)
#
#
# Indices 1 2 3 4 5 6 
#
# 1 0.028858 -0.000417 -0.003915 -0.012005 0.007593 -0.007730
# 2 -0.000417 0.009161 -0.000852 -0.000906 0.000118 -0.005048
# 3 -0.003915 -0.000852 0.011912 0.001429 -0.004414 0.003115
# 4 -0.012005 -0.000906 0.001429 0.031632 -0.005757 -0.001895
# 5 0.007593 0.000118 -0.004414 -0.005757 0.032607 -0.008572
# 6 -0.007730 -0.005048 0.003115 -0.001895 -0.008572 0.033898
#
#
# Mechanical properties :
#
#
# Convention : Reuss Voigt Hill
#
# Bulk Modulus (GPa) = 25.27686 35.69520 30.48603
# Shear Modulus (GPa) = 29.13372 38.53133 33.83253
#
# Velocity S-wave (km/s) = 3.52680 4.05592 3.80058
# Velocity P-wave (km/s) = 5.23222 6.09702 5.68110
#
# Compressibility (1/GPa) = 0.03956187
#
# Stress axis : x y z
#
# Youngs Moduli (GPa) = 34.65240 109.15953 83.95215
#
# Poissons Ratio (x) = 0.04548 0.32871
# Poissons Ratio (y) = 0.01444 0.07154
# Poissons Ratio (z) = 0.13568 0.09303
#
# Static dielectric constant tensor:
#      x y z
#    x 1.934240 0.435700 0.159580 
#    y 0.435700 1.546170 -0.038430 
#    z 0.159580 -0.038430 1.850250 
# 
# From -- ./inp_files/150550.got.cif
#   From: 2010.05.17/outbox.cif.g08.bks.cpg/sg2_76_cif.got.tgz:150550.got - 2010.06.03 11:33:40.
