data_PCOD9043139
_publ_section_title
;
Structure prediction by ZEFSAII (Michael W. Deem and Ramdas Pophale) SiO2 
 PCOD9043139
Probable space group: P -1
;
_chemical_formula_sum "Si O2"
_cell_formula_units_Z 16
_cell_length_a 16.244041
_cell_length_b 9.371611
_cell_length_c 8.917935
_cell_angle_alpha 73.983427
_cell_angle_beta 117.061901
_cell_angle_gamma 143.032869
_cell_volume 717.230838
_symmetry_space_group_name_H-M "P -1"
_symmetry_group_IT_number 2
_symmetry_cell_setting 'triclinic'
loop_
_space_group_symop_operation_xyz
x,y,z
-x,-y,-z
loop_
_atom_site_type_symbol
_atom_site_label
_atom_site_fract_x
_atom_site_fract_y
_atom_site_fract_z
Si Si1 0.480824 0.560761 0.687537
Si Si2 0.510164 0.739666 0.334680
Si Si3 0.771773 0.423152 0.785454
Si Si4 0.952754 0.666134 0.366254
Si Si5 0.036775 0.873568 0.073720
Si Si6 0.189720 0.815609 0.716182
Si Si7 0.276793 0.976101 0.085239
Si Si8 0.836775 0.719747 0.469070
O O1 0.524791 0.695571 0.528360
O O2 0.533676 0.457967 0.746224
O O3 0.300694 0.340217 0.614005
O O4 0.556798 0.754073 0.823703
O O5 0.384669 0.707414 0.247374
O O6 0.666984 0.992253 0.327789
O O7 0.755320 0.225093 0.805406
O O8 0.818954 0.582753 0.633893
O O9 0.896491 0.611652 0.959150
O O10 0.881181 0.434167 0.296766
O O11 0.823666 0.608174 0.338625
O O12 0.054913 0.867906 0.266349
O O13 0.057659 0.754866 0.566099
O O14 0.175520 0.978116 0.071687
O O15 0.000000 0.000000 0.000000
O O16 0.236607 0.905447 0.898754
O O17 0.000000 0.000000 0.500000
#
# Coordination Sequence:
#
# PCOD9043139 Si02
#       8
#     2   2   2   2   2   2   2   2
#     4  10  24  44  71 103 141 186 232 288 357 418
#     4  10  23  45  69 100 138 183 233 285 356 421
#     4  11  25  42  71 102 142 185 233 294 352 416
#     4  11  25  42  69 103 135 186 239 287 351 413
#     4  12  25  45  71 101 142 185 235 291 354 418
#     4  11  25  43  70 101 141 184 232 297 342 417
#     4  12  26  45  70 105 143 183 236 294 353 419
#     4  11  24  43  71 105 143 185 237 291 353 422
#
# _framework density 22.308021
#
# number of rings (size 3 to 8) (size 9 to 14) (size 15 to 20)
#    0.000    1.000    1.250    4.125    7.000    6.000 
#    0.000    0.000    0.000    0.000    0.000    0.000 
#    0.000    0.000    0.000    0.000    0.000    0.000 
#
# Total GULP energy -89478.431831 kJ/mol
# GULP energy per Si atom -5592.401989 kJ/mol
# Density = 2.225725 g / cm^3
# Si number density = 22.308021 Si / 1000 Ang^3
#
#
#
# Elastic Constant Matrix: (Units=GPa)
#
#
# Indices 1 2 3 4 5 6 
#
# 1 142.0191 51.3901 25.8698 -7.3767 -1.4673 7.8731
# 2 51.3901 108.3738 34.5232 3.2088 7.6198 -3.8835
# 3 25.8698 34.5232 62.7616 16.1742 -20.1932 -3.2612
# 4 -7.3767 3.2088 16.1742 23.7353 3.4129 -11.4236
# 5 -1.4673 7.6198 -20.1932 3.4129 23.4026 -0.2677
# 6 7.8731 -3.8835 -3.2612 -11.4236 -0.2677 41.5771
#
#
#
# Elastic Compliance Matrix: (Units=1/GPa)
#
#
# Indices 1 2 3 4 5 6 
#
# 1 0.009469 -0.002161 -0.006841 0.008648 -0.005869 -0.000193
# 2 -0.002161 0.020441 -0.026168 0.022009 -0.032510 0.006104
# 3 -0.006841 -0.026168 0.078395 -0.071097 0.085944 -0.013981
# 4 0.008648 0.022009 -0.071097 0.114879 -0.084429 0.025862
# 5 -0.005869 -0.032510 0.085944 -0.084429 0.139218 -0.017485
# 6 -0.000193 0.006104 -0.013981 0.025862 -0.017485 0.030555
#
#
# Mechanical properties :
#
#
# Convention : Reuss Voigt Hill
#
# Bulk Modulus (GPa) = 26.34034 59.63562 42.98798
# Shear Modulus (GPa) = 10.50525 31.16775 20.83650
#
# Velocity S-wave (km/s) = 2.17242 3.74191 3.05952
# Velocity P-wave (km/s) = 4.25743 6.74240 5.63852
#
# Compressibility (1/GPa) = 0.03796458
#
# Stress axis : x y z
#
# Youngs Moduli (GPa) = 105.61114 48.92161 12.75586
#
# Poissons Ratio (x) = 0.10572 0.08727
# Poissons Ratio (y) = 0.22822 0.33379
# Poissons Ratio (z) = 0.72251 1.28018
#
# Static dielectric constant tensor:
#      x y z
#    x 1.826320 -0.032100 0.026950 
#    y -0.032100 1.859410 -0.015180 
#    z 0.026950 -0.015180 1.824520 
# 
# From -- ./inp_files/298327.got.cif
#   From: 2010.05.17/outbox.cif.g08.bks.cpg/sg2_150_cif.got.tgz:298327.got - 2010.06.03 11:33:40.
