data_PCOD9043021
_publ_section_title
;
Structure prediction by ZEFSAII (Michael W. Deem and Ramdas Pophale) SiO2 
 PCOD9043021
Probable space group: P -1
;
_chemical_formula_sum "Si O2"
_cell_formula_units_Z 16
_cell_length_a 11.966396
_cell_length_b 9.537712
_cell_length_c 15.851366
_cell_angle_alpha 51.533509
_cell_angle_beta 151.906464
_cell_angle_gamma 130.186681
_cell_volume 643.795221
_symmetry_space_group_name_H-M "P -1"
_symmetry_group_IT_number 2
_symmetry_cell_setting 'triclinic'
loop_
_space_group_symop_operation_xyz
x,y,z
-x,-y,-z
loop_
_atom_site_type_symbol
_atom_site_label
_atom_site_fract_x
_atom_site_fract_y
_atom_site_fract_z
Si Si1 0.387025 0.889067 0.093187
Si Si2 0.768768 0.631708 0.633469
Si Si3 0.866777 0.024091 0.280760
Si Si4 0.734333 0.527075 0.825360
Si Si5 0.499719 0.772804 0.646946
Si Si6 0.104954 0.691300 0.549884
Si Si7 0.007639 0.038293 0.892175
Si Si8 0.031508 0.569216 0.295954
O O1 0.421202 0.683674 0.208454
O O2 0.663057 0.014100 0.220084
O O3 0.252161 0.903555 0.908186
O O4 0.205905 0.945202 0.017790
O O5 0.500000 0.500000 0.500000
O O6 0.758506 0.671979 0.710819
O O7 0.924887 0.503815 0.740640
O O8 0.875052 0.827436 0.586985
O O9 0.924803 0.827081 0.377456
O O10 0.656387 0.619839 0.820260
O O11 0.000000 0.500000 0.000000
O O12 0.350973 0.794002 0.624135
O O13 0.296294 0.661096 0.484917
O O14 0.720944 0.953350 0.703965
O O15 0.000000 0.500000 0.500000
O O16 0.113273 0.606258 0.679921
O O17 0.085218 0.257808 0.845294
O O18 0.000000 0.000000 0.000000
#
# Coordination Sequence:
#
# PCOD9043021 Si02
#       8
#     2   2   2   2   2   2   2   2
#     4  11  23  44  70  99 141 178 234 277 358 416
#     4  12  26  44  68 106 138 179 236 291 347 407
#     4  11  25  44  71 103 135 186 230 293 341 417
#     4  12  22  43  71 102 141 179 229 282 348 420
#     4  11  23  43  71  98 134 185 229 285 347 409
#     4  10  23  45  68 100 135 181 236 278 346 411
#     4  12  26  43  68 104 138 179 229 288 347 412
#     4  11  25  45  67  98 140 180 231 286 344 413
#
# _framework density 24.852623000000001
#
# number of rings (size 3 to 8) (size 9 to 14) (size 15 to 20)
#    0.000    0.750    3.750    4.125    1.750    2.500 
#    0.000    1.250    0.000    0.000    0.000    0.000 
#    0.000    0.000    0.000    0.000    0.000    0.000 
#
# Total GULP energy -89256.686205 kJ/mol
# GULP energy per Si atom -5578.542888 kJ/mol
# Density = 2.479606 g / cm^3
# Si number density = 24.852623 Si / 1000 Ang^3
#
#
#
# Elastic Constant Matrix: (Units=GPa)
#
#
# Indices 1 2 3 4 5 6 
#
# 1 145.3418 31.9336 32.2570 -4.1537 36.9243 11.4677
# 2 31.9336 139.6457 20.6705 -8.9033 15.8968 14.6601
# 3 32.2570 20.6705 43.7717 -2.1777 14.4718 3.6244
# 4 -4.1537 -8.9033 -2.1777 33.2586 1.0443 8.0507
# 5 36.9243 15.8968 14.4718 1.0443 46.9144 1.1918
# 6 11.4677 14.6601 3.6244 8.0507 1.1918 40.5844
#
#
#
# Elastic Compliance Matrix: (Units=1/GPa)
#
#
# Indices 1 2 3 4 5 6 
#
# 1 0.009804 -0.000517 -0.004711 0.001521 -0.006063 -0.002286
# 2 -0.000517 0.008362 -0.002639 0.002813 -0.001595 -0.003150
# 3 -0.004711 -0.002639 0.029082 0.000831 -0.004378 -0.000349
# 4 0.001521 0.002813 0.000831 0.033093 -0.002940 -0.007999
# 5 -0.006063 -0.001595 -0.004378 -0.002940 0.027982 0.002442
# 6 -0.002286 -0.003150 -0.000349 -0.007999 0.002442 0.027970
#
#
# Mechanical properties :
#
#
# Convention : Reuss Voigt Hill
#
# Bulk Modulus (GPa) = 31.73400 55.38684 43.56042
# Shear Modulus (GPa) = 30.76324 40.41134 35.58729
#
# Velocity S-wave (km/s) = 3.52209 4.03679 3.78819
# Velocity P-wave (km/s) = 5.41634 6.63793 6.05801
#
# Compressibility (1/GPa) = 0.03151194
#
# Stress axis : x y z
#
# Youngs Moduli (GPa) = 102.00105 119.59533 34.38593
#
# Poissons Ratio (x) = 0.06187 0.16199
# Poissons Ratio (y) = 0.05277 0.09076
# Poissons Ratio (z) = 0.48051 0.31566
#
# Static dielectric constant tensor:
#      x y z
#    x 2.012960 0.060660 -0.153870 
#    y 0.060660 2.116630 -0.075910 
#    z -0.153870 -0.075910 2.319320 
# 
# From -- ./inp_files/566598.got.cif
#   From: 2010.05.17/outbox.cif.g08.bks.cpg/sg2_284_cif.got.tgz:566598.got - 2010.06.03 11:33:40.
