data_PCOD9043287
_publ_section_title
;
Structure prediction by ZEFSAII (Michael W. Deem and Ramdas Pophale) SiO2 
 PCOD9043287
Probable space group: P -1
;
_chemical_formula_sum "Si O2"
_cell_formula_units_Z 14
_cell_length_a 19.775674
_cell_length_b 12.208764
_cell_length_c 15.008840
_cell_angle_alpha 150.030055
_cell_angle_beta 19.922309
_cell_angle_gamma 149.029230
_cell_volume 596.824625
_symmetry_space_group_name_H-M "P -1"
_symmetry_group_IT_number 2
_symmetry_cell_setting 'triclinic'
loop_
_space_group_symop_operation_xyz
x,y,z
-x,-y,-z
loop_
_atom_site_type_symbol
_atom_site_label
_atom_site_fract_x
_atom_site_fract_y
_atom_site_fract_z
Si Si1 0.850356 0.630217 0.940260
Si Si2 0.863914 0.244427 0.077269
Si Si3 0.344141 0.156743 0.828209
Si Si4 0.591814 0.119650 0.878761
Si Si5 0.245764 0.539633 0.462399
Si Si6 0.822375 0.947556 0.756896
Si Si7 0.300165 0.306353 0.635703
O O1 0.788461 0.767660 0.031809
O O2 0.745233 0.696181 0.205475
O O3 0.746445 0.363470 0.868350
O O4 0.090766 0.660319 0.687241
O O5 0.104578 0.354173 0.862332
O O6 0.812834 0.160903 0.981003
O O7 0.764705 0.400563 0.375467
O O8 0.806845 0.002739 0.029056
O O9 0.517771 0.375890 0.799542
O O10 0.500000 0.000000 0.500000
O O11 0.686068 0.938033 0.584972
O O12 0.395226 0.140205 0.081989
O O13 0.500000 0.000000 0.000000
O O14 0.153468 0.273560 0.376583
O O15 0.000000 0.000000 0.500000
O O16 0.500000 0.500000 0.500000
#
# Coordination Sequence:
#
# PCOD9043287 Si02
#       7
#     2   2   2   2   2   2   2
#     4  11  23  45  71 101 142 180 226 287 343 399
#     4  10  25  45  65 100 134 176 234 278 345 404
#     4  10  23  45  70 101 139 181 237 283 334 413
#     4  12  24  43  67 102 137 177 227 280 345 413
#     4  10  23  45  71 100 135 182 227 282 344 403
#     4  12  26  42  69  98 141 179 227 291 341 413
#     4  11  24  41  70 100 135 180 226 282 349 415
#
# _framework density 23.457476
#
# number of rings (size 3 to 8) (size 9 to 14) (size 15 to 20)
#    0.000    1.143    2.857    2.571    6.000    6.286 
#    0.000    1.429    0.000    0.000    0.000    0.000 
#    0.000    0.000    0.000    0.000    0.000    0.000 
#
# Total GULP energy -78270.690812 kJ/mol
# GULP energy per Si atom -5590.763629 kJ/mol
# Density = 2.340409 g / cm^3
# Si number density = 23.457476 Si / 1000 Ang^3
#
#
#
# Elastic Constant Matrix: (Units=GPa)
#
#
# Indices 1 2 3 4 5 6 
#
# 1 100.3328 26.4308 36.9078 3.0027 -1.0612 8.0502
# 2 26.4308 114.1054 21.2928 7.2083 8.5739 5.1382
# 3 36.9078 21.2928 54.2091 20.4457 0.9710 11.6217
# 4 3.0027 7.2083 20.4457 44.9410 23.2908 -8.6801
# 5 -1.0612 8.5739 0.9710 23.2908 28.4448 17.9713
# 6 8.0502 5.1382 11.6217 -8.6801 17.9713 36.6483
#
#
#
# Elastic Compliance Matrix: (Units=1/GPa)
#
#
# Indices 1 2 3 4 5 6 
#
# 1 0.013121 -0.002316 -0.004470 -0.005541 0.010759 -0.007728
# 2 -0.002316 0.009148 0.001963 -0.007153 0.007098 -0.006571
# 3 -0.004470 0.001963 -0.004534 0.044603 -0.065423 0.044790
# 4 -0.005541 -0.007153 0.044603 -0.062616 0.099394 -0.075495
# 5 0.010759 0.007098 -0.065423 0.099394 -0.103730 0.091795
# 6 -0.007728 -0.006571 0.044790 -0.075495 0.091795 -0.047193
#
#
# Mechanical properties :
#
#
# Convention : Reuss Voigt Hill
#
# Bulk Modulus (GPa) = 123.60880 48.65666 86.13273
# Shear Modulus (GPa) = -27.25376 34.27455 3.51039
#
# Velocity S-wave (km/s) = -3.41227 3.82663 1.22464
# Velocity P-wave (km/s) = 6.10610 6.34914 6.22881
#
# Compressibility (1/GPa) = 0.00809004
#
# Stress axis : x y z
#
# Youngs Moduli (GPa) = 76.21512 109.30886 -220.56392
#
# Poissons Ratio (x) = 0.25311 -0.98587
# Poissons Ratio (y) = 0.17648 0.43291
# Poissons Ratio (z) = 0.34067 -0.21454
#
# Static dielectric constant tensor:
#      x y z
#    x 1.954260 -0.028530 -0.001950 
#    y -0.028530 1.989980 0.046700 
#    z -0.001950 0.046700 1.928830 
# 
# From -- ./inp_files/255468.got.cif
#   From: 2010.05.17/outbox.cif.g08.bks.cpg/sg2_128_cif.got.tgz:255468.got - 2010.06.03 11:33:40.
