data_PCOD9043752
_publ_section_title
;
Structure prediction by ZEFSAII (Michael W. Deem and Ramdas Pophale) SiO2 
 PCOD9043752
Probable space group: P -1
;
_chemical_formula_sum "Si O2"
_cell_formula_units_Z 16
_cell_length_a 21.891242
_cell_length_b 17.084855
_cell_length_c 11.587841
_cell_angle_alpha 33.748274
_cell_angle_beta 28.577377
_cell_angle_gamma 18.457597
_cell_volume 656.324571
_symmetry_space_group_name_H-M "P -1"
_symmetry_group_IT_number 2
_symmetry_cell_setting 'triclinic'
loop_
_space_group_symop_operation_xyz
x,y,z
-x,-y,-z
loop_
_atom_site_type_symbol
_atom_site_label
_atom_site_fract_x
_atom_site_fract_y
_atom_site_fract_z
Si Si1 0.825231 0.284943 0.470129
Si Si2 0.028888 0.339534 0.231132
Si Si3 0.540541 0.069230 0.073831
Si Si4 0.845712 0.777174 0.403733
Si Si5 0.362521 0.983000 0.773405
Si Si6 0.941558 0.859603 0.366515
Si Si7 0.421168 0.512522 0.994581
Si Si8 0.478194 0.363832 0.652440
O O1 0.590145 0.431318 0.724063
O O2 0.735943 0.450482 0.304330
O O3 0.928491 0.295018 0.383442
O O4 0.000000 0.000000 0.500000
O O5 0.967650 0.358220 0.441175
O O6 0.000000 0.500000 0.000000
O O7 0.296026 0.111837 0.078931
O O8 0.393341 0.070807 0.348633
O O9 0.689406 0.967682 0.064912
O O10 0.429166 0.309534 0.912578
O O11 0.000000 0.500000 0.500000
O O12 0.826359 0.849198 0.216871
O O13 0.898628 0.845422 0.326473
O O14 0.500000 0.000000 0.500000
O O15 0.517362 0.707274 0.842129
O O16 0.845881 0.229059 0.885426
O O17 0.715541 0.118320 0.490153
O O18 0.500000 0.500000 0.000000
O O19 0.500000 0.500000 0.500000
#
# Coordination Sequence:
#
# PCOD9043752 Si02
#       8
#     2   2   2   2   2   2   2   2
#     4  12  27  49  76 111 149 208 254 306 389 461
#     4  11  26  42  76 104 143 196 251 308 374 451
#     4  10  24  46  69 103 145 190 248 311 375 448
#     4  11  26  43  72 109 149 192 249 316 383 447
#     4  10  23  45  74  99 144 197 249 302 374 453
#     4  11  26  47  72 114 151 193 258 314 386 448
#     4  12  26  47  74 106 155 195 253 311 378 465
#     4  11  26  47  75 106 152 193 256 315 379 456
#
# _framework density 24.378181000000001
#
# number of rings (size 3 to 8) (size 9 to 14) (size 15 to 20)
#    0.000    1.000    1.250    4.500   10.500    2.500 
#    0.000    0.000    0.000    0.000    0.000    0.000 
#    0.000    0.000    0.000    0.000    0.000    0.000 
#
# Total GULP energy -89296.867382 kJ/mol
# GULP energy per Si atom -5581.054211 kJ/mol
# Density = 2.432270 g / cm^3
# Si number density = 24.378181 Si / 1000 Ang^3
#
#
#
# Elastic Constant Matrix: (Units=GPa)
#
#
# Indices 1 2 3 4 5 6 
#
# 1 139.9495 26.1133 31.3798 5.3608 9.9267 -16.6355
# 2 26.1133 86.1920 29.7441 13.1800 3.8838 -2.9422
# 3 31.3798 29.7441 114.2198 1.1653 12.9598 -10.4327
# 4 5.3608 13.1800 1.1653 46.4005 -4.3411 -2.2558
# 5 9.9267 3.8838 12.9598 -4.3411 42.9553 -10.8688
# 6 -16.6355 -2.9422 -10.4327 -2.2558 -10.8688 35.9758
#
#
#
# Elastic Compliance Matrix: (Units=1/GPa)
#
#
# Indices 1 2 3 4 5 6 
#
# 1 0.008221 -0.001818 -0.001440 -0.000301 -0.000560 0.003047
# 2 -0.001818 0.013775 -0.003081 -0.003723 -0.000525 -0.001000
# 3 -0.001440 -0.003081 0.010316 0.000663 -0.002056 0.001494
# 4 -0.000301 -0.003723 0.000663 0.023017 0.003069 0.002119
# 5 -0.000560 -0.000525 -0.002056 0.003069 0.026213 0.007213
# 6 0.003047 -0.001000 0.001494 0.002119 0.007213 0.031869
#
#
# Mechanical properties :
#
#
# Convention : Reuss Voigt Hill
#
# Bulk Modulus (GPa) = 50.93593 57.20396 54.06995
# Shear Modulus (GPa) = 37.69739 41.94126 39.81932
#
# Velocity S-wave (km/s) = 3.93664 4.15232 4.04592
# Velocity P-wave (km/s) = 6.44998 6.81947 6.63730
#
# Compressibility (1/GPa) = 0.01963251
#
# Stress axis : x y z
#
# Youngs Moduli (GPa) = 121.63795 72.59475 96.93578
#
# Poissons Ratio (x) = 0.13201 0.13960
# Poissons Ratio (y) = 0.22119 0.29870
# Poissons Ratio (z) = 0.17517 0.22369
#
# Static dielectric constant tensor:
#      x y z
#    x 1.939620 -0.088020 0.094110 
#    y -0.088020 2.156270 -0.234360 
#    z 0.094110 -0.234360 2.230260 
# 
# From -- ./inp_files/475326.got.cif
#   From: 2010.05.17/outbox.cif.g08.bks.cpg/sg2_238_cif.got.tgz:475326.got - 2010.06.03 11:33:40.
