data_PCOD9043947
_publ_section_title
;
Structure prediction by ZEFSAII (Michael W. Deem and Ramdas Pophale) SiO2 
 PCOD9043947
Probable space group: P -1
;
_chemical_formula_sum "Si O2"
_cell_formula_units_Z 14
_cell_length_a 13.097716
_cell_length_b 11.403539
_cell_length_c 8.831658
_cell_angle_alpha 123.883672
_cell_angle_beta 132.036542
_cell_angle_gamma 32.538744
_cell_volume 526.880460
_symmetry_space_group_name_H-M "P -1"
_symmetry_group_IT_number 2
_symmetry_cell_setting 'triclinic'
loop_
_space_group_symop_operation_xyz
x,y,z
-x,-y,-z
loop_
_atom_site_type_symbol
_atom_site_label
_atom_site_fract_x
_atom_site_fract_y
_atom_site_fract_z
Si Si1 0.773304 0.614532 0.472488
Si Si2 0.723257 0.250345 0.322240
Si Si3 0.325942 0.986105 0.368212
Si Si4 0.129448 0.147381 0.977574
Si Si5 0.799444 0.744418 0.168891
Si Si6 0.709626 0.525646 0.026167
Si Si7 0.149447 0.007576 0.472129
O O1 0.736650 0.803007 0.507883
O O2 0.981086 0.460341 0.671023
O O3 0.770590 0.512757 0.251569
O O4 0.566751 0.753453 0.470837
O O5 0.902821 0.220764 0.430426
O O6 0.738007 0.209483 0.486499
O O7 0.486619 0.428369 0.152570
O O8 0.837996 0.020873 0.203600
O O9 0.175327 0.993716 0.308785
O O10 0.303744 0.002284 0.177143
O O11 0.158269 0.250563 0.960483
O O12 0.909523 0.323509 0.977626
O O13 0.652912 0.724255 0.040518
O O14 0.727738 0.947410 0.319662
#
# Coordination Sequence:
#
# PCOD9043947 Si02
#       7
#     2   2   2   2   2   2   2
#     4  11  23  39  64 103 132 170 215 266 333 389
#     4  10  25  46  64  98 132 174 222 260 326 394
#     4  11  22  40  66  95 137 171 212 270 331 377
#     4  11  24  41  65 101 131 167 220 271 320 387
#     4  11  23  41  68  99 131 167 221 269 325 385
#     4  12  22  41  69  95 132 169 213 277 317 381
#     4  10  23  46  67  89 137 176 211 272 325 386
#
# _framework density 26.571493
#
# number of rings (size 3 to 8) (size 9 to 14) (size 15 to 20)
#    0.000    1.143    4.286    1.714    2.000    4.000 
#    2.571    3.571    0.000    0.000    0.000    0.000 
#    0.000    0.000    0.000    0.000    0.000    0.000 
#
# Total GULP energy -78344.945915 kJ/mol
# GULP energy per Si atom -5596.067565 kJ/mol
# Density = 2.651102 g / cm^3
# Si number density = 26.571493 Si / 1000 Ang^3
#
#
#
# Elastic Constant Matrix: (Units=GPa)
#
#
# Indices 1 2 3 4 5 6 
#
# 1 127.0518 17.6372 22.1387 -17.4387 -22.4828 -8.2953
# 2 17.6372 65.3832 16.8376 -17.4314 -6.3845 -19.5446
# 3 22.1387 16.8376 94.2475 -23.8451 -12.4946 -0.8186
# 4 -17.4387 -17.4314 -23.8451 48.0169 -1.7805 6.7932
# 5 -22.4828 -6.3845 -12.4946 -1.7805 45.9037 -4.3529
# 6 -8.2953 -19.5446 -0.8186 6.7932 -4.3529 29.7022
#
#
#
# Elastic Compliance Matrix: (Units=1/GPa)
#
#
# Indices 1 2 3 4 5 6 
#
# 1 0.009425 -0.000447 -0.000814 0.002692 0.004663 0.002383
# 2 -0.000447 0.021617 -0.001882 0.004985 0.003745 0.013456
# 3 -0.000814 -0.001882 0.012990 0.005866 0.002911 -0.002023
# 4 0.002692 0.004985 0.005866 0.026877 0.004529 -0.001289
# 5 0.004663 0.003745 0.002911 0.004529 0.026188 0.006649
# 6 0.002383 0.013456 -0.002023 -0.001289 0.006649 0.044401
#
#
# Mechanical properties :
#
#
# Convention : Reuss Voigt Hill
#
# Bulk Modulus (GPa) = 26.49352 44.43437 35.46395
# Shear Modulus (GPa) = 31.17845 40.06249 35.62047
#
# Velocity S-wave (km/s) = 3.42918 3.88716 3.66533
# Velocity P-wave (km/s) = 5.06669 6.07499 5.59361
#
# Compressibility (1/GPa) = 0.03774508
#
# Stress axis : x y z
#
# Youngs Moduli (GPa) = 106.10130 46.25984 76.98002
#
# Poissons Ratio (x) = 0.02070 0.06267
# Poissons Ratio (y) = 0.04747 0.14489
# Poissons Ratio (z) = 0.08637 0.08707
#
# Static dielectric constant tensor:
#      x y z
#    x 2.187480 0.009030 0.000020 
#    y 0.009030 2.119900 0.017530 
#    z 0.000020 0.017530 2.131860 
# 
# From -- ./inp_files/176582.got.cif
#   From: 2010.05.17/outbox.cif.g08.bks.cpg/sg2_89_cif.got.tgz:176582.got - 2010.06.03 11:33:40.
