data_PCOD9043353
_publ_section_title
;
Structure prediction by ZEFSAII (Michael W. Deem and Ramdas Pophale) SiO2 
 PCOD9043353
Probable space group: P -1
;
_chemical_formula_sum "Si O2"
_cell_formula_units_Z 16
_cell_length_a 14.140832
_cell_length_b 8.688375
_cell_length_c 12.043829
_cell_angle_alpha 102.776988
_cell_angle_beta 149.102460
_cell_angle_gamma 69.284525
_cell_volume 700.185633
_symmetry_space_group_name_H-M "P -1"
_symmetry_group_IT_number 2
_symmetry_cell_setting 'triclinic'
loop_
_space_group_symop_operation_xyz
x,y,z
-x,-y,-z
loop_
_atom_site_type_symbol
_atom_site_label
_atom_site_fract_x
_atom_site_fract_y
_atom_site_fract_z
Si Si1 0.275110 0.605573 0.276020
Si Si2 0.108477 0.813011 0.459090
Si Si3 0.144950 0.769018 0.953859
Si Si4 0.775820 0.043385 0.615093
Si Si5 0.776226 0.534924 0.577714
Si Si6 0.478893 0.904566 0.350176
Si Si7 0.033660 0.353189 0.421405
Si Si8 0.733895 0.937108 0.232304
O O1 0.500000 0.500000 0.500000
O O2 0.258075 0.795168 0.318752
O O3 0.164275 0.536197 0.248810
O O4 0.217434 0.618055 0.091357
O O5 0.115442 0.920591 0.376104
O O6 0.244476 0.627644 0.532197
O O7 0.885925 0.836197 0.272977
O O8 0.204200 0.897204 0.661910
O O9 0.141235 0.704994 0.813543
O O10 0.269470 0.895419 0.107681
O O11 0.927983 0.878036 0.793229
O O12 0.579316 0.002295 0.384407
O O13 0.601576 0.707481 0.445866
O O14 0.904238 0.585748 0.622213
O O15 0.500000 0.000000 0.500000
O O16 0.192210 0.194251 0.612325
O O17 0.000000 0.500000 0.500000
O O18 0.500000 0.000000 0.000000
#
# Coordination Sequence:
#
# PCOD9043353 Si02
#       8
#     2   2   2   2   2   2   2   2
#     4  11  23  45  71 111 153 190 252 309 378 458
#     4  10  23  45  70 108 150 190 253 313 379 448
#     4  12  25  45  79 104 152 206 242 316 384 437
#     4  11  23  44  72 105 152 189 249 304 377 458
#     4  11  23  45  74 108 157 196 242 323 373 452
#     4  12  24  44  75 111 147 198 262 304 380 462
#     4  12  26  51  74 111 150 198 264 306 379 462
#     4  11  24  48  78 103 147 201 259 322 371 444
#
# _framework density 22.851082000000002
#
# number of rings (size 3 to 8) (size 9 to 14) (size 15 to 20)
#    0.000    0.750    6.250    0.375    0.000    3.500 
#    0.000    3.750    0.000    0.000    0.000    0.000 
#    0.000    0.000    0.000    0.000    0.000    0.000 
#
# Total GULP energy -89141.695233 kJ/mol
# GULP energy per Si atom -5571.355952 kJ/mol
# Density = 2.279907 g / cm^3
# Si number density = 22.851082 Si / 1000 Ang^3
#
#
#
# Elastic Constant Matrix: (Units=GPa)
#
#
# Indices 1 2 3 4 5 6 
#
# 1 129.7286 28.3326 54.9821 11.1944 -4.1354 7.9108
# 2 28.3326 134.5001 43.6574 0.4300 -7.3861 -29.0498
# 3 54.9821 43.6574 108.4232 7.5263 -4.1375 -1.7143
# 4 11.1944 0.4300 7.5263 31.1107 4.0909 -4.9844
# 5 -4.1354 -7.3861 -4.1375 4.0909 30.7508 -0.7591
# 6 7.9108 -29.0498 -1.7143 -4.9844 -0.7591 58.5457
#
#
#
# Elastic Compliance Matrix: (Units=1/GPa)
#
#
# Indices 1 2 3 4 5 6 
#
# 1 0.010331 -0.001144 -0.004569 -0.003085 0.000852 -0.002349
# 2 -0.001144 0.009990 -0.003415 0.001708 0.001687 0.005179
# 3 -0.004569 -0.003415 0.013037 -0.001664 0.000520 -0.000830
# 4 -0.003085 0.001708 -0.001664 0.034921 -0.004772 0.004126
# 5 0.000852 0.001687 0.000520 -0.004772 0.033763 0.000769
# 6 -0.002349 0.005179 -0.000830 0.004126 0.000769 0.020305
#
#
# Mechanical properties :
#
#
# Convention : Reuss Voigt Hill
#
# Bulk Modulus (GPa) = 66.21044 69.62179 67.91611
# Shear Modulus (GPa) = 34.33195 40.46007 37.39601
#
# Velocity S-wave (km/s) = 3.88031 4.21241 4.04977
# Velocity P-wave (km/s) = 7.00810 7.36159 7.18702
#
# Compressibility (1/GPa) = 0.01510336
#
# Stress axis : x y z
#
# Youngs Moduli (GPa) = 96.79381 100.10012 76.70323
#
# Poissons Ratio (x) = 0.11451 0.35045
# Poissons Ratio (y) = 0.11073 0.26192
# Poissons Ratio (z) = 0.44224 0.34181
#
# Static dielectric constant tensor:
#      x y z
#    x 1.992220 0.027220 -0.006620 
#    y 0.027220 1.925040 0.046190 
#    z -0.006620 0.046190 1.912830 
# 
# From -- ./inp_files/447694.got.cif
#   From: 2010.05.17/outbox.cif.g08.bks.cpg/sg2_224_cif.got.tgz:447694.got - 2010.06.03 11:33:40.
