data_PCOD9043055
_publ_section_title
;
Structure prediction by ZEFSAII (Michael W. Deem and Ramdas Pophale) SiO2 
 PCOD9043055
Probable space group: P -1
;
_chemical_formula_sum "Si O2"
_cell_formula_units_Z 16
_cell_length_a 23.949714
_cell_length_b 8.804525
_cell_length_c 21.185443
_cell_angle_alpha 151.468946
_cell_angle_beta 21.014247
_cell_angle_gamma 141.319016
_cell_volume 744.543554
_symmetry_space_group_name_H-M "P -1"
_symmetry_group_IT_number 2
_symmetry_cell_setting 'triclinic'
loop_
_space_group_symop_operation_xyz
x,y,z
-x,-y,-z
loop_
_atom_site_type_symbol
_atom_site_label
_atom_site_fract_x
_atom_site_fract_y
_atom_site_fract_z
Si Si1 0.042080 0.212959 0.476991
Si Si2 0.625514 0.278957 0.741485
Si Si3 0.051120 0.027068 0.647684
Si Si4 0.830290 0.938733 0.958290
Si Si5 0.120903 0.731202 0.847405
Si Si6 0.469379 0.137444 0.403870
Si Si7 0.643192 0.724406 0.774330
Si Si8 0.757029 0.118680 0.351554
O O1 0.230821 0.162477 0.271559
O O2 0.948200 0.589702 0.722219
O O3 0.000000 0.000000 0.500000
O O4 0.990321 0.093042 0.420776
O O5 0.589528 0.471863 0.784611
O O6 0.800597 0.226810 0.568308
O O7 0.603569 0.932427 0.612586
O O8 0.500000 0.500000 0.000000
O O9 0.105275 0.367871 0.714069
O O10 0.898067 0.052540 0.863544
O O11 0.836535 0.202747 0.102025
O O12 0.648504 0.909770 0.135782
O O13 0.240167 0.856378 0.718534
O O14 0.939542 0.944912 0.110505
O O15 0.500000 0.500000 0.500000
O O16 0.358969 0.065731 0.553345
O O17 0.725869 0.491429 0.545581
O O18 0.500000 0.000000 0.000000
#
# Coordination Sequence:
#
# PCOD9043055 Si02
#       8
#     2   2   2   2   2   2   2   2
#     4  12  27  44  70 107 140 186 245 292 356 421
#     4  11  25  44  69 101 139 186 236 291 354 424
#     4  12  25  45  75 105 141 188 245 297 356 432
#     4  12  24  45  70 103 144 186 237 301 354 427
#     4  11  23  44  75  99 141 190 237 295 361 430
#     4  11  24  44  68 102 143 181 237 295 359 425
#     4  11  25  47  71 101 144 187 232 292 356 428
#     4  10  23  45  68 103 139 188 240 290 360 431
#
# _framework density 21.489675999999999
#
# number of rings (size 3 to 8) (size 9 to 14) (size 15 to 20)
#    0.000    0.750    2.500    4.500   10.500    0.500 
#    0.000    0.000    0.000    0.000    0.000    0.000 
#    0.000    0.000    0.000    0.000    0.000    0.000 
#
# Total GULP energy -89306.868867 kJ/mol
# GULP energy per Si atom -5581.679304 kJ/mol
# Density = 2.144077 g / cm^3
# Si number density = 21.489676 Si / 1000 Ang^3
#
#
#
# Elastic Constant Matrix: (Units=GPa)
#
#
# Indices 1 2 3 4 5 6 
#
# 1 133.4688 50.4448 65.6273 1.7892 6.9330 11.6935
# 2 50.4448 108.8500 43.8593 -8.0465 12.9330 5.1646
# 3 65.6273 43.8593 127.6745 -5.6901 -3.9473 -5.3109
# 4 1.7892 -8.0465 -5.6901 44.9371 -6.2015 3.8144
# 5 6.9330 12.9330 -3.9473 -6.2015 50.1937 -5.8175
# 6 11.6935 5.1646 -5.3109 3.8144 -5.8175 35.0191
#
#
#
# Elastic Compliance Matrix: (Units=1/GPa)
#
#
# Indices 1 2 3 4 5 6 
#
# 1 0.011753 -0.002963 -0.005340 -0.001571 -0.001991 -0.004457
# 2 -0.002963 0.012252 -0.002782 0.001712 -0.002978 -0.001920
# 3 -0.005340 -0.002782 0.011865 0.001268 0.003050 0.004361
# 4 -0.001571 0.001712 0.001268 0.023276 0.002561 -0.001646
# 5 -0.001991 -0.002978 0.003050 0.002561 0.022096 0.004958
# 6 -0.004457 -0.001920 0.004361 -0.001646 0.004958 0.031992
#
#
# Mechanical properties :
#
#
# Convention : Reuss Voigt Hill
#
# Bulk Modulus (GPa) = 72.98956 76.65070 74.82013
# Shear Modulus (GPa) = 35.72160 40.03410 37.87785
#
# Velocity S-wave (km/s) = 4.08152 4.32087 4.20290
# Velocity P-wave (km/s) = 7.50002 7.78712 7.64492
#
# Compressibility (1/GPa) = 0.01370059
#
# Stress axis : x y z
#
# Youngs Moduli (GPa) = 85.08332 81.61681 84.27984
#
# Poissons Ratio (x) = 0.24184 0.45009
# Poissons Ratio (y) = 0.25211 0.23443
# Poissons Ratio (z) = 0.45438 0.22702
#
# Static dielectric constant tensor:
#      x y z
#    x 2.912770 0.929680 0.667650 
#    y 0.929680 3.584300 0.618580 
#    z 0.667650 0.618580 2.184610 
# 
# From -- ./inp_files/601956.got.cif
#   From: 2010.05.17/outbox.cif.g08.bks.cpg/sg2_301_cif.got.tgz:601956.got - 2010.06.03 11:33:40.
