data_PCOD9043119
_publ_section_title
;
Structure prediction by ZEFSAII (Michael W. Deem and Ramdas Pophale) SiO2 
 PCOD9043119
Probable space group: P -1
;
_chemical_formula_sum "Si O2"
_cell_formula_units_Z 14
_cell_length_a 10.906848
_cell_length_b 16.447973
_cell_length_c 6.739238
_cell_angle_alpha 57.278510
_cell_angle_beta 80.516823
_cell_angle_gamma 38.321840
_cell_volume 547.252566
_symmetry_space_group_name_H-M "P -1"
_symmetry_group_IT_number 2
_symmetry_cell_setting 'triclinic'
loop_
_space_group_symop_operation_xyz
x,y,z
-x,-y,-z
loop_
_atom_site_type_symbol
_atom_site_label
_atom_site_fract_x
_atom_site_fract_y
_atom_site_fract_z
Si Si1 0.663593 0.846950 0.565160
Si Si2 0.836412 0.024190 0.776656
Si Si3 0.264111 0.715436 0.306258
Si Si4 0.871047 0.484813 0.595899
Si Si5 0.528650 0.719719 0.732152
Si Si6 0.327756 0.082989 0.049383
Si Si7 0.837730 0.402507 0.317124
O O1 0.614791 0.766188 0.735423
O O2 0.926299 0.702821 0.672849
O O3 0.394531 0.060546 0.313219
O O4 0.625887 0.889981 0.225095
O O5 0.745880 0.172801 0.737055
O O6 0.738406 0.106309 0.473200
O O7 0.712237 0.003577 0.884509
O O8 0.102743 0.833158 0.001113
O O9 0.500000 0.500000 0.500000
O O10 0.128301 0.731424 0.469321
O O11 0.670366 0.626795 0.614601
O O12 0.776749 0.499230 0.404800
O O13 0.000000 0.500000 0.500000
O O14 0.066733 0.287524 0.881266
O O15 0.624925 0.564724 0.022194
#
# Coordination Sequence:
#
# PCOD9043119 Si02
#       7
#     2   2   2   2   2   2   2
#     4  11  23  41  64 101 150 179 228 294 357 432
#     4  10  23  45  68  98 144 179 235 301 350 424
#     4  11  24  47  75 100 138 193 248 298 351 430
#     4  12  22  38  71 100 148 190 228 291 361 426
#     4  11  25  44  68 107 146 180 240 300 360 437
#     4  11  20  39  65 102 137 181 229 290 361 427
#     4  12  24  44  71 108 139 191 243 286 368 425
#
# _framework density 25.582336000000002
#
# number of rings (size 3 to 8) (size 9 to 14) (size 15 to 20)
#    0.000    0.857    4.286    3.000    2.000    0.571 
#    5.143    0.714    0.000    0.000    0.000    0.000 
#    0.000    0.000    0.000    0.000    0.000    0.000 
#
# Total GULP energy -78090.657472 kJ/mol
# GULP energy per Si atom -5577.904105 kJ/mol
# Density = 2.552411 g / cm^3
# Si number density = 25.582336 Si / 1000 Ang^3
#
#
#
# Elastic Constant Matrix: (Units=GPa)
#
#
# Indices 1 2 3 4 5 6 
#
# 1 140.5414 13.5960 52.1833 -11.1862 -14.7763 16.2926
# 2 13.5960 79.5305 23.2760 -25.8276 -6.9546 20.3274
# 3 52.1833 23.2760 164.9634 -35.9414 16.2949 -13.0742
# 4 -11.1862 -25.8276 -35.9414 34.9809 -4.3403 0.2339
# 5 -14.7763 -6.9546 16.2949 -4.3403 40.7579 -20.3640
# 6 16.2926 20.3274 -13.0742 0.2339 -20.3640 24.8887
#
#
#
# Elastic Compliance Matrix: (Units=1/GPa)
#
#
# Indices 1 2 3 4 5 6 
#
# 1 0.009677 0.002384 -0.004067 0.000830 0.000711 -0.009844
# 2 0.002384 0.024778 -0.002384 0.015991 -0.006501 -0.028519
# 3 -0.004067 -0.002384 0.010030 0.007132 -0.000388 0.009494
# 4 0.000830 0.015991 0.007132 0.048086 0.000250 -0.010104
# 5 0.000711 -0.006501 -0.000388 0.000250 0.044287 0.040874
# 6 -0.009844 -0.028519 0.009494 -0.010104 0.040874 0.108441
#
#
# Mechanical properties :
#
#
# Convention : Reuss Voigt Hill
#
# Bulk Modulus (GPa) = 27.51097 62.57177 45.04137
# Shear Modulus (GPa) = 18.82884 39.85751 29.34317
#
# Velocity S-wave (km/s) = 2.71589 3.95144 3.39043
# Velocity P-wave (km/s) = 4.54004 6.73280 5.74207
#
# Compressibility (1/GPa) = 0.03634913
#
# Stress axis : x y z
#
# Youngs Moduli (GPa) = 103.33962 40.35845 99.70418
#
# Poissons Ratio (x) = -0.09620 0.40550
# Poissons Ratio (y) = -0.24633 0.23772
# Poissons Ratio (z) = 0.42029 0.09623
#
# Static dielectric constant tensor:
#      x y z
#    x 2.035120 0.164850 0.155060 
#    y 0.164850 2.510890 0.510930 
#    z 0.155060 0.510930 2.324690 
# 
# From -- ./inp_files/282725.got.cif
#   From: 2010.05.17/outbox.cif.g08.bks.cpg/sg2_142_cif.got.tgz:282725.got - 2010.06.03 11:33:40.
