data_PCOD9043268
_publ_section_title
;
Structure prediction by ZEFSAII (Michael W. Deem and Ramdas Pophale) SiO2 
 PCOD9043268
Probable space group: P -1
;
_chemical_formula_sum "Si O2"
_cell_formula_units_Z 16
_cell_length_a 8.945893
_cell_length_b 8.670273
_cell_length_c 24.009739
_cell_angle_alpha 47.599487
_cell_angle_beta 152.002112
_cell_angle_gamma 130.263937
_cell_volume 638.568590
_symmetry_space_group_name_H-M "P -1"
_symmetry_group_IT_number 2
_symmetry_cell_setting 'triclinic'
loop_
_space_group_symop_operation_xyz
x,y,z
-x,-y,-z
loop_
_atom_site_type_symbol
_atom_site_label
_atom_site_fract_x
_atom_site_fract_y
_atom_site_fract_z
Si Si1 0.314978 0.645401 0.441512
Si Si2 0.514979 0.714128 0.918516
Si Si3 0.912097 0.911932 0.636157
Si Si4 0.318220 0.943704 0.277364
Si Si5 0.744084 0.664846 0.409156
Si Si6 0.324610 0.958756 0.010670
Si Si7 0.398139 0.274788 0.312804
Si Si8 0.927614 0.420429 0.934196
O O1 0.500000 0.500000 0.500000
O O2 0.617793 0.792256 0.533458
O O3 0.152678 0.781510 0.309867
O O4 0.130918 0.484748 0.465421
O O5 0.210410 0.777525 0.769192
O O6 0.500000 0.500000 0.000000
O O7 0.810706 0.702647 0.977566
O O8 0.584787 0.876545 0.951545
O O9 0.767934 0.890515 0.656013
O O10 0.020454 0.150112 0.590920
O O11 0.515719 0.807946 0.333632
O O12 0.511698 0.136788 0.331584
O O13 0.044728 0.031211 0.130888
O O14 0.580674 0.480813 0.357399
O O15 0.384122 0.747429 0.114282
O O16 0.500000 0.000000 0.000000
O O17 0.119645 0.384933 0.166320
O O18 0.000000 0.500000 0.000000
#
# Coordination Sequence:
#
# PCOD9043268 Si02
#       8
#     2   2   2   2   2   2   2   2
#     4   9  23  44  70 100 138 181 232 291 344 406
#     4  12  24  40  69 102 135 184 226 280 354 417
#     4  11  23  44  70 100 139 179 235 285 342 424
#     4  11  23  45  71  99 138 184 230 287 347 409
#     4  10  23  45  70 100 136 183 229 289 349 405
#     4  12  25  43  67 102 141 181 232 282 348 428
#     4  11  23  44  67  99 141 181 229 285 347 414
#     4  12  23  43  62  98 140 180 225 285 345 415
#
# _framework density 25.056041
#
# number of rings (size 3 to 8) (size 9 to 14) (size 15 to 20)
#    0.000    1.000    2.500    4.125    3.500    4.000 
#    0.000    7.500    0.000    0.000    0.000    0.000 
#    0.000    0.000    0.000    0.000    0.000    0.000 
#
# Total GULP energy -89275.756120 kJ/mol
# GULP energy per Si atom -5579.734758 kJ/mol
# Density = 2.499901 g / cm^3
# Si number density = 25.056041 Si / 1000 Ang^3
#
#
#
# Elastic Constant Matrix: (Units=GPa)
#
#
# Indices 1 2 3 4 5 6 
#
# 1 174.8161 68.8440 43.9027 -8.0740 3.2646 0.4220
# 2 68.8440 159.6065 31.6809 -21.5531 -4.8811 13.7979
# 3 43.9027 31.6809 90.0649 -25.0527 -20.2886 12.7599
# 4 -8.0740 -21.5531 -25.0527 27.4322 4.0016 -4.2752
# 5 3.2646 -4.8811 -20.2886 4.0016 33.0407 -23.1772
# 6 0.4220 13.7979 12.7599 -4.2752 -23.1772 58.2697
#
#
#
# Elastic Compliance Matrix: (Units=1/GPa)
#
#
# Indices 1 2 3 4 5 6 
#
# 1 0.008044 -0.003169 -0.004723 -0.003899 -0.003718 -0.000038
# 2 -0.003169 0.008484 0.000413 0.005859 -0.000062 -0.001671
# 3 -0.004723 0.000413 0.020161 0.015821 0.012017 0.001462
# 4 -0.003899 0.005859 0.015821 0.053775 0.005322 0.001239
# 5 -0.003718 -0.000062 0.012017 0.005322 0.049676 0.017559
# 6 -0.000038 -0.001671 0.001462 0.001239 0.017559 0.024313
#
#
# Mechanical properties :
#
#
# Convention : Reuss Voigt Hill
#
# Bulk Modulus (GPa) = 46.01775 79.26031 62.63903
# Shear Modulus (GPa) = 26.78754 42.41917 34.60335
#
# Velocity S-wave (km/s) = 3.27326 4.11904 3.72026
# Velocity P-wave (km/s) = 5.71765 7.37047 6.59603
#
# Compressibility (1/GPa) = 0.02173074
#
# Stress axis : x y z
#
# Youngs Moduli (GPa) = 124.31886 117.86731 49.60103
#
# Poissons Ratio (x) = 0.37353 0.23426
# Poissons Ratio (y) = 0.39397 -0.02048
# Poissons Ratio (z) = 0.58716 -0.04868
#
# Static dielectric constant tensor:
#      x y z
#    x 1.969410 0.035420 0.045390 
#    y 0.035420 1.983980 0.047210 
#    z 0.045390 0.047210 1.981680 
# 
# From -- ./inp_files/606702.got.cif
#   From: 2010.05.17/outbox.cif.g08.bks.cpg/sg2_304_cif.got.tgz:606702.got - 2010.06.03 11:33:40.
