data_PCOD9043097
_publ_section_title
;
Structure prediction by ZEFSAII (Michael W. Deem and Ramdas Pophale) SiO2 
 PCOD9043097
Probable space group: P -1
;
_chemical_formula_sum "Si O2"
_cell_formula_units_Z 16
_cell_length_a 8.293462
_cell_length_b 13.641311
_cell_length_c 8.501081
_cell_angle_alpha 94.241055
_cell_angle_beta 132.834641
_cell_angle_gamma 76.091308
_cell_volume 679.167280
_symmetry_space_group_name_H-M "P -1"
_symmetry_group_IT_number 2
_symmetry_cell_setting 'triclinic'
loop_
_space_group_symop_operation_xyz
x,y,z
-x,-y,-z
loop_
_atom_site_type_symbol
_atom_site_label
_atom_site_fract_x
_atom_site_fract_y
_atom_site_fract_z
Si Si1 0.543945 0.899756 0.852111
Si Si2 0.858718 0.963229 0.539586
Si Si3 0.708575 0.388456 0.020693
Si Si4 0.265380 0.829877 0.925461
Si Si5 0.398003 0.716975 0.559968
Si Si6 0.124759 0.432454 0.222117
Si Si7 0.081411 0.873365 0.155895
Si Si8 0.700191 0.463614 0.364727
O O1 0.397497 0.004959 0.688755
O O2 0.431582 0.884359 0.945831
O O3 0.478190 0.808283 0.703795
O O4 0.812093 0.886555 0.008527
O O5 0.861509 0.034380 0.699706
O O6 0.000000 0.000000 0.500000
O O7 0.021412 0.853043 0.673603
O O8 0.623632 0.290498 0.998485
O O9 0.730579 0.456918 0.195568
O O10 0.967849 0.354755 0.132723
O O11 0.549541 0.456520 0.791864
O O12 0.183590 0.870335 0.049308
O O13 0.622364 0.633618 0.647458
O O14 0.221174 0.768244 0.315692
O O15 0.285088 0.651906 0.593292
O O16 0.149332 0.497084 0.402581
O O17 0.000000 0.500000 0.000000
#
# Coordination Sequence:
#
# PCOD9043097 Si02
#       8
#     2   2   2   2   2   2   2   2
#     4  10  23  45  68  96 134 175 214 271 345 393
#     4   9  22  44  67  99 137 169 217 275 329 405
#     4  11  24  44  65  95 134 176 223 279 336 399
#     4  11  22  43  69  99 133 168 225 278 325 400
#     4  11  23  43  62  95 132 169 222 276 324 401
#     4  12  25  40  67  94 131 180 225 275 338 394
#     4  11  24  42  71  97 132 174 222 270 335 399
#     4  11  24  43  63  92 136 174 222 276 332 401
#
# _framework density 23.558261999999999
#
# number of rings (size 3 to 8) (size 9 to 14) (size 15 to 20)
#    0.000    1.250    2.500    2.625    3.500    2.500 
#    4.500    8.750    0.000    0.000    0.000    0.000 
#    0.000    0.000    0.000    0.000    0.000    0.000 
#
# Total GULP energy -89279.308815 kJ/mol
# GULP energy per Si atom -5579.956801 kJ/mol
# Density = 2.350464 g / cm^3
# Si number density = 23.558262 Si / 1000 Ang^3
#
#
#
# Elastic Constant Matrix: (Units=GPa)
#
#
# Indices 1 2 3 4 5 6 
#
# 1 110.8437 3.2961 67.9877 1.9197 6.9264 -11.8100
# 2 3.2961 67.9311 50.0405 -12.6328 -0.1099 -6.3709
# 3 67.9877 50.0405 166.3402 -13.6185 1.8706 -0.2988
# 4 1.9197 -12.6328 -13.6185 53.9270 -6.6263 -4.0472
# 5 6.9264 -0.1099 1.8706 -6.6263 39.0814 0.2655
# 6 -11.8100 -6.3709 -0.2988 -4.0472 0.2655 34.2143
#
#
#
# Elastic Compliance Matrix: (Units=1/GPa)
#
#
# Indices 1 2 3 4 5 6 
#
# 1 0.014152 0.005066 -0.007357 -0.001040 -0.002356 0.005659
# 2 0.005066 0.021815 -0.008354 0.003290 0.000080 0.006126
# 3 -0.007357 -0.008354 0.011601 0.001058 0.000931 -0.003876
# 4 -0.001040 0.003290 0.001058 0.020253 0.003559 0.002631
# 5 -0.002356 0.000080 0.000931 0.003559 0.026568 -0.000576
# 6 0.005659 0.006126 -0.003876 0.002631 -0.000576 0.032604
#
#
# Mechanical properties :
#
#
# Convention : Reuss Voigt Hill
#
# Bulk Modulus (GPa) = 38.05334 65.30707 51.68021
# Shear Modulus (GPa) = 31.83872 40.36392 36.10132
#
# Velocity S-wave (km/s) = 3.68025 4.14377 3.91887
# Velocity P-wave (km/s) = 5.85208 7.11872 6.51625
#
# Compressibility (1/GPa) = 0.02627890
#
# Stress axis : x y z
#
# Youngs Moduli (GPa) = 70.66342 45.83942 86.19980
#
# Poissons Ratio (x) = -0.23223 0.63414
# Poissons Ratio (y) = -0.35799 0.72011
# Poissons Ratio (z) = 0.51984 0.38294
#
# Static dielectric constant tensor:
#      x y z
#    x 1.971790 -0.020450 -0.015790 
#    y -0.020450 1.895330 0.004310 
#    z -0.015790 0.004310 1.908790 
# 
# From -- ./inp_files/89892.got.cif
#   From: 2010.05.17/outbox.cif.g08.bks.cpg/sg2_45_cif.got.tgz:89892.got - 2010.06.03 11:33:40.
