data_PCOD9043545
_publ_section_title
;
Structure prediction by ZEFSAII (Michael W. Deem and Ramdas Pophale) SiO2 
 PCOD9043545
Probable space group: P -1
;
_chemical_formula_sum "Si O2"
_cell_formula_units_Z 12
_cell_length_a 11.592025
_cell_length_b 7.642834
_cell_length_c 9.618623
_cell_angle_alpha 121.016920
_cell_angle_beta 44.511789
_cell_angle_gamma 131.574456
_cell_volume 445.485053
_symmetry_space_group_name_H-M "P -1"
_symmetry_group_IT_number 2
_symmetry_cell_setting 'triclinic'
loop_
_space_group_symop_operation_xyz
x,y,z
-x,-y,-z
loop_
_atom_site_type_symbol
_atom_site_label
_atom_site_fract_x
_atom_site_fract_y
_atom_site_fract_z
Si Si1 0.138947 0.763086 0.944087
Si Si2 0.996344 0.357378 0.273595
Si Si3 0.873209 0.871120 0.690579
Si Si4 0.634217 0.145866 0.816804
Si Si5 0.523826 0.753139 0.553239
Si Si6 0.608429 0.369872 0.669828
O O1 0.048491 0.788319 0.888970
O O2 0.333099 0.761803 0.751202
O O3 0.000000 0.500000 0.000000
O O4 0.171096 0.622865 0.212242
O O5 0.803827 0.366009 0.470342
O O6 0.048890 0.243834 0.309515
O O7 0.851648 0.062711 0.875053
O O8 0.677239 0.644546 0.717711
O O9 0.000000 0.000000 0.500000
O O10 0.663434 0.961322 0.619552
O O11 0.547692 0.257628 0.827227
O O12 0.500000 0.000000 0.000000
O O13 0.500000 0.500000 0.500000
O O14 0.543257 0.774588 0.377969
#
# Coordination Sequence:
#
# PCOD9043545 Si02
#       6
#     2   2   2   2   2   2
#     4  11  24  44  71 105 139 185 240 289 348 424
#     4  10  23  45  72 102 139 184 237 289 347 422
#     4  11  22  40  72 108 139 176 230 296 351 410
#     4  11  23  43  70 103 140 178 227 294 357 416
#     4  11  26  46  69  99 143 191 235 290 355 417
#     4  10  24  46  72 101 136 188 240 284 348 427
#
# _framework density 26.936931000000001
#
# number of rings (size 3 to 8) (size 9 to 14) (size 15 to 20)
#    0.000    1.333    0.000    6.000    0.000    9.333 
#    0.000   16.667    0.000    0.000    0.000    1.167 
#    0.000    0.000    0.000    0.000    0.000    0.000 
#
# Total GULP energy -67280.682838 kJ/mol
# GULP energy per Si atom -5606.723570 kJ/mol
# Density = 2.687562 g / cm^3
# Si number density = 26.936931 Si / 1000 Ang^3
#
#
#
# Elastic Constant Matrix: (Units=GPa)
#
#
# Indices 1 2 3 4 5 6 
#
# 1 126.3252 69.1124 69.0884 -7.6034 26.3430 0.2586
# 2 69.1124 228.7490 98.1578 -3.0672 15.8089 15.2248
# 3 69.0884 98.1578 169.1010 -3.6981 42.6377 16.7434
# 4 -7.6034 -3.0672 -3.6981 68.4033 4.4027 4.3851
# 5 26.3430 15.8089 42.6377 4.4027 39.5915 -9.3855
# 6 0.2586 15.2248 16.7434 4.3851 -9.3855 50.6686
#
#
#
# Elastic Compliance Matrix: (Units=1/GPa)
#
#
# Indices 1 2 3 4 5 6 
#
# 1 0.011317 -0.002137 -0.002350 0.001273 -0.004174 0.000478
# 2 -0.002137 0.006322 -0.003420 -0.000286 0.002551 -0.000261
# 3 -0.002350 -0.003420 0.012414 0.001365 -0.011866 -0.005378
# 4 0.001273 -0.000286 0.001365 0.015273 -0.004500 -0.002527
# 5 -0.004174 0.002551 -0.011866 -0.004500 0.043031 0.011536
# 6 0.000478 -0.000261 -0.005378 -0.002527 0.011536 0.023945
#
#
# Mechanical properties :
#
#
# Convention : Reuss Voigt Hill
#
# Bulk Modulus (GPa) = 70.23738 110.76583 90.50161
# Shear Modulus (GPa) = 37.63309 50.92045 44.27677
#
# Velocity S-wave (km/s) = 3.74181 4.35254 4.05868
# Velocity P-wave (km/s) = 6.69325 8.15286 7.45885
#
# Compressibility (1/GPa) = 0.01423743
#
# Stress axis : x y z
#
# Youngs Moduli (GPa) = 88.36643 158.17350 80.55715
#
# Poissons Ratio (x) = 0.33800 0.18933
# Poissons Ratio (y) = 0.18883 0.27553
# Poissons Ratio (z) = 0.20768 0.54101
#
# Static dielectric constant tensor:
#      x y z
#    x 2.227550 0.027220 0.028680 
#    y 0.027220 2.116000 -0.006340 
#    z 0.028680 -0.006340 2.108700 
# 
# From -- ./inp_files/229834.got.cif
#   From: 2010.05.17/outbox.cif.g08.bks.cpg/sg2_115_cif.got.tgz:229834.got - 2010.06.03 11:33:40.
