data_PCOD9043951
_publ_section_title
;
Structure prediction by ZEFSAII (Michael W. Deem and Ramdas Pophale) SiO2 
 PCOD9043951
Probable space group: P -1
;
_chemical_formula_sum "Si O2"
_cell_formula_units_Z 14
_cell_length_a 23.346806
_cell_length_b 5.317504
_cell_length_c 8.818058
_cell_angle_alpha 85.629054
_cell_angle_beta 145.336461
_cell_angle_gamma 104.269304
_cell_volume 587.316428
_symmetry_space_group_name_H-M "P -1"
_symmetry_group_IT_number 2
_symmetry_cell_setting 'triclinic'
loop_
_space_group_symop_operation_xyz
x,y,z
-x,-y,-z
loop_
_atom_site_type_symbol
_atom_site_label
_atom_site_fract_x
_atom_site_fract_y
_atom_site_fract_z
Si Si1 0.476038 0.556292 0.614178
Si Si2 0.189377 0.966995 0.285678
Si Si3 0.307111 0.989435 0.849851
Si Si4 0.000076 0.710260 0.704590
Si Si5 0.701178 0.450301 0.582811
Si Si6 0.557577 0.259410 0.015325
Si Si7 0.117881 0.870111 0.640359
O O1 0.500000 0.500000 0.500000
O O2 0.368928 0.620496 0.414261
O O3 0.469553 0.300562 0.712375
O O4 0.581937 0.774565 0.899785
O O5 0.250916 0.777136 0.354688
O O6 0.230042 0.020164 0.544838
O O7 0.214682 0.254063 0.245783
O O8 0.066034 0.803157 0.997339
O O9 0.240862 0.943762 0.861355
O O10 0.348481 0.754191 0.891524
O O11 0.084821 0.792996 0.745523
O O12 0.941611 0.396329 0.573716
O O13 0.921799 0.882275 0.499559
O O14 0.617106 0.461186 0.266581
O O15 0.500000 0.000000 0.000000
#
# Coordination Sequence:
#
# PCOD9043951 Si02
#       7
#     2   2   2   2   2   2   2
#     4  12  26  41  64 102 141 181 229 287 338 402
#     4  11  24  41  72  97 129 178 232 272 336 409
#     4  11  25  41  66 101 134 177 227 284 334 403
#     4  10  23  46  67  95 131 178 221 279 350 409
#     4  11  23  42  65  97 135 184 222 272 335 413
#     4  11  22  45  67  90 143 186 225 274 340 405
#     4  10  24  43  68  96 136 171 219 284 349 406
#
# _framework density 23.837236000000001
#
# number of rings (size 3 to 8) (size 9 to 14) (size 15 to 20)
#    0.000    1.143    2.857    3.000    4.000    2.857 
#    0.000    0.000    0.000    0.000    0.000    0.000 
#    0.000    0.000    0.000    0.000    0.000    0.000 
#
# Total GULP energy -78272.745095 kJ/mol
# GULP energy per Si atom -5590.910364 kJ/mol
# Density = 2.378298 g / cm^3
# Si number density = 23.837236 Si / 1000 Ang^3
#
#
#
# Elastic Constant Matrix: (Units=GPa)
#
#
# Indices 1 2 3 4 5 6 
#
# 1 99.5822 29.6554 -24.8133 -9.3814 9.8079 -11.9952
# 2 29.6554 75.3531 2.5418 14.8321 -5.6012 -2.4634
# 3 -24.8133 2.5418 43.3481 8.7553 -16.8876 4.9403
# 4 -9.3814 14.8321 8.7553 32.8542 -3.0254 0.2605
# 5 9.8079 -5.6012 -16.8876 -3.0254 34.9614 7.6877
# 6 -11.9952 -2.4634 4.9403 0.2605 7.6877 13.7358
#
#
#
# Elastic Compliance Matrix: (Units=1/GPa)
#
#
# Indices 1 2 3 4 5 6 
#
# 1 0.016545 -0.007916 0.004389 0.006408 -0.006530 0.014983
# 2 -0.007916 0.018551 -0.000912 -0.009864 0.005216 -0.005990
# 3 0.004389 -0.000912 0.037462 -0.006226 0.020879 -0.021372
# 4 0.006408 -0.009864 -0.006226 0.037866 -0.004886 0.008083
# 5 -0.006530 0.005216 0.020879 -0.004886 0.049732 -0.040018
# 6 0.014983 -0.005990 -0.021372 0.008083 -0.040018 0.114743
#
#
# Mechanical properties :
#
#
# Convention : Reuss Voigt Hill
#
# Bulk Modulus (GPa) = 15.70389 25.89459 20.79924
# Shear Modulus (GPa) = 16.39327 30.37024 23.38176
#
# Velocity S-wave (km/s) = 2.62528 3.57328 3.13532
# Velocity P-wave (km/s) = 3.97388 5.28310 4.67455
#
# Compressibility (1/GPa) = 0.06367849
#
# Stress axis : x y z
#
# Youngs Moduli (GPa) = 60.44286 53.90680 26.69364
#
# Poissons Ratio (x) = 0.42673 -0.11716
# Poissons Ratio (y) = 0.47847 0.02435
# Poissons Ratio (z) = -0.26528 0.04917
#
# Static dielectric constant tensor:
#      x y z
#    x 1.921710 -0.026280 0.031070 
#    y -0.026280 2.034220 -0.025330 
#    z 0.031070 -0.025330 1.937270 
# 
# From -- ./inp_files/51676.got.cif
#   From: 2010.05.17/outbox.cif.g08.bks.cpg/sg2_26_cif.got.tgz:51676.got - 2010.06.03 11:33:40.
