data_PCOD9043451
_publ_section_title
;
Structure prediction by ZEFSAII (Michael W. Deem and Ramdas Pophale) SiO2 
 PCOD9043451
Probable space group: P -1
;
_chemical_formula_sum "Si O2"
_cell_formula_units_Z 14
_cell_length_a 4.971031
_cell_length_b 20.138263
_cell_length_c 12.330187
_cell_angle_alpha 150.621333
_cell_angle_beta 101.835412
_cell_angle_gamma 77.885311
_cell_volume 591.424795
_symmetry_space_group_name_H-M "P -1"
_symmetry_group_IT_number 2
_symmetry_cell_setting 'triclinic'
loop_
_space_group_symop_operation_xyz
x,y,z
-x,-y,-z
loop_
_atom_site_type_symbol
_atom_site_label
_atom_site_fract_x
_atom_site_fract_y
_atom_site_fract_z
Si Si1 0.589797 0.383132 0.517418
Si Si2 0.074311 0.706462 0.390041
Si Si3 0.038795 0.282651 0.246701
Si Si4 0.921970 0.649393 0.901199
Si Si5 0.997240 0.992289 0.235771
Si Si6 0.243644 0.548941 0.973233
Si Si7 0.587529 0.933393 0.298328
O O1 0.655702 0.319551 0.550712
O O2 0.275990 0.366136 0.438089
O O3 0.711993 0.530827 0.731405
O O4 0.769959 0.300879 0.323956
O O5 0.974444 0.862296 0.608509
O O6 0.889198 0.592814 0.259910
O O7 0.092490 0.656849 0.196584
O O8 0.002533 0.336966 0.198771
O O9 0.125498 0.122818 0.012806
O O10 0.196348 0.622057 0.958237
O O11 0.753215 0.788566 0.119302
O O12 0.795671 0.013136 0.353068
O O13 0.297845 0.930068 0.207171
O O14 0.500000 0.500000 0.000000
O O15 0.500000 0.000000 0.500000
#
# Coordination Sequence:
#
# PCOD9043451 Si02
#       7
#     2   2   2   2   2   2   2
#     4  11  25  43  72  99 139 183 234 289 340 406
#     4  10  25  45  65 106 135 185 230 285 350 416
#     4  11  24  45  66 105 136 182 236 284 346 403
#     4  10  23  45  71 104 136 180 232 292 347 411
#     4  11  25  44  68 100 143 183 232 284 344 419
#     4  10  23  46  71 100 138 180 231 289 349 419
#     4  11  24  44  69 104 140 185 232 282 350 414
#
# _framework density 23.67165
#
# number of rings (size 3 to 8) (size 9 to 14) (size 15 to 20)
#    0.000    1.429    0.000    3.857    6.000    4.571 
#   15.429    0.000    0.000    0.000    0.000    0.000 
#    0.000    0.000    0.000    0.000    0.000    0.000 
#
# Total GULP energy -78257.018861 kJ/mol
# GULP energy per Si atom -5589.787061 kJ/mol
# Density = 2.361777 g / cm^3
# Si number density = 23.671650 Si / 1000 Ang^3
#
#
#
# Elastic Constant Matrix: (Units=GPa)
#
#
# Indices 1 2 3 4 5 6 
#
# 1 75.9869 12.7787 17.3231 -19.2329 -3.3166 -9.6379
# 2 12.7787 111.6160 58.6944 -13.4302 11.9376 -13.0729
# 3 17.3231 58.6944 115.3397 12.3179 -12.1543 6.8383
# 4 -19.2329 -13.4302 12.3179 45.0142 9.6657 0.3721
# 5 -3.3166 11.9376 -12.1543 9.6657 34.2338 -16.4279
# 6 -9.6379 -13.0729 6.8383 0.3721 -16.4279 24.2287
#
#
#
# Elastic Compliance Matrix: (Units=1/GPa)
#
#
# Indices 1 2 3 4 5 6 
#
# 1 0.018041 0.003736 -0.006305 0.010300 0.000723 0.011304
# 2 0.003736 0.019362 -0.013490 0.013387 -0.011123 0.007993
# 3 -0.006305 -0.013490 0.019703 -0.014581 0.011781 -0.007135
# 4 0.010300 0.013387 -0.014581 0.038600 -0.018711 0.002156
# 5 0.000723 -0.011123 0.011781 -0.018711 0.056958 0.029868
# 6 0.011304 0.007993 -0.007135 0.002156 0.029868 0.072315
#
#
# Mechanical properties :
#
#
# Convention : Reuss Voigt Hill
#
# Bulk Modulus (GPa) = 40.01682 53.39278 46.70480
# Shear Modulus (GPa) = 18.83762 34.97175 26.90468
#
# Velocity S-wave (km/s) = 2.82403 3.84782 3.37498
# Velocity P-wave (km/s) = 5.25121 6.50735 5.91273
#
# Compressibility (1/GPa) = 0.02498949
#
# Stress axis : x y z
#
# Youngs Moduli (GPa) = 55.42794 51.64815 50.75290
#
# Poissons Ratio (x) = -0.19295 0.31998
# Poissons Ratio (y) = -0.20707 0.68464
# Poissons Ratio (z) = 0.34946 0.69671
#
# Static dielectric constant tensor:
#      x y z
#    x 1.947460 -0.040330 -0.001670 
#    y -0.040330 1.942510 -0.002020 
#    z -0.001670 -0.002020 1.902310 
# 
# From -- ./inp_files/370206.got.cif
#   From: 2010.05.17/outbox.cif.g08.bks.cpg/sg2_186_cif.got.tgz:370206.got - 2010.06.03 11:33:40.
