data_PCOD9043420
_publ_section_title
;
Structure prediction by ZEFSAII (Michael W. Deem and Ramdas Pophale) SiO2 
 PCOD9043420
Probable space group: P -1
;
_chemical_formula_sum "Si O2"
_cell_formula_units_Z 16
_cell_length_a 14.037470
_cell_length_b 9.133638
_cell_length_c 9.101472
_cell_angle_alpha 125.356978
_cell_angle_beta 58.722781
_cell_angle_gamma 85.902359
_cell_volume 687.947049
_symmetry_space_group_name_H-M "P -1"
_symmetry_group_IT_number 2
_symmetry_cell_setting 'triclinic'
loop_
_space_group_symop_operation_xyz
x,y,z
-x,-y,-z
loop_
_atom_site_type_symbol
_atom_site_label
_atom_site_fract_x
_atom_site_fract_y
_atom_site_fract_z
Si Si1 0.685406 0.371141 0.532186
Si Si2 0.512390 0.188930 0.539054
Si Si3 0.055769 0.218268 0.956118
Si Si4 0.103929 0.971855 0.046536
Si Si5 0.355974 0.565972 0.088336
Si Si6 0.169510 0.318811 0.679031
Si Si7 0.450842 0.197157 0.264718
Si Si8 0.863771 0.011917 0.642289
O O1 0.632127 0.214495 0.507874
O O2 0.801512 0.239249 0.247186
O O3 0.715050 0.434250 0.703392
O O4 0.574580 0.593775 0.677503
O O5 0.526957 0.166786 0.338074
O O6 0.500000 0.000000 0.500000
O O7 0.387444 0.400649 0.835595
O O8 0.168855 0.232921 0.792103
O O9 0.075334 0.171747 0.086677
O O10 0.027459 0.035834 0.825989
O O11 0.929373 0.432726 0.120552
O O12 0.165731 0.961111 0.145991
O O13 0.261624 0.798200 0.231670
O O14 0.500000 0.500000 0.000000
O O15 0.310971 0.251153 0.470051
O O16 0.115211 0.206222 0.556352
O O17 0.500000 0.000000 0.000000
O O18 0.000000 0.000000 0.500000
#
# Coordination Sequence:
#
# PCOD9043420 Si02
#       8
#     2   2   2   2   2   2   2   2
#     4  11  24  46  70 102 140 192 241 308 366 437
#     4  11  26  45  69 104 138 192 251 299 364 445
#     4  10  23  45  71 101 135 192 235 298 370 435
#     4  11  23  44  72 102 142 183 240 299 372 434
#     4  10  25  46  75 101 146 193 243 299 373 434
#     4  11  25  44  72  99 147 186 244 300 368 439
#     4  12  27  43  71 104 146 190 246 304 369 434
#     4  12  26  44  72 110 143 190 242 304 368 443
#
# _framework density 23.257604000000001
#
# number of rings (size 3 to 8) (size 9 to 14) (size 15 to 20)
#    0.000    1.000    2.500    2.625   12.250    0.500 
#    0.000    0.000    0.000    0.000    0.000    0.000 
#    0.000    0.000    0.000    0.000    0.000    0.000 
#
# Total GULP energy -89339.171253 kJ/mol
# GULP energy per Si atom -5583.698203 kJ/mol
# Density = 2.320467 g / cm^3
# Si number density = 23.257604 Si / 1000 Ang^3
#
#
#
# Elastic Constant Matrix: (Units=GPa)
#
#
# Indices 1 2 3 4 5 6 
#
# 1 55.2896 26.3703 9.6947 -4.8165 4.2401 -6.3946
# 2 26.3703 178.5795 43.1365 -5.3073 6.6323 -18.4414
# 3 9.6947 43.1365 111.0785 -5.9126 8.1569 -9.6417
# 4 -4.8165 -5.3073 -5.9126 38.4815 -3.8461 5.2213
# 5 4.2401 6.6323 8.1569 -3.8461 39.1882 -13.1246
# 6 -6.3946 -18.4414 -9.6417 5.2213 -13.1246 52.9323
#
#
#
# Elastic Compliance Matrix: (Units=1/GPa)
#
#
# Indices 1 2 3 4 5 6 
#
# 1 0.019765 -0.002618 -0.000449 0.001805 -0.001110 0.000941
# 2 -0.002618 0.006692 -0.002238 0.000045 0.000172 0.001646
# 3 -0.000449 -0.002238 0.010114 0.000973 -0.001392 0.000567
# 4 0.001805 0.000045 0.000973 0.026777 0.001609 -0.001831
# 5 -0.001110 0.000172 -0.001392 0.001609 0.028239 0.006515
# 6 0.000941 0.001646 0.000567 -0.001831 0.006515 0.021478
#
#
# Mechanical properties :
#
#
# Convention : Reuss Voigt Hill
#
# Bulk Modulus (GPa) = 38.51878 55.92786 47.22332
# Shear Modulus (GPa) = 37.78457 43.83682 40.81069
#
# Velocity S-wave (km/s) = 4.03502 4.34618 4.19349
# Velocity P-wave (km/s) = 6.18921 7.02033 6.61783
#
# Compressibility (1/GPa) = 0.02596136
#
# Stress axis : x y z
#
# Youngs Moduli (GPa) = 50.59390 149.43748 98.87225
#
# Poissons Ratio (x) = 0.39126 0.04440
# Poissons Ratio (y) = 0.13246 0.22123
# Poissons Ratio (z) = 0.02272 0.33438
#
# Static dielectric constant tensor:
#      x y z
#    x 1.998390 -0.024410 -0.060410 
#    y -0.024410 1.885330 -0.056280 
#    z -0.060410 -0.056280 1.973890 
# 
# From -- ./inp_files/272220.got.cif
#   From: 2010.05.17/outbox.cif.g08.bks.cpg/sg2_137_cif.got.tgz:272220.got - 2010.06.03 11:33:40.
