data_PCOD9043940
_publ_section_title
;
Structure prediction by ZEFSAII (Michael W. Deem and Ramdas Pophale) SiO2 
 PCOD9043940
Probable space group: P -1
;
_chemical_formula_sum "Si O2"
_cell_formula_units_Z 14
_cell_length_a 8.446792
_cell_length_b 7.856063
_cell_length_c 11.849961
_cell_angle_alpha 114.686086
_cell_angle_beta 76.510265
_cell_angle_gamma 63.288631
_cell_volume 545.661182
_symmetry_space_group_name_H-M "P -1"
_symmetry_group_IT_number 2
_symmetry_cell_setting 'triclinic'
loop_
_space_group_symop_operation_xyz
x,y,z
-x,-y,-z
loop_
_atom_site_type_symbol
_atom_site_label
_atom_site_fract_x
_atom_site_fract_y
_atom_site_fract_z
Si Si1 0.552128 0.741128 0.928328
Si Si2 0.724973 0.191345 0.537816
Si Si3 0.347861 0.031624 0.695109
Si Si4 0.026032 0.353814 0.675765
Si Si5 0.204558 0.855513 0.850881
Si Si6 0.105167 0.653858 0.617731
Si Si7 0.355873 0.885200 0.232166
O O1 0.793217 0.545436 0.807552
O O2 0.400573 0.747285 0.867920
O O3 0.492902 0.722666 0.059531
O O4 0.500000 0.000000 0.000000
O O5 0.586310 0.169022 0.465342
O O6 0.918635 0.903508 0.426931
O O7 0.647518 0.241526 0.691768
O O8 0.772342 0.353537 0.513504
O O9 0.213786 0.021822 0.808342
O O10 0.539110 0.998915 0.708621
O O11 0.191996 0.281861 0.726379
O O12 0.075029 0.456920 0.593231
O O13 0.203822 0.678540 0.719373
O O14 0.000000 0.000000 0.000000
O O15 0.875518 0.908701 0.715091
#
# Coordination Sequence:
#
# PCOD9043940 Si02
#       7
#     2   2   2   2   2   2   2
#     4  12  22  41  71 101 131 183 220 277 344 391
#     4   9  24  44  70  99 133 180 225 272 335 398
#     4   9  22  41  68  97 131 176 221 273 329 397
#     4  10  23  46  67 104 131 175 230 272 335 399
#     4  11  20  41  65  98 138 175 219 274 339 394
#     4  11  22  43  70  96 137 180 215 284 332 394
#     4  12  21  42  73  95 139 179 221 273 346 395
#
# _framework density 25.656946000000001
#
# number of rings (size 3 to 8) (size 9 to 14) (size 15 to 20)
#    0.857    0.571    4.286    0.857    0.000    1.143 
#    2.571    2.143    0.000    0.000    0.000    0.000 
#    0.000    0.000    0.000    0.000    0.000    0.000 
#
# Total GULP energy -78475.466444 kJ/mol
# GULP energy per Si atom -5605.390460 kJ/mol
# Density = 2.559855 g / cm^3
# Si number density = 25.656946 Si / 1000 Ang^3
#
#
#
# Elastic Constant Matrix: (Units=GPa)
#
#
# Indices 1 2 3 4 5 6 
#
# 1 157.0283 52.2082 60.5014 -9.5145 4.1005 -3.5454
# 2 52.2082 135.2798 91.5727 -13.4379 -14.4332 21.3002
# 3 60.5014 91.5727 186.5073 -44.7185 -18.3032 -7.3683
# 4 -9.5145 -13.4379 -44.7185 49.2774 -0.5235 -10.6394
# 5 4.1005 -14.4332 -18.3032 -0.5235 43.4804 -12.9007
# 6 -3.5454 21.3002 -7.3683 -10.6394 -12.9007 42.0467
#
#
#
# Elastic Compliance Matrix: (Units=1/GPa)
#
#
# Indices 1 2 3 4 5 6 
#
# 1 0.007813 -0.002216 -0.001744 -0.000543 -0.001998 0.000725
# 2 -0.002216 0.015584 -0.009428 -0.007420 -0.002333 -0.012327
# 3 -0.001744 -0.009428 0.015069 0.013651 0.007398 0.012994
# 4 -0.000543 -0.007420 0.013651 0.034442 0.008962 0.017570
# 5 -0.001998 -0.002333 0.007398 0.008962 0.029696 0.013689
# 6 0.000725 -0.012327 0.012994 0.017570 0.013689 0.041012
#
#
# Mechanical properties :
#
#
# Convention : Reuss Voigt Hill
#
# Bulk Modulus (GPa) = 85.54290 98.59777 92.07034
# Shear Modulus (GPa) = 28.68821 45.26312 36.97567
#
# Velocity S-wave (km/s) = 3.34750 4.20475 3.80037
# Velocity P-wave (km/s) = 6.95373 7.87947 7.43103
#
# Compressibility (1/GPa) = 0.01169004
#
# Stress axis : x y z
#
# Youngs Moduli (GPa) = 127.99869 64.16849 66.36219
#
# Poissons Ratio (x) = 0.14219 0.11574
# Poissons Ratio (y) = 0.28362 0.62565
# Poissons Ratio (z) = 0.22323 0.60497
#
# Static dielectric constant tensor:
#      x y z
#    x 2.059470 -0.007440 0.041680 
#    y -0.007440 2.009770 -0.001120 
#    z 0.041680 -0.001120 1.980920 
# 
# From -- ./inp_files/376594.got.cif
#   From: 2010.05.17/outbox.cif.g08.bks.cpg/sg2_189_cif.got.tgz:376594.got - 2010.06.03 11:33:40.
