data_PCOD9043967
_publ_section_title
;
Structure prediction by ZEFSAII (Michael W. Deem and Ramdas Pophale) SiO2 
 PCOD9043967
Probable space group: P -1
;
_chemical_formula_sum "Si O2"
_cell_formula_units_Z 13
_cell_length_a 6.725156
_cell_length_b 11.008849
_cell_length_c 8.370041
_cell_angle_alpha 80.604093
_cell_angle_beta 56.235729
_cell_angle_gamma 94.877979
_cell_volume 496.444714
_symmetry_space_group_name_H-M "P -1"
_symmetry_group_IT_number 2
_symmetry_cell_setting 'triclinic'
loop_
_space_group_symop_operation_xyz
x,y,z
-x,-y,-z
loop_
_atom_site_type_symbol
_atom_site_label
_atom_site_fract_x
_atom_site_fract_y
_atom_site_fract_z
Si Si1 0.589591 0.836568 0.633851
Si Si2 0.000000 0.000000 0.000000
Si Si3 0.697859 0.632869 0.872505
Si Si4 0.472447 0.929395 0.196288
Si Si5 0.284772 0.397045 0.773426
Si Si6 0.750317 0.352510 0.384441
Si Si7 0.046868 0.790210 0.246408
O O1 0.595486 0.738578 0.798093
O O2 0.366559 0.779520 0.624599
O O3 0.839093 0.840102 0.425840
O O4 0.605325 0.976366 0.661755
O O5 0.730287 0.906987 0.139093
O O6 0.116545 0.884664 0.045146
O O7 0.970191 0.630064 0.685717
O O8 0.500000 0.500000 0.000000
O O9 0.755659 0.667539 0.023629
O O10 0.268243 0.806099 0.269019
O O11 0.500000 0.000000 0.000000
O O12 0.548621 0.384451 0.590676
O O13 0.262203 0.541409 0.767357
O O14 0.081119 0.341233 0.743744
#
# Coordination Sequence:
#
# PCOD9043967 Si02
#       7
#     2   1   2   2   2   2   2
#     4  11  25  46  66  99 135 173 228 280 329 403
#     4  10  24  44  66 100 124 180 220 268 350 384
#     4  12  26  42  71 103 134 187 223 273 346 400
#     4  10  24  42  68  98 133 170 223 280 330 404
#     4  10  23  46  68 100 142 176 224 285 332 398
#     4  10  24  46  67 102 139 177 227 278 334 405
#     4  10  24  44  68  97 134 175 223 280 332 401
#
# _framework density 26.186201000000001
#
# number of rings (size 3 to 8) (size 9 to 14) (size 15 to 20)
#    0.000    1.538    1.538    0.923    8.615    3.692 
#    2.769    0.000    0.000    0.000    0.000    0.000 
#    0.000    0.000    0.000    0.000    0.000    0.000 
#
# Total GULP energy -72520.503153 kJ/mol
# GULP energy per Si atom -5578.500243 kJ/mol
# Density = 2.612660 g / cm^3
# Si number density = 26.186201 Si / 1000 Ang^3
#
#
#
# Elastic Constant Matrix: (Units=GPa)
#
#
# Indices 1 2 3 4 5 6 
#
# 1 179.3366 54.7503 8.7478 -11.4164 -39.3677 22.9290
# 2 54.7503 117.2607 10.3791 -0.0667 -3.8666 15.4073
# 3 8.7478 10.3791 68.6737 -6.1069 -15.5102 5.1004
# 4 -11.4164 -0.0667 -6.1069 30.8664 7.5006 11.8285
# 5 -39.3677 -3.8666 -15.5102 7.5006 38.3606 -22.2406
# 6 22.9290 15.4073 5.1004 11.8285 -22.2406 44.5929
#
#
#
# Elastic Compliance Matrix: (Units=1/GPa)
#
#
# Indices 1 2 3 4 5 6 
#
# 1 0.008815 -0.004151 0.001726 0.000478 0.010197 0.001663
# 2 -0.004151 0.011211 -0.002327 0.002337 -0.008077 -0.006121
# 3 0.001726 -0.002327 0.016749 0.000506 0.009810 0.002759
# 4 0.000478 0.002337 0.000506 0.048073 -0.023221 -0.025444
# 5 0.010197 -0.008077 0.009810 -0.023221 0.064325 0.034667
# 6 0.001663 -0.006121 0.002759 -0.025444 0.034667 0.047408
#
#
# Mechanical properties :
#
#
# Convention : Reuss Voigt Hill
#
# Bulk Modulus (GPa) = 36.66702 57.00283 46.83492
# Shear Modulus (GPa) = 23.23675 42.19022 32.71348
#
# Velocity S-wave (km/s) = 2.98210 4.01828 3.53833
# Velocity P-wave (km/s) = 5.08823 6.58364 5.88364
#
# Compressibility (1/GPa) = 0.02727247
#
# Stress axis : x y z
#
# Youngs Moduli (GPa) = 113.43812 89.19524 59.70443
#
# Poissons Ratio (x) = 0.37023 -0.10308
# Poissons Ratio (y) = 0.47086 0.13896
# Poissons Ratio (z) = -0.19585 0.20759
#
# Static dielectric constant tensor:
#      x y z
#    x 1.998410 0.074840 -0.043120 
#    y 0.074840 2.098650 -0.096430 
#    z -0.043120 -0.096430 2.174540 
# 
# From -- ./inp_files/131406.got.cif
#   From: 2010.05.17/outbox.cif.g08.bks.cpg/sg2_66_cif.got.tgz:131406.got - 2010.06.03 11:33:40.
