data_PCOD9043670
_publ_section_title
;
Structure prediction by ZEFSAII (Michael W. Deem and Ramdas Pophale) SiO2 
 PCOD9043670
Probable space group: P -1
;
_chemical_formula_sum "Si O2"
_cell_formula_units_Z 12
_cell_length_a 8.560428
_cell_length_b 7.095851
_cell_length_c 14.733315
_cell_angle_alpha 100.416613
_cell_angle_beta 34.897081
_cell_angle_gamma 95.109659
_cell_volume 500.770461
_symmetry_space_group_name_H-M "P -1"
_symmetry_group_IT_number 2
_symmetry_cell_setting 'triclinic'
loop_
_space_group_symop_operation_xyz
x,y,z
-x,-y,-z
loop_
_atom_site_type_symbol
_atom_site_label
_atom_site_fract_x
_atom_site_fract_y
_atom_site_fract_z
Si Si1 0.800155 0.623856 0.538212
Si Si2 0.082810 0.431303 0.086310
Si Si3 0.803078 0.932934 0.884472
Si Si4 0.231722 0.054216 0.541958
Si Si5 0.739765 0.261016 0.083190
Si Si6 0.478487 0.307024 0.587209
O O1 0.919307 0.798636 0.444555
O O2 0.539324 0.728571 0.726028
O O3 0.684662 0.469027 0.511287
O O4 0.000000 0.500000 0.500000
O O5 0.977155 0.309578 0.042807
O O6 0.820748 0.584594 0.245313
O O7 0.160815 0.287602 0.118813
O O8 0.303815 0.563712 0.953889
O O9 0.017145 0.981674 0.709527
O O10 0.832324 0.067415 0.969307
O O11 0.500000 0.000000 0.000000
O O12 0.445053 0.184528 0.501268
O O13 0.412739 0.859708 0.407402
#
# Coordination Sequence:
#
# PCOD9043670 Si02
#       6
#     2   2   2   2   2   2
#     4  11  27  44  71 100 142 179 220 283 344 403
#     4  10  23  45  73  96 133 184 232 273 331 404
#     4  12  28  43  70 103 140 177 222 288 340 398
#     4  11  26  44  70 103 135 178 233 276 334 406
#     4  10  24  45  68  99 133 182 229 275 332 409
#     4  10  24  44  73  98 132 182 230 278 323 404
#
# _framework density 23.963076999999998
#
# number of rings (size 3 to 8) (size 9 to 14) (size 15 to 20)
#    0.000    1.333    1.667    1.000   16.333    5.333 
#    0.000    0.000    0.000    0.000    0.000    0.000 
#    0.000    0.000    0.000    0.000    0.000    0.000 
#
# Total GULP energy -67119.115461 kJ/mol
# GULP energy per Si atom -5593.259622 kJ/mol
# Density = 2.390854 g / cm^3
# Si number density = 23.963077 Si / 1000 Ang^3
#
#
#
# Elastic Constant Matrix: (Units=GPa)
#
#
# Indices 1 2 3 4 5 6 
#
# 1 36.2530 36.5775 12.6657 -0.6876 -11.4568 -21.7789
# 2 36.5775 186.5016 40.0818 1.6059 8.0924 -45.6114
# 3 12.6657 40.0818 82.3357 1.7351 4.0873 -9.5058
# 4 -0.6876 1.6059 1.7351 40.0096 -3.1114 4.8978
# 5 -11.4568 8.0924 4.0873 -3.1114 22.5460 4.5291
# 6 -21.7789 -45.6114 -9.5058 4.8978 4.5291 43.8632
#
#
#
# Elastic Compliance Matrix: (Units=1/GPa)
#
#
# Indices 1 2 3 4 5 6 
#
# 1 0.054827 -0.007194 -0.004572 0.001722 0.028369 0.015630
# 2 -0.007194 0.009223 -0.002179 -0.001840 -0.008149 0.006594
# 3 -0.004572 -0.002179 0.014008 -0.000786 -0.003989 -0.001000
# 4 0.001722 -0.001840 -0.000786 0.026206 0.006259 -0.004801
# 5 0.028369 -0.008149 -0.003989 0.006259 0.063791 -0.002538
# 6 0.015630 0.006594 -0.001000 -0.004801 -0.002538 0.037996
#
#
# Mechanical properties :
#
#
# Convention : Reuss Voigt Hill
#
# Bulk Modulus (GPa) = 19.93252 53.74894 36.84073
# Shear Modulus (GPa) = 19.94701 35.66811 27.80756
#
# Velocity S-wave (km/s) = 2.88827 3.86224 3.41021
# Velocity P-wave (km/s) = 4.41123 6.50906 5.55998
#
# Compressibility (1/GPa) = 0.05016927
#
# Stress axis : x y z
#
# Youngs Moduli (GPa) = 18.23925 108.42541 71.38555
#
# Poissons Ratio (x) = 0.77996 0.32639
# Poissons Ratio (y) = 0.13120 0.15552
# Poissons Ratio (z) = 0.08339 0.23622
#
# Static dielectric constant tensor:
#      x y z
#    x 1.941510 -0.056920 -0.021320 
#    y -0.056920 1.927580 -0.045140 
#    z -0.021320 -0.045140 1.821010 
# 
# From -- ./inp_files/240551.got.cif
#   From: 2010.05.17/outbox.cif.g08.bks.cpg/sg2_121_cif.got.tgz:240551.got - 2010.06.03 11:33:40.
