data_PCOD9043432
_publ_section_title
;
Structure prediction by ZEFSAII (Michael W. Deem and Ramdas Pophale) SiO2 
 PCOD9043432
Probable space group: P -1
;
_chemical_formula_sum "Si O2"
_cell_formula_units_Z 16
_cell_length_a 5.205098
_cell_length_b 16.819017
_cell_length_c 8.137388
_cell_angle_alpha 79.702217
_cell_angle_beta 62.089388
_cell_angle_gamma 81.087022
_cell_volume 617.295380
_symmetry_space_group_name_H-M "P -1"
_symmetry_group_IT_number 2
_symmetry_cell_setting 'triclinic'
loop_
_space_group_symop_operation_xyz
x,y,z
-x,-y,-z
loop_
_atom_site_type_symbol
_atom_site_label
_atom_site_fract_x
_atom_site_fract_y
_atom_site_fract_z
Si Si1 0.936722 0.371938 0.366731
Si Si2 0.132936 0.226332 0.534809
Si Si3 0.614984 0.539344 0.622877
Si Si4 0.265398 0.427124 0.953632
Si Si5 0.297760 0.817576 0.785144
Si Si6 0.494007 0.094590 0.025581
Si Si7 0.974836 0.092395 0.437836
Si Si8 0.234627 0.254975 0.872892
O O1 0.892274 0.288890 0.501478
O O2 0.071206 0.425687 0.455200
O O3 0.648420 0.389584 0.335366
O O4 0.202764 0.384192 0.158431
O O5 0.394491 0.232139 0.321954
O O6 0.031204 0.137532 0.571530
O O7 0.182379 0.246676 0.698607
O O8 0.500000 0.500000 0.500000
O O9 0.544329 0.475694 0.809630
O O10 0.291998 0.348754 0.854062
O O11 0.000000 0.500000 0.000000
O O12 0.266172 0.883050 0.920217
O O13 0.296186 0.867847 0.595539
O O14 0.054778 0.758122 0.926709
O O15 0.215196 0.104631 0.224081
O O16 0.446945 0.174628 0.892921
O O17 0.500000 0.000000 0.000000
O O18 0.000000 0.000000 0.500000
#
# Coordination Sequence:
#
# PCOD9043432 Si02
#       8
#     2   2   2   2   2   2   2   2
#     4  11  24  45  70 102 142 189 238 303 368 441
#     4  11  26  43  70 103 138 186 241 303 360 442
#     4  11  24  44  70 104 142 185 241 301 369 443
#     4  10  23  45  71 102 139 187 240 300 371 436
#     4  10  24  44  69  93 145 187 225 307 358 432
#     4  10  24  42  67 103 137 184 238 291 362 436
#     4  10  24  41  66 100 137 184 235 291 371 433
#     4  11  25  46  68 105 137 183 249 290 369 439
#
# _framework density 25.919522000000001
#
# number of rings (size 3 to 8) (size 9 to 14) (size 15 to 20)
#    0.000    1.500    0.000    3.750   10.500    3.000 
#    9.000    0.000    0.000    0.000    0.000    0.000 
#    0.000    0.000    0.000    0.000    0.000    0.000 
#
# Total GULP energy -89146.426580 kJ/mol
# GULP energy per Si atom -5571.651661 kJ/mol
# Density = 2.586053 g / cm^3
# Si number density = 25.919522 Si / 1000 Ang^3
#
#
#
# Elastic Constant Matrix: (Units=GPa)
#
#
# Indices 1 2 3 4 5 6 
#
# 1 53.4866 37.0084 -1.6162 4.5797 16.3775 9.9365
# 2 37.0084 200.4729 37.2019 -5.6177 24.6406 25.4512
# 3 -1.6162 37.2019 84.4652 10.6965 14.8868 -7.3180
# 4 4.5797 -5.6177 10.6965 48.3865 1.4377 2.7095
# 5 16.3775 24.6406 14.8868 1.4377 41.4370 3.1496
# 6 9.9365 25.4512 -7.3180 2.7095 3.1496 31.1989
#
#
#
# Elastic Compliance Matrix: (Units=1/GPa)
#
#
# Indices 1 2 3 4 5 6 
#
# 1 0.025024 -0.004072 0.003986 -0.003324 -0.008592 -0.002557
# 2 -0.004072 0.007407 -0.003978 0.002479 -0.001012 -0.005792
# 3 0.003986 -0.003978 0.015729 -0.004530 -0.005204 0.006584
# 4 -0.003324 0.002479 -0.004530 0.022470 0.000997 -0.004078
# 5 -0.008592 -0.001012 -0.005204 0.000997 0.030025 -0.000776
# 6 -0.002557 -0.005792 0.006584 -0.004078 -0.000776 0.039569
#
#
# Mechanical properties :
#
#
# Convention : Reuss Voigt Hill
#
# Bulk Modulus (GPa) = 24.97939 53.73478 39.35708
# Shear Modulus (GPa) = 30.92244 41.92653 36.42449
#
# Velocity S-wave (km/s) = 3.45776 4.02626 3.75279
# Velocity P-wave (km/s) = 5.05961 6.51082 5.83054
#
# Compressibility (1/GPa) = 0.04003300
#
# Stress axis : x y z
#
# Youngs Moduli (GPa) = 39.96091 135.00342 63.57805
#
# Poissons Ratio (x) = 0.54970 -0.25341
# Poissons Ratio (y) = 0.16271 0.25290
# Poissons Ratio (z) = -0.15928 0.53701
#
# Static dielectric constant tensor:
#      x y z
#    x 2.613600 -0.156320 0.096180 
#    y -0.156320 2.331090 0.156160 
#    z 0.096180 0.156160 2.012780 
# 
# From -- ./inp_files/39030.got.cif
#   From: 2010.05.17/outbox.cif.g08.bks.cpg/sg2_20_cif.got.tgz:39030.got - 2010.06.03 11:33:40.
