data_PCOD9043905
_publ_section_title
;
Structure prediction by ZEFSAII (Michael W. Deem and Ramdas Pophale) SiO2 
 PCOD9043905
Probable space group: P -1
;
_chemical_formula_sum "Si O2"
_cell_formula_units_Z 16
_cell_length_a 23.237566
_cell_length_b 8.805802
_cell_length_c 20.220872
_cell_angle_alpha 39.941839
_cell_angle_beta 18.383761
_cell_angle_gamma 33.125654
_cell_volume 703.625338
_symmetry_space_group_name_H-M "P -1"
_symmetry_group_IT_number 2
_symmetry_cell_setting 'triclinic'
loop_
_space_group_symop_operation_xyz
x,y,z
-x,-y,-z
loop_
_atom_site_type_symbol
_atom_site_label
_atom_site_fract_x
_atom_site_fract_y
_atom_site_fract_z
Si Si1 0.441916 0.526645 0.130510
Si Si2 0.744442 0.209206 0.400806
Si Si3 0.650761 0.775882 0.321107
Si Si4 0.828997 0.751332 0.277974
Si Si5 0.194708 0.991249 0.039091
Si Si6 0.141926 0.373494 0.572520
Si Si7 0.317206 0.117934 0.104496
Si Si8 0.696848 0.656707 0.098169
O O1 0.665411 0.341005 0.988824
O O2 0.318132 0.375166 0.335000
O O3 0.300833 0.851638 0.194829
O O4 0.500000 0.500000 0.000000
O O5 0.714215 0.490578 0.309069
O O6 0.515715 0.309033 0.650187
O O7 0.817817 0.935660 0.368420
O O8 0.944370 0.100230 0.269387
O O9 0.782809 0.696891 0.272160
O O10 0.396480 0.952479 0.559082
O O11 0.719000 0.945068 0.143642
O O12 0.835390 0.564867 0.395952
O O13 0.081619 0.657694 0.036862
O O14 0.237975 0.153353 0.995194
O O15 0.911641 0.611239 0.716143
O O16 0.365077 0.222388 0.949025
O O17 0.500000 0.000000 0.000000
#
# Coordination Sequence:
#
# PCOD9043905 Si02
#       8
#     2   2   2   2   2   2   2   2
#     4  12  23  45  75  97 137 190 229 294 356 410
#     4  12  25  44  74 103 136 195 230 289 346 430
#     4  11  24  45  73 102 143 192 239 280 355 422
#     4  10  23  46  66 103 146 180 231 295 348 414
#     4  12  24  47  69 105 143 182 243 287 341 428
#     4  11  24  46  68 108 141 180 238 291 358 420
#     4  11  25  46  70 106 138 184 239 296 354 418
#     4  11  24  46  70 103 144 176 243 288 353 418
#
# _framework density 22.739376
#
# number of rings (size 3 to 8) (size 9 to 14) (size 15 to 20)
#    0.000    0.750    5.000    1.500    0.000    4.500 
#    9.000    2.500    0.000    0.000    0.000    0.000 
#    0.000    0.000    0.000    0.000    0.000    0.000 
#
# Total GULP energy -89377.422831 kJ/mol
# GULP energy per Si atom -5586.088927 kJ/mol
# Density = 2.268762 g / cm^3
# Si number density = 22.739376 Si / 1000 Ang^3
#
#
#
# Elastic Constant Matrix: (Units=GPa)
#
#
# Indices 1 2 3 4 5 6 
#
# 1 141.7719 36.3545 57.0815 1.7314 -7.6615 -27.9600
# 2 36.3545 111.0808 26.8698 25.5058 -7.7878 -13.7462
# 3 57.0815 26.8698 126.1655 29.1534 -20.1150 -17.3921
# 4 1.7314 25.5058 29.1534 37.2086 -4.8163 -6.4096
# 5 -7.6615 -7.7878 -20.1150 -4.8163 27.6119 9.4282
# 6 -27.9600 -13.7462 -17.3921 -6.4096 9.4282 34.4816
#
#
#
# Elastic Compliance Matrix: (Units=1/GPa)
#
#
# Indices 1 2 3 4 5 6 
#
# 1 0.011261 -0.003257 -0.005479 0.006843 -0.003041 0.007173
# 2 -0.003257 0.011962 0.001306 -0.008735 0.001656 0.000710
# 3 -0.005479 0.001306 0.013571 -0.010510 0.007247 -0.001012
# 4 0.006843 -0.008735 -0.010510 0.041315 -0.002793 0.005209
# 5 -0.003041 0.001656 0.007247 -0.002793 0.044315 -0.010786
# 6 0.007173 0.000710 -0.001012 0.005209 -0.010786 0.038508
#
#
# Mechanical properties :
#
#
# Convention : Reuss Voigt Hill
#
# Bulk Modulus (GPa) = 45.58770 68.84773 57.21771
# Shear Modulus (GPa) = 27.30694 37.10790 32.20742
#
# Velocity S-wave (km/s) = 3.46911 4.04403 3.76755
# Velocity P-wave (km/s) = 6.01147 7.22137 6.64402
#
# Compressibility (1/GPa) = 0.02193574
#
# Stress axis : x y z
#
# Youngs Moduli (GPa) = 88.79816 83.59692 73.68605
#
# Poissons Ratio (x) = 0.27230 0.40370
# Poissons Ratio (y) = 0.28924 -0.09626
# Poissons Ratio (z) = 0.48649 -0.10921
#
# Static dielectric constant tensor:
#      x y z
#    x 1.862870 0.041130 -0.015300 
#    y 0.041130 1.876980 0.035890 
#    z -0.015300 0.035890 1.854430 
# 
# From -- ./inp_files/601933.got.cif
#   From: 2010.05.17/outbox.cif.g08.bks.cpg/sg2_301_cif.got.tgz:601933.got - 2010.06.03 11:33:40.
