data_PCOD9043603
_publ_section_title
;
Structure prediction by ZEFSAII (Michael W. Deem and Ramdas Pophale) SiO2 
 PCOD9043603
Probable space group: P -1
;
_chemical_formula_sum "Si O2"
_cell_formula_units_Z 14
_cell_length_a 16.011045
_cell_length_b 8.109573
_cell_length_c 5.296434
_cell_angle_alpha 79.550578
_cell_angle_beta 81.887981
_cell_angle_gamma 117.253376
_cell_volume 581.123124
_symmetry_space_group_name_H-M "P -1"
_symmetry_group_IT_number 2
_symmetry_cell_setting 'triclinic'
loop_
_space_group_symop_operation_xyz
x,y,z
-x,-y,-z
loop_
_atom_site_type_symbol
_atom_site_label
_atom_site_fract_x
_atom_site_fract_y
_atom_site_fract_z
Si Si1 0.562465 0.032023 0.711924
Si Si2 0.954930 0.115795 0.116716
Si Si3 0.800746 0.140948 0.406159
Si Si4 0.284311 0.514093 0.402390
Si Si5 0.241627 0.010234 0.021346
Si Si6 0.603929 0.675300 0.829903
Si Si7 0.836625 0.533688 0.052467
O O1 0.643675 0.261305 0.618294
O O2 0.500000 0.000000 0.500000
O O3 0.584095 0.853077 0.745825
O O4 0.500000 0.000000 0.000000
O O5 0.119674 0.932068 0.603743
O O6 0.872404 0.081339 0.958393
O O7 0.051503 0.311925 0.088382
O O8 0.000000 0.000000 0.000000
O O9 0.762960 0.121933 0.707537
O O10 0.841650 0.349499 0.210531
O O11 0.722513 0.016116 0.258532
O O12 0.347736 0.407936 0.363085
O O13 0.209925 0.417938 0.696650
O O14 0.226639 0.499769 0.166701
O O15 0.309954 0.226125 0.024408
O O16 0.500000 0.500000 0.000000
#
# Coordination Sequence:
#
# PCOD9043603 Si02
#       7
#     2   2   2   2   2   2   2
#     4  12  27  52  77 109 148 195 244 310 373 430
#     4  10  25  43  70 104 148 188 243 294 363 438
#     4  10  23  45  72  99 148 189 241 300 365 424
#     4  12  29  47  77 113 146 195 245 303 371 438
#     4  10  25  44  73 105 142 195 239 300 368 423
#     4  12  27  52  79 108 153 194 253 308 371 445
#     4  12  25  46  73 109 146 189 246 298 363 443
#
# _framework density 24.091282
#
# number of rings (size 3 to 8) (size 9 to 14) (size 15 to 20)
#    0.857    0.000    1.429    4.714    4.000    4.000 
#    0.000    0.000    0.000    0.000    0.000    0.000 
#    0.000    0.000    0.000    0.000    0.000    0.000 
#
# Total GULP energy -77945.432409 kJ/mol
# GULP energy per Si atom -5567.530886 kJ/mol
# Density = 2.403645 g / cm^3
# Si number density = 24.091282 Si / 1000 Ang^3
#
#
#
# Elastic Constant Matrix: (Units=GPa)
#
#
# Indices 1 2 3 4 5 6 
#
# 1 127.4683 49.6985 54.6170 16.3947 -5.2711 -20.8359
# 2 49.6985 123.9122 30.6260 24.5425 20.2077 8.9392
# 3 54.6170 30.6260 163.7020 18.4320 1.7340 10.4708
# 4 16.3947 24.5425 18.4320 28.3083 2.1902 2.4459
# 5 -5.2711 20.2077 1.7340 2.1902 41.9468 5.5330
# 6 -20.8359 8.9392 10.4708 2.4459 5.5330 51.8703
#
#
#
# Elastic Compliance Matrix: (Units=1/GPa)
#
#
# Indices 1 2 3 4 5 6 
#
# 1 0.012665 -0.004887 -0.003576 -0.001578 0.003336 0.006370
# 2 -0.004887 0.012643 0.000396 -0.007653 -0.005895 -0.003232
# 3 -0.003576 0.000396 0.007759 -0.003043 -0.000422 -0.002883
# 4 -0.001578 -0.007653 -0.003043 0.044830 0.001401 -0.000964
# 5 0.003336 -0.005895 -0.000422 0.001401 0.027111 -0.000517
# 6 0.006370 -0.003232 -0.002883 -0.000964 -0.000517 0.023077
#
#
# Mechanical properties :
#
#
# Convention : Reuss Voigt Hill
#
# Bulk Modulus (GPa) = 59.05713 76.10729 67.58221
# Shear Modulus (GPa) = 33.36363 43.10114 38.23239
#
# Velocity S-wave (km/s) = 3.72544 4.23434 3.98801
# Velocity P-wave (km/s) = 6.56295 7.45426 7.02276
#
# Compressibility (1/GPa) = 0.01693276
#
# Stress axis : x y z
#
# Youngs Moduli (GPa) = 78.95858 79.09750 128.87921
#
# Poissons Ratio (x) = 0.38652 0.46092
# Poissons Ratio (y) = 0.38584 -0.05104
# Poissons Ratio (z) = 0.28238 -0.03132
#
# Static dielectric constant tensor:
#      x y z
#    x 2.318020 -0.018590 -0.060340 
#    y -0.018590 2.010210 -0.007580 
#    z -0.060340 -0.007580 2.000600 
# 
# From -- ./inp_files/105031.got.cif
#   From: 2010.05.17/outbox.cif.g08.bks.cpg/sg2_53_cif.got.tgz:105031.got - 2010.06.03 11:33:40.
