data_PCOD9043592
_publ_section_title
;
Structure prediction by ZEFSAII (Michael W. Deem and Ramdas Pophale) SiO2 
 PCOD9043592
Probable space group: P -1
;
_chemical_formula_sum "Si O2"
_cell_formula_units_Z 16
_cell_length_a 9.169733
_cell_length_b 9.687693
_cell_length_c 15.073670
_cell_angle_alpha 113.115612
_cell_angle_beta 140.974646
_cell_angle_gamma 64.071868
_cell_volume 754.964841
_symmetry_space_group_name_H-M "P -1"
_symmetry_group_IT_number 2
_symmetry_cell_setting 'triclinic'
loop_
_space_group_symop_operation_xyz
x,y,z
-x,-y,-z
loop_
_atom_site_type_symbol
_atom_site_label
_atom_site_fract_x
_atom_site_fract_y
_atom_site_fract_z
Si Si1 0.897336 0.601314 0.393279
Si Si2 0.446259 0.497621 0.078504
Si Si3 0.611851 0.801865 0.920930
Si Si4 0.099727 0.365481 0.151380
Si Si5 0.160157 0.643999 0.359248
Si Si6 0.852906 0.952749 0.221218
Si Si7 0.600646 0.794422 0.594990
Si Si8 0.737672 0.885672 0.500722
O O1 0.649623 0.563100 0.238673
O O2 0.851214 0.777925 0.447172
O O3 0.000000 0.500000 0.500000
O O4 0.081442 0.569188 0.391226
O O5 0.452069 0.326890 0.075996
O O6 0.500000 0.500000 0.000000
O O7 0.179749 0.598671 0.992093
O O8 0.746318 0.713832 0.878250
O O9 0.373070 0.927409 0.815240
O O10 0.773424 0.895429 0.075348
O O11 0.156786 0.529200 0.246883
O O12 0.178385 0.260433 0.249120
O O13 0.407895 0.693586 0.498941
O O14 0.955727 0.798186 0.285820
O O15 0.067098 0.038469 0.340686
O O16 0.652963 0.786353 0.512879
O O17 0.472283 0.973676 0.594029
#
# Coordination Sequence:
#
# PCOD9043592 Si02
#       8
#     2   2   2   2   2   2   2   2
#     4  12  26  43  75 105 134 189 238 287 345 419
#     4  12  26  47  70 102 148 179 235 292 350 420
#     4  11  25  43  72 101 136 189 231 285 359 415
#     4  12  25  43  70 105 137 187 233 290 353 417
#     4  11  24  45  70 102 143 181 236 292 344 420
#     4  10  23  45  72  97 142 181 236 286 350 418
#     4  10  25  43  68 103 144 183 232 295 347 414
#     4  10  24  45  69  99 144 183 236 286 349 412
#
# _framework density 21.19304
#
# number of rings (size 3 to 8) (size 9 to 14) (size 15 to 20)
#    0.000    1.000    2.500    2.250    8.750    3.000 
#    0.000    1.250    0.000    0.000    0.000    0.000 
#    0.000    0.000    0.000    0.000    0.000    0.000 
#
# Total GULP energy -89517.765518 kJ/mol
# GULP energy per Si atom -5594.860345 kJ/mol
# Density = 2.114480 g / cm^3
# Si number density = 21.193040 Si / 1000 Ang^3
#
#
#
# Elastic Constant Matrix: (Units=GPa)
#
#
# Indices 1 2 3 4 5 6 
#
# 1 96.5722 47.3766 30.8920 6.5022 -11.5679 -21.0489
# 2 47.3766 107.1634 47.2737 -6.2722 2.5294 -15.6865
# 3 30.8920 47.2737 102.8326 -7.0028 7.8657 12.6557
# 4 6.5022 -6.2722 -7.0028 37.5789 -5.1751 -1.1665
# 5 -11.5679 2.5294 7.8657 -5.1751 22.4084 8.0699
# 6 -21.0489 -15.6865 12.6557 -1.1665 8.0699 26.3920
#
#
#
# Elastic Compliance Matrix: (Units=1/GPa)
#
#
# Indices 1 2 3 4 5 6 
#
# 1 0.017890 -0.003777 -0.005937 -0.003565 0.006320 0.012780
# 2 -0.003777 0.016091 -0.007193 0.001665 -0.005040 0.011616
# 3 -0.005937 -0.007193 0.017146 0.002262 -0.001774 -0.016590
# 4 -0.003565 0.001665 0.002262 0.028504 0.004905 -0.003178
# 5 0.006320 -0.005040 -0.001774 0.004905 0.055167 -0.013756
# 6 0.012780 0.011616 -0.016590 -0.003178 -0.013756 0.067008
#
#
# Mechanical properties :
#
#
# Convention : Reuss Voigt Hill
#
# Bulk Modulus (GPa) = 57.76088 61.96141 59.86115
# Shear Modulus (GPa) = 20.71322 29.34426 25.02874
#
# Velocity S-wave (km/s) = 3.12967 3.72508 3.44028
# Velocity P-wave (km/s) = 6.35402 6.91388 6.63986
#
# Compressibility (1/GPa) = 0.01731275
#
# Stress axis : x y z
#
# Youngs Moduli (GPa) = 55.89859 62.14491 58.32097
#
# Poissons Ratio (x) = 0.23473 0.34624
# Poissons Ratio (y) = 0.21114 0.41953
# Poissons Ratio (z) = 0.33186 0.44704
#
# Static dielectric constant tensor:
#      x y z
#    x 1.754840 -0.004310 0.013700 
#    y -0.004310 1.800890 -0.008900 
#    z 0.013700 -0.008900 1.735870 
# 
# From -- ./inp_files/299082.got.cif
#   From: 2010.05.17/outbox.cif.g08.bks.cpg/sg2_150_cif.got.tgz:299082.got - 2010.06.03 11:33:40.
