data_PCOD9043379
_publ_section_title
;
Structure prediction by ZEFSAII (Michael W. Deem and Ramdas Pophale) SiO2 
 PCOD9043379
Probable space group: P -1
;
_chemical_formula_sum "Si O2"
_cell_formula_units_Z 16
_cell_length_a 10.075954
_cell_length_b 11.917263
_cell_length_c 13.479909
_cell_angle_alpha 140.753950
_cell_angle_beta 46.585188
_cell_angle_gamma 115.371471
_cell_volume 724.645248
_symmetry_space_group_name_H-M "P -1"
_symmetry_group_IT_number 2
_symmetry_cell_setting 'triclinic'
loop_
_space_group_symop_operation_xyz
x,y,z
-x,-y,-z
loop_
_atom_site_type_symbol
_atom_site_label
_atom_site_fract_x
_atom_site_fract_y
_atom_site_fract_z
Si Si1 0.507383 0.033815 0.775589
Si Si2 0.028834 0.963902 0.124203
Si Si3 0.408357 0.329390 0.419079
Si Si4 0.383521 0.794578 0.960760
Si Si5 0.025124 0.617974 0.335845
Si Si6 0.856955 0.005530 0.435050
Si Si7 0.119624 0.617274 0.077386
Si Si8 0.086259 0.249418 0.138511
O O1 0.662008 0.037764 0.615286
O O2 0.494186 0.828135 0.663547
O O3 0.577420 0.099599 0.889602
O O4 0.303751 0.156295 0.944461
O O5 0.024478 0.153482 0.201345
O O6 0.216637 0.907336 0.054832
O O7 0.859458 0.967154 0.289942
O O8 0.026617 0.813728 0.938395
O O9 0.500000 0.500000 0.500000
O O10 0.443719 0.263144 0.241520
O O11 0.188480 0.365820 0.576837
O O12 0.305211 0.625657 0.927173
O O13 0.060755 0.814016 0.477399
O O14 0.151431 0.551317 0.128283
O O15 0.062156 0.465092 0.296555
O O16 0.998060 0.827577 0.287098
O O17 0.000000 0.500000 0.000000
#
# Coordination Sequence:
#
# PCOD9043379 Si02
#       8
#     2   2   2   2   2   2   2   2
#     4  12  25  46  71 102 141 177 234 286 341 404
#     4  10  23  45  70  96 139 184 228 269 355 410
#     4  12  24  40  68 106 133 177 236 290 325 406
#     4  11  23  43  72 102 131 180 231 285 336 402
#     4  12  24  43  68 100 142 177 229 281 349 410
#     4  11  24  44  70  99 135 184 231 284 336 413
#     4  11  21  40  70 101 133 179 227 282 340 406
#     4  11  26  45  68 100 144 186 217 286 352 412
#
# _framework density 22.079768999999999
#
# number of rings (size 3 to 8) (size 9 to 14) (size 15 to 20)
#    0.000    0.750    3.750    5.250    3.500    1.500 
#    0.000    0.000    0.000    0.000    0.000    0.000 
#    0.000    0.000    0.000    0.000    0.000    0.000 
#
# Total GULP energy -89511.512019 kJ/mol
# GULP energy per Si atom -5594.469501 kJ/mol
# Density = 2.202951 g / cm^3
# Si number density = 22.079769 Si / 1000 Ang^3
#
#
#
# Elastic Constant Matrix: (Units=GPa)
#
#
# Indices 1 2 3 4 5 6 
#
# 1 56.9737 14.5027 9.5452 4.0593 5.0813 -0.3246
# 2 14.5027 141.6267 32.0362 -0.5326 9.2860 7.3926
# 3 9.5452 32.0362 49.6882 -5.5844 -3.9151 -5.9159
# 4 4.0593 -0.5326 -5.5844 52.1677 -3.4705 12.0595
# 5 5.0813 9.2860 -3.9151 -3.4705 30.7738 -4.3636
# 6 -0.3246 7.3926 -5.9159 12.0595 -4.3636 35.5307
#
#
#
# Elastic Compliance Matrix: (Units=1/GPa)
#
#
# Indices 1 2 3 4 5 6 
#
# 1 0.018840 -0.000908 -0.003540 -0.002100 -0.003516 0.000053
# 2 -0.000908 0.009023 -0.006353 0.000017 -0.003865 -0.003424
# 3 -0.003540 -0.006353 0.026380 0.002154 0.006923 0.005801
# 4 -0.002100 0.000017 0.002154 0.021230 0.002072 -0.006615
# 5 -0.003516 -0.003865 0.006923 0.002072 0.036159 0.005662
# 6 0.000053 -0.003424 0.005801 -0.006615 0.005662 0.032764
#
#
# Mechanical properties :
#
#
# Convention : Reuss Voigt Hill
#
# Bulk Modulus (GPa) = 30.63824 40.05077 35.34450
# Shear Modulus (GPa) = 28.26761 36.50807 32.38784
#
# Velocity S-wave (km/s) = 3.58194 4.07069 3.83411
# Velocity P-wave (km/s) = 5.56896 6.34606 5.97017
#
# Compressibility (1/GPa) = 0.03263895
#
# Stress axis : x y z
#
# Youngs Moduli (GPa) = 53.07873 110.82589 37.90730
#
# Poissons Ratio (x) = 0.10068 0.13420
# Poissons Ratio (y) = 0.04822 0.24084
# Poissons Ratio (z) = 0.18792 0.70412
#
# Static dielectric constant tensor:
#      x y z
#    x 1.789420 -0.000660 0.026440 
#    y -0.000660 1.819140 0.004140 
#    z 0.026440 0.004140 1.845710 
# 
# From -- ./inp_files/519894.got.cif
#   From: 2010.05.17/outbox.cif.g08.bks.cpg/sg2_260_cif.got.tgz:519894.got - 2010.06.03 11:33:40.
