data_PCOD9043814
_publ_section_title
;
Structure prediction by ZEFSAII (Michael W. Deem and Ramdas Pophale) SiO2 
 PCOD9043814
Probable space group: P -1
;
_chemical_formula_sum "Si O2"
_cell_formula_units_Z 16
_cell_length_a 23.332344
_cell_length_b 10.569457
_cell_length_c 5.513426
_cell_angle_alpha 118.561856
_cell_angle_beta 118.399119
_cell_angle_gamma 35.650916
_cell_volume 685.881492
_symmetry_space_group_name_H-M "P -1"
_symmetry_group_IT_number 2
_symmetry_cell_setting 'triclinic'
loop_
_space_group_symop_operation_xyz
x,y,z
-x,-y,-z
loop_
_atom_site_type_symbol
_atom_site_label
_atom_site_fract_x
_atom_site_fract_y
_atom_site_fract_z
Si Si1 0.751825 0.332146 0.932295
Si Si2 0.077379 0.913736 0.301911
Si Si3 0.833148 0.448017 0.471878
Si Si4 0.474223 0.372537 0.325066
Si Si5 0.446238 0.745689 0.123090
Si Si6 0.911106 0.862355 0.089771
Si Si7 0.925941 0.493480 0.291238
Si Si8 0.780480 0.826260 0.959250
O O1 0.812966 0.277772 0.770592
O O2 0.643950 0.451092 0.770549
O O3 0.751888 0.473337 0.228952
O O4 0.826550 0.092071 0.985943
O O5 0.076037 0.075539 0.571292
O O6 0.909582 0.217145 0.563548
O O7 0.000000 0.000000 0.000000
O O8 0.891517 0.432913 0.359910
O O9 0.783284 0.659269 0.714589
O O10 0.500000 0.500000 0.500000
O O11 0.516452 0.242321 0.544189
O O12 0.524137 0.230154 0.048825
O O13 0.327520 0.925665 0.056599
O O14 0.500000 0.500000 0.000000
O O15 0.865244 0.781540 0.963631
O O16 0.011972 0.680904 0.968305
O O17 0.000000 0.500000 0.500000
O O18 0.821468 0.742724 0.236131
#
# Coordination Sequence:
#
# PCOD9043814 Si02
#       8
#     2   2   2   2   2   2   2   2
#     4  11  27  45  79 110 159 201 259 324 391 467
#     4  11  29  48  75 110 160 215 264 314 386 470
#     4  11  28  51  72 109 163 203 258 317 397 459
#     4  10  23  45  76 112 147 190 257 330 393 457
#     4  10  24  45  77 111 151 191 257 331 397 460
#     4  11  27  45  76 115 151 211 266 312 386 469
#     4  12  28  46  75 113 162 206 262 322 389 468
#     4  12  27  45  79 112 157 203 258 327 392 471
#
# _framework density 23.327645
#
# number of rings (size 3 to 8) (size 9 to 14) (size 15 to 20)
#    0.000    1.000    1.250    2.625   15.750    2.500 
#    0.000    1.250    0.000    0.000    0.000    0.000 
#    0.000    0.000    0.000    0.000    0.000    0.000 
#
# Total GULP energy -89400.439938 kJ/mol
# GULP energy per Si atom -5587.527496 kJ/mol
# Density = 2.327455 g / cm^3
# Si number density = 23.327645 Si / 1000 Ang^3
#
#
#
# Elastic Constant Matrix: (Units=GPa)
#
#
# Indices 1 2 3 4 5 6 
#
# 1 103.8241 32.3820 34.7390 -24.1231 5.8488 -2.5783
# 2 32.3820 115.5163 33.7583 -30.6592 9.8285 -14.2323
# 3 34.7390 33.7583 135.6040 -20.4209 6.4031 -5.6054
# 4 -24.1231 -30.6592 -20.4209 40.9827 3.7301 8.3999
# 5 5.8488 9.8285 6.4031 3.7301 54.4493 -2.6184
# 6 -2.5783 -14.2323 -5.6054 8.3999 -2.6184 47.4934
#
#
#
# Elastic Compliance Matrix: (Units=1/GPa)
#
#
# Indices 1 2 3 4 5 6 
#
# 1 0.012000 -0.001398 -0.001898 0.005391 -0.001231 -0.001013
# 2 -0.001398 0.011745 -0.001310 0.007121 -0.002212 0.001908
# 3 -0.001898 -0.001310 0.008557 0.002215 -0.000714 0.000083
# 4 0.005391 0.007121 0.002215 0.035213 -0.004720 -0.003800
# 5 -0.001231 -0.002212 -0.000714 -0.004720 0.019357 0.001088
# 6 -0.001013 0.001908 0.000083 -0.003800 0.001088 0.022314
#
#
# Mechanical properties :
#
#
# Convention : Reuss Voigt Hill
#
# Bulk Modulus (GPa) = 43.30970 61.85589 52.58280
# Shear Modulus (GPa) = 39.65279 45.52275 42.58777
#
# Velocity S-wave (km/s) = 4.12736 4.42232 4.27738
# Velocity P-wave (km/s) = 6.42803 7.25600 6.85453
#
# Compressibility (1/GPa) = 0.02308951
#
# Stress axis : x y z
#
# Youngs Moduli (GPa) = 83.33597 85.14448 116.85816
#
# Poissons Ratio (x) = 0.11906 0.22177
# Poissons Ratio (y) = 0.11653 0.15308
# Poissons Ratio (z) = 0.15816 0.11154
#
# Static dielectric constant tensor:
#      x y z
#    x 1.938080 0.050500 -0.077330 
#    y 0.050500 1.858830 -0.007280 
#    z -0.077330 -0.007280 2.028210 
# 
# From -- ./inp_files/123807.got.cif
#   From: 2010.05.17/outbox.cif.g08.bks.cpg/sg2_62_cif.got.tgz:123807.got - 2010.06.03 11:33:40.
