data_PCOD9043493
_publ_section_title
;
Structure prediction by ZEFSAII (Michael W. Deem and Ramdas Pophale) SiO2 
 PCOD9043493
Probable space group: P -1
;
_chemical_formula_sum "Si O2"
_cell_formula_units_Z 14
_cell_length_a 9.790395
_cell_length_b 16.547264
_cell_length_c 15.916930
_cell_angle_alpha 151.614908
_cell_angle_beta 35.570929
_cell_angle_gamma 144.099221
_cell_volume 670.233278
_symmetry_space_group_name_H-M "P -1"
_symmetry_group_IT_number 2
_symmetry_cell_setting 'triclinic'
loop_
_space_group_symop_operation_xyz
x,y,z
-x,-y,-z
loop_
_atom_site_type_symbol
_atom_site_label
_atom_site_fract_x
_atom_site_fract_y
_atom_site_fract_z
Si Si1 0.247042 0.825303 0.839589
Si Si2 0.913040 0.472747 0.112851
Si Si3 0.378696 0.235870 0.178250
Si Si4 0.756404 0.750854 0.562314
Si Si5 0.026284 0.710592 0.666687
Si Si6 0.221567 0.862873 0.525004
Si Si7 0.786096 0.523940 0.885686
O O1 0.512477 0.795842 0.695680
O O2 0.176160 0.814584 0.766938
O O3 0.005150 0.676387 0.866100
O O4 0.274113 0.020693 0.040903
O O5 0.672051 0.295552 0.077728
O O6 0.827092 0.627510 0.344085
O O7 0.135797 0.449820 0.033337
O O8 0.000000 0.500000 0.000000
O O9 0.324363 0.330765 0.377309
O O10 0.255860 0.293438 0.211344
O O11 0.018160 0.904170 0.602512
O O12 0.000000 0.500000 0.500000
O O13 0.150749 0.821640 0.621301
O O14 0.203291 0.666570 0.323032
O O15 0.500000 0.000000 0.500000
O O16 0.500000 0.500000 0.000000
#
# Coordination Sequence:
#
# PCOD9043493 Si02
#       7
#     2   2   2   2   2   2   2
#     4  12  24  42  70 105 134 183 239 286 340 419
#     4  11  25  43  67  99 137 179 232 293 352 406
#     4  11  24  42  71  98 136 183 235 280 342 424
#     4  10  23  45  71  95 135 183 235 281 345 416
#     4  11  23  42  69 100 133 181 235 285 337 409
#     4  10  24  44  69  98 135 183 228 283 354 408
#     4  11  26  40  64  98 143 178 227 287 358 404
#
# _framework density 20.888251
#
# number of rings (size 3 to 8) (size 9 to 14) (size 15 to 20)
#    0.000    1.143    2.857    2.143    8.000    3.429 
#    0.000    1.429    0.000    0.000    0.000    0.000 
#    0.000    0.000    0.000    0.000    0.000    0.000 
#
# Total GULP energy -78031.813835 kJ/mol
# GULP energy per Si atom -5573.700988 kJ/mol
# Density = 2.084071 g / cm^3
# Si number density = 20.888251 Si / 1000 Ang^3
#
#
#
# Elastic Constant Matrix: (Units=GPa)
#
#
# Indices 1 2 3 4 5 6 
#
# 1 209.5797 63.2875 54.8976 -20.0336 -4.6226 21.2428
# 2 63.2875 130.1934 43.7513 -1.6509 12.6295 23.2645
# 3 54.8976 43.7513 94.1472 1.8709 -2.0156 10.7967
# 4 -20.0336 -1.6509 1.8709 32.2974 2.1131 -0.2900
# 5 -4.6226 12.6295 -2.0156 2.1131 43.7809 -10.9050
# 6 21.2428 23.2645 10.7967 -0.2900 -10.9050 36.4277
#
#
#
# Elastic Compliance Matrix: (Units=1/GPa)
#
#
# Indices 1 2 3 4 5 6 
#
# 1 0.006700 -0.002017 -0.002860 0.004167 0.000566 -0.001568
# 2 -0.002017 0.011588 -0.003542 -0.000161 -0.005403 -0.006793
# 3 -0.002860 -0.003542 0.014000 -0.002866 0.001559 0.000224
# 4 0.004167 -0.000161 -0.002866 0.033801 -0.001705 -0.001719
# 5 0.000566 -0.005403 0.001559 -0.001705 0.027309 0.010820
# 6 -0.001568 -0.006793 0.000224 -0.001719 0.010820 0.035863
#
#
# Mechanical properties :
#
#
# Convention : Reuss Voigt Hill
#
# Bulk Modulus (GPa) = 64.73116 84.19923 74.46519
# Shear Modulus (GPa) = 33.05822 40.63347 36.84585
#
# Velocity S-wave (km/s) = 3.98253 4.41532 4.20450
# Velocity P-wave (km/s) = 7.22523 8.14802 7.70046
#
# Compressibility (1/GPa) = 0.01544851
#
# Stress axis : x y z
#
# Youngs Moduli (GPa) = 149.26384 86.29752 71.42916
#
# Poissons Ratio (x) = 0.17410 0.20428
# Poissons Ratio (y) = 0.30114 0.25301
# Poissons Ratio (z) = 0.42687 0.30567
#
# Static dielectric constant tensor:
#      x y z
#    x 1.813750 0.041180 -0.075580 
#    y 0.041180 1.800900 -0.059040 
#    z -0.075580 -0.059040 1.820620 
# 
# From -- ./inp_files/175383.got.cif
#   From: 2010.05.17/outbox.cif.g08.bks.cpg/sg2_88_cif.got.tgz:175383.got - 2010.06.03 11:33:40.
