data_PCOD9043924
_publ_section_title
;
Structure prediction by ZEFSAII (Michael W. Deem and Ramdas Pophale) SiO2 
 PCOD9043924
Probable space group: P -1
;
_chemical_formula_sum "Si O2"
_cell_formula_units_Z 16
_cell_length_a 12.097420
_cell_length_b 13.929525
_cell_length_c 9.294878
_cell_angle_alpha 110.425234
_cell_angle_beta 54.424354
_cell_angle_gamma 66.489025
_cell_volume 732.340499
_symmetry_space_group_name_H-M "P -1"
_symmetry_group_IT_number 2
_symmetry_cell_setting 'triclinic'
loop_
_space_group_symop_operation_xyz
x,y,z
-x,-y,-z
loop_
_atom_site_type_symbol
_atom_site_label
_atom_site_fract_x
_atom_site_fract_y
_atom_site_fract_z
Si Si1 0.710345 0.344933 0.362656
Si Si2 0.314312 0.841258 0.841556
Si Si3 0.189679 0.239112 0.756427
Si Si4 0.155743 0.154746 0.011009
Si Si5 0.523922 0.384275 0.830307
Si Si6 0.265898 0.425922 0.832258
Si Si7 0.252527 0.890903 0.249964
Si Si8 0.525065 0.023537 0.832558
O O1 0.500000 0.500000 0.500000
O O2 0.819573 0.182190 0.113232
O O3 0.635434 0.349170 0.577248
O O4 0.895026 0.317399 0.256146
O O5 0.537008 0.697071 0.500674
O O6 0.342523 0.821392 0.982031
O O7 0.202308 0.015375 0.971538
O O8 0.211939 0.339530 0.855399
O O9 0.341387 0.136921 0.449203
O O10 0.255073 0.113051 0.754730
O O11 0.934715 0.388566 0.981416
O O12 0.278852 0.165533 0.022424
O O13 0.315003 0.449140 0.959333
O O14 0.644063 0.236303 0.767677
O O15 0.500000 0.500000 0.000000
O O16 0.325262 0.963558 0.271335
O O17 0.000000 0.000000 0.500000
O O18 0.500000 0.000000 0.000000
#
# Coordination Sequence:
#
# PCOD9043924 Si02
#       8
#     2   2   2   2   2   2   2   2
#     4  11  25  44  69 100 143 187 241 294 352 427
#     4  11  23  44  66 102 140 183 239 295 355 422
#     4  11  24  41  73  98 135 183 239 291 355 424
#     4  12  23  41  70 101 133 183 237 293 352 421
#     4  11  25  42  67  99 139 184 234 288 354 425
#     4  10  23  46  67 100 136 184 238 295 350 426
#     4  12  27  44  71 103 147 189 238 297 362 430
#     4  12  26  45  70 105 148 186 235 298 363 425
#
# _framework density 21.847760999999998
#
# number of rings (size 3 to 8) (size 9 to 14) (size 15 to 20)
#    0.000    0.750    2.500    4.500    7.000    0.000 
#    0.000    0.000    0.000    6.750    0.000    0.000 
#    0.000    0.000    0.000    0.000    0.000    0.000 
#
# Total GULP energy -89205.189171 kJ/mol
# GULP energy per Si atom -5575.324323 kJ/mol
# Density = 2.179803 g / cm^3
# Si number density = 21.847761 Si / 1000 Ang^3
#
#
#
# Elastic Constant Matrix: (Units=GPa)
#
#
# Indices 1 2 3 4 5 6 
#
# 1 187.7181 57.8926 33.3229 11.3678 -5.7858 -24.6042
# 2 57.8926 162.1288 35.3676 -15.8230 -3.3036 -21.2762
# 3 33.3229 35.3676 41.5784 -6.6611 -5.2964 -20.3717
# 4 11.3678 -15.8230 -6.6611 16.5326 -7.7751 12.6329
# 5 -5.7858 -3.3036 -5.2964 -7.7751 43.4356 -1.5863
# 6 -24.6042 -21.2762 -20.3717 12.6329 -1.5863 32.2023
#
#
#
# Elastic Compliance Matrix: (Units=1/GPa)
#
#
# Indices 1 2 3 4 5 6 
#
# 1 0.009541 -0.003376 -0.002947 -0.020808 -0.002660 0.011227
# 2 -0.003376 0.009225 -0.005177 0.013866 0.001916 -0.005104
# 3 -0.002947 -0.005177 0.041741 0.000380 0.005133 0.020838
# 4 -0.020808 0.013866 0.000380 0.146861 0.022317 -0.063011
# 5 -0.002660 0.001916 0.005133 0.022317 0.027255 -0.004931
# 6 0.011227 -0.005104 0.020838 -0.063011 -0.004931 0.073918
#
#
# Mechanical properties :
#
#
# Convention : Reuss Voigt Hill
#
# Bulk Modulus (GPa) = 26.66111 71.62128 49.14120
# Shear Modulus (GPa) = 14.53311 36.09024 25.31167
#
# Velocity S-wave (km/s) = 2.58194 4.06876 3.40744
# Velocity P-wave (km/s) = 4.59545 7.41122 6.16622
#
# Compressibility (1/GPa) = 0.03750782
#
# Stress axis : x y z
#
# Youngs Moduli (GPa) = 104.81097 108.39966 23.95747
#
# Poissons Ratio (x) = 0.36592 0.07059
# Poissons Ratio (y) = 0.35381 0.12403
# Poissons Ratio (z) = 0.30884 0.56120
#
# Static dielectric constant tensor:
#      x y z
#    x 1.953820 -0.079060 -0.067080 
#    y -0.079060 1.972380 -0.058850 
#    z -0.067080 -0.058850 1.864500 
# 
# From -- ./inp_files/273614.got.cif
#   From: 2010.05.17/outbox.cif.g08.bks.cpg/sg2_137_cif.got.tgz:273614.got - 2010.06.03 11:33:40.
