data_PCOD9043980
_publ_section_title
;
Structure prediction by ZEFSAII (Michael W. Deem and Ramdas Pophale) SiO2 
 PCOD9043980
Probable space group: P -1
;
_chemical_formula_sum "Si O2"
_cell_formula_units_Z 13
_cell_length_a 6.617660
_cell_length_b 12.468222
_cell_length_c 8.542747
_cell_angle_alpha 78.236128
_cell_angle_beta 59.848231
_cell_angle_gamma 75.373451
_cell_volume 587.238264
_symmetry_space_group_name_H-M "P -1"
_symmetry_group_IT_number 2
_symmetry_cell_setting 'triclinic'
loop_
_space_group_symop_operation_xyz
x,y,z
-x,-y,-z
loop_
_atom_site_type_symbol
_atom_site_label
_atom_site_fract_x
_atom_site_fract_y
_atom_site_fract_z
Si Si1 0.763606 0.571999 0.144886
Si Si2 0.975455 0.757452 0.618913
Si Si3 0.361143 0.650963 0.727418
Si Si4 0.034891 0.924637 0.163556
Si Si5 0.000000 0.000000 0.500000
Si Si6 0.505773 0.246033 0.043099
Si Si7 0.811790 0.713420 0.378986
O O1 0.592154 0.482058 0.266652
O O2 0.848682 0.626601 0.250792
O O3 0.621940 0.668342 0.061659
O O4 0.000000 0.500000 0.000000
O O5 0.704343 0.799038 0.768485
O O6 0.968583 0.686845 0.483749
O O7 0.114209 0.692634 0.725290
O O8 0.078900 0.865277 0.500575
O O9 0.370873 0.688091 0.892348
O O10 0.548724 0.709103 0.543489
O O11 0.858618 0.833740 0.268041
O O12 0.990893 0.002724 0.308773
O O13 0.299043 0.851122 0.073514
O O14 0.000000 0.000000 0.000000
#
# Coordination Sequence:
#
# PCOD9043980 Si02
#       7
#     2   2   2   2   1   2   2
#     4  12  24  44  70 103 144 189 231 287 351 423
#     4  10  23  46  68 102 140 182 237 294 347 424
#     4  11  23  46  70 101 145 186 234 287 353 421
#     4  11  25  48  74 102 143 185 239 297 357 423
#     4  10  24  42  70 102 136 184 230 296 354 410
#     4  11  25  44  71 105 139 182 238 288 350 423
#     4  10  26  43  67 106 138 184 237 291 348 423
#
# _framework density 22.137522000000001
#
# number of rings (size 3 to 8) (size 9 to 14) (size 15 to 20)
#    0.000    1.231    1.538    2.769    6.462    2.462 
#    0.000    4.615    0.000    0.000    0.000    0.000 
#    0.000    0.000    0.000    0.000    0.000    0.000 
#
# Total GULP energy -72402.868856 kJ/mol
# GULP energy per Si atom -5569.451450 kJ/mol
# Density = 2.208714 g / cm^3
# Si number density = 22.137522 Si / 1000 Ang^3
#
#
#
# Elastic Constant Matrix: (Units=GPa)
#
#
# Indices 1 2 3 4 5 6 
#
# 1 72.0755 25.5405 28.9123 41.6114 19.1216 -16.0759
# 2 25.5405 44.4926 12.8409 17.1459 5.9355 -13.9053
# 3 28.9123 12.8409 94.0756 25.1931 8.9395 -5.6311
# 4 41.6114 17.1459 25.1931 37.8888 21.9730 24.4237
# 5 19.1216 5.9355 8.9395 21.9730 36.9371 3.7535
# 6 -16.0759 -13.9053 -5.6311 24.4237 3.7535 30.4111
#
#
#
# Elastic Compliance Matrix: (Units=1/GPa)
#
#
# Indices 1 2 3 4 5 6 
#
# 1 0.008242 -0.015778 -0.006183 0.021117 -0.010802 -0.019629
# 2 -0.015778 0.026295 -0.001901 0.011188 -0.001700 -0.005445
# 3 -0.006183 -0.001901 0.011991 0.002287 -0.000380 -0.003707
# 4 0.021117 0.011188 0.002287 -0.029510 0.000168 0.040381
# 5 -0.010802 -0.001700 -0.000380 0.000168 0.034037 -0.010894
# 6 -0.019629 -0.005445 -0.003707 0.040381 -0.010894 -0.011755
#
#
# Mechanical properties :
#
#
# Convention : Reuss Voigt Hill
#
# Bulk Modulus (GPa) = -837.00637 38.35901 -399.32368
# Shear Modulus (GPa) = 57.71981 30.60408 44.16194
#
# Velocity S-wave (km/s) = 5.11174 3.72217 4.47127
# Velocity P-wave (km/s) = 18.54926 5.98648 12.41445
#
# Compressibility (1/GPa) = -0.00119473
#
# Stress axis : x y z
#
# Youngs Moduli (GPa) = 121.33209 38.02984 83.39467
#
# Poissons Ratio (x) = 0.60004 0.51562
# Poissons Ratio (y) = 1.91438 0.15850
# Poissons Ratio (z) = 0.75018 0.07228
#
# Static dielectric constant tensor:
#      x y z
#    x 1.854930 0.004250 -0.016470 
#    y 0.004250 1.754260 -0.065780 
#    z -0.016470 -0.065780 1.893270 
# 
# From -- ./inp_files/23727.got.cif
#   From: 2010.05.17/outbox.cif.g08.bks.cpg/sg2_12_cif.got.tgz:23727.got - 2010.06.03 11:33:40.
