data_PCOD9043159
_publ_section_title
;
Structure prediction by ZEFSAII (Michael W. Deem and Ramdas Pophale) SiO2 
 PCOD9043159
Probable space group: P -1
;
_chemical_formula_sum "Si O2"
_cell_formula_units_Z 16
_cell_length_a 13.742344
_cell_length_b 17.763885
_cell_length_c 7.631856
_cell_angle_alpha 38.098583
_cell_angle_beta 36.938517
_cell_angle_gamma 35.960966
_cell_volume 603.532999
_symmetry_space_group_name_H-M "P -1"
_symmetry_group_IT_number 2
_symmetry_cell_setting 'triclinic'
loop_
_space_group_symop_operation_xyz
x,y,z
-x,-y,-z
loop_
_atom_site_type_symbol
_atom_site_label
_atom_site_fract_x
_atom_site_fract_y
_atom_site_fract_z
Si Si1 0.559624 0.311378 0.080681
Si Si2 0.626627 0.245698 0.514286
Si Si3 0.756090 0.007428 0.252787
Si Si4 0.210132 0.349522 0.639713
Si Si5 0.131959 0.657363 0.848468
Si Si6 0.139864 0.586949 0.587509
Si Si7 0.954757 0.978960 0.391760
Si Si8 0.295926 0.210565 0.120140
O O1 0.576996 0.276748 0.325641
O O2 0.643436 0.173330 0.095510
O O3 0.339418 0.370571 0.275171
O O4 0.698995 0.373275 0.751328
O O5 0.690387 0.355290 0.285958
O O6 0.797499 0.087051 0.549887
O O7 0.449781 0.257299 0.846359
O O8 0.861534 0.984035 0.329828
O O9 0.639474 0.930425 0.603396
O O10 0.907300 0.959598 0.969553
O O11 0.167936 0.466100 0.635905
O O12 0.290592 0.212495 0.907932
O O13 0.032975 0.352245 0.799099
O O14 0.166956 0.561835 0.803078
O O15 0.048384 0.817597 0.605184
O O16 0.921158 0.699653 0.677924
#
# Coordination Sequence:
#
# PCOD9043159 Si02
#       8
#     2   2   2   2   2   2   2   2
#     4  10  21  38  60  84 113 145 196 230 286 330
#     4  10  23  33  55  87 120 147 180 233 287 339
#     4  10  17  33  60  85 108 151 185 236 275 336
#     4  10  22  36  62  85 106 152 198 236 265 335
#     4  11  20  38  55  84 118 149 185 233 284 327
#     4  11  20  41  62  80 112 151 198 231 272 332
#     4  10  18  33  55  83 115 152 181 224 290 333
#     4  10  19  35  56  85 114 145 191 224 281 336
#
# _framework density 26.510566000000001
#
# number of rings (size 3 to 8) (size 9 to 14) (size 15 to 20)
#    0.000    1.750    3.750    3.750    1.750    1.500 
#    0.000    9.375    0.000    0.000    0.000    0.000 
#    0.000    0.000    0.000    0.000    0.000    0.000 
#
# Total GULP energy -89314.377367 kJ/mol
# GULP energy per Si atom -5582.148585 kJ/mol
# Density = 2.645023 g / cm^3
# Si number density = 26.510566 Si / 1000 Ang^3
#
#
#
# Elastic Constant Matrix: (Units=GPa)
#
#
# Indices 1 2 3 4 5 6 
#
# 1 64.0277 9.3771 30.2516 10.7340 -10.6377 0.3786
# 2 9.3771 76.5810 43.6655 12.7368 -15.1315 7.0863
# 3 30.2516 43.6655 260.4111 9.5553 -54.8268 -12.5750
# 4 10.7340 12.7368 9.5553 30.5573 -3.9146 -1.4528
# 5 -10.6377 -15.1315 -54.8268 -3.9146 40.2714 -2.2501
# 6 0.3786 7.0863 -12.5750 -1.4528 -2.2501 8.1207
#
#
#
# Elastic Compliance Matrix: (Units=1/GPa)
#
#
# Indices 1 2 3 4 5 6 
#
# 1 0.017680 0.000635 -0.001856 -0.005931 0.001532 -0.004890
# 2 0.000635 0.018930 -0.004316 -0.008045 -0.000768 -0.024884
# 3 -0.001856 -0.004316 0.007595 0.002176 0.009481 0.018631
# 4 -0.005931 -0.008045 0.002176 0.038767 0.003174 0.018483
# 5 0.001532 -0.000768 0.009481 0.003174 0.039664 0.026838
# 6 -0.004890 -0.024884 0.018631 0.018483 0.026838 0.184677
#
#
# Mechanical properties :
#
#
# Convention : Reuss Voigt Hill
#
# Bulk Modulus (GPa) = 30.18310 63.06759 46.62534
# Shear Modulus (GPa) = 15.17766 36.97160 26.07463
#
# Velocity S-wave (km/s) = 2.39532 3.73848 3.13957
# Velocity P-wave (km/s) = 4.36579 6.51738 5.54691
#
# Compressibility (1/GPa) = 0.03313113
#
# Stress axis : x y z
#
# Youngs Moduli (GPa) = 56.56102 52.82540 131.65871
#
# Poissons Ratio (x) = -0.03355 0.24441
# Poissons Ratio (y) = -0.03593 0.56825
# Poissons Ratio (z) = 0.10500 0.22800
#
# Static dielectric constant tensor:
#      x y z
#    x 2.165510 -0.148740 -0.059190 
#    y -0.148740 2.209470 -0.001320 
#    z -0.059190 -0.001320 2.180690 
# 
# From -- ./inp_files/203743.got.cif
#   From: 2010.05.17/outbox.cif.g08.bks.cpg/sg2_102_cif.got.tgz:203743.got - 2010.06.03 11:33:40.
