data_PCOD9043975
_publ_section_title
;
Structure prediction by ZEFSAII (Michael W. Deem and Ramdas Pophale) SiO2 
 PCOD9043975
Probable space group: P -1
;
_chemical_formula_sum "Si O2"
_cell_formula_units_Z 14
_cell_length_a 26.931430
_cell_length_b 14.475223
_cell_length_c 26.094125
_cell_angle_alpha 20.398031
_cell_angle_beta 169.602734
_cell_angle_gamma 160.587917
_cell_volume 602.252389
_symmetry_space_group_name_H-M "P -1"
_symmetry_group_IT_number 2
_symmetry_cell_setting 'triclinic'
loop_
_space_group_symop_operation_xyz
x,y,z
-x,-y,-z
loop_
_atom_site_type_symbol
_atom_site_label
_atom_site_fract_x
_atom_site_fract_y
_atom_site_fract_z
Si Si1 0.976097 0.252847 0.536488
Si Si2 0.478234 0.119096 0.360324
Si Si3 0.646879 0.958376 0.223213
Si Si4 0.915662 0.152795 0.995662
Si Si5 0.657003 0.141543 0.374468
Si Si6 0.084392 0.792356 0.810789
Si Si7 0.892477 0.528152 0.212548
O O1 0.758960 0.121506 0.430530
O O2 0.826805 0.414909 0.262113
O O3 0.246005 0.522795 0.689674
O O4 0.057477 0.019217 0.707692
O O5 0.800660 0.229866 0.607196
O O6 0.500000 0.000000 0.500000
O O7 0.252320 0.937462 0.182627
O O8 0.365454 0.379959 0.118293
O O9 0.823587 0.751111 0.525234
O O10 0.902662 0.258782 0.332584
O O11 0.392302 0.900021 0.037800
O O12 0.500000 0.000000 0.000000
O O13 0.038588 0.489750 0.946587
O O14 0.677236 0.014219 0.869619
O O15 0.165383 0.016887 0.329243
#
# Coordination Sequence:
#
# PCOD9043975 Si02
#       7
#     2   2   2   2   2   2   2
#     4  10  23  46  68 102 131 182 223 280 339 393
#     4  12  25  40  65  93 136 175 221 270 337 390
#     4  11  25  42  69  96 131 179 229 274 333 394
#     4  12  25  45  65 104 136 177 224 279 338 402
#     4  11  25  42  74  96 137 177 227 281 331 406
#     4  11  26  43  69  96 142 174 220 284 334 405
#     4  11  23  43  66  95 128 172 226 278 315 407
#
# _framework density 23.246068999999999
#
# number of rings (size 3 to 8) (size 9 to 14) (size 15 to 20)
#    0.000    0.857    2.857    3.429    4.000    6.857 
#    0.000    0.000    0.000    0.000    0.000    0.000 
#    0.000    0.000    0.000    0.000    0.000    0.000 
#
# Total GULP energy -78258.878658 kJ/mol
# GULP energy per Si atom -5589.919904 kJ/mol
# Density = 2.319316 g / cm^3
# Si number density = 23.246069 Si / 1000 Ang^3
#
#
#
# Elastic Constant Matrix: (Units=GPa)
#
#
# Indices 1 2 3 4 5 6 
#
# 1 151.4503 55.9151 31.7103 12.3314 3.6710 36.8505
# 2 55.9151 103.9530 19.8402 -5.7606 19.6644 18.3324
# 3 31.7103 19.8402 93.9823 13.1598 8.7943 23.4282
# 4 12.3314 -5.7606 13.1598 35.9135 9.7597 -1.1524
# 5 3.6710 19.6644 8.7943 9.7597 38.6824 5.4687
# 6 36.8505 18.3324 23.4282 -1.1524 5.4687 28.2650
#
#
#
# Elastic Compliance Matrix: (Units=1/GPa)
#
#
# Indices 1 2 3 4 5 6 
#
# 1 0.012715 -0.005898 0.001327 -0.007814 0.005618 -0.015257
# 2 -0.005898 0.014937 -0.001756 0.007483 -0.008727 0.001450
# 3 0.001327 -0.001756 0.014737 -0.006841 0.001020 -0.013282
# 4 -0.007814 0.007483 -0.006841 0.038341 -0.013322 0.015145
# 5 0.005618 -0.008727 0.001020 -0.013322 0.034253 -0.009680
# 6 -0.015257 0.001450 -0.013282 0.015145 -0.009680 0.067830
#
#
# Mechanical properties :
#
#
# Convention : Reuss Voigt Hill
#
# Bulk Modulus (GPa) = 33.63053 62.70188 48.16621
# Shear Modulus (GPa) = 24.34545 36.70018 30.52281
#
# Velocity S-wave (km/s) = 3.23970 3.97768 3.62751
# Velocity P-wave (km/s) = 5.33787 6.93741 6.18953
#
# Compressibility (1/GPa) = 0.02973488
#
# Stress axis : x y z
#
# Youngs Moduli (GPa) = 78.64844 66.94814 67.85776
#
# Poissons Ratio (x) = 0.39483 -0.09003
# Poissons Ratio (y) = 0.46383 0.11916
# Poissons Ratio (z) = -0.10435 0.11756
#
# Static dielectric constant tensor:
#      x y z
#    x 1.912680 -0.080960 0.000620 
#    y -0.080960 1.854960 0.017340 
#    z 0.000620 0.017340 1.756350 
# 
# From -- ./inp_files/80139.got.cif
#   From: 2010.05.17/outbox.cif.g08.bks.cpg/sg2_41_cif.got.tgz:80139.got - 2010.06.03 11:33:40.
