data_PCOD9043460
_publ_section_title
;
Structure prediction by ZEFSAII (Michael W. Deem and Ramdas Pophale) SiO2 
 PCOD9043460
Probable space group: P -1
;
_chemical_formula_sum "Si O2"
_cell_formula_units_Z 14
_cell_length_a 20.749839
_cell_length_b 15.216511
_cell_length_c 9.831031
_cell_angle_alpha 152.874768
_cell_angle_beta 34.677102
_cell_angle_gamma 151.431325
_cell_volume 664.880360
_symmetry_space_group_name_H-M "P -1"
_symmetry_group_IT_number 2
_symmetry_cell_setting 'triclinic'
loop_
_space_group_symop_operation_xyz
x,y,z
-x,-y,-z
loop_
_atom_site_type_symbol
_atom_site_label
_atom_site_fract_x
_atom_site_fract_y
_atom_site_fract_z
Si Si1 0.951425 0.854320 0.244925
Si Si2 0.695434 0.472192 0.286218
Si Si3 0.867462 0.233908 0.356706
Si Si4 0.362598 0.741061 0.356013
Si Si5 0.651518 0.002619 0.642250
Si Si6 0.324068 0.332541 0.667336
Si Si7 0.413097 0.598223 0.338870
O O1 0.849024 0.596258 0.131540
O O2 0.841117 0.847305 0.324695
O O3 0.076720 0.898663 0.001063
O O4 0.000000 0.000000 0.500000
O O5 0.629474 0.565871 0.426812
O O6 0.679350 0.531211 0.547634
O O7 0.639902 0.204218 0.000165
O O8 0.754633 0.232655 0.459505
O O9 0.000000 0.500000 0.500000
O O10 0.791957 0.116571 0.468300
O O11 0.330609 0.612413 0.378968
O O12 0.500000 0.000000 0.500000
O O13 0.364159 0.560915 0.000356
O O14 0.637431 0.821388 0.529293
O O15 0.529649 0.855588 0.543950
O O16 0.500000 0.500000 0.000000
#
# Coordination Sequence:
#
# PCOD9043460 Si02
#       7
#     2   2   2   2   2   2   2
#     4  10  24  45  68 101 143 186 233 299 351 416
#     4  10  24  48  64 101 148 178 239 300 348 417
#     4  12  22  46  74 100 146 186 235 296 354 425
#     4  12  23  44  72 107 144 187 239 290 359 420
#     4  12  23  43  75 102 141 190 235 290 363 421
#     4  10  23  45  71 105 137 191 238 287 358 419
#     4  12  26  43  69 105 141 187 238 294 355 426
#
# _framework density 21.056419000000002
#
# number of rings (size 3 to 8) (size 9 to 14) (size 15 to 20)
#    0.857    0.000    7.143    0.429    2.000    2.286 
#    5.143    1.429    0.000    0.000    0.000    0.000 
#    0.000    0.000    0.000    0.000    0.000    0.000 
#
# Total GULP energy -78052.451118 kJ/mol
# GULP energy per Si atom -5575.175080 kJ/mol
# Density = 2.100849 g / cm^3
# Si number density = 21.056419 Si / 1000 Ang^3
#
#
#
# Elastic Constant Matrix: (Units=GPa)
#
#
# Indices 1 2 3 4 5 6 
#
# 1 150.4234 36.4029 29.7613 -3.3500 1.8766 -19.9735
# 2 36.4029 97.3502 14.3972 -14.0743 2.7572 -12.1169
# 3 29.7613 14.3972 78.2746 -9.2332 7.9722 -6.2103
# 4 -3.3500 -14.0743 -9.2332 43.7647 0.6069 17.6199
# 5 1.8766 2.7572 7.9722 0.6069 33.7820 -1.4894
# 6 -19.9735 -12.1169 -6.2103 17.6199 -1.4894 46.5731
#
#
#
# Elastic Compliance Matrix: (Units=1/GPa)
#
#
# Indices 1 2 3 4 5 6 
#
# 1 0.008185 -0.002574 -0.002684 -0.002103 0.000572 0.003297
# 2 -0.002574 0.011907 -0.000708 0.003228 -0.000691 0.000656
# 3 -0.002684 -0.000708 0.014560 0.002929 -0.003309 -0.000608
# 4 -0.002103 0.003228 0.002929 0.028620 -0.001818 -0.010557
# 5 0.000572 -0.000691 -0.003309 -0.001818 0.030496 0.001287
# 6 0.003297 0.000656 -0.000608 -0.010557 0.001287 0.027010
#
#
# Mechanical properties :
#
#
# Convention : Reuss Voigt Hill
#
# Bulk Modulus (GPa) = 44.01032 54.13012 49.07022
# Shear Modulus (GPa) = 35.64155 41.18974 38.41565
#
# Velocity S-wave (km/s) = 4.11867 4.42765 4.27595
# Velocity P-wave (km/s) = 6.60034 7.20429 6.90891
#
# Compressibility (1/GPa) = 0.02272194
#
# Stress axis : x y z
#
# Youngs Moduli (GPa) = 122.16726 83.98170 68.67931
#
# Poissons Ratio (x) = 0.21615 0.18430
# Poissons Ratio (y) = 0.31444 0.04865
# Poissons Ratio (z) = 0.32784 0.05949
#
# Static dielectric constant tensor:
#      x y z
#    x 1.692420 -0.056180 -0.041730 
#    y -0.056180 1.752550 -0.072960 
#    z -0.041730 -0.072960 1.721700 
# 
# From -- ./inp_files/347433.got.cif
#   From: 2010.05.17/outbox.cif.g08.bks.cpg/sg2_174_cif.got.tgz:347433.got - 2010.06.03 11:33:40.
