data_PCOD9043571
_publ_section_title
;
Structure prediction by ZEFSAII (Michael W. Deem and Ramdas Pophale) SiO2 
 PCOD9043571
Probable space group: P -1
;
_chemical_formula_sum "Si O2"
_cell_formula_units_Z 14
_cell_length_a 11.426716
_cell_length_b 12.355135
_cell_length_c 5.355520
_cell_angle_alpha 83.815410
_cell_angle_beta 103.247445
_cell_angle_gamma 49.919592
_cell_volume 529.006553
_symmetry_space_group_name_H-M "P -1"
_symmetry_group_IT_number 2
_symmetry_cell_setting 'triclinic'
loop_
_space_group_symop_operation_xyz
x,y,z
-x,-y,-z
loop_
_atom_site_type_symbol
_atom_site_label
_atom_site_fract_x
_atom_site_fract_y
_atom_site_fract_z
Si Si1 0.452291 0.650702 0.854725
Si Si2 0.030912 0.133564 0.196769
Si Si3 0.032628 0.620169 0.203771
Si Si4 0.662432 0.700042 0.682312
Si Si5 0.339746 0.874642 0.169129
Si Si6 0.315253 0.125643 0.978586
Si Si7 0.158636 0.754726 0.413744
O O1 0.596387 0.644515 0.847729
O O2 0.339569 0.692229 0.548866
O O3 0.500000 0.500000 0.000000
O O4 0.352719 0.772098 0.998067
O O5 0.942289 0.162526 0.403488
O O6 0.214738 0.967693 0.321242
O O7 0.018388 0.271313 0.088571
O O8 0.932294 0.149455 0.903670
O O9 0.147654 0.447207 0.244684
O O10 0.154862 0.626237 0.411339
O O11 0.857476 0.710387 0.236015
O O12 0.528321 0.778066 0.376004
O O13 0.653525 0.824456 0.767334
O O14 0.268634 0.027517 0.961013
O O15 0.500000 0.000000 0.000000
#
# Coordination Sequence:
#
# PCOD9043571 Si02
#       7
#     2   2   2   2   2   2   2
#     4  12  27  44  74 108 154 194 252 306 383 449
#     4   9  23  44  73 105 153 194 251 305 375 443
#     4   9  23  44  73 109 146 199 245 312 377 448
#     4  12  25  45  76 105 153 194 253 311 378 445
#     4  11  26  44  73 110 142 203 246 318 376 448
#     4  11  23  49  73 107 148 196 257 312 375 450
#     4  10  23  45  72 106 152 195 249 301 373 450
#
# _framework density 26.464699
#
# number of rings (size 3 to 8) (size 9 to 14) (size 15 to 20)
#    0.857    0.571    1.429    2.571    6.000    2.286 
#    0.000    0.714    0.000    0.000    0.000    0.000 
#    0.000    0.000    0.000    0.000    0.000    0.000 
#
# Total GULP energy -78158.226302 kJ/mol
# GULP energy per Si atom -5582.730450 kJ/mol
# Density = 2.640446 g / cm^3
# Si number density = 26.464699 Si / 1000 Ang^3
#
#
#
# Elastic Constant Matrix: (Units=GPa)
#
#
# Indices 1 2 3 4 5 6 
#
# 1 78.7412 31.3298 17.1969 5.4362 9.5764 -5.1556
# 2 31.3298 207.5242 43.9864 -3.7258 8.2339 -13.3742
# 3 17.1969 43.9864 91.8110 6.7556 12.9913 -0.1086
# 4 5.4362 -3.7258 6.7556 43.1236 2.5058 10.1347
# 5 9.5764 8.2339 12.9913 2.5058 51.2919 -0.7568
# 6 -5.1556 -13.3742 -0.1086 10.1347 -0.7568 44.3949
#
#
#
# Elastic Compliance Matrix: (Units=1/GPa)
#
#
# Indices 1 2 3 4 5 6 
#
# 1 0.014152 -0.001695 -0.001425 -0.001960 -0.001891 0.001545
# 2 -0.001695 0.005698 -0.002469 0.000778 0.000009 0.001336
# 3 -0.001425 -0.002469 0.012827 -0.001776 -0.002507 -0.000515
# 4 -0.001960 0.000778 -0.001776 0.025170 -0.000624 -0.005754
# 5 -0.001891 0.000009 -0.002507 -0.000624 0.020517 0.000269
# 6 0.001545 0.001336 -0.000515 -0.005754 0.000269 0.024424
#
#
# Mechanical properties :
#
#
# Convention : Reuss Voigt Hill
#
# Bulk Modulus (GPa) = 46.51672 62.56694 54.54183
# Shear Modulus (GPa) = 41.27715 46.79964 44.03840
#
# Velocity S-wave (km/s) = 3.95360 4.20977 4.08369
# Velocity P-wave (km/s) = 6.20131 6.87914 6.54900
#
# Compressibility (1/GPa) = 0.02149765
#
# Stress axis : x y z
#
# Youngs Moduli (GPa) = 70.66187 175.50902 77.96228
#
# Poissons Ratio (x) = 0.29750 0.11110
# Poissons Ratio (y) = 0.11978 0.19250
# Poissons Ratio (z) = 0.10070 0.43337
#
# Static dielectric constant tensor:
#      x y z
#    x 2.399120 -0.013940 -0.148980 
#    y -0.013940 2.022590 -0.017950 
#    z -0.148980 -0.017950 2.128210 
# 
# From -- ./inp_files/98187.got.cif
#   From: 2010.05.17/outbox.cif.g08.bks.cpg/sg2_50_cif.got.tgz:98187.got - 2010.06.03 11:33:40.
