data_PCOD9043572
_publ_section_title
;
Structure prediction by ZEFSAII (Michael W. Deem and Ramdas Pophale) SiO2 
 PCOD9043572
Probable space group: P -1
;
_chemical_formula_sum "Si O2"
_cell_formula_units_Z 16
_cell_length_a 18.894733
_cell_length_b 8.445223
_cell_length_c 10.891525
_cell_angle_alpha 27.577980
_cell_angle_beta 50.287656
_cell_angle_gamma 60.455422
_cell_volume 605.718314
_symmetry_space_group_name_H-M "P -1"
_symmetry_group_IT_number 2
_symmetry_cell_setting 'triclinic'
loop_
_space_group_symop_operation_xyz
x,y,z
-x,-y,-z
loop_
_atom_site_type_symbol
_atom_site_label
_atom_site_fract_x
_atom_site_fract_y
_atom_site_fract_z
Si Si1 0.268810 0.614077 0.937322
Si Si2 0.457088 0.589359 0.857110
Si Si3 0.410736 0.825358 0.119398
Si Si4 0.844125 0.668529 0.099399
Si Si5 0.061625 0.538656 0.523139
Si Si6 0.069824 0.374586 0.198341
Si Si7 0.645697 0.488509 0.341197
Si Si8 0.233184 0.357024 0.536414
O O1 0.343875 0.497260 0.027552
O O2 0.332599 0.682764 0.693759
O O3 0.248628 0.966302 0.777652
O O4 0.166932 0.385017 0.162765
O O5 0.501661 0.352504 0.876773
O O6 0.500000 0.000000 0.500000
O O7 0.500000 0.500000 0.000000
O O8 0.581657 0.773058 0.198804
O O9 0.378738 0.747078 0.349144
O O10 0.332722 0.613321 0.258531
O O11 0.893601 0.464000 0.085634
O O12 0.904545 0.050067 0.782060
O O13 0.747730 0.711165 0.113221
O O14 0.816912 0.540532 0.353631
O O15 0.155115 0.391749 0.500710
O O16 0.000000 0.500000 0.500000
O O17 0.993159 0.410165 0.802328
O O18 0.000000 0.000000 0.500000
#
# Coordination Sequence:
#
# PCOD9043572 Si02
#       8
#     2   2   2   2   2   2   2   2
#     4  11  25  46  71 112 149 194 254 317 374 456
#     4  12  27  47  77 117 154 197 251 314 381 447
#     4  11  23  46  75 104 150 198 247 307 375 449
#     4   9  20  40  62  93 135 185 237 298 364 436
#     4  11  22  38  64  99 138 186 243 306 371 446
#     4   9  21  43  68 101 142 191 247 309 373 445
#     4  10  23  45  72 107 143 196 247 303 373 443
#     4  11  23  42  71 101 142 193 246 307 380 442
#
# _framework density 26.414918
#
# number of rings (size 3 to 8) (size 9 to 14) (size 15 to 20)
#    0.000    1.500    2.500    1.500    1.750    5.500 
#    6.750    2.500    0.000    0.000    0.000    0.000 
#    0.000    0.000    0.000    0.000    0.000    0.000 
#
# Total GULP energy -89487.417143 kJ/mol
# GULP energy per Si atom -5592.963571 kJ/mol
# Density = 2.635480 g / cm^3
# Si number density = 26.414918 Si / 1000 Ang^3
#
#
#
# Elastic Constant Matrix: (Units=GPa)
#
#
# Indices 1 2 3 4 5 6 
#
# 1 209.8273 58.7385 57.0187 -11.5253 -30.2467 -21.0905
# 2 58.7385 116.2154 40.8997 13.7498 -9.2540 -8.9922
# 3 57.0187 40.8997 108.2607 -10.7954 -10.6602 0.7625
# 4 -11.5253 13.7498 -10.7954 19.7414 1.0249 -0.3313
# 5 -30.2467 -9.2540 -10.6602 1.0249 49.5286 3.6449
# 6 -21.0905 -8.9922 0.7625 -0.3313 3.6449 51.3773
#
#
#
# Elastic Compliance Matrix: (Units=1/GPa)
#
#
# Indices 1 2 3 4 5 6 
#
# 1 0.007078 -0.003188 -0.001707 0.005296 0.003089 0.002188
# 2 -0.003188 0.013673 -0.004918 -0.014043 -0.000240 0.001084
# 3 -0.001707 -0.004918 0.013028 0.009484 0.000775 -0.001749
# 4 0.005296 -0.014043 0.009484 0.068649 0.001236 -0.000070
# 5 0.003089 -0.000240 0.000775 0.001236 0.022199 -0.000352
# 6 0.002188 0.001084 -0.001749 -0.000070 -0.000352 0.020602
#
#
# Mechanical properties :
#
#
# Convention : Reuss Voigt Hill
#
# Bulk Modulus (GPa) = 70.65249 83.06859 76.86054
# Shear Modulus (GPa) = 29.48576 42.63921 36.06249
#
# Velocity S-wave (km/s) = 3.34466 4.02208 3.69891
# Velocity P-wave (km/s) = 6.45918 7.28597 6.88500
#
# Compressibility (1/GPa) = 0.01415378
#
# Stress axis : x y z
#
# Youngs Moduli (GPa) = 141.27936 73.13569 76.75704
#
# Poissons Ratio (x) = 0.23317 0.13099
# Poissons Ratio (y) = 0.45043 0.37749
# Poissons Ratio (z) = 0.24111 0.35968
#
# Static dielectric constant tensor:
#      x y z
#    x 2.138790 0.050070 0.016380 
#    y 0.050070 2.145620 0.124150 
#    z 0.016380 0.124150 2.129040 
# 
# From -- ./inp_files/461748.got.cif
#   From: 2010.05.17/outbox.cif.g08.bks.cpg/sg2_231_cif.got.tgz:461748.got - 2010.06.03 11:33:40.
