data_PCOD9043034
_publ_section_title
;
Structure prediction by ZEFSAII (Michael W. Deem and Ramdas Pophale) SiO2 
 PCOD9043034
Probable space group: P -1
;
_chemical_formula_sum "Si O2"
_cell_formula_units_Z 16
_cell_length_a 9.408682
_cell_length_b 19.134017
_cell_length_c 5.500920
_cell_angle_alpha 119.158341
_cell_angle_beta 71.299433
_cell_angle_gamma 130.786847
_cell_volume 654.784559
_symmetry_space_group_name_H-M "P -1"
_symmetry_group_IT_number 2
_symmetry_cell_setting 'triclinic'
loop_
_space_group_symop_operation_xyz
x,y,z
-x,-y,-z
loop_
_atom_site_type_symbol
_atom_site_label
_atom_site_fract_x
_atom_site_fract_y
_atom_site_fract_z
Si Si1 0.323321 0.938630 0.312714
Si Si2 0.047635 0.446684 0.576919
Si Si3 0.041282 0.143482 0.379444
Si Si4 0.703078 0.351406 0.928273
Si Si5 0.153610 0.005174 0.155442
Si Si6 0.598104 0.501561 0.695183
Si Si7 0.563671 0.704760 0.392334
Si Si8 0.474152 0.830538 0.916929
O O1 0.363113 0.876042 0.011294
O O2 0.136256 0.865421 0.445754
O O3 0.500000 0.000000 0.500000
O O4 0.276070 0.000887 0.284269
O O5 0.176278 0.419508 0.333610
O O6 0.000000 0.500000 0.500000
O O7 0.851205 0.361934 0.668734
O O8 0.179387 0.534488 0.848571
O O9 0.062114 0.061644 0.352964
O O10 0.230702 0.246033 0.535969
O O11 0.998735 0.104912 0.059064
O O12 0.505750 0.324891 0.893885
O O13 0.640668 0.260229 0.984735
O O14 0.310739 0.074770 0.976414
O O15 0.500000 0.500000 0.500000
O O16 0.568850 0.396748 0.559180
O O17 0.500000 0.500000 0.000000
O O18 0.517032 0.782133 0.598772
#
# Coordination Sequence:
#
# PCOD9043034 Si02
#       8
#     2   2   2   2   2   2   2   2
#     4  12  25  42  68 103 142 191 249 313 372 437
#     4  11  23  47  78 106 142 193 244 307 386 462
#     4  10  24  43  70 100 143 197 241 294 380 443
#     4  11  23  43  78 105 144 187 261 306 379 458
#     4  10  23  45  68 100 145 193 242 300 377 452
#     4  12  27  49  78 112 156 197 246 321 393 465
#     4  11  25  47  69 106 145 197 246 305 380 466
#     4  11  24  40  74 102 143 190 246 312 370 435
#
# _framework density 24.435517000000001
#
# number of rings (size 3 to 8) (size 9 to 14) (size 15 to 20)
#    0.000    1.000    3.750    1.500    5.250    4.000 
#    2.250    0.000    0.000    0.000    0.000    0.000 
#    0.000    0.000    0.000    0.000    0.000    0.000 
#
# Total GULP energy -89266.079027 kJ/mol
# GULP energy per Si atom -5579.129939 kJ/mol
# Density = 2.437990 g / cm^3
# Si number density = 24.435517 Si / 1000 Ang^3
#
#
#
# Elastic Constant Matrix: (Units=GPa)
#
#
# Indices 1 2 3 4 5 6 
#
# 1 130.4006 12.5381 33.1990 0.6180 1.4611 17.6557
# 2 12.5381 65.6319 1.8348 -2.3970 6.9441 25.3472
# 3 33.1990 1.8348 66.5578 -4.0350 -4.3680 17.1413
# 4 0.6180 -2.3970 -4.0350 30.5576 7.8886 -1.3143
# 5 1.4611 6.9441 -4.3680 7.8886 50.8525 -2.4526
# 6 17.6557 25.3472 17.1413 -1.3143 -2.4526 59.2139
#
#
#
# Elastic Compliance Matrix: (Units=1/GPa)
#
#
# Indices 1 2 3 4 5 6 
#
# 1 0.009016 -0.001221 -0.004290 -0.000786 -0.000385 -0.000957
# 2 -0.001221 0.019123 0.002212 0.002262 -0.003149 -0.008542
# 3 -0.004290 0.002212 0.018573 0.002287 0.000823 -0.004960
# 4 -0.000786 0.002262 0.002287 0.034603 -0.005499 -0.000856
# 5 -0.000385 -0.003149 0.000823 -0.005499 0.021125 0.001978
# 6 -0.000957 -0.008542 -0.004960 -0.000856 0.001978 0.022329
#
#
# Mechanical properties :
#
#
# Convention : Reuss Voigt Hill
#
# Bulk Modulus (GPa) = 24.92824 39.74824 32.33824
# Shear Modulus (GPa) = 34.54540 42.45938 38.50239
#
# Velocity S-wave (km/s) = 3.76405 4.17299 3.97378
# Velocity P-wave (km/s) = 5.39579 6.28652 5.85811
#
# Compressibility (1/GPa) = 0.04011515
#
# Stress axis : x y z
#
# Youngs Moduli (GPa) = 110.91561 52.29374 53.84086
#
# Poissons Ratio (x) = 0.06384 0.23097
# Poissons Ratio (y) = 0.13540 -0.11911
# Poissons Ratio (z) = 0.47581 -0.11568
#
# Static dielectric constant tensor:
#      x y z
#    x 1.946730 0.027840 0.014460 
#    y 0.027840 1.979740 -0.007410 
#    z 0.014460 -0.007410 2.185140 
# 
# From -- ./inp_files/53677.got.cif
#   From: 2010.05.17/outbox.cif.g08.bks.cpg/sg2_27_cif.got.tgz:53677.got - 2010.06.03 11:33:40.
