data_PCOD9043269
_publ_section_title
;
Structure prediction by ZEFSAII (Michael W. Deem and Ramdas Pophale) SiO2 
 PCOD9043269
Probable space group: P -1
;
_chemical_formula_sum "Si O2"
_cell_formula_units_Z 16
_cell_length_a 11.473726
_cell_length_b 15.208971
_cell_length_c 8.640821
_cell_angle_alpha 67.024360
_cell_angle_beta 74.088909
_cell_angle_gamma 129.331970
_cell_volume 731.134305
_symmetry_space_group_name_H-M "P -1"
_symmetry_group_IT_number 2
_symmetry_cell_setting 'triclinic'
loop_
_space_group_symop_operation_xyz
x,y,z
-x,-y,-z
loop_
_atom_site_type_symbol
_atom_site_label
_atom_site_fract_x
_atom_site_fract_y
_atom_site_fract_z
Si Si1 0.964033 0.686648 0.870413
Si Si2 0.644607 0.096071 0.226997
Si Si3 0.329967 0.088939 0.824257
Si Si4 0.653734 0.244118 0.859222
Si Si5 0.144221 0.999133 0.468212
Si Si6 0.942957 0.804199 0.365896
Si Si7 0.550749 0.690689 0.640895
Si Si8 0.002836 0.367118 0.448923
O O1 0.022999 0.676079 0.692160
O O2 0.102047 0.726423 0.928327
O O3 0.043388 0.849822 0.717829
O O4 0.701686 0.506535 0.112112
O O5 0.500000 0.000000 0.500000
O O6 0.634279 0.988164 0.220472
O O7 0.568452 0.127479 0.115868
O O8 0.482598 0.185730 0.853391
O O9 0.406783 0.221569 0.590153
O O10 0.074045 0.925991 0.083517
O O11 0.829062 0.435240 0.728801
O O12 0.780876 0.252804 0.695454
O O13 0.114667 0.934453 0.355083
O O14 0.369772 0.187810 0.330552
O O15 0.000000 0.000000 0.500000
O O16 0.719819 0.713201 0.550854
O O17 0.906707 0.667224 0.473277
#
# Coordination Sequence:
#
# PCOD9043269 Si02
#       8
#     2   2   2   2   2   2   2   2
#     4  11  25  44  71 106 139 181 233 293 346 414
#     4  12  27  45  73 101 139 181 238 294 350 414
#     4  12  25  43  72  98 143 187 232 284 356 414
#     4  11  26  45  68 101 136 184 231 289 355 415
#     4   9  21  43  70  97 138 181 232 282 343 403
#     4  10  23  45  70 100 139 188 233 285 350 416
#     4  11  25  45  70 106 144 184 236 285 349 417
#     4  10  24  44  69  98 142 173 236 286 353 412
#
# _framework density 21.883804000000001
#
# number of rings (size 3 to 8) (size 9 to 14) (size 15 to 20)
#    0.000    1.250    2.500    1.500   10.500    5.000 
#    2.250    1.250    0.000    0.000    0.000    0.000 
#    0.000    0.000    0.000    0.000    0.000    0.000 
#
# Total GULP energy -89464.596155 kJ/mol
# GULP energy per Si atom -5591.537260 kJ/mol
# Density = 2.183400 g / cm^3
# Si number density = 21.883804 Si / 1000 Ang^3
#
#
#
# Elastic Constant Matrix: (Units=GPa)
#
#
# Indices 1 2 3 4 5 6 
#
# 1 85.4747 23.1614 12.4074 -8.2426 2.9023 5.7520
# 2 23.1614 56.1402 14.2888 -14.5278 -1.6326 4.8956
# 3 12.4074 14.2888 72.2362 -4.3129 -4.0429 -3.6130
# 4 -8.2426 -14.5278 -4.3129 28.1825 5.4825 0.6027
# 5 2.9023 -1.6326 -4.0429 5.4825 32.9051 -0.9065
# 6 5.7520 4.8956 -3.6130 0.6027 -0.9065 38.7910
#
#
#
# Elastic Compliance Matrix: (Units=1/GPa)
#
#
# Indices 1 2 3 4 5 6 
#
# 1 0.013522 -0.004666 -0.001486 0.001734 -0.001941 -0.001627
# 2 -0.004666 0.023525 -0.003405 0.010428 -0.000653 -0.002771
# 3 -0.001486 -0.003405 0.014965 -0.000316 0.001911 0.002093
# 4 0.001734 0.010428 -0.000316 0.042703 -0.006856 -0.002426
# 5 -0.001941 -0.000653 0.001911 -0.006856 0.031945 0.001401
# 6 -0.001627 -0.002771 0.002093 -0.002426 0.001401 0.026636
#
#
# Mechanical properties :
#
#
# Convention : Reuss Voigt Hill
#
# Bulk Modulus (GPa) = 30.39629 34.84071 32.61850
# Shear Modulus (GPa) = 27.26638 30.90863 29.08751
#
# Velocity S-wave (km/s) = 3.53365 3.76226 3.64975
# Velocity P-wave (km/s) = 5.52892 5.90154 5.71826
#
# Compressibility (1/GPa) = 0.03289875
#
# Stress axis : x y z
#
# Youngs Moduli (GPa) = 73.95279 42.50725 66.82278
#
# Poissons Ratio (x) = 0.19835 0.09930
# Poissons Ratio (y) = 0.34509 0.22750
# Poissons Ratio (z) = 0.10989 0.14472
#
# Static dielectric constant tensor:
#      x y z
#    x 1.791620 0.011130 -0.016000 
#    y 0.011130 1.804350 0.010900 
#    z -0.016000 0.010900 1.812190 
# 
# From -- ./inp_files/272475.got.cif
#   From: 2010.05.17/outbox.cif.g08.bks.cpg/sg2_137_cif.got.tgz:272475.got - 2010.06.03 11:33:40.
