data_PCOD9043916
_publ_section_title
;
Structure prediction by ZEFSAII (Michael W. Deem and Ramdas Pophale) SiO2 
 PCOD9043916
Probable space group: P -1
;
_chemical_formula_sum "Si O2"
_cell_formula_units_Z 16
_cell_length_a 8.941252
_cell_length_b 14.914303
_cell_length_c 8.236586
_cell_angle_alpha 93.596035
_cell_angle_beta 84.355583
_cell_angle_gamma 39.253659
_cell_volume 674.596798
_symmetry_space_group_name_H-M "P -1"
_symmetry_group_IT_number 2
_symmetry_cell_setting 'triclinic'
loop_
_space_group_symop_operation_xyz
x,y,z
-x,-y,-z
loop_
_atom_site_type_symbol
_atom_site_label
_atom_site_fract_x
_atom_site_fract_y
_atom_site_fract_z
Si Si1 0.520081 0.870154 0.163204
Si Si2 0.243106 0.373949 0.360466
Si Si3 0.762454 0.317789 0.631279
Si Si4 0.926443 0.406987 0.817262
Si Si5 0.235169 0.602880 0.840935
Si Si6 0.899073 0.068854 0.700108
Si Si7 0.733005 0.237789 0.291172
Si Si8 0.691782 0.839392 0.788377
O O1 0.348905 0.868392 0.232168
O O2 0.789174 0.728934 0.187658
O O3 0.402575 0.020587 0.247257
O O4 0.542267 0.876376 0.967442
O O5 0.167854 0.449558 0.201102
O O6 0.470496 0.326555 0.380383
O O7 0.326272 0.232710 0.343395
O O8 0.000000 0.500000 0.500000
O O9 0.871670 0.362671 0.672149
O O10 0.471699 0.458539 0.703088
O O11 0.866283 0.190697 0.722102
O O12 0.818173 0.258897 0.436626
O O13 0.780493 0.435759 0.987949
O O14 0.268291 0.694988 0.852429
O O15 0.972523 0.709953 0.800596
O O16 0.000000 0.000000 0.500000
O O17 0.097419 0.927130 0.774709
#
# Coordination Sequence:
#
# PCOD9043916 Si02
#       8
#     2   2   2   2   2   2   2   2
#     4  10  23  46  66  98 135 173 223 271 332 398
#     4  12  28  43  66 102 136 174 224 273 334 400
#     4  11  24  42  68  95 135 176 215 276 332 388
#     4  11  27  41  66 104 131 171 222 277 335 387
#     4  11  22  44  69  94 130 172 224 273 328 392
#     4  10  24  41  66  95 129 173 220 267 326 391
#     4  11  24  45  67  94 132 178 224 266 330 398
#     4  10  24  43  71  94 133 181 216 272 336 392
#
# _framework density 23.717873000000001
#
# number of rings (size 3 to 8) (size 9 to 14) (size 15 to 20)
#    0.000    1.250    2.500    1.500   10.500    1.000 
#    0.000    4.375    0.000    0.000    0.000    0.000 
#    0.000    0.000    0.000    0.000    0.000    0.000 
#
# Total GULP energy -89526.140690 kJ/mol
# GULP energy per Si atom -5595.383793 kJ/mol
# Density = 2.366389 g / cm^3
# Si number density = 23.717873 Si / 1000 Ang^3
#
#
#
# Elastic Constant Matrix: (Units=GPa)
#
#
# Indices 1 2 3 4 5 6 
#
# 1 79.0427 -0.7739 14.8250 7.6608 -26.7120 -5.1017
# 2 -0.7739 105.5280 -4.1532 2.8801 -10.2992 17.8171
# 3 14.8250 -4.1532 45.4209 0.8606 -22.9738 -2.5620
# 4 7.6608 2.8801 0.8606 23.2731 0.0248 -4.4798
# 5 -26.7120 -10.2992 -22.9738 0.0248 35.8373 2.1488
# 6 -5.1017 17.8171 -2.5620 -4.4798 2.1488 43.6833
#
#
#
# Elastic Compliance Matrix: (Units=1/GPa)
#
#
# Indices 1 2 3 4 5 6 
#
# 1 0.018084 0.001884 0.002197 -0.006270 0.015429 0.000070
# 2 0.001884 0.011280 0.003996 -0.003102 0.007500 -0.004833
# 3 0.002197 0.003996 0.034188 -0.002674 0.024756 -0.000860
# 4 -0.006270 -0.003102 -0.002674 0.046587 -0.007643 0.005530
# 5 0.015429 0.007500 0.024756 -0.007643 0.057640 -0.003424
# 6 0.000070 -0.004833 -0.000860 0.005530 -0.003424 0.025557
#
#
# Mechanical properties :
#
#
# Convention : Reuss Voigt Hill
#
# Bulk Modulus (GPa) = 12.54616 27.75416 20.15016
# Shear Modulus (GPa) = 24.53963 35.23165 29.88564
#
# Velocity S-wave (km/s) = 3.22008 3.85833 3.55357
# Velocity P-wave (km/s) = 4.37338 5.61927 5.03501
#
# Compressibility (1/GPa) = 0.07970566
#
# Stress axis : x y z
#
# Youngs Moduli (GPa) = 55.29665 88.65325 29.24976
#
# Poissons Ratio (x) = -0.16704 -0.06425
# Poissons Ratio (y) = -0.10419 -0.11688
# Poissons Ratio (z) = -0.12146 -0.35425
#
# Static dielectric constant tensor:
#      x y z
#    x 1.897170 0.009030 0.016050 
#    y 0.009030 1.931250 -0.036290 
#    z 0.016050 -0.036290 1.939500 
# 
# From -- ./inp_files/207308.got.cif
#   From: 2010.05.17/outbox.cif.g08.bks.cpg/sg2_104_cif.got.tgz:207308.got - 2010.06.03 11:33:40.
