data_PCOD9043632
_publ_section_title
;
Structure prediction by ZEFSAII (Michael W. Deem and Ramdas Pophale) SiO2 
 PCOD9043632
Probable space group: P -1
;
_chemical_formula_sum "Si O2"
_cell_formula_units_Z 16
_cell_length_a 9.115252
_cell_length_b 11.989016
_cell_length_c 5.575738
_cell_angle_alpha 104.744045
_cell_angle_beta 102.460518
_cell_angle_gamma 76.179499
_cell_volume 564.363569
_symmetry_space_group_name_H-M "P -1"
_symmetry_group_IT_number 2
_symmetry_cell_setting 'triclinic'
loop_
_space_group_symop_operation_xyz
x,y,z
-x,-y,-z
loop_
_atom_site_type_symbol
_atom_site_label
_atom_site_fract_x
_atom_site_fract_y
_atom_site_fract_z
Si Si1 0.035171 0.321205 0.792276
Si Si2 0.276395 0.098661 0.551203
Si Si3 0.540496 0.184398 0.946078
Si Si4 0.699092 0.359169 0.843865
Si Si5 0.159883 0.937357 0.741466
Si Si6 0.177005 0.475668 0.703646
Si Si7 0.916917 0.836501 0.866002
Si Si8 0.335402 0.401843 0.228275
O O1 0.014429 0.434570 0.661066
O O2 0.159179 0.216481 0.662775
O O3 0.062425 0.288771 0.070566
O O4 0.853730 0.309916 0.727522
O O5 0.215885 0.979942 0.530166
O O6 0.253748 0.121972 0.275621
O O7 0.567094 0.894257 0.259238
O O8 0.597897 0.264938 0.807678
O O9 0.686213 0.111615 0.088261
O O10 0.450147 0.281588 0.150790
O O11 0.761041 0.407547 0.142990
O O12 0.608105 0.475999 0.744474
O O13 0.044987 0.852733 0.726942
O O14 0.073174 0.064171 0.880123
O O15 0.268990 0.413284 0.478158
O O16 0.218057 0.412502 0.958336
#
# Coordination Sequence:
#
# PCOD9043632 Si02
#       8
#     2   2   2   2   2   2   2   2
#     4  11  22  43  74 105 144 198 249 307 367 447
#     4  11  24  41  73 109 146 196 242 313 372 454
#     4  12  23  48  71 110 151 195 246 310 381 447
#     4  10  24  45  70 107 149 199 250 310 372 445
#     4  10  23  46  70 106 148 189 250 307 378 446
#     4  10  24  44  71 105 151 199 251 306 369 442
#     4  10  23  45  73 104 148 190 248 310 375 443
#     4  10  25  46  71 109 153 201 244 315 375 441
#
# _framework density 28.350518000000001
#
# number of rings (size 3 to 8) (size 9 to 14) (size 15 to 20)
#    0.750    0.750    2.500    1.500    1.750    2.500 
#    2.250    0.000    0.000    2.250    0.000    0.000 
#    0.000    0.000    0.000    0.000    0.000    0.000 
#
# Total GULP energy -89318.185996 kJ/mol
# GULP energy per Si atom -5582.386625 kJ/mol
# Density = 2.828599 g / cm^3
# Si number density = 28.350518 Si / 1000 Ang^3
#
#
#
# Elastic Constant Matrix: (Units=GPa)
#
#
# Indices 1 2 3 4 5 6 
#
# 1 144.2683 60.8606 46.3334 -18.4022 0.3750 -18.0861
# 2 60.8606 118.3641 32.0095 -27.6659 -11.4220 7.9951
# 3 46.3334 32.0095 102.7304 0.7156 -22.0012 13.9633
# 4 -18.4022 -27.6659 0.7156 55.6830 7.0117 -12.9099
# 5 0.3750 -11.4220 -22.0012 7.0117 36.0930 -17.4163
# 6 -18.0861 7.9951 13.9633 -12.9099 -17.4163 48.7630
#
#
#
# Elastic Compliance Matrix: (Units=1/GPa)
#
#
# Indices 1 2 3 4 5 6 
#
# 1 0.011885 -0.004477 -0.005400 0.003643 -0.002232 0.006856
# 2 -0.004477 0.012313 -0.001283 0.004069 0.001561 -0.001677
# 3 -0.005400 -0.001283 0.014802 -0.004610 0.007333 -0.004632
# 4 0.003643 0.004069 -0.004610 0.023247 -0.002585 0.007235
# 5 -0.002232 0.001561 0.007333 -0.002585 0.037853 0.009652
# 6 0.006856 -0.001677 -0.004632 0.007235 0.009652 0.030015
#
#
# Mechanical properties :
#
#
# Convention : Reuss Voigt Hill
#
# Bulk Modulus (GPa) = 59.96079 71.52995 65.74537
# Shear Modulus (GPa) = 31.64673 43.18509 37.41591
#
# Velocity S-wave (km/s) = 3.34468 3.90712 3.63679
# Velocity P-wave (km/s) = 6.00929 6.75570 6.39340
#
# Compressibility (1/GPa) = 0.01667757
#
# Stress axis : x y z
#
# Youngs Moduli (GPa) = 84.14173 81.21708 67.55889
#
# Poissons Ratio (x) = 0.36364 0.36484
# Poissons Ratio (y) = 0.37674 0.08669
# Poissons Ratio (z) = 0.45439 0.10421
#
# Static dielectric constant tensor:
#      x y z
#    x 4.100420 1.169250 0.483360 
#    y 1.169250 3.047010 0.207970 
#    z 0.483360 0.207970 2.449780 
# 
# From -- ./inp_files/76060.got.cif
#   From: 2010.05.17/outbox.cif.g08.bks.cpg/sg2_39_cif.got.tgz:76060.got - 2010.06.03 11:33:40.
