data_PCOD9043001
_publ_section_title
;
Structure prediction by ZEFSAII (Michael W. Deem and Ramdas Pophale) SiO2 
 PCOD9043001
Probable space group: P -1
;
_chemical_formula_sum "Si O2"
_cell_formula_units_Z 14
_cell_length_a 9.505000
_cell_length_b 16.053392
_cell_length_c 12.691708
_cell_angle_alpha 152.321089
_cell_angle_beta 116.777785
_cell_angle_gamma 50.990817
_cell_volume 667.665009
_symmetry_space_group_name_H-M "P -1"
_symmetry_group_IT_number 2
_symmetry_cell_setting 'triclinic'
loop_
_space_group_symop_operation_xyz
x,y,z
-x,-y,-z
loop_
_atom_site_type_symbol
_atom_site_label
_atom_site_fract_x
_atom_site_fract_y
_atom_site_fract_z
Si Si1 0.681247 0.516510 0.073432
Si Si2 0.914419 0.882074 0.284652
Si Si3 0.615612 0.846537 0.265022
Si Si4 0.706635 0.813576 0.582921
Si Si5 0.725856 0.038920 0.183140
Si Si6 0.281644 0.327315 0.334006
Si Si7 0.062610 0.815195 0.726018
O O1 0.667048 0.618987 0.069042
O O2 0.667720 0.669956 0.334010
O O3 0.500000 0.500000 0.000000
O O4 0.897591 0.314559 0.927450
O O5 0.804171 0.832181 0.277821
O O6 0.762013 0.026843 0.305881
O O7 0.000000 0.000000 0.500000
O O8 0.500000 0.000000 0.500000
O O9 0.476259 0.945349 0.228534
O O10 0.746479 0.715766 0.603100
O O11 0.884452 0.824320 0.625792
O O12 0.507910 0.196693 0.252894
O O13 0.835229 0.129025 0.263753
O O14 0.788182 0.799157 0.899403
O O15 0.187552 0.575128 0.549069
O O16 0.000000 0.000000 0.000000
#
# Coordination Sequence:
#
# PCOD9043001 Si02
#       7
#     2   2   2   2   2   2   2
#     4  11  26  43  71 103 141 188 236 296 362 428
#     4  12  25  45  69 102 141 183 240 296 359 426
#     4  10  23  45  67  97 134 183 232 290 356 420
#     4  11  23  45  70 100 142 180 237 295 354 430
#     4  11  26  46  72 102 146 189 239 294 361 429
#     4  11  24  49  69 104 145 187 241 292 358 431
#     4  12  26  42  72 107 139 188 234 296 362 431
#
# _framework density 20.968598
#
# number of rings (size 3 to 8) (size 9 to 14) (size 15 to 20)
#    0.000    0.857    2.857    3.857    8.000    0.000 
#    2.571    0.000    0.000    0.000    0.000    0.000 
#    0.000    0.000    0.000    0.000    0.000    0.000 
#
# Total GULP energy -78160.784946 kJ/mol
# GULP energy per Si atom -5582.913210 kJ/mol
# Density = 2.092087 g / cm^3
# Si number density = 20.968598 Si / 1000 Ang^3
#
#
#
# Elastic Constant Matrix: (Units=GPa)
#
#
# Indices 1 2 3 4 5 6 
#
# 1 193.3891 29.9756 25.4861 -8.9688 39.9840 1.3686
# 2 29.9756 86.0240 32.1216 -1.0664 22.3997 0.9295
# 3 25.4861 32.1216 76.7838 -7.0656 25.4377 -2.6400
# 4 -8.9688 -1.0664 -7.0656 36.0810 -3.9956 1.2057
# 5 39.9840 22.3997 25.4377 -3.9956 35.2283 -0.0468
# 6 1.3686 0.9295 -2.6400 1.2057 -0.0468 40.0034
#
#
#
# Elastic Compliance Matrix: (Units=1/GPa)
#
#
# Indices 1 2 3 4 5 6 
#
# 1 0.006819 -0.000585 0.000613 0.000952 -0.007703 -0.000217
# 2 -0.000585 0.014938 -0.004221 -0.001167 -0.005919 -0.000577
# 3 0.000613 -0.004221 0.018531 0.002384 -0.011121 0.001215
# 4 0.000952 -0.001167 0.002384 0.028538 0.001175 -0.000707
# 5 -0.007703 -0.005919 -0.011121 0.001175 0.049056 -0.000311
# 6 -0.000217 -0.000577 0.001215 -0.000707 -0.000311 0.025120
#
#
# Mechanical properties :
#
#
# Convention : Reuss Voigt Hill
#
# Bulk Modulus (GPa) = 31.34579 59.04041 45.19310
# Shear Modulus (GPa) = 30.85996 40.17011 35.51503
#
# Velocity S-wave (km/s) = 3.84047 4.38165 4.11995
# Velocity P-wave (km/s) = 5.88617 7.33595 6.65068
#
# Compressibility (1/GPa) = 0.03190221
#
# Stress axis : x y z
#
# Youngs Moduli (GPa) = 146.64774 66.94431 53.96236
#
# Poissons Ratio (x) = 0.03919 -0.03310
# Poissons Ratio (y) = 0.08585 0.22778
# Poissons Ratio (z) = -0.08996 0.28258
#
# Static dielectric constant tensor:
#      x y z
#    x 0.987200 0.327510 0.629870 
#    y 0.327510 1.628510 -0.263300 
#    z 0.629870 -0.263300 1.166180 
# 
# From -- ./inp_files/130967.got.cif
#   From: 2010.05.17/outbox.cif.g08.bks.cpg/sg2_66_cif.got.tgz:130967.got - 2010.06.03 11:33:40.
