data_PCOD9043642
_publ_section_title
;
Structure prediction by ZEFSAII (Michael W. Deem and Ramdas Pophale) SiO2 
 PCOD9043642
Probable space group: P -1
;
_chemical_formula_sum "Si O2"
_cell_formula_units_Z 16
_cell_length_a 11.065902
_cell_length_b 11.208080
_cell_length_c 15.578020
_cell_angle_alpha 43.927527
_cell_angle_beta 146.933285
_cell_angle_gamma 134.333376
_cell_volume 707.798184
_symmetry_space_group_name_H-M "P -1"
_symmetry_group_IT_number 2
_symmetry_cell_setting 'triclinic'
loop_
_space_group_symop_operation_xyz
x,y,z
-x,-y,-z
loop_
_atom_site_type_symbol
_atom_site_label
_atom_site_fract_x
_atom_site_fract_y
_atom_site_fract_z
Si Si1 0.054638 0.358368 0.223687
Si Si2 0.332469 0.288535 0.727769
Si Si3 0.512670 0.632912 0.740762
Si Si4 0.279756 0.522229 0.414447
Si Si5 0.408437 0.170116 0.494708
Si Si6 0.840302 0.159488 0.574489
Si Si7 0.916131 0.919907 0.898044
Si Si8 0.235980 0.755710 0.051491
O O1 0.041769 0.440838 0.267057
O O2 0.206805 0.218451 0.403419
O O3 0.179952 0.547497 0.154918
O O4 0.870648 0.256543 0.100386
O O5 0.477897 0.423276 0.816323
O O6 0.278442 0.416403 0.555550
O O7 0.492935 0.179773 0.834015
O O8 0.095024 0.185161 0.679179
O O9 0.605228 0.725566 0.656919
O O10 0.260588 0.668777 0.576374
O O11 0.700954 0.742921 0.861825
O O12 0.500000 0.500000 0.500000
O O13 0.354666 0.731909 0.370626
O O14 0.337246 0.969707 0.528057
O O15 0.836899 0.064298 0.714377
O O16 0.113667 0.859406 0.991417
O O17 0.000000 0.000000 0.000000
#
# Coordination Sequence:
#
# PCOD9043642 Si02
#       8
#     2   2   2   2   2   2   2   2
#     4  10  17  33  61  90 113 148 206 243 281 349
#     4  11  22  39  62  93 122 158 196 244 309 357
#     4  10  19  41  63  83 118 163 206 239 288 363
#     4   9  17  34  58  87 118 146 206 243 275 358
#     4   9  16  34  57  84 116 148 202 240 283 340
#     4  11  23  39  60  89 127 162 193 248 306 350
#     4  11  24  42  63  91 116 158 209 246 295 353
#     4  11  19  36  63  88 122 156 192 249 299 355
#
# _framework density 22.605314
#
# number of rings (size 3 to 8) (size 9 to 14) (size 15 to 20)
#    0.000    1.750    6.250    2.625    0.000    3.500 
#    0.000    4.375    0.000    0.000    0.000    0.000 
#    0.000    0.000    0.000    0.000    0.000    0.000 
#
# Total GULP energy -89094.093403 kJ/mol
# GULP energy per Si atom -5568.380838 kJ/mol
# Density = 2.255386 g / cm^3
# Si number density = 22.605314 Si / 1000 Ang^3
#
#
#
# Elastic Constant Matrix: (Units=GPa)
#
#
# Indices 1 2 3 4 5 6 
#
# 1 76.0942 50.6701 42.5793 18.2115 19.1226 -15.8153
# 2 50.6701 72.4509 27.8557 21.8806 -1.8474 -26.4131
# 3 42.5793 27.8557 80.8251 14.4652 8.8365 -23.1538
# 4 18.2115 21.8806 14.4652 37.4588 -14.8485 -3.6701
# 5 19.1226 -1.8474 8.8365 -14.8485 48.2247 4.1720
# 6 -15.8153 -26.4131 -23.1538 -3.6701 4.1720 38.9136
#
#
#
# Elastic Compliance Matrix: (Units=1/GPa)
#
#
# Indices 1 2 3 4 5 6 
#
# 1 0.040622 -0.023786 -0.011260 -0.008855 -0.017222 -0.005324
# 2 -0.023786 0.037426 0.005575 -0.008456 0.005714 0.017643
# 3 -0.011260 0.005575 0.020761 -0.005396 -0.001759 0.011241
# 4 -0.008855 -0.008456 -0.005396 0.044444 0.018758 -0.010369
# 5 -0.017222 0.005714 -0.001759 0.018758 0.034409 -0.006088
# 6 -0.005324 0.017643 0.011241 -0.010369 -0.006088 0.041873
#
#
# Mechanical properties :
#
#
# Convention : Reuss Voigt Hill
#
# Bulk Modulus (GPa) = 25.08338 52.39782 38.74060
# Shear Modulus (GPa) = 17.13708 32.13708 24.63708
#
# Velocity S-wave (km/s) = 2.75635 3.77458 3.30491
# Velocity P-wave (km/s) = 4.60980 6.49818 5.63368
#
# Compressibility (1/GPa) = 0.03986704
#
# Stress axis : x y z
#
# Youngs Moduli (GPa) = 24.61728 26.71920 48.16797
#
# Poissons Ratio (x) = 0.63556 0.54235
# Poissons Ratio (y) = 0.58556 -0.26855
# Poissons Ratio (z) = 0.27718 -0.14897
#
# Static dielectric constant tensor:
#      x y z
#    x 1.880210 -0.047970 0.001010 
#    y -0.047970 1.911700 0.027620 
#    z 0.001010 0.027620 1.946850 
# 
# From -- ./inp_files/567982.got.cif
#   From: 2010.05.17/outbox.cif.g08.bks.cpg/sg2_284_cif.got.tgz:567982.got - 2010.06.03 11:33:40.
