data_PCOD9043778
_publ_section_title
;
Structure prediction by ZEFSAII (Michael W. Deem and Ramdas Pophale) SiO2 
 PCOD9043778
Probable space group: P -1
;
_chemical_formula_sum "Si O2"
_cell_formula_units_Z 16
_cell_length_a 11.129874
_cell_length_b 7.803862
_cell_length_c 8.853406
_cell_angle_alpha 109.526484
_cell_angle_beta 106.300688
_cell_angle_gamma 107.959422
_cell_volume 623.090776
_symmetry_space_group_name_H-M "P -1"
_symmetry_group_IT_number 2
_symmetry_cell_setting 'triclinic'
loop_
_space_group_symop_operation_xyz
x,y,z
-x,-y,-z
loop_
_atom_site_type_symbol
_atom_site_label
_atom_site_fract_x
_atom_site_fract_y
_atom_site_fract_z
Si Si1 0.792450 0.617960 0.487778
Si Si2 0.545909 0.118786 0.706822
Si Si3 0.099501 0.295809 0.991820
Si Si4 0.457788 0.470130 0.806743
Si Si5 0.700147 0.170841 0.281840
Si Si6 0.929079 0.050198 0.348278
Si Si7 0.640557 0.640774 0.691801
Si Si8 0.172139 0.706300 0.975258
O O1 0.704272 0.599903 0.299882
O O2 0.736034 0.382470 0.442796
O O3 0.740352 0.747226 0.616659
O O4 0.956728 0.721147 0.578885
O O5 0.510152 0.307281 0.724449
O O6 0.500000 0.000000 0.500000
O O7 0.455293 0.987040 0.776963
O O8 0.704831 0.183261 0.827233
O O9 0.116914 0.468356 0.925591
O O10 0.090199 0.101857 0.839981
O O11 0.235469 0.378985 0.172448
O O12 0.959073 0.247362 0.023307
O O13 0.554463 0.675329 0.808870
O O14 0.500000 0.500000 0.000000
O O15 0.788441 0.059575 0.343856
O O16 0.757184 0.230183 0.147044
O O17 0.000000 0.000000 0.500000
O O18 0.500000 0.500000 0.500000
#
# Coordination Sequence:
#
# PCOD9043778 Si02
#       8
#     2   2   2   2   2   2   2   2
#     4  11  25  46  72 109 150 199 253 317 384 451
#     4  12  27  47  75 115 156 205 259 321 395 464
#     4  11  26  50  78 111 155 206 258 314 398 462
#     4  11  24  45  75 105 150 204 255 313 384 462
#     4  12  27  47  73 114 155 199 260 322 385 460
#     4  12  28  47  76 112 152 203 258 313 389 470
#     4  10  23  45  75 107 146 197 251 316 381 456
#     4  11  26  49  79 109 158 201 255 323 387 468
#
# _framework density 25.678440999999999
#
# number of rings (size 3 to 8) (size 9 to 14) (size 15 to 20)
#    0.000    0.750    1.250    4.500    7.000    3.000 
#    4.500    0.000    0.000    0.000    0.000    0.000 
#    0.000    0.000    0.000    0.000    0.000    0.000 
#
# Total GULP energy -89338.552866 kJ/mol
# GULP energy per Si atom -5583.659554 kJ/mol
# Density = 2.562000 g / cm^3
# Si number density = 25.678441 Si / 1000 Ang^3
#
#
#
# Elastic Constant Matrix: (Units=GPa)
#
#
# Indices 1 2 3 4 5 6 
#
# 1 143.5888 42.3703 61.0879 14.2955 20.0512 2.5329
# 2 42.3703 77.6324 23.6322 -2.9394 9.7744 -8.9580
# 3 61.0879 23.6322 128.7313 -15.3523 4.7729 -11.8858
# 4 14.2955 -2.9394 -15.3523 43.4284 6.6278 -2.2187
# 5 20.0512 9.7744 4.7729 6.6278 41.5123 -4.8574
# 6 2.5329 -8.9580 -11.8858 -2.2187 -4.8574 52.5454
#
#
#
# Elastic Compliance Matrix: (Units=1/GPa)
#
#
# Indices 1 2 3 4 5 6 
#
# 1 0.011953 -0.004981 -0.005639 -0.005914 -0.003390 -0.003264
# 2 -0.004981 0.016237 0.000098 0.003169 -0.001581 0.003018
# 3 -0.005639 0.000098 0.011398 0.005930 0.000817 0.003193
# 4 -0.005914 0.003169 0.005930 0.027848 -0.002655 0.003097
# 5 -0.003390 -0.001581 0.000817 -0.002655 0.026714 0.002436
# 6 -0.003264 0.003018 0.003193 0.003097 0.002436 0.020781
#
#
# Mechanical properties :
#
#
# Convention : Reuss Voigt Hill
#
# Bulk Modulus (GPa) = 53.92428 67.12590 60.52509
# Shear Modulus (GPa) = 35.17290 42.35470 38.76380
#
# Velocity S-wave (km/s) = 3.70502 4.06572 3.88955
# Velocity P-wave (km/s) = 6.27282 6.94534 6.61763
#
# Compressibility (1/GPa) = 0.01854452
#
# Stress axis : x y z
#
# Youngs Moduli (GPa) = 83.66255 61.58704 87.73749
#
# Poissons Ratio (x) = 0.30676 0.49472
# Poissons Ratio (y) = 0.41671 -0.00860
# Poissons Ratio (z) = 0.47175 -0.00604
#
# Static dielectric constant tensor:
#      x y z
#    x 1.984140 0.012780 -0.043720 
#    y 0.012780 2.270320 -0.001990 
#    z -0.043720 -0.001990 1.975760 
# 
# From -- ./inp_files/245140.got.cif
#   From: 2010.05.17/outbox.cif.g08.bks.cpg/sg2_123_cif.got.tgz:245140.got - 2010.06.03 11:33:40.
