data_PCOD9043168
_publ_section_title
;
Structure prediction by ZEFSAII (Michael W. Deem and Ramdas Pophale) SiO2 
 PCOD9043168
Probable space group: P -1
;
_chemical_formula_sum "Si O2"
_cell_formula_units_Z 16
_cell_length_a 8.956608
_cell_length_b 9.317536
_cell_length_c 11.908173
_cell_angle_alpha 80.872555
_cell_angle_beta 76.361923
_cell_angle_gamma 49.169594
_cell_volume 730.726195
_symmetry_space_group_name_H-M "P -1"
_symmetry_group_IT_number 2
_symmetry_cell_setting 'triclinic'
loop_
_space_group_symop_operation_xyz
x,y,z
-x,-y,-z
loop_
_atom_site_type_symbol
_atom_site_label
_atom_site_fract_x
_atom_site_fract_y
_atom_site_fract_z
Si Si1 0.466403 0.463462 0.384396
Si Si2 0.654284 0.523472 0.919014
Si Si3 0.308731 0.211965 0.966861
Si Si4 0.063048 0.614218 0.527648
Si Si5 0.569997 0.163462 0.261880
Si Si6 0.647510 0.634766 0.288808
Si Si7 0.945507 0.875240 0.075635
Si Si8 0.372746 0.019745 0.413886
O O1 0.500000 0.500000 0.500000
O O2 0.230331 0.575659 0.418346
O O3 0.587564 0.241478 0.365038
O O4 0.553400 0.538207 0.281878
O O5 0.548907 0.649354 0.813525
O O6 0.857551 0.315589 0.885081
O O7 0.500000 0.500000 0.000000
O O8 0.700816 0.639622 0.970989
O O9 0.312640 0.283263 0.832962
O O10 0.136187 0.193062 0.992528
O O11 0.500000 0.000000 0.000000
O O12 0.165600 0.515371 0.642893
O O13 0.000000 0.500000 0.500000
O O14 0.864619 0.833226 0.544206
O O15 0.426642 0.113095 0.303721
O O16 0.773513 0.999579 0.183981
O O17 0.477307 0.814940 0.371859
O O18 0.000000 0.000000 0.000000
O O19 0.500000 0.000000 0.500000
#
# Coordination Sequence:
#
# PCOD9043168 Si02
#       8
#     2   2   2   2   2   2   2   2
#     4  10  23  45  69 102 142 180 232 299 356 432
#     4  12  25  47  72 102 142 190 243 302 355 428
#     4  12  24  48  69 105 149 187 247 304 353 429
#     4  11  22  43  70 101 135 182 232 287 359 429
#     4  12  24  45  71  99 145 188 238 290 363 428
#     4  11  24  43  68 102 138 182 233 293 366 415
#     4  12  26  46  72 105 140 193 243 298 365 424
#     4  12  23  41  70 102 140 179 235 295 348 434
#
# _framework density 21.896025999999999
#
# number of rings (size 3 to 8) (size 9 to 14) (size 15 to 20)
#    0.000    0.500    6.250    1.875    1.750    1.500 
#    2.250    5.000    0.000    0.000    0.000    0.000 
#    0.000    0.000    0.000    0.000    0.000    0.000 
#
# Total GULP energy -89354.149501 kJ/mol
# GULP energy per Si atom -5584.634344 kJ/mol
# Density = 2.184619 g / cm^3
# Si number density = 21.896026 Si / 1000 Ang^3
#
#
#
# Elastic Constant Matrix: (Units=GPa)
#
#
# Indices 1 2 3 4 5 6 
#
# 1 133.5542 44.1471 19.2931 0.6594 -10.9539 10.6264
# 2 44.1471 147.9481 16.4252 3.8233 8.0167 -13.4798
# 3 19.2931 16.4252 59.8622 -13.0018 3.3265 0.4029
# 4 0.6594 3.8233 -13.0018 48.4625 8.0990 2.1683
# 5 -10.9539 8.0167 3.3265 8.0990 36.0304 -1.1390
# 6 10.6264 -13.4798 0.4029 2.1683 -1.1390 60.5740
#
#
#
# Elastic Compliance Matrix: (Units=1/GPa)
#
#
# Indices 1 2 3 4 5 6 
#
# 1 0.009316 -0.002859 -0.002677 -0.001178 0.003913 -0.002137
# 2 -0.002859 0.008113 -0.001337 -0.000674 -0.002327 0.002296
# 3 -0.002677 -0.001337 0.019439 0.005980 -0.003663 -0.000240
# 4 -0.001178 -0.000674 0.005980 0.023359 -0.006040 -0.000933
# 5 0.003913 -0.002327 -0.003663 -0.006040 0.031146 -0.000378
# 6 -0.002137 0.002296 -0.000240 -0.000933 -0.000378 0.017423
#
#
# Mechanical properties :
#
#
# Convention : Reuss Voigt Hill
#
# Bulk Modulus (GPa) = 43.24897 55.67725 49.46311
# Shear Modulus (GPa) = 38.38802 46.44667 42.41734
#
# Velocity S-wave (km/s) = 4.19166 4.61069 4.40616
# Velocity P-wave (km/s) = 6.57431 7.33674 6.96596
#
# Compressibility (1/GPa) = 0.02312194
#
# Stress axis : x y z
#
# Youngs Moduli (GPa) = 107.34093 123.25256 51.44395
#
# Poissons Ratio (x) = 0.35238 0.13771
# Poissons Ratio (y) = 0.30689 0.06879
# Poissons Ratio (z) = 0.28734 0.16482
#
# Static dielectric constant tensor:
#      x y z
#    x 1.830620 0.024720 -0.008940 
#    y 0.024720 1.591370 -0.113230 
#    z -0.008940 -0.113230 1.834120 
# 
# From -- ./inp_files/381962.got.cif
#   From: 2010.05.17/outbox.cif.g08.bks.cpg/sg2_191_cif.got.tgz:381962.got - 2010.06.03 11:33:40.
