data_PCOD9043175
_publ_section_title
;
Structure prediction by ZEFSAII (Michael W. Deem and Ramdas Pophale) SiO2 
 PCOD9043175
Probable space group: P -1
;
_chemical_formula_sum "Si O2"
_cell_formula_units_Z 14
_cell_length_a 8.803561
_cell_length_b 18.555976
_cell_length_c 5.368720
_cell_angle_alpha 73.690559
_cell_angle_beta 123.282732
_cell_angle_gamma 127.901617
_cell_volume 576.410405
_symmetry_space_group_name_H-M "P -1"
_symmetry_group_IT_number 2
_symmetry_cell_setting 'triclinic'
loop_
_space_group_symop_operation_xyz
x,y,z
-x,-y,-z
loop_
_atom_site_type_symbol
_atom_site_label
_atom_site_fract_x
_atom_site_fract_y
_atom_site_fract_z
Si Si1 0.373611 0.337990 0.750950
Si Si2 0.138937 0.432808 0.419833
Si Si3 0.769014 0.385638 0.774398
Si Si4 0.781574 0.260488 0.595919
Si Si5 0.412373 0.919752 0.700457
Si Si6 0.135504 0.959331 0.737304
Si Si7 0.873495 0.770278 0.868334
O O1 0.334258 0.418203 0.615536
O O2 0.625324 0.374427 0.895255
O O3 0.245738 0.274066 0.457289
O O4 0.274820 0.284536 0.971578
O O5 0.214955 0.534982 0.450948
O O6 0.957180 0.352101 0.512924
O O7 0.008965 0.414527 0.058611
O O8 0.654779 0.289907 0.622121
O O9 0.647431 0.174212 0.379525
O O10 0.918256 0.236808 0.917216
O O11 0.199982 0.910295 0.640988
O O12 0.500000 0.000000 0.500000
O O13 0.620134 0.958883 0.032360
O O14 0.980900 0.878102 0.871476
O O15 0.000000 0.000000 0.500000
#
# Coordination Sequence:
#
# PCOD9043175 Si02
#       7
#     2   2   2   2   2   2   2
#     4  11  25  46  72 106 146 194 243 304 365 438
#     4  10  23  45  69 103 144 191 241 306 362 433
#     4  11  24  43  72 105 139 193 247 296 369 442
#     4  11  23  45  72 101 149 190 240 304 373 434
#     4  11  25  47  76 105 145 195 243 308 374 440
#     4  11  26  49  73 108 146 192 251 309 371 448
#     4  11  24  48  72 104 151 193 238 310 370 438
#
# _framework density 24.288250000000001
#
# number of rings (size 3 to 8) (size 9 to 14) (size 15 to 20)
#    0.000    1.143    2.857    2.571    2.000    2.857 
#    2.571    2.143    0.000    0.000    0.000    0.000 
#    0.000    0.000    0.000    0.000    0.000    0.000 
#
# Total GULP energy -78368.606068 kJ/mol
# GULP energy per Si atom -5597.757576 kJ/mol
# Density = 2.423297 g / cm^3
# Si number density = 24.288250 Si / 1000 Ang^3
#
#
#
# Elastic Constant Matrix: (Units=GPa)
#
#
# Indices 1 2 3 4 5 6 
#
# 1 105.5146 62.7405 39.9143 -26.8567 8.2862 -27.6649
# 2 62.7405 137.7256 44.4698 -31.6131 2.6096 -26.0214
# 3 39.9143 44.4698 94.4205 -9.1664 8.6878 -15.4559
# 4 -26.8567 -31.6131 -9.1664 37.9955 -3.7489 -7.4779
# 5 8.2862 2.6096 8.6878 -3.7489 38.1165 -9.5104
# 6 -27.6649 -26.0214 -15.4559 -7.4779 -9.5104 37.4095
#
#
#
# Elastic Compliance Matrix: (Units=1/GPa)
#
#
# Indices 1 2 3 4 5 6 
#
# 1 0.019330 -0.001318 -0.003790 0.014864 0.002031 0.015300
# 2 -0.001318 0.013617 -0.003323 0.012057 0.003925 0.010532
# 3 -0.003790 -0.003323 0.013641 -0.002514 -0.002456 -0.000605
# 4 0.014864 0.012057 -0.002514 0.053390 0.009616 0.031457
# 5 0.002031 0.003925 -0.002456 0.009616 0.030231 0.012825
# 6 0.015300 0.010532 -0.000605 0.031457 0.012825 0.054670
#
#
# Mechanical properties :
#
#
# Convention : Reuss Voigt Hill
#
# Bulk Modulus (GPa) = 33.64033 70.21221 51.92627
# Shear Modulus (GPa) = 23.62403 35.40672 29.51538
#
# Velocity S-wave (km/s) = 3.12212 3.82222 3.48977
# Velocity P-wave (km/s) = 5.18434 6.96059 6.13707
#
# Compressibility (1/GPa) = 0.02972623
#
# Stress axis : x y z
#
# Youngs Moduli (GPa) = 51.73309 73.43699 73.30898
#
# Poissons Ratio (x) = 0.09679 0.27785
# Poissons Ratio (y) = 0.06818 0.24359
# Poissons Ratio (z) = 0.19607 0.24402
#
# Static dielectric constant tensor:
#      x y z
#    x 1.979210 0.030390 -0.041850 
#    y 0.030390 1.951870 0.020600 
#    z -0.041850 0.020600 1.959820 
# 
# From -- ./inp_files/47215.got.cif
#   From: 2010.05.17/outbox.cif.g08.bks.cpg/sg2_24_cif.got.tgz:47215.got - 2010.06.03 11:33:40.
