data_PCOD9043377
_publ_section_title
;
Structure prediction by ZEFSAII (Michael W. Deem and Ramdas Pophale) SiO2 
 PCOD9043377
Probable space group: P -1
;
_chemical_formula_sum "Si O2"
_cell_formula_units_Z 14
_cell_length_a 8.578209
_cell_length_b 6.241695
_cell_length_c 11.039079
_cell_angle_alpha 98.448346
_cell_angle_beta 83.886232
_cell_angle_gamma 88.716125
_cell_volume 580.886309
_symmetry_space_group_name_H-M "P -1"
_symmetry_group_IT_number 2
_symmetry_cell_setting 'triclinic'
loop_
_space_group_symop_operation_xyz
x,y,z
-x,-y,-z
loop_
_atom_site_type_symbol
_atom_site_label
_atom_site_fract_x
_atom_site_fract_y
_atom_site_fract_z
Si Si1 0.509964 0.037901 0.202773
Si Si2 0.508499 0.720157 0.410029
Si Si3 0.747509 0.368813 0.273865
Si Si4 0.242691 0.007849 0.467385
Si Si5 0.987593 0.027587 0.299511
Si Si6 0.414651 0.283862 0.027808
Si Si7 0.890766 0.677732 0.091033
O O1 0.676910 0.149603 0.209063
O O2 0.413132 0.245025 0.169437
O O3 0.510163 0.875708 0.303250
O O4 0.484470 0.879231 0.080243
O O5 0.597647 0.491308 0.361483
O O6 0.325745 0.769419 0.461786
O O7 0.618996 0.827644 0.509876
O O8 0.797127 0.545893 0.188567
O O9 0.910341 0.269024 0.307844
O O10 0.158630 0.025698 0.346737
O O11 0.120684 0.062276 0.589695
O O12 0.975524 0.871138 0.170807
O O13 0.500000 0.500000 0.000000
O O14 0.239939 0.254307 0.990785
O O15 0.000000 0.500000 0.000000
#
# Coordination Sequence:
#
# PCOD9043377 Si02
#       7
#     2   2   2   2   2   2   2
#     4  11  21  38  67  94 132 169 222 272 335 387
#     4  11  22  43  69 103 129 173 226 280 332 398
#     4  12  21  43  69  94 138 174 220 283 333 402
#     4  10  23  45  70  96 139 173 223 281 333 402
#     4  11  24  47  64  99 139 177 218 278 343 399
#     4  11  21  39  66  94 126 177 220 274 327 387
#     4  12  26  44  65  96 137 176 222 276 339 405
#
# _framework density 24.101102999999998
#
# number of rings (size 3 to 8) (size 9 to 14) (size 15 to 20)
#    0.000    0.857    7.143    0.000    0.000    5.143 
#    0.000    0.000    0.000    0.000    0.000    0.000 
#    0.000    0.000    0.000    0.000    0.000    0.000 
#
# Total GULP energy -77951.169779 kJ/mol
# GULP energy per Si atom -5567.940698 kJ/mol
# Density = 2.404625 g / cm^3
# Si number density = 24.101103 Si / 1000 Ang^3
#
#
#
# Elastic Constant Matrix: (Units=GPa)
#
#
# Indices 1 2 3 4 5 6 
#
# 1 83.9782 27.1500 44.3002 -4.1980 32.9117 -31.0268
# 2 27.1500 94.7997 51.0016 -0.4119 15.2766 -21.3763
# 3 44.3002 51.0016 93.3013 7.7884 29.5577 -15.6481
# 4 -4.1980 -0.4119 7.7884 47.7019 -13.5694 0.5775
# 5 32.9117 15.2766 29.5577 -13.5694 47.4326 -8.8241
# 6 -31.0268 -21.3763 -15.6481 0.5775 -8.8241 38.0201
#
#
#
# Elastic Compliance Matrix: (Units=1/GPa)
#
#
# Indices 1 2 3 4 5 6 
#
# 1 0.025119 0.001878 -0.006840 0.000097 -0.010721 0.016250
# 2 0.001878 0.016393 -0.009137 0.002002 0.001022 0.007196
# 3 -0.006840 -0.009137 0.021498 -0.006493 -0.008251 -0.003687
# 4 0.000097 0.002002 -0.006493 0.025063 0.010619 0.000616
# 5 -0.010721 0.001022 -0.008251 0.010619 0.035732 -0.003439
# 6 0.016250 0.007196 -0.003687 0.000616 -0.003439 0.041283
#
#
# Mechanical properties :
#
#
# Convention : Reuss Voigt Hill
#
# Bulk Modulus (GPa) = 28.72526 57.44254 43.08390
# Shear Modulus (GPa) = 24.40356 36.60607 30.50482
#
# Velocity S-wave (km/s) = 3.18551 3.90148 3.56153
# Velocity P-wave (km/s) = 5.04723 6.64689 5.90151
#
# Compressibility (1/GPa) = 0.03481257
#
# Stress axis : x y z
#
# Youngs Moduli (GPa) = 39.81067 61.00288 46.51695
#
# Poissons Ratio (x) = -0.11456 0.31816
# Poissons Ratio (y) = -0.07476 0.42501
# Poissons Ratio (z) = 0.27229 0.55736
#
# Static dielectric constant tensor:
#      x y z
#    x 2.047660 -0.109100 -0.066680 
#    y -0.109100 2.182660 -0.099150 
#    z -0.066680 -0.099150 2.091050 
# 
# From -- ./inp_files/98682.got.cif
#   From: 2010.05.17/outbox.cif.g08.bks.cpg/sg2_50_cif.got.tgz:98682.got - 2010.06.03 11:33:40.
