data_PCOD9043855
_publ_section_title
;
Structure prediction by ZEFSAII (Michael W. Deem and Ramdas Pophale) SiO2 
 PCOD9043855
Probable space group: P -1
;
_chemical_formula_sum "Si O2"
_cell_formula_units_Z 16
_cell_length_a 8.692902
_cell_length_b 7.619276
_cell_length_c 14.302491
_cell_angle_alpha 107.515132
_cell_angle_beta 131.888784
_cell_angle_gamma 95.665775
_cell_volume 609.667057
_symmetry_space_group_name_H-M "P -1"
_symmetry_group_IT_number 2
_symmetry_cell_setting 'triclinic'
loop_
_space_group_symop_operation_xyz
x,y,z
-x,-y,-z
loop_
_atom_site_type_symbol
_atom_site_label
_atom_site_fract_x
_atom_site_fract_y
_atom_site_fract_z
Si Si1 0.617391 0.768181 0.032050
Si Si2 0.955063 0.198670 0.521187
Si Si3 0.279833 0.848390 0.195662
Si Si4 0.237949 0.361329 0.397623
Si Si5 0.088105 0.902022 0.315526
Si Si6 0.521875 0.553680 0.222821
Si Si7 0.181519 0.819479 0.937224
Si Si8 0.603349 0.292334 0.351993
O O1 0.423879 0.440160 0.068630
O O2 0.382628 0.759523 0.974979
O O3 0.816466 0.829326 0.198251
O O4 0.723165 0.949504 0.026705
O O5 0.206588 0.372961 0.654030
O O6 0.780964 0.204913 0.372248
O O7 0.839119 0.171408 0.572558
O O8 0.000000 0.000000 0.500000
O O9 0.436371 0.724857 0.238662
O O10 0.158703 0.804627 0.037802
O O11 0.134687 0.804225 0.224476
O O12 0.203470 0.146429 0.393750
O O13 0.420237 0.091616 0.294067
O O14 0.214206 0.513806 0.487661
O O15 0.053330 0.308038 0.232280
O O16 0.457876 0.379733 0.247087
O O17 0.500000 0.500000 0.500000
#
# Coordination Sequence:
#
# PCOD9043855 Si02
#       8
#     2   2   2   2   2   2   2   2
#     4  10  23  45  78 111 152 203 265 322 381 467
#     4  12  26  47  75 109 155 203 256 325 381 465
#     4  12  26  48  78 111 157 199 259 330 380 468
#     4  11  24  45  76 114 159 209 250 315 396 469
#     4  11  27  48  74 115 155 203 261 321 393 461
#     4  12  26  47  79 112 150 208 265 318 396 457
#     4  10  23  46  77 114 153 203 263 325 385 453
#     4  12  26  47  77 112 153 202 260 321 387 466
#
# _framework density 26.243832000000001
#
# number of rings (size 3 to 8) (size 9 to 14) (size 15 to 20)
#    0.000    0.750    3.750    2.625    0.000    9.000 
#    0.000    0.000    0.000    0.000    0.000    0.000 
#    0.000    0.000    0.000    0.000    0.000    0.000 
#
# Total GULP energy -89594.578305 kJ/mol
# GULP energy per Si atom -5599.661144 kJ/mol
# Density = 2.618410 g / cm^3
# Si number density = 26.243832 Si / 1000 Ang^3
#
#
#
# Elastic Constant Matrix: (Units=GPa)
#
#
# Indices 1 2 3 4 5 6 
#
# 1 89.0685 32.2636 43.3385 7.2186 -12.2990 10.7667
# 2 32.2636 127.5608 47.6915 -8.9685 -1.9662 -9.2985
# 3 43.3385 47.6915 148.8843 2.8459 -6.4028 13.7684
# 4 7.2186 -8.9685 2.8459 50.5722 5.5369 -1.6384
# 5 -12.2990 -1.9662 -6.4028 5.5369 42.9598 9.9972
# 6 10.7667 -9.2985 13.7684 -1.6384 9.9972 27.2294
#
#
#
# Elastic Compliance Matrix: (Units=1/GPa)
#
#
# Indices 1 2 3 4 5 6 
#
# 1 0.016191 -0.004167 -0.002128 -0.003989 0.006853 -0.009505
# 2 -0.004167 0.010938 -0.003306 0.003395 -0.003621 0.008588
# 3 -0.002128 -0.003306 0.009032 -0.001201 0.002063 -0.005684
# 4 -0.003989 0.003395 -0.001201 0.021836 -0.005537 0.006690
# 5 0.006853 -0.003621 0.002063 -0.005537 0.029887 -0.016296
# 6 -0.009505 0.008588 -0.005684 0.006690 -0.016296 0.052676
#
#
# Mechanical properties :
#
#
# Convention : Reuss Voigt Hill
#
# Bulk Modulus (GPa) = 58.96375 68.01122 63.48748
# Shear Modulus (GPa) = 30.22696 40.30028 35.26362
#
# Velocity S-wave (km/s) = 3.39746 3.92294 3.66962
# Velocity P-wave (km/s) = 6.15685 6.81840 6.49605
#
# Compressibility (1/GPa) = 0.01695957
#
# Stress axis : x y z
#
# Youngs Moduli (GPa) = 61.76312 91.42278 110.71340
#
# Poissons Ratio (x) = 0.38097 0.23562
# Poissons Ratio (y) = 0.25737 0.36598
# Poissons Ratio (z) = 0.13144 0.30221
#
# Static dielectric constant tensor:
#      x y z
#    x 2.250980 0.027060 -0.064860 
#    y 0.027060 2.123810 -0.066220 
#    z -0.064860 -0.066220 2.060170 
# 
# From -- ./inp_files/498066.got.cif
#   From: 2010.05.17/outbox.cif.g08.bks.cpg/sg2_250_cif.got.tgz:498066.got - 2010.06.03 11:33:40.
