data_PCOD9043146
_publ_section_title
;
Structure prediction by ZEFSAII (Michael W. Deem and Ramdas Pophale) SiO2 
 PCOD9043146
Probable space group: P -1
;
_chemical_formula_sum "Si O2"
_cell_formula_units_Z 14
_cell_length_a 20.514475
_cell_length_b 16.559879
_cell_length_c 9.838102
_cell_angle_alpha 133.074557
_cell_angle_beta 36.937713
_cell_angle_gamma 161.479202
_cell_volume 586.762871
_symmetry_space_group_name_H-M "P -1"
_symmetry_group_IT_number 2
_symmetry_cell_setting 'triclinic'
loop_
_space_group_symop_operation_xyz
x,y,z
-x,-y,-z
loop_
_atom_site_type_symbol
_atom_site_label
_atom_site_fract_x
_atom_site_fract_y
_atom_site_fract_z
Si Si1 0.462496 0.827731 0.716992
Si Si2 0.859176 0.044071 0.641973
Si Si3 0.491566 0.815673 0.336917
Si Si4 0.664514 0.572843 0.210282
Si Si5 0.083028 0.669769 0.260374
Si Si6 0.699347 0.614269 0.890623
Si Si7 0.950926 0.731405 0.140968
O O1 0.514707 0.853780 0.503190
O O2 0.325202 0.592269 0.742752
O O3 0.734363 0.118561 0.674854
O O4 0.240888 0.716938 0.982510
O O5 0.917078 0.226688 0.724361
O O6 0.006747 0.114872 0.358099
O O7 0.994792 0.142022 0.672875
O O8 0.544007 0.723993 0.804693
O O9 0.408865 0.612631 0.203982
O O10 0.227702 0.640279 0.533408
O O11 0.788896 0.105967 0.112625
O O12 0.500000 0.500000 0.500000
O O13 0.920639 0.768303 0.092961
O O14 0.713617 0.661558 0.078507
O O15 0.500000 0.500000 0.000000
#
# Coordination Sequence:
#
# PCOD9043146 Si02
#       7
#     2   2   2   2   2   2   2
#     4  11  23  45  70 101 139 184 226 281 342 404
#     4  11  24  46  69  95 142 178 225 282 336 410
#     4  11  25  41  69  99 140 174 233 281 338 406
#     4  12  28  44  69 102 138 177 231 282 341 406
#     4  10  23  45  69 100 142 181 226 280 342 403
#     4  11  25  45  70  96 134 181 224 281 341 404
#     4  12  25  42  71 101 134 183 226 281 340 402
#
# _framework density 23.859725000000001
#
# number of rings (size 3 to 8) (size 9 to 14) (size 15 to 20)
#    0.000    0.857    5.714    1.286    6.000    2.286 
#    0.000    1.429    0.000    0.000    0.000    0.000 
#    0.000    0.000    0.000    0.000    0.000    0.000 
#
# Total GULP energy -78359.949495 kJ/mol
# GULP energy per Si atom -5597.139250 kJ/mol
# Density = 2.380542 g / cm^3
# Si number density = 23.859725 Si / 1000 Ang^3
#
#
#
# Elastic Constant Matrix: (Units=GPa)
#
#
# Indices 1 2 3 4 5 6 
#
# 1 98.2071 23.6741 49.8619 7.2755 15.9409 37.6976
# 2 23.6741 61.1296 30.9796 -1.4473 16.4145 19.0617
# 3 49.8619 30.9796 140.5390 3.7192 31.1763 30.8693
# 4 7.2755 -1.4473 3.7192 44.3031 7.3837 -2.0453
# 5 15.9409 16.4145 31.1763 7.3837 40.7458 9.2585
# 6 37.6976 19.0617 30.8693 -2.0453 9.2585 31.9337
#
#
#
# Elastic Compliance Matrix: (Units=1/GPa)
#
#
# Indices 1 2 3 4 5 6 
#
# 1 0.019919 0.000177 -0.002108 -0.003987 -0.000607 -0.021662
# 2 0.000177 0.021699 -0.001408 0.001279 -0.005676 -0.010073
# 3 -0.002108 -0.001408 0.010548 0.000088 -0.005498 -0.005268
# 4 -0.003987 0.001279 0.000088 0.024413 -0.005008 0.006875
# 5 -0.000607 -0.005676 -0.005498 -0.005008 0.032237 -0.000248
# 6 -0.021662 -0.010073 -0.005268 0.006875 -0.000248 0.068504
#
#
# Mechanical properties :
#
#
# Convention : Reuss Voigt Hill
#
# Bulk Modulus (GPa) = 21.98360 56.54522 39.26441
# Shear Modulus (GPa) = 25.10527 36.42053 30.76290
#
# Velocity S-wave (km/s) = 3.24729 3.91121 3.59461
# Velocity P-wave (km/s) = 4.82634 6.64434 5.80692
#
# Compressibility (1/GPa) = 0.04548845
#
# Stress axis : x y z
#
# Youngs Moduli (GPa) = 50.20302 46.08471 94.80337
#
# Poissons Ratio (x) = -0.00817 0.19985
# Poissons Ratio (y) = -0.00890 0.13351
# Poissons Ratio (z) = 0.10583 0.06490
#
# Static dielectric constant tensor:
#      x y z
#    x 1.919140 -0.005250 -0.005280 
#    y -0.005250 1.938950 -0.017920 
#    z -0.005280 -0.017920 1.892430 
# 
# From -- ./inp_files/337940.got.cif
#   From: 2010.05.17/outbox.cif.g08.bks.cpg/sg2_169_cif.got.tgz:337940.got - 2010.06.03 11:33:40.
