data_PCOD9043992
_publ_section_title
;
Structure prediction by ZEFSAII (Michael W. Deem and Ramdas Pophale) SiO2 
 PCOD9043992
Probable space group: P -1
;
_chemical_formula_sum "Si O2"
_cell_formula_units_Z 14
_cell_length_a 14.786222
_cell_length_b 7.237364
_cell_length_c 23.194691
_cell_angle_alpha 128.806031
_cell_angle_beta 161.284200
_cell_angle_gamma 49.447782
_cell_volume 604.549448
_symmetry_space_group_name_H-M "P -1"
_symmetry_group_IT_number 2
_symmetry_cell_setting 'triclinic'
loop_
_space_group_symop_operation_xyz
x,y,z
-x,-y,-z
loop_
_atom_site_type_symbol
_atom_site_label
_atom_site_fract_x
_atom_site_fract_y
_atom_site_fract_z
Si Si1 0.797553 0.289346 0.005563
Si Si2 0.669881 0.090774 0.251788
Si Si3 0.689921 0.045282 0.677511
Si Si4 0.702164 0.771569 0.106877
Si Si5 0.304400 0.031923 0.623355
Si Si6 0.035013 0.432527 0.940295
Si Si7 0.359020 0.758835 0.494603
O O1 0.652411 0.521891 0.002539
O O2 0.009397 0.115752 0.144894
O O3 0.554004 0.181518 0.805210
O O4 0.989021 0.362155 0.083112
O O5 0.972400 0.163040 0.431110
O O6 0.672077 0.840017 0.169613
O O7 0.695618 0.047955 0.326450
O O8 0.361857 0.276190 0.093998
O O9 0.795646 0.275950 0.762496
O O10 0.500000 0.000000 0.500000
O O11 0.473947 0.991034 0.586389
O O12 0.024016 0.779931 0.284119
O O13 0.500000 0.000000 0.000000
O O14 0.378196 0.792675 0.581313
O O15 0.000000 0.500000 0.000000
O O16 0.500000 0.500000 0.500000
#
# Coordination Sequence:
#
# PCOD9043992 Si02
#       7
#     2   2   2   2   2   2   2
#     4  12  25  49  78 106 151 205 246 317 377 439
#     4  10  23  46  68 108 150 191 249 305 361 457
#     4  12  28  47  71 113 146 192 259 304 377 449
#     4  11  23  45  74 106 151 196 251 305 371 449
#     4  10  24  45  75 107 148 194 252 304 375 450
#     4  12  27  46  74 110 151 194 251 310 376 450
#     4  11  24  46  76 107 148 198 241 311 376 439
#
# _framework density 23.157743
#
# number of rings (size 3 to 8) (size 9 to 14) (size 15 to 20)
#    0.000    0.857    4.286    1.714    2.000    2.286 
#    5.143    0.000    0.000    0.000    0.000    0.000 
#    0.000    0.000    0.000    0.000    0.000    0.000 
#
# Total GULP energy -78032.150149 kJ/mol
# GULP energy per Si atom -5573.725011 kJ/mol
# Density = 2.310503 g / cm^3
# Si number density = 23.157743 Si / 1000 Ang^3
#
#
#
# Elastic Constant Matrix: (Units=GPa)
#
#
# Indices 1 2 3 4 5 6 
#
# 1 124.4180 40.2094 33.5137 14.6603 -10.2529 -9.3300
# 2 40.2094 85.8103 70.6018 4.1259 7.7402 -22.2932
# 3 33.5137 70.6018 170.4034 28.3980 5.8403 -16.2870
# 4 14.6603 4.1259 28.3980 40.2257 -8.9388 2.4131
# 5 -10.2529 7.7402 5.8403 -8.9388 42.7533 8.2422
# 6 -9.3300 -22.2932 -16.2870 2.4131 8.2422 42.9850
#
#
#
# Elastic Compliance Matrix: (Units=1/GPa)
#
#
# Indices 1 2 3 4 5 6 
#
# 1 0.010214 -0.005665 0.000631 -0.002877 0.002959 -0.000887
# 2 -0.005665 0.023744 -0.008331 0.003782 -0.005416 0.008754
# 3 0.000631 -0.008331 0.010464 -0.007086 -0.001335 0.000435
# 4 -0.002877 0.003782 -0.007086 0.032406 0.007247 -0.004556
# 5 0.002959 -0.005416 -0.001335 0.007247 0.028422 -0.008529
# 6 -0.000887 0.008754 0.000435 -0.004556 -0.008529 0.029667
#
#
# Mechanical properties :
#
#
# Convention : Reuss Voigt Hill
#
# Bulk Modulus (GPa) = 56.52084 74.36460 65.44272
# Shear Modulus (GPa) = 29.84263 40.94658 35.39461
#
# Velocity S-wave (km/s) = 3.59370 4.20951 3.91373
# Velocity P-wave (km/s) = 6.45596 7.47051 6.98169
#
# Compressibility (1/GPa) = 0.01769259
#
# Stress axis : x y z
#
# Youngs Moduli (GPa) = 97.90165 42.11613 95.56274
#
# Poissons Ratio (x) = 0.23858 -0.06034
# Poissons Ratio (y) = 0.55460 0.79618
# Poissons Ratio (z) = -0.06181 0.35089
#
# Static dielectric constant tensor:
#      x y z
#    x 1.923620 -0.050170 -0.045970 
#    y -0.050170 1.833890 -0.074530 
#    z -0.045970 -0.074530 1.884340 
# 
# From -- ./inp_files/611722.got.cif
#   From: 2010.05.17/outbox.cif.g08.bks.cpg/sg2_306_cif.got.tgz:611722.got - 2010.06.03 11:33:40.
