data_PCOD9043239
_publ_section_title
;
Structure prediction by ZEFSAII (Michael W. Deem and Ramdas Pophale) SiO2 
 PCOD9043239
Probable space group: P -1
;
_chemical_formula_sum "Si O2"
_cell_formula_units_Z 16
_cell_length_a 8.926480
_cell_length_b 19.479557
_cell_length_c 6.402186
_cell_angle_alpha 44.175982
_cell_angle_beta 98.028458
_cell_angle_gamma 88.063550
_cell_volume 753.557356
_symmetry_space_group_name_H-M "P -1"
_symmetry_group_IT_number 2
_symmetry_cell_setting 'triclinic'
loop_
_space_group_symop_operation_xyz
x,y,z
-x,-y,-z
loop_
_atom_site_type_symbol
_atom_site_label
_atom_site_fract_x
_atom_site_fract_y
_atom_site_fract_z
Si Si1 0.216225 0.029030 0.541167
Si Si2 0.424204 0.186157 0.281246
Si Si3 0.191056 0.385950 0.934694
Si Si4 0.832538 0.414419 0.791633
Si Si5 0.075842 0.926689 0.359273
Si Si6 0.392779 0.703052 0.222373
Si Si7 0.635466 0.537291 0.821094
Si Si8 0.681940 0.159184 0.717559
O O1 0.342923 0.096458 0.392843
O O2 0.062772 0.095519 0.474755
O O3 0.169609 0.984856 0.409994
O O4 0.270680 0.937267 0.912455
O O5 0.521783 0.158215 0.572150
O O6 0.296508 0.286284 0.079300
O O7 0.543731 0.211975 0.077885
O O8 0.188531 0.484527 0.575582
O O9 0.013851 0.375036 0.943404
O O10 0.265832 0.408788 0.119440
O O11 0.743149 0.337685 0.828598
O O12 0.747229 0.449089 0.915612
O O13 0.190062 0.843028 0.433390
O O14 0.000000 0.000000 0.000000
O O15 0.540130 0.613857 0.470331
O O16 0.338030 0.744981 0.346846
O O17 0.500000 0.500000 0.000000
#
# Coordination Sequence:
#
# PCOD9043239 Si02
#       8
#     2   2   2   2   2   2   2   2
#     4  10  23  45  69  98 133 176 223 277 335 395
#     4  12  25  42  67  97 136 175 224 282 330 399
#     4  11  24  44  66  99 133 174 221 279 337 396
#     4  11  25  44  69  97 135 174 221 279 338 400
#     4   9  21  44  70  92 130 175 218 275 339 395
#     4  12  25  41  68  99 133 175 226 273 336 407
#     4  12  22  44  70  95 132 178 220 276 337 402
#     4  11  24  42  67  99 132 176 226 273 336 396
#
# _framework density 21.232624000000001
#
# number of rings (size 3 to 8) (size 9 to 14) (size 15 to 20)
#    0.000    1.000    3.750    2.625    0.000    8.000 
#    0.000    0.000    2.750    0.000    0.000    0.000 
#    0.000    0.000    0.000    0.000    0.000    0.000 
#
# Total GULP energy -89495.305004 kJ/mol
# GULP energy per Si atom -5593.456563 kJ/mol
# Density = 2.118430 g / cm^3
# Si number density = 21.232624 Si / 1000 Ang^3
#
#
#
# Elastic Constant Matrix: (Units=GPa)
#
#
# Indices 1 2 3 4 5 6 
#
# 1 145.8173 67.7153 38.4267 9.9926 9.4061 -3.6929
# 2 67.7153 94.9954 15.3019 17.4839 -5.7234 -12.9127
# 3 38.4267 15.3019 75.6330 11.6474 7.0504 14.3885
# 4 9.9926 17.4839 11.6474 25.3979 -0.3487 2.5581
# 5 9.4061 -5.7234 7.0504 -0.3487 33.4479 3.4666
# 6 -3.6929 -12.9127 14.3885 2.5581 3.4666 41.3315
#
#
#
# Elastic Compliance Matrix: (Units=1/GPa)
#
#
# Indices 1 2 3 4 5 6 
#
# 1 0.012159 -0.008766 -0.004554 0.003279 -0.003931 0.000060
# 2 -0.008766 0.019714 0.000646 -0.010894 0.005029 0.005403
# 3 -0.004554 0.000646 0.017628 -0.006177 -0.001787 -0.005809
# 4 0.003279 -0.010894 -0.006177 0.048803 -0.000568 -0.003933
# 5 -0.003931 0.005029 -0.001787 -0.000568 0.032320 -0.000834
# 6 0.000060 0.005403 -0.005809 -0.003933 -0.000834 0.028224
#
#
# Mechanical properties :
#
#
# Convention : Reuss Voigt Hill
#
# Bulk Modulus (GPa) = 41.40283 62.14816 51.77549
# Shear Modulus (GPa) = 26.00817 33.03560 29.52189
#
# Velocity S-wave (km/s) = 3.50368 3.94875 3.73285
# Velocity P-wave (km/s) = 5.99246 7.07982 6.55872
#
# Compressibility (1/GPa) = 0.02415294
#
# Stress axis : x y z
#
# Youngs Moduli (GPa) = 82.24168 50.72569 56.72887
#
# Poissons Ratio (x) = 0.44467 0.25835
# Poissons Ratio (y) = 0.72094 -0.03666
# Poissons Ratio (z) = 0.37454 -0.03278
#
# Static dielectric constant tensor:
#      x y z
#    x 1.754340 -0.036080 0.012970 
#    y -0.036080 1.725350 -0.008960 
#    z 0.012970 -0.008960 1.798230 
# 
# From -- ./inp_files/46316.got.cif
#   From: 2010.05.17/outbox.cif.g08.bks.cpg/sg2_24_cif.got.tgz:46316.got - 2010.06.03 11:33:40.
