data_PCOD9043313
_publ_section_title
;
Structure prediction by ZEFSAII (Michael W. Deem and Ramdas Pophale) SiO2 
 PCOD9043313
Probable space group: P -1
;
_chemical_formula_sum "Si O2"
_cell_formula_units_Z 16
_cell_length_a 8.246166
_cell_length_b 14.604798
_cell_length_c 19.007134
_cell_angle_alpha 20.339995
_cell_angle_beta 124.274147
_cell_angle_gamma 126.176879
_cell_volume 641.879729
_symmetry_space_group_name_H-M "P -1"
_symmetry_group_IT_number 2
_symmetry_cell_setting 'triclinic'
loop_
_space_group_symop_operation_xyz
x,y,z
-x,-y,-z
loop_
_atom_site_type_symbol
_atom_site_label
_atom_site_fract_x
_atom_site_fract_y
_atom_site_fract_z
Si Si1 0.719557 0.953865 0.075733
Si Si2 0.741369 0.446248 0.520504
Si Si3 0.873144 0.607099 0.139724
Si Si4 0.765188 0.390574 0.016093
Si Si5 0.594818 0.779312 0.778962
Si Si6 0.169894 0.683980 0.513454
Si Si7 0.586082 0.899695 0.932960
Si Si8 0.806530 0.140134 0.350153
O O1 0.737802 0.755591 0.286458
O O2 0.699619 0.837813 0.074951
O O3 0.500000 0.000000 0.000000
O O4 0.907678 0.201062 0.940833
O O5 0.697536 0.341758 0.504906
O O6 0.964887 0.484491 0.579177
O O7 0.607917 0.219626 0.699220
O O8 0.821357 0.406192 0.338570
O O9 0.873518 0.427167 0.199934
O O10 0.709170 0.793385 0.976125
O O11 0.645127 0.251010 0.020341
O O12 0.741205 0.171819 0.230734
O O13 0.667951 0.645950 0.824528
O O14 0.000000 0.500000 0.000000
O O15 0.418021 0.946283 0.607875
O O16 0.788533 0.989458 0.704769
O O17 0.500000 0.500000 0.000000
O O18 0.000000 0.000000 0.500000
#
# Coordination Sequence:
#
# PCOD9043313 Si02
#       8
#     2   2   2   2   2   2   2   2
#     4  12  29  47  73 115 158 200 252 327 392 453
#     4  11  24  44  78 110 147 203 256 317 386 457
#     4  12  25  48  77 109 154 201 259 322 386 468
#     4  11  27  47  75 106 149 203 251 322 386 450
#     4  10  23  45  70 103 145 205 251 306 388 454
#     4  11  23  41  77 109 143 197 263 312 380 464
#     4  12  25  53  78 111 156 198 268 313 383 481
#     4  11  27  47  70 108 149 197 257 318 384 462
#
# _framework density 24.926787000000001
#
# number of rings (size 3 to 8) (size 9 to 14) (size 15 to 20)
#    0.000    0.750    3.750    3.375    8.750    4.000 
#    0.000    0.000    0.000    0.000    0.000    0.000 
#    0.000    0.000    0.000    0.000    0.000    0.000 
#
# Total GULP energy -89152.634968 kJ/mol
# GULP energy per Si atom -5572.039685 kJ/mol
# Density = 2.487005 g / cm^3
# Si number density = 24.926787 Si / 1000 Ang^3
#
#
#
# Elastic Constant Matrix: (Units=GPa)
#
#
# Indices 1 2 3 4 5 6 
#
# 1 90.2952 15.3798 32.2397 -4.3505 2.7762 29.5884
# 2 15.3798 124.0671 17.7350 -17.9746 -7.0505 21.7108
# 3 32.2397 17.7350 90.0903 12.4698 -14.9922 -0.9209
# 4 -4.3505 -17.9746 12.4698 49.8752 6.4764 -3.9439
# 5 2.7762 -7.0505 -14.9922 6.4764 40.5071 1.5784
# 6 29.5884 21.7108 -0.9209 -3.9439 1.5784 37.3518
#
#
#
# Elastic Compliance Matrix: (Units=1/GPa)
#
#
# Indices 1 2 3 4 5 6 
#
# 1 0.019511 0.002003 -0.008784 0.003884 -0.004227 -0.016248
# 2 0.002003 0.010132 -0.003350 0.004099 0.000009 -0.007126
# 3 -0.008784 -0.003350 0.017059 -0.006494 0.007046 0.008342
# 4 0.003884 0.004099 -0.006494 0.024003 -0.005683 -0.002845
# 5 -0.004227 0.000009 0.007046 -0.005683 0.028428 0.001716
# 6 -0.016248 -0.007126 0.008342 -0.002845 0.001716 0.043618
#
#
# Mechanical properties :
#
#
# Convention : Reuss Voigt Hill
#
# Bulk Modulus (GPa) = 37.82074 48.35132 43.08603
# Shear Modulus (GPa) = 29.09910 41.48670 35.29290
#
# Velocity S-wave (km/s) = 3.42041 4.08406 3.76688
# Velocity P-wave (km/s) = 5.55019 6.45592 6.02011
#
# Compressibility (1/GPa) = 0.02644052
#
# Stress axis : x y z
#
# Youngs Moduli (GPa) = 51.25294 98.69611 58.61854
#
# Poissons Ratio (x) = -0.19765 0.51488
# Poissons Ratio (y) = -0.10264 0.19637
# Poissons Ratio (z) = 0.45019 0.33063
#
# Static dielectric constant tensor:
#      x y z
#    x 1.646780 -0.080760 -0.044680 
#    y -0.080760 2.078230 0.008830 
#    z -0.044680 0.008830 2.052290 
# 
# From -- ./inp_files/590442.got.cif
#   From: 2010.05.17/outbox.cif.g08.bks.cpg/sg2_296_cif.got.tgz:590442.got - 2010.06.03 11:33:40.
