data_PCOD9043913
_publ_section_title
;
Structure prediction by ZEFSAII (Michael W. Deem and Ramdas Pophale) SiO2 
 PCOD9043913
Probable space group: P -1
;
_chemical_formula_sum "Si O2"
_cell_formula_units_Z 16
_cell_length_a 6.194165
_cell_length_b 12.774858
_cell_length_c 11.784498
_cell_angle_alpha 89.559397
_cell_angle_beta 122.786237
_cell_angle_gamma 103.267492
_cell_volume 755.242866
_symmetry_space_group_name_H-M "P -1"
_symmetry_group_IT_number 2
_symmetry_cell_setting 'triclinic'
loop_
_space_group_symop_operation_xyz
x,y,z
-x,-y,-z
loop_
_atom_site_type_symbol
_atom_site_label
_atom_site_fract_x
_atom_site_fract_y
_atom_site_fract_z
Si Si1 0.604918 0.616994 0.288274
Si Si2 0.809122 0.044945 0.537101
Si Si3 0.956105 0.056214 0.837147
Si Si4 0.286076 0.915343 0.017356
Si Si5 0.303606 0.593478 0.778480
Si Si6 0.435335 0.260800 0.950122
Si Si7 0.829517 0.280748 0.455691
Si Si8 0.711294 0.437267 0.604342
O O1 0.563650 0.491680 0.243706
O O2 0.647763 0.691453 0.189880
O O3 0.357372 0.620830 0.293935
O O4 0.858466 0.657172 0.442390
O O5 0.952733 0.055953 0.700338
O O6 0.797615 0.157397 0.476457
O O7 0.500000 0.000000 0.500000
O O8 0.000000 0.000000 0.500000
O O9 0.188033 0.166791 0.929475
O O10 0.706876 0.063739 0.844798
O O11 0.021663 0.945664 0.898800
O O12 0.334196 0.799400 0.008728
O O13 0.500000 0.000000 0.000000
O O14 0.291874 0.695599 0.697125
O O15 0.998787 0.521306 0.699156
O O16 0.451078 0.639966 0.934219
O O17 0.705947 0.343520 0.513898
O O18 0.500000 0.500000 0.500000
#
# Coordination Sequence:
#
# PCOD9043913 Si02
#       8
#     2   2   2   2   2   2   2   2
#     4  11  22  42  66  95 139 176 232 290 361 428
#     4  12  31  47  77 112 146 187 252 309 360 441
#     4  10  23  46  66  96 138 185 233 297 368 427
#     4   9  22  41  69  92 129 186 235 289 361 433
#     4  11  24  40  63 105 130 177 238 290 348 441
#     4  11  24  39  69  93 140 178 230 294 360 430
#     4  11  24  43  70  97 139 185 232 296 369 424
#     4  11  21  41  70  95 134 189 233 293 355 436
#
# _framework density 21.185237999999998
#
# number of rings (size 3 to 8) (size 9 to 14) (size 15 to 20)
#    0.000    1.250    3.750    1.125    8.750    3.500 
#    0.000    0.000    0.000    0.000    0.000    0.000 
#    0.000    0.000    0.000    0.000    0.000    0.000 
#
# Total GULP energy -89143.360250 kJ/mol
# GULP energy per Si atom -5571.460016 kJ/mol
# Density = 2.113702 g / cm^3
# Si number density = 21.185238 Si / 1000 Ang^3
#
#
#
# Elastic Constant Matrix: (Units=GPa)
#
#
# Indices 1 2 3 4 5 6 
#
# 1 104.9084 25.8071 14.4043 7.0612 -26.0579 -1.4013
# 2 25.8071 82.0634 -2.1413 -15.9321 -7.1880 -6.5264
# 3 14.4043 -2.1413 45.5518 -4.0805 -11.5615 20.8474
# 4 7.0612 -15.9321 -4.0805 33.8521 3.9204 -9.7850
# 5 -26.0579 -7.1880 -11.5615 3.9204 21.3174 -21.9620
# 6 -1.4013 -6.5264 20.8474 -9.7850 -21.9620 -4.2367
#
#
#
# Elastic Compliance Matrix: (Units=1/GPa)
#
#
# Indices 1 2 3 4 5 6 
#
# 1 0.013122 -0.005891 0.000543 -0.008767 0.007011 -0.008687
# 2 -0.005891 0.015224 0.003360 0.008600 -0.004323 -0.002422
# 3 0.000543 0.003360 0.024968 0.003663 0.020030 0.005208
# 4 -0.008767 0.008600 0.003663 0.036993 -0.014627 -0.001935
# 5 0.007011 -0.004323 0.020030 -0.014627 0.032867 -0.033691
# 6 -0.008687 -0.002422 0.005208 -0.001935 -0.033691 -0.024689
#
#
# Mechanical properties :
#
#
# Convention : Reuss Voigt Hill
#
# Bulk Modulus (GPa) = 20.26771 34.29598 27.28184
# Shear Modulus (GPa) = 42.04969 23.15013 32.59991
#
# Velocity S-wave (km/s) = 4.46001 3.30926 3.92701
# Velocity P-wave (km/s) = 6.00915 5.55206 5.78512
#
# Compressibility (1/GPa) = 0.04933957
#
# Stress axis : x y z
#
# Youngs Moduli (GPa) = 76.20563 65.68410 40.05171
#
# Poissons Ratio (x) = 0.38697 -0.02177
# Poissons Ratio (y) = 0.44896 -0.13459
# Poissons Ratio (z) = -0.04142 -0.22073
#
# Static dielectric constant tensor:
#      x y z
#    x 1.862120 0.000290 0.030940 
#    y 0.000290 1.744360 -0.002700 
#    z 0.030940 -0.002700 1.741810 
# 
# From -- ./inp_files/70137.got.cif
#   From: 2010.05.17/outbox.cif.g08.bks.cpg/sg2_36_cif.got.tgz:70137.got - 2010.06.03 11:33:40.
