data_PCOD9043107
_publ_section_title
;
Structure prediction by ZEFSAII (Michael W. Deem and Ramdas Pophale) SiO2 
 PCOD9043107
Probable space group: P -1
;
_chemical_formula_sum "Si O2"
_cell_formula_units_Z 16
_cell_length_a 9.851311
_cell_length_b 13.116874
_cell_length_c 6.119392
_cell_angle_alpha 75.942451
_cell_angle_beta 92.486383
_cell_angle_gamma 85.603449
_cell_volume 763.227010
_symmetry_space_group_name_H-M "P -1"
_symmetry_group_IT_number 2
_symmetry_cell_setting 'triclinic'
loop_
_space_group_symop_operation_xyz
x,y,z
-x,-y,-z
loop_
_atom_site_type_symbol
_atom_site_label
_atom_site_fract_x
_atom_site_fract_y
_atom_site_fract_z
Si Si1 0.986223 0.248267 0.780157
Si Si2 0.729476 0.122542 0.886821
Si Si3 0.163748 0.560550 0.068652
Si Si4 0.268079 0.117242 0.877422
Si Si5 0.496355 0.231359 0.059969
Si Si6 0.470543 0.548969 0.223208
Si Si7 0.519267 0.880152 0.467918
Si Si8 0.987989 0.415837 0.350428
O O1 0.866173 0.171603 0.803390
O O2 0.935421 0.341868 0.894976
O O3 0.131747 0.190287 0.877870
O O4 0.002738 0.302933 0.518758
O O5 0.610878 0.126670 0.694747
O O6 0.651948 0.188840 0.041295
O O7 0.759214 0.002666 0.023768
O O8 0.307038 0.567031 0.189063
O O9 0.105806 0.449374 0.181352
O O10 0.153112 0.568738 0.802006
O O11 0.335618 0.128339 0.639541
O O12 0.391980 0.148534 0.019988
O O13 0.482085 0.221852 0.322246
O O14 0.466558 0.338877 0.866354
O O15 0.500000 0.500000 0.500000
O O16 0.500000 0.500000 0.000000
O O17 0.500000 0.000000 0.500000
O O18 0.000000 0.500000 0.500000
#
# Coordination Sequence:
#
# PCOD9043107 Si02
#       8
#     2   2   2   2   2   2   2   2
#     4  11  24  39  68  97 144 175 236 291 371 423
#     4  11  22  42  67  99 138 181 234 292 367 427
#     4  10  23  45  68  97 139 185 237 293 375 431
#     4  11  24  41  67 102 136 183 239 291 357 439
#     4  11  24  44  72  96 140 187 233 296 366 428
#     4  12  31  46  75 111 146 189 253 311 366 444
#     4  11  21  42  70  95 132 191 236 289 356 438
#     4   9  22  42  70  93 131 190 232 292 361 442
#
# _framework density 20.963616999999999
#
# number of rings (size 3 to 8) (size 9 to 14) (size 15 to 20)
#    0.000    1.250    3.750    1.125   10.500    3.000 
#    0.000    0.625    0.000    0.000    0.000    0.000 
#    0.000    0.000    0.000    0.000    0.000    0.000 
#
# Total GULP energy -89130.384823 kJ/mol
# GULP energy per Si atom -5570.649051 kJ/mol
# Density = 2.091590 g / cm^3
# Si number density = 20.963617 Si / 1000 Ang^3
#
#
#
# Elastic Constant Matrix: (Units=GPa)
#
#
# Indices 1 2 3 4 5 6 
#
# 1 101.1337 29.1206 20.3243 -9.8556 -4.1331 -5.6714
# 2 29.1206 55.8421 35.4128 -14.8352 -15.4202 1.3398
# 3 20.3243 35.4128 121.4461 -24.2331 -2.3519 -1.7200
# 4 -9.8556 -14.8352 -24.2331 38.3427 8.9301 -7.0538
# 5 -4.1331 -15.4202 -2.3519 8.9301 26.1426 -3.2810
# 6 -5.6714 1.3398 -1.7200 -7.0538 -3.2810 37.5896
#
#
#
# Elastic Compliance Matrix: (Units=1/GPa)
#
#
# Indices 1 2 3 4 5 6 
#
# 1 0.011931 -0.006634 0.000238 0.001575 -0.002274 0.002144
# 2 -0.006634 0.030793 -0.007203 0.001861 0.015743 -0.000705
# 3 0.000238 -0.007203 0.011400 0.005923 -0.005022 0.001487
# 4 0.001575 0.001861 0.005923 0.034168 -0.009031 0.006066
# 5 -0.002274 0.015743 -0.005022 -0.009031 0.050004 0.001536
# 6 0.002144 -0.000705 0.001487 0.006066 0.001536 0.028292
#
#
# Mechanical properties :
#
#
# Convention : Reuss Voigt Hill
#
# Bulk Modulus (GPa) = 37.13678 49.79303 43.46491
# Shear Modulus (GPa) = 24.65964 33.31927 28.98945
#
# Velocity S-wave (km/s) = 3.43345 3.99103 3.72270
# Velocity P-wave (km/s) = 5.78545 6.71130 6.26550
#
# Compressibility (1/GPa) = 0.02692748
#
# Stress axis : x y z
#
# Youngs Moduli (GPa) = 83.81530 32.47474 87.71853
#
# Poissons Ratio (x) = 0.21544 -0.02090
# Poissons Ratio (y) = 0.55603 0.63181
# Poissons Ratio (z) = -0.01997 0.23391
#
# Static dielectric constant tensor:
#      x y z
#    x 1.754380 -0.050340 -0.104140 
#    y -0.050340 1.874970 0.213060 
#    z -0.104140 0.213060 2.268880 
# 
# From -- ./inp_files/37588.got.cif
#   From: 2010.05.17/outbox.cif.g08.bks.cpg/sg2_19_cif.got.tgz:37588.got - 2010.06.03 11:33:40.
