data_PCOD9043401
_publ_section_title
;
Structure prediction by ZEFSAII (Michael W. Deem and Ramdas Pophale) SiO2 
 PCOD9043401
Probable space group: P -1
;
_chemical_formula_sum "Si O2"
_cell_formula_units_Z 16
_cell_length_a 9.286776
_cell_length_b 8.706810
_cell_length_c 9.993265
_cell_angle_alpha 85.509760
_cell_angle_beta 74.897292
_cell_angle_gamma 49.442110
_cell_volume 588.110294
_symmetry_space_group_name_H-M "P -1"
_symmetry_group_IT_number 2
_symmetry_cell_setting 'triclinic'
loop_
_space_group_symop_operation_xyz
x,y,z
-x,-y,-z
loop_
_atom_site_type_symbol
_atom_site_label
_atom_site_fract_x
_atom_site_fract_y
_atom_site_fract_z
Si Si1 0.795480 0.689525 0.903532
Si Si2 0.645533 0.542309 0.118800
Si Si3 0.431598 0.873444 0.795737
Si Si4 0.152236 0.300222 0.677893
Si Si5 0.468488 0.336054 0.494079
Si Si6 0.252632 0.781080 0.078002
Si Si7 0.018566 0.810612 0.789193
Si Si8 0.123382 0.075485 0.472653
O O1 0.720351 0.659907 0.058812
O O2 0.609214 0.827908 0.840824
O O3 0.890631 0.786372 0.915812
O O4 0.969157 0.484184 0.796471
O O5 0.411313 0.694820 0.163622
O O6 0.719501 0.405537 0.975215
O O7 0.759149 0.383131 0.221046
O O8 0.515693 0.711923 0.664935
O O9 0.325131 0.835126 0.931950
O O10 0.296183 0.090644 0.741303
O O11 0.281216 0.358883 0.587828
O O12 0.076059 0.241212 0.579408
O O13 0.500000 0.500000 0.500000
O O14 0.654857 0.126756 0.534873
O O15 0.042029 0.976530 0.169244
O O16 0.930610 0.827731 0.667061
O O17 0.000000 0.000000 0.500000
#
# Coordination Sequence:
#
# PCOD9043401 Si02
#       8
#     2   2   2   2   2   2   2   2
#     4  11  25  42  73 102 135 184 236 285 354 420
#     4  10  24  43  68 102 135 183 230 283 350 412
#     4  10  23  45  70  99 140 188 229 288 356 412
#     4  11  25  48  70  99 148 185 231 297 353 417
#     4  11  26  46  72 105 139 189 239 289 356 422
#     4  10  24  44  68  98 141 180 230 290 344 417
#     4  12  25  42  67  99 138 177 232 287 343 419
#     4  11  28  45  70 109 138 183 238 290 356 425
#
# _framework density 27.205783
#
# number of rings (size 3 to 8) (size 9 to 14) (size 15 to 20)
#    0.000    1.250    0.000    4.500    8.750    7.000 
#    0.000    0.000    0.000    0.000    0.000    0.000 
#    0.000    0.000    0.000    0.000    0.000    0.000 
#
# Total GULP energy -89698.974578 kJ/mol
# GULP energy per Si atom -5606.185911 kJ/mol
# Density = 2.714386 g / cm^3
# Si number density = 27.205783 Si / 1000 Ang^3
#
#
#
# Elastic Constant Matrix: (Units=GPa)
#
#
# Indices 1 2 3 4 5 6 
#
# 1 135.7081 31.0576 26.8753 2.6951 -1.9504 -1.5322
# 2 31.0576 125.5673 45.6096 -5.7288 17.6186 -6.1887
# 3 26.8753 45.6096 86.3063 1.9608 12.3415 -12.4506
# 4 2.6951 -5.7288 1.9608 42.7526 7.3942 23.0854
# 5 -1.9504 17.6186 12.3415 7.3942 52.1244 -11.5210
# 6 -1.5322 -6.1887 -12.4506 23.0854 -11.5210 55.9854
#
#
#
# Elastic Compliance Matrix: (Units=1/GPa)
#
#
# Indices 1 2 3 4 5 6 
#
# 1 0.008145 -0.001598 -0.001824 -0.001139 0.001532 0.000426
# 2 -0.001598 0.010745 -0.005076 0.003538 -0.003469 -0.002158
# 3 -0.001824 -0.005076 0.015603 -0.003395 -0.000654 0.004124
# 4 -0.001139 0.003538 -0.003395 0.034549 -0.008980 -0.016489
# 5 0.001532 -0.003469 -0.000654 -0.008980 0.023629 0.008079
# 6 0.000426 -0.002158 0.004124 -0.016489 0.008079 0.027014
#
#
# Mechanical properties :
#
#
# Convention : Reuss Voigt Hill
#
# Bulk Modulus (GPa) = 57.15435 61.62964 59.39199
# Shear Modulus (GPa) = 35.08467 46.44177 40.76322
#
# Velocity S-wave (km/s) = 3.59500 4.13613 3.87503
# Velocity P-wave (km/s) = 6.18755 6.74629 6.47295
#
# Compressibility (1/GPa) = 0.01749648
#
# Stress axis : x y z
#
# Youngs Moduli (GPa) = 122.77316 93.06882 64.09185
#
# Poissons Ratio (x) = 0.14874 0.11688
# Poissons Ratio (y) = 0.19622 0.32534
# Poissons Ratio (z) = 0.22389 0.47243
#
# Static dielectric constant tensor:
#      x y z
#    x 2.112770 0.054990 -0.011880 
#    y 0.054990 2.200460 -0.122620 
#    z -0.011880 -0.122620 2.307760 
# 
# From -- ./inp_files/381966.got.cif
#   From: 2010.05.17/outbox.cif.g08.bks.cpg/sg2_191_cif.got.tgz:381966.got - 2010.06.03 11:33:40.
