data_PCOD9043770
_publ_section_title
;
Structure prediction by ZEFSAII (Michael W. Deem and Ramdas Pophale) SiO2 
 PCOD9043770
Probable space group: P -1
;
_chemical_formula_sum "Si O2"
_cell_formula_units_Z 14
_cell_length_a 8.714235
_cell_length_b 5.580500
_cell_length_c 14.717879
_cell_angle_alpha 90.413643
_cell_angle_beta 127.660340
_cell_angle_gamma 105.222960
_cell_volume 533.392081
_symmetry_space_group_name_H-M "P -1"
_symmetry_group_IT_number 2
_symmetry_cell_setting 'triclinic'
loop_
_space_group_symop_operation_xyz
x,y,z
-x,-y,-z
loop_
_atom_site_type_symbol
_atom_site_label
_atom_site_fract_x
_atom_site_fract_y
_atom_site_fract_z
Si Si1 0.608386 0.854798 0.324436
Si Si2 0.346935 0.617034 0.598908
Si Si3 0.827366 0.787407 0.811884
Si Si4 0.482050 0.923778 0.887056
Si Si5 0.917495 0.458462 0.206213
Si Si6 0.150538 0.299919 0.992391
Si Si7 0.666679 0.254248 0.599124
O O1 0.724630 0.648835 0.373893
O O2 0.427425 0.736426 0.334944
O O3 0.727920 0.146651 0.400572
O O4 0.528092 0.875561 0.193432
O O5 0.592127 0.747418 0.707597
O O6 0.320584 0.559128 0.481536
O O7 0.947047 0.717933 0.771753
O O8 0.855594 0.615746 0.906333
O O9 0.946240 0.070335 0.890499
O O10 0.267073 0.692273 0.797128
O O11 0.668127 0.820578 0.938914
O O12 0.500000 0.000000 0.000000
O O13 0.812839 0.506389 0.075861
O O14 0.093617 0.715486 0.302964
O O15 0.500000 0.000000 0.500000
#
# Coordination Sequence:
#
# PCOD9043770 Si02
#       7
#     2   2   2   2   2   2   2
#     4  11  24  44  72 103 141 193 241 292 368 433
#     4  11  23  44  75 105 138 186 247 315 352 423
#     4  11  23  38  72 106 135 179 259 288 368 415
#     4  12  27  45  64 106 154 194 231 294 378 442
#     4  12  25  42  70 105 141 189 242 300 365 440
#     4  11  24  43  67 101 145 192 238 303 360 440
#     4  10  23  45  75 106 137 185 252 310 355 421
#
# _framework density 26.247105999999999
#
# number of rings (size 3 to 8) (size 9 to 14) (size 15 to 20)
#    0.000    0.857    4.286    3.000    4.000    1.143 
#    0.000    3.571    0.000    0.000    0.000    0.000 
#    0.000    0.000    0.000    0.000    0.000    0.000 
#
# Total GULP energy -78267.633975 kJ/mol
# GULP energy per Si atom -5590.545284 kJ/mol
# Density = 2.618737 g / cm^3
# Si number density = 26.247106 Si / 1000 Ang^3
#
#
#
# Elastic Constant Matrix: (Units=GPa)
#
#
# Indices 1 2 3 4 5 6 
#
# 1 57.9435 28.4234 30.1739 7.2628 -2.7303 14.8218
# 2 28.4234 143.2632 45.2981 -15.4721 -8.6518 2.2820
# 3 30.1739 45.2981 173.3963 -21.7642 -21.4855 16.7984
# 4 7.2628 -15.4721 -21.7642 57.2260 10.8721 -4.9812
# 5 -2.7303 -8.6518 -21.4855 10.8721 45.5555 5.3710
# 6 14.8218 2.2820 16.7984 -4.9812 5.3710 39.7256
#
#
#
# Elastic Compliance Matrix: (Units=1/GPa)
#
#
# Indices 1 2 3 4 5 6 
#
# 1 0.023872 -0.004297 -0.002775 -0.006336 0.001823 -0.008528
# 2 -0.004297 0.008498 -0.001368 0.002524 -0.000130 0.002028
# 3 -0.002775 -0.001368 0.007428 0.002082 0.002834 -0.002149
# 4 -0.006336 0.002524 0.002082 0.021000 -0.004470 0.004576
# 5 0.001823 -0.000130 0.002834 -0.004470 0.025126 -0.005829
# 6 -0.008528 0.002028 -0.002149 0.004576 -0.005829 0.030509
#
#
# Mechanical properties :
#
#
# Convention : Reuss Voigt Hill
#
# Bulk Modulus (GPa) = 43.63322 64.71043 54.17183
# Shear Modulus (GPa) = 35.47291 46.54860 41.01076
#
# Velocity S-wave (km/s) = 3.68026 4.21583 3.95712
# Velocity P-wave (km/s) = 5.89230 6.95741 6.44689
#
# Compressibility (1/GPa) = 0.02291832
#
# Stress axis : x y z
#
# Youngs Moduli (GPa) = 41.88924 117.67936 134.62565
#
# Poissons Ratio (x) = 0.50570 0.37355
# Poissons Ratio (y) = 0.18001 0.18416
# Poissons Ratio (z) = 0.11623 0.16098
#
# Static dielectric constant tensor:
#      x y z
#    x 2.089100 -0.030510 -0.077930 
#    y -0.030510 2.208940 -0.006270 
#    z -0.077930 -0.006270 2.117820 
# 
# From -- ./inp_files/488487.got.cif
#   From: 2010.05.17/outbox.cif.g08.bks.cpg/sg2_245_cif.got.tgz:488487.got - 2010.06.03 11:33:40.
