data_PCOD9043444
_publ_section_title
;
Structure prediction by ZEFSAII (Michael W. Deem and Ramdas Pophale) SiO2 
 PCOD9043444
Probable space group: P -1
;
_chemical_formula_sum "Si O2"
_cell_formula_units_Z 15
_cell_length_a 9.611354
_cell_length_b 8.376195
_cell_length_c 9.457138
_cell_angle_alpha 129.696439
_cell_angle_beta 86.893403
_cell_angle_gamma 87.112931
_cell_volume 581.371398
_symmetry_space_group_name_H-M "P -1"
_symmetry_group_IT_number 2
_symmetry_cell_setting 'triclinic'
loop_
_space_group_symop_operation_xyz
x,y,z
-x,-y,-z
loop_
_atom_site_type_symbol
_atom_site_label
_atom_site_fract_x
_atom_site_fract_y
_atom_site_fract_z
Si Si1 0.512759 0.090276 0.392250
Si Si2 0.740426 0.359535 0.797627
Si Si3 0.211825 0.769411 0.952869
Si Si4 0.725657 0.814498 0.740359
Si Si5 0.172496 0.893921 0.624815
Si Si6 0.944399 0.677001 0.992867
Si Si7 0.000000 0.500000 0.500000
Si Si8 0.493684 0.455533 0.259336
O O1 0.380364 0.044008 0.280607
O O2 0.671928 0.047487 0.304521
O O3 0.495169 0.339940 0.535440
O O4 0.500000 0.000000 0.500000
O O5 0.772510 0.292889 0.917654
O O6 0.797889 0.176580 0.581036
O O7 0.578234 0.438869 0.819021
O O8 0.817058 0.566287 0.875989
O O9 0.064100 0.689439 0.875139
O O10 0.206572 0.015392 0.072098
O O11 0.352645 0.661006 0.819115
O O12 0.854177 0.666319 0.584017
O O13 0.615333 0.690341 0.757749
O O14 0.101157 0.695281 0.572521
O O15 0.080997 0.106273 0.798410
O O16 0.000000 0.500000 0.000000
#
# Coordination Sequence:
#
# PCOD9043444 Si02
#       8
#     2   2   2   2   2   2   1   2
#     4  11  26  45  74 107 137 193 246 298 372 430
#     4  10  23  45  71 103 141 189 246 304 363 430
#     4  11  24  43  66 101 141 188 241 301 363 433
#     4  12  24  47  70 104 143 191 242 301 366 444
#     4  11  24  48  71 105 145 191 249 300 369 438
#     4  10  24  42  67 105 142 185 246 301 365 426
#     4  12  24  46  72 100 154 192 244 302 368 446
#     4  11  24  44  65 103 142 184 240 296 372 434
#
# _framework density 25.801062000000002
#
# number of rings (size 3 to 8) (size 9 to 14) (size 15 to 20)
#    0.000    1.067    4.000    2.800    5.600    3.200 
#    2.400    1.333    0.000    0.000    0.000    0.000 
#    0.000    0.000    0.000    0.000    0.000    0.000 
#
# Total GULP energy -83605.762104 kJ/mol
# GULP energy per Si atom -5573.717474 kJ/mol
# Density = 2.574234 g / cm^3
# Si number density = 25.801062 Si / 1000 Ang^3
#
#
#
# Elastic Constant Matrix: (Units=GPa)
#
#
# Indices 1 2 3 4 5 6 
#
# 1 130.7806 24.5121 -41.6195 14.0001 -23.6981 25.9063
# 2 24.5121 104.9705 19.4112 5.0926 -8.2401 15.1198
# 3 -41.6195 19.4112 -8.4082 18.9580 -26.6987 7.5572
# 4 14.0001 5.0926 18.9580 56.5922 0.3877 12.3363
# 5 -23.6981 -8.2401 -26.6987 0.3877 42.7936 8.4775
# 6 25.9063 15.1198 7.5572 12.3363 8.4775 55.2356
#
#
#
# Elastic Compliance Matrix: (Units=1/GPa)
#
#
# Indices 1 2 3 4 5 6 
#
# 1 0.004352 0.000407 -0.008557 0.001993 -0.002667 -0.001018
# 2 0.000407 0.009935 0.002149 -0.000950 0.004208 -0.003638
# 3 -0.008557 0.002149 -0.012544 0.004886 -0.013405 0.006107
# 4 0.001993 -0.000950 0.004886 0.016873 0.004981 -0.005876
# 5 -0.002667 0.004208 -0.013405 0.004981 0.014574 -0.001416
# 6 -0.001018 -0.003638 0.006107 -0.005876 -0.001416 0.020271
#
#
# Mechanical properties :
#
#
# Convention : Reuss Voigt Hill
#
# Bulk Modulus (GPa) = -97.46311 25.77229 -35.84541
# Shear Modulus (GPa) = 80.58941 45.92688 63.25814
#
# Velocity S-wave (km/s) = 5.59488 4.22363 4.95690
# Velocity P-wave (km/s) = 1.96980 5.81342 4.34028
#
# Compressibility (1/GPa) = -0.01026029
#
# Stress axis : x y z
#
# Youngs Moduli (GPa) = 229.77411 100.65849 -79.71849
#
# Poissons Ratio (x) = -0.04093 -0.68213
# Poissons Ratio (y) = -0.09343 0.17129
# Poissons Ratio (z) = 1.96612 -0.21629
#
# Static dielectric constant tensor:
#      x y z
#    x 2.265920 -0.232500 0.265370 
#    y -0.232500 2.168830 -0.218350 
#    z 0.265370 -0.218350 2.228580 
# 
# From -- ./inp_files/380591.got.cif
#   From: 2010.05.17/outbox.cif.g08.bks.cpg/sg2_191_cif.got.tgz:380591.got - 2010.06.03 11:33:40.
