data_PCOD9043593
_publ_section_title
;
Structure prediction by ZEFSAII (Michael W. Deem and Ramdas Pophale) SiO2 
 PCOD9043593
Probable space group: P -1
;
_chemical_formula_sum "Si O2"
_cell_formula_units_Z 12
_cell_length_a 8.405234
_cell_length_b 7.360585
_cell_length_c 9.023322
_cell_angle_alpha 112.070146
_cell_angle_beta 105.700933
_cell_angle_gamma 78.601421
_cell_volume 495.151480
_symmetry_space_group_name_H-M "P -1"
_symmetry_group_IT_number 2
_symmetry_cell_setting 'triclinic'
loop_
_space_group_symop_operation_xyz
x,y,z
-x,-y,-z
loop_
_atom_site_type_symbol
_atom_site_label
_atom_site_fract_x
_atom_site_fract_y
_atom_site_fract_z
Si Si1 0.133360 0.139476 0.514149
Si Si2 0.449896 0.409857 0.305114
Si Si3 0.841541 0.394902 0.884494
Si Si4 0.688474 0.575370 0.177525
Si Si5 0.985179 0.024343 0.179896
Si Si6 0.633577 0.999865 0.242497
O O1 0.155588 0.339209 0.672901
O O2 0.306056 0.015823 0.573806
O O3 0.079899 0.182034 0.344482
O O4 0.000000 0.000000 0.500000
O O5 0.500000 0.500000 0.500000
O O6 0.266136 0.490839 0.234129
O O7 0.571660 0.496019 0.244083
O O8 0.488848 0.173493 0.241712
O O9 0.907115 0.174058 0.796719
O O10 0.738496 0.415011 0.017377
O O11 0.000000 0.500000 0.000000
O O12 0.603605 0.774265 0.135938
O O13 0.794716 0.037132 0.193883
O O14 0.000000 0.000000 0.000000
#
# Coordination Sequence:
#
# PCOD9043593 Si02
#       6
#     2   2   2   2   2   2
#     4   8  17  40  65  94 139 182 222 282 343 410
#     4  12  27  45  72 109 140 181 244 292 344 422
#     4  12  24  47  70 105 143 180 235 293 343 423
#     4  10  23  45  72  97 143 190 224 288 360 404
#     4  11  21  39  70 103 139 181 234 287 348 416
#     4   9  21  45  68  94 142 183 229 279 359 407
#
# _framework density 24.235009999999999
#
# number of rings (size 3 to 8) (size 9 to 14) (size 15 to 20)
#    1.000    0.667    1.667    2.500    0.000    4.000 
#    3.000    5.000    0.000    0.000    0.000    0.000 
#    0.000    0.000    0.000    0.000    0.000    0.000 
#
# Total GULP energy -66983.036618 kJ/mol
# GULP energy per Si atom -5581.919718 kJ/mol
# Density = 2.417985 g / cm^3
# Si number density = 24.235010 Si / 1000 Ang^3
#
#
#
# Elastic Constant Matrix: (Units=GPa)
#
#
# Indices 1 2 3 4 5 6 
#
# 1 71.1981 28.2768 38.6365 -12.1600 2.6919 -12.6742
# 2 28.2768 73.8380 6.1766 -1.2108 -11.8735 -33.5989
# 3 38.6365 6.1766 152.9947 -19.3462 -5.3052 -9.1593
# 4 -12.1600 -1.2108 -19.3462 39.5690 0.0255 -2.2514
# 5 2.6919 -11.8735 -5.3052 0.0255 35.9290 0.5154
# 6 -12.6742 -33.5989 -9.1593 -2.2514 0.5154 42.2376
#
#
#
# Elastic Compliance Matrix: (Units=1/GPa)
#
#
# Indices 1 2 3 4 5 6 
#
# 1 0.020734 -0.009160 -0.004690 0.003698 -0.005250 -0.001821
# 2 -0.009160 0.027250 0.002777 0.000476 0.009823 0.019436
# 3 -0.004690 0.002777 0.008210 0.002810 0.002441 0.002703
# 4 0.003698 0.000476 0.002810 0.028001 0.000224 0.003588
# 5 -0.005250 0.009823 0.002441 0.000224 0.031741 0.006392
# 6 -0.001821 0.019436 0.002703 0.003588 0.006392 0.039289
#
#
# Mechanical properties :
#
#
# Convention : Reuss Voigt Hill
#
# Bulk Modulus (GPa) = 29.36841 49.35672 39.36257
# Shear Modulus (GPa) = 26.49429 38.54320 32.51874
#
# Velocity S-wave (km/s) = 3.30998 3.99230 3.66704
# Velocity P-wave (km/s) = 5.17228 6.45456 5.84867
#
# Compressibility (1/GPa) = 0.03405019
#
# Stress axis : x y z
#
# Youngs Moduli (GPa) = 48.22949 36.69720 121.80090
#
# Poissons Ratio (x) = 0.33614 0.57121
# Poissons Ratio (y) = 0.44178 -0.33830
# Poissons Ratio (z) = 0.22618 -0.10193
#
# Static dielectric constant tensor:
#      x y z
#    x 1.933300 0.053290 0.085060 
#    y 0.053290 1.802830 -0.257250 
#    z 0.085060 -0.257250 1.732080 
# 
# From -- ./inp_files/156247.got.cif
#   From: 2010.05.17/outbox.cif.g08.bks.cpg/sg2_79_cif.got.tgz:156247.got - 2010.06.03 11:33:40.
