data_PCOD9043713
_publ_section_title
;
Structure prediction by ZEFSAII (Michael W. Deem and Ramdas Pophale) SiO2 
 PCOD9043713
Probable space group: P -1
;
_chemical_formula_sum "Si O2"
_cell_formula_units_Z 12
_cell_length_a 5.166103
_cell_length_b 11.049559
_cell_length_c 9.512168
_cell_angle_alpha 88.089787
_cell_angle_beta 102.689057
_cell_angle_gamma 63.393801
_cell_volume 468.197963
_symmetry_space_group_name_H-M "P -1"
_symmetry_group_IT_number 2
_symmetry_cell_setting 'triclinic'
loop_
_space_group_symop_operation_xyz
x,y,z
-x,-y,-z
loop_
_atom_site_type_symbol
_atom_site_label
_atom_site_fract_x
_atom_site_fract_y
_atom_site_fract_z
Si Si1 0.173138 0.477647 0.850018
Si Si2 0.225123 0.858940 0.346561
Si Si3 0.704330 0.970965 0.887183
Si Si4 0.369095 0.860638 0.669215
Si Si5 0.275599 0.722984 0.915977
Si Si6 0.358878 0.564014 0.331346
O O1 0.159382 0.610441 0.921083
O O2 0.365647 0.463948 0.735282
O O3 0.863521 0.485409 0.763697
O O4 0.393833 0.347191 0.974277
O O5 0.422944 0.828971 0.512863
O O6 0.177944 0.728500 0.317119
O O7 0.354834 0.902912 0.227129
O O8 0.915835 0.991004 0.344749
O O9 0.631798 0.873885 0.778307
O O10 0.058192 0.868570 0.956974
O O11 0.500000 0.000000 0.000000
O O12 0.297199 0.756671 0.754127
O O13 0.500000 0.500000 0.500000
#
# Coordination Sequence:
#
# PCOD9043713 Si02
#       6
#     2   2   2   2   2   2
#     4  11  28  48  76 114 155 210 255 324 382 471
#     4  10  25  45  70 111 149 203 251 323 386 457
#     4  11  26  44  79 113 150 200 260 326 386 460
#     4  10  23  45  74 104 153 196 257 316 393 455
#     4  10  26  46  75 111 155 202 258 317 397 458
#     4  12  28  48  77 111 156 205 266 315 386 467
#
# _framework density 25.630185000000001
#
# number of rings (size 3 to 8) (size 9 to 14) (size 15 to 20)
#    0.000    1.333    0.000    2.000   14.000    2.667 
#    0.000    2.500    0.000    0.000    0.000    0.000 
#    0.000    0.000    0.000    0.000    0.000    0.000 
#
# Total GULP energy -67287.021162 kJ/mol
# GULP energy per Si atom -5607.251763 kJ/mol
# Density = 2.557185 g / cm^3
# Si number density = 25.630185 Si / 1000 Ang^3
#
#
#
# Elastic Constant Matrix: (Units=GPa)
#
#
# Indices 1 2 3 4 5 6 
#
# 1 115.7771 29.0003 77.4566 -4.6909 -10.8179 1.2564
# 2 29.0003 126.1550 44.2838 -20.7048 -7.4596 -0.7072
# 3 77.4566 44.2838 191.8839 -2.2501 -26.4366 -8.9000
# 4 -4.6909 -20.7048 -2.2501 42.4903 1.8690 3.8822
# 5 -10.8179 -7.4596 -26.4366 1.8690 40.5961 5.5283
# 6 1.2564 -0.7072 -8.9000 3.8822 5.5283 34.5120
#
#
#
# Elastic Compliance Matrix: (Units=1/GPa)
#
#
# Indices 1 2 3 4 5 6 
#
# 1 0.012102 -0.001007 -0.004701 0.000751 0.000187 -0.001788
# 2 -0.001007 0.009516 -0.001738 0.004493 0.000245 -0.000761
# 3 -0.004701 -0.001738 0.008060 -0.001257 0.003490 0.001796
# 4 0.000751 0.004493 -0.001257 0.026048 -0.000570 -0.003098
# 5 0.000187 0.000245 0.003490 -0.000570 0.027495 -0.003442
# 6 -0.001788 -0.000761 0.001796 -0.003098 -0.003442 0.030388
#
#
# Mechanical properties :
#
#
# Convention : Reuss Voigt Hill
#
# Bulk Modulus (GPa) = 67.63991 81.69972 74.66981
# Shear Modulus (GPa) = 37.47252 42.39137 39.93194
#
# Velocity S-wave (km/s) = 3.82782 4.07131 3.95144
# Velocity P-wave (km/s) = 6.78117 7.35162 7.07215
#
# Compressibility (1/GPa) = 0.01478417
#
# Stress axis : x y z
#
# Youngs Moduli (GPa) = 82.63108 105.08504 124.07515
#
# Poissons Ratio (x) = 0.10587 0.58327
# Poissons Ratio (y) = 0.08325 0.21569
# Poissons Ratio (z) = 0.38844 0.18268
#
# Static dielectric constant tensor:
#      x y z
#    x 2.056090 0.015660 0.066970 
#    y 0.015660 2.029600 0.010390 
#    z 0.066970 0.010390 2.016950 
# 
# From -- ./inp_files/131511.got.cif
#   From: 2010.05.17/outbox.cif.g08.bks.cpg/sg2_66_cif.got.tgz:131511.got - 2010.06.03 11:33:40.
