data_PCOD9043111
_publ_section_title
;
Structure prediction by ZEFSAII (Michael W. Deem and Ramdas Pophale) SiO2 
 PCOD9043111
Probable space group: P -1
;
_chemical_formula_sum "Si O2"
_cell_formula_units_Z 16
_cell_length_a 12.914771
_cell_length_b 6.849448
_cell_length_c 20.472222
_cell_angle_alpha 81.236007
_cell_angle_beta 156.681612
_cell_angle_gamma 101.450778
_cell_volume 700.483743
_symmetry_space_group_name_H-M "P -1"
_symmetry_group_IT_number 2
_symmetry_cell_setting 'triclinic'
loop_
_space_group_symop_operation_xyz
x,y,z
-x,-y,-z
loop_
_atom_site_type_symbol
_atom_site_label
_atom_site_fract_x
_atom_site_fract_y
_atom_site_fract_z
Si Si1 0.867911 0.307079 0.892475
Si Si2 0.698390 0.438293 0.063256
Si Si3 0.912779 0.100915 0.149650
Si Si4 0.085935 0.785602 0.563559
Si Si5 0.785180 0.560004 0.287238
Si Si6 0.885959 0.252838 0.648675
Si Si7 0.316236 0.072153 0.106634
Si Si8 0.618435 0.568490 0.636099
O O1 0.724922 0.135649 0.866389
O O2 0.674114 0.386183 0.723120
O O3 0.000000 0.500000 0.000000
O O4 0.094202 0.202695 0.993544
O O5 0.748498 0.211202 0.101049
O O6 0.966973 0.584872 0.223013
O O7 0.500000 0.500000 0.000000
O O8 0.529252 0.467623 0.899856
O O9 0.108221 0.280940 0.220246
O O10 0.730538 0.982522 0.994431
O O11 0.091778 0.959012 0.296313
O O12 0.106946 0.651967 0.647318
O O13 0.874216 0.652371 0.402885
O O14 0.390056 0.816126 0.714567
O O15 0.000000 0.000000 0.500000
O O16 0.932976 0.712181 0.312425
O O17 0.597839 0.305909 0.465396
O O18 0.500000 0.500000 0.500000
#
# Coordination Sequence:
#
# PCOD9043111 Si02
#       8
#     2   2   2   2   2   2   2   2
#     4  11  26  47  72 104 147 189 233 296 354 424
#     4  10  23  45  68  98 136 183 229 285 355 418
#     4  12  24  43  72 102 140 186 231 295 352 424
#     4  11  25  42  67  98 136 180 234 284 340 415
#     4  10  25  42  65  96 137 178 230 284 344 408
#     4  11  25  42  69 102 139 177 230 288 351 423
#     4  11  26  44  74 105 138 190 242 284 358 427
#     4  12  25  44  72 104 141 183 235 291 361 416
#
# _framework density 22.841359000000001
#
# number of rings (size 3 to 8) (size 9 to 14) (size 15 to 20)
#    0.000    1.000    2.500    2.625    5.250    6.000 
#    0.000    0.000    0.000    0.000    0.000    0.000 
#    0.000    0.000    0.000    0.000    0.000    0.000 
#
# Total GULP energy -89426.257427 kJ/mol
# GULP energy per Si atom -5589.141089 kJ/mol
# Density = 2.278937 g / cm^3
# Si number density = 22.841359 Si / 1000 Ang^3
#
#
#
# Elastic Constant Matrix: (Units=GPa)
#
#
# Indices 1 2 3 4 5 6 
#
# 1 37.2971 16.2037 8.3708 -12.5988 -0.1358 3.6383
# 2 16.2037 109.3413 21.3533 -32.7364 -8.1597 -2.7831
# 3 8.3708 21.3533 109.6726 -18.6166 -5.8980 -4.3223
# 4 -12.5988 -32.7364 -18.6166 54.7790 2.7001 -5.7828
# 5 -0.1358 -8.1597 -5.8980 2.7001 32.9504 -4.2163
# 6 3.6383 -2.7831 -4.3223 -5.7828 -4.2163 39.9859
#
#
#
# Elastic Compliance Matrix: (Units=1/GPa)
#
#
# Indices 1 2 3 4 5 6 
#
# 1 0.030176 -0.003080 -0.001121 0.004521 -0.001541 -0.002590
# 2 -0.003080 0.011865 -0.000796 0.006217 0.002554 0.002188
# 3 -0.001121 -0.000796 0.009978 0.002758 0.001575 0.001690
# 4 0.004521 0.006217 0.002758 0.024332 0.000557 0.003897
# 5 -0.001541 0.002554 0.001575 0.000557 0.031712 0.003912
# 6 -0.002590 0.002188 0.001690 0.003897 0.003912 0.026556
#
#
# Mechanical properties :
#
#
# Convention : Reuss Voigt Hill
#
# Bulk Modulus (GPa) = 23.79581 38.68519 31.24050
# Shear Modulus (GPa) = 31.52175 39.56862 35.54519
#
# Velocity S-wave (km/s) = 3.71891 4.16663 3.94912
# Velocity P-wave (km/s) = 5.37409 6.33412 5.87375
#
# Compressibility (1/GPa) = 0.04202420
#
# Stress axis : x y z
#
# Youngs Moduli (GPa) = 33.13922 84.27999 100.21934
#
# Poissons Ratio (x) = 0.25961 0.11234
# Poissons Ratio (y) = 0.10208 0.07979
# Poissons Ratio (z) = 0.03715 0.06710
#
# Static dielectric constant tensor:
#      x y z
#    x 1.949830 -0.077840 -0.018460 
#    y -0.077840 2.014540 -0.063180 
#    z -0.018460 -0.063180 1.872120 
# 
# From -- ./inp_files/84292.got.cif
#   From: 2010.05.17/outbox.cif.g08.bks.cpg/sg2_43_cif.got.tgz:84292.got - 2010.06.03 11:33:40.
