data_PCOD9043065
_publ_section_title
;
Structure prediction by ZEFSAII (Michael W. Deem and Ramdas Pophale) SiO2 
 PCOD9043065
Probable space group: P -1
;
_chemical_formula_sum "Si O2"
_cell_formula_units_Z 14
_cell_length_a 15.117308
_cell_length_b 12.219838
_cell_length_c 18.874509
_cell_angle_alpha 146.147498
_cell_angle_beta 163.080747
_cell_angle_gamma 40.268240
_cell_volume 554.479847
_symmetry_space_group_name_H-M "P -1"
_symmetry_group_IT_number 2
_symmetry_cell_setting 'triclinic'
loop_
_space_group_symop_operation_xyz
x,y,z
-x,-y,-z
loop_
_atom_site_type_symbol
_atom_site_label
_atom_site_fract_x
_atom_site_fract_y
_atom_site_fract_z
Si Si1 0.985927 0.114767 0.975477
Si Si2 0.700648 0.319595 0.599191
Si Si3 0.357349 0.226469 0.575537
Si Si4 0.780625 0.893199 0.435837
Si Si5 0.364790 0.073910 0.810124
Si Si6 0.729587 0.390840 0.355699
Si Si7 0.491169 0.655352 0.686424
O O1 0.722542 0.251192 0.850078
O O2 0.841386 0.958716 0.719570
O O3 0.336754 0.221103 0.283657
O O4 0.000000 0.000000 0.000000
O O5 0.744420 0.531833 0.786689
O O6 0.731336 0.362357 0.562234
O O7 0.871175 0.135344 0.644639
O O8 0.349738 0.186776 0.631743
O O9 0.205302 0.411616 0.535269
O O10 0.566952 0.868347 0.188452
O O11 0.023581 0.752963 0.528650
O O12 0.540316 0.893332 0.864845
O O13 0.452564 0.251499 0.027326
O O14 0.000000 0.000000 0.500000
O O15 0.646881 0.444109 0.400249
#
# Coordination Sequence:
#
# PCOD9043065 Si02
#       7
#     2   2   2   2   2   2   2
#     4  11  23  45  70  98 141 177 228 287 333 399
#     4  10  23  45  75  99 136 182 229 284 339 402
#     4  11  27  42  69 106 132 185 230 273 350 402
#     4  11  25  46  68 102 140 177 230 281 341 408
#     4  11  25  44  69 100 135 184 227 274 343 402
#     4  12  26  44  71 100 145 177 224 285 340 411
#     4  10  23  45  68 105 132 178 233 276 342 404
#
# _framework density 25.248888999999998
#
# number of rings (size 3 to 8) (size 9 to 14) (size 15 to 20)
#    0.000    1.143    2.857    1.714    8.000    1.714 
#    0.000    1.429    0.000    0.000    0.000    0.000 
#    0.000    0.000    0.000    0.000    0.000    0.000 
#
# Total GULP energy -78299.521842 kJ/mol
# GULP energy per Si atom -5592.822989 kJ/mol
# Density = 2.519142 g / cm^3
# Si number density = 25.248889 Si / 1000 Ang^3
#
#
#
# Elastic Constant Matrix: (Units=GPa)
#
#
# Indices 1 2 3 4 5 6 
#
# 1 119.3325 75.7562 64.1997 -15.3105 82.6919 -32.7328
# 2 75.7562 135.5561 -17.7661 -14.0533 -119.1895 38.9795
# 3 64.1997 -17.7661 42.1005 -8.1116 -100.2640 39.8053
# 4 -15.3105 -14.0533 -8.1116 35.9526 34.7544 -19.4573
# 5 82.6919 -119.1895 -100.2640 34.7544 -329.1269 121.9662
# 6 -32.7328 38.9795 39.8053 -19.4573 121.9662 8.9656
#
#
#
# Elastic Compliance Matrix: (Units=1/GPa)
#
#
# Indices 1 2 3 4 5 6 
#
# 1 0.009109 -0.002155 -0.004922 -0.002240 0.004374 0.000114
# 2 -0.002155 0.006818 0.000582 0.004685 -0.002281 0.001111
# 3 -0.004922 0.000582 0.018383 0.008245 -0.006189 -0.000032
# 4 -0.002240 0.004685 0.008245 0.032557 0.000117 0.003913
# 5 0.004374 -0.002281 -0.006189 0.000117 0.003419 0.007109
# 6 0.000114 0.001111 -0.000032 0.003913 0.007109 0.019050
#
#
# Mechanical properties :
#
#
# Convention : Reuss Voigt Hill
#
# Bulk Modulus (GPa) = 46.90230 60.15209 53.52719
# Shear Modulus (GPa) = 45.69046 -45.18846 0.25100
#
# Velocity S-wave (km/s) = 4.25856 -4.23510 0.31563
# Velocity P-wave (km/s) = 6.54192 0.19843 4.62371
#
# Compressibility (1/GPa) = 0.02132092
#
# Stress axis : x y z
#
# Youngs Moduli (GPa) = 109.78483 146.67308 54.39687
#
# Poissons Ratio (x) = 0.31604 0.26774
# Poissons Ratio (y) = 0.23656 -0.03167
# Poissons Ratio (z) = 0.54036 -0.08539
#
# Static dielectric constant tensor:
#      x y z
#    x 1.972820 -0.011780 0.016890 
#    y -0.011780 1.982100 -0.011240 
#    z 0.016890 -0.011240 2.030580 
# 
# From -- ./inp_files/573488.got.cif
#   From: 2010.05.17/outbox.cif.g08.bks.cpg/sg2_287_cif.got.tgz:573488.got - 2010.06.03 11:33:40.
