data_PCOD9043341
_publ_section_title
;
Structure prediction by ZEFSAII (Michael W. Deem and Ramdas Pophale) SiO2 
 PCOD9043341
Probable space group: P -1
;
_chemical_formula_sum "Si O2"
_cell_formula_units_Z 10
_cell_length_a 9.903130
_cell_length_b 8.567858
_cell_length_c 15.295629
_cell_angle_alpha 38.053743
_cell_angle_beta 33.748494
_cell_angle_gamma 62.012822
_cell_volume 373.599677
_symmetry_space_group_name_H-M "P -1"
_symmetry_group_IT_number 2
_symmetry_cell_setting 'triclinic'
loop_
_space_group_symop_operation_xyz
x,y,z
-x,-y,-z
loop_
_atom_site_type_symbol
_atom_site_label
_atom_site_fract_x
_atom_site_fract_y
_atom_site_fract_z
Si Si1 0.888160 0.846895 0.888525
Si Si2 0.854805 0.348227 0.737570
Si Si3 0.753862 0.272058 0.132748
Si Si4 0.834826 0.641240 0.264941
Si Si5 0.205542 0.150661 0.405663
O O1 0.162118 0.921576 0.768499
O O2 0.009711 0.996785 0.663902
O O3 0.718649 0.991061 0.955471
O O4 0.721750 0.491256 0.118986
O O5 0.682575 0.493809 0.801979
O O6 0.000000 0.500000 0.500000
O O7 0.087342 0.430173 0.652173
O O8 0.482178 0.125957 0.278969
O O9 0.032474 0.460087 0.837645
O O10 0.500000 0.500000 0.500000
O O11 0.000000 0.000000 0.000000
O O12 0.000000 0.000000 0.500000
#
# Coordination Sequence:
#
# PCOD9043341 Si02
#       5
#     2   2   2   2   2
#     4  10  23  45  70 106 145 198 255 309 373 458
#     4  10  24  47  71 112 149 198 245 317 381 447
#     4  11  25  45  74 106 145 202 253 311 377 456
#     4  12  28  50  78 112 151 204 261 316 382 461
#     4  11  25  44  72 108 155 191 247 311 388 452
#
# _framework density 26.766617
#
# number of rings (size 3 to 8) (size 9 to 14) (size 15 to 20)
#    0.000    1.200    2.000    1.800    5.600   10.400 
#    3.600    0.000    0.000    0.000    0.000    0.000 
#    0.000    0.000    0.000    0.000    0.000    0.000 
#
# Total GULP energy -56015.136368 kJ/mol
# GULP energy per Si atom -5601.513637 kJ/mol
# Density = 2.670569 g / cm^3
# Si number density = 26.766617 Si / 1000 Ang^3
#
#
#
# Elastic Constant Matrix: (Units=GPa)
#
#
# Indices 1 2 3 4 5 6 
#
# 1 257.7238 43.4075 50.5223 25.8781 -2.5585 0.2524
# 2 43.4075 155.2574 28.3436 -25.5839 -5.6287 -7.0030
# 3 50.5223 28.3436 104.9207 8.2395 -13.4050 -4.0024
# 4 25.8781 -25.5839 8.2395 29.1832 -11.5818 11.9597
# 5 -2.5585 -5.6287 -13.4050 -11.5818 40.7634 11.5045
# 6 0.2524 -7.0030 -4.0024 11.9597 11.5045 39.3791
#
#
#
# Elastic Compliance Matrix: (Units=1/GPa)
#
#
# Indices 1 2 3 4 5 6 
#
# 1 0.005756 -0.003131 -0.001528 -0.010962 -0.004813 0.003986
# 2 -0.003131 0.010682 -0.002080 0.018120 0.007426 -0.005964
# 3 -0.001528 -0.002080 0.011403 -0.003367 0.002067 0.001218
# 4 -0.010962 0.018120 -0.003367 0.089226 0.035827 -0.034615
# 5 -0.004813 0.007426 0.002067 0.035827 0.042226 -0.021656
# 6 0.003986 -0.005964 0.001218 -0.034615 -0.021656 0.041271
#
#
# Mechanical properties :
#
#
# Convention : Reuss Voigt Hill
#
# Bulk Modulus (GPa) = 69.61833 84.71652 77.16742
# Shear Modulus (GPa) = 22.84879 48.24039 35.54459
#
# Velocity S-wave (km/s) = 2.92486 4.24991 3.64805
# Velocity P-wave (km/s) = 6.12146 7.47001 6.82911
#
# Compressibility (1/GPa) = 0.01436403
#
# Stress axis : x y z
#
# Youngs Moduli (GPa) = 173.73230 93.61463 87.69346
#
# Poissons Ratio (x) = 0.29314 0.13398
# Poissons Ratio (y) = 0.54401 0.18236
# Poissons Ratio (z) = 0.26543 0.19468
#
# Static dielectric constant tensor:
#      x y z
#    x 2.073620 0.003510 -0.012370 
#    y 0.003510 2.242490 -0.118320 
#    z -0.012370 -0.118320 2.067680 
# 
# From -- ./inp_files/15789.got.cif
#   From: 2010.05.17/outbox.cif.g08.bks.cpg/sg2_8_cif.got.tgz:15789.got - 2010.06.03 11:33:40.
