data_PCOD9043394
_publ_section_title
;
Structure prediction by ZEFSAII (Michael W. Deem and Ramdas Pophale) SiO2 
 PCOD9043394
Probable space group: P -1
;
_chemical_formula_sum "Si O2"
_cell_formula_units_Z 16
_cell_length_a 13.219701
_cell_length_b 8.335154
_cell_length_c 18.743229
_cell_angle_alpha 39.489350
_cell_angle_beta 135.681134
_cell_angle_gamma 106.709602
_cell_volume 737.075092
_symmetry_space_group_name_H-M "P -1"
_symmetry_group_IT_number 2
_symmetry_cell_setting 'triclinic'
loop_
_space_group_symop_operation_xyz
x,y,z
-x,-y,-z
loop_
_atom_site_type_symbol
_atom_site_label
_atom_site_fract_x
_atom_site_fract_y
_atom_site_fract_z
Si Si1 0.447713 0.322632 0.446683
Si Si2 0.072050 0.599503 0.833099
Si Si3 0.891769 0.381502 0.913017
Si Si4 0.639542 0.081674 0.041716
Si Si5 0.767494 0.310189 0.646944
Si Si6 0.083015 0.158451 0.625205
Si Si7 0.973236 0.520295 0.311989
Si Si8 0.348664 0.361255 0.168646
O O1 0.292268 0.544625 0.236197
O O2 0.631300 0.287276 0.538682
O O3 0.355438 0.480202 0.421256
O O4 0.509780 0.969753 0.609079
O O5 0.066629 0.517279 0.776350
O O6 0.935478 0.568839 0.819427
O O7 0.020625 0.948852 0.692856
O O8 0.271444 0.363708 0.050747
O O9 0.833905 0.483577 0.930045
O O10 0.067340 0.026180 0.124026
O O11 0.714953 0.034792 0.176532
O O12 0.801405 0.830909 0.156137
O O13 0.584232 0.421205 0.874818
O O14 0.500000 0.000000 0.000000
O O15 0.863061 0.450100 0.612795
O O16 0.000000 0.500000 0.500000
O O17 0.037718 0.226013 0.496163
#
# Coordination Sequence:
#
# PCOD9043394 Si02
#       8
#     2   2   2   2   2   2   2   2
#     4  11  25  40  66 106 139 185 232 284 341 424
#     4  11  23  41  70  98 138 187 224 287 352 411
#     4  12  23  43  71 100 144 191 226 287 352 417
#     4  10  23  45  70  99 133 184 229 294 346 413
#     4  11  24  43  66 103 145 177 233 283 352 410
#     4   9  22  42  66  96 132 174 234 277 339 411
#     4  11  22  44  70  99 135 188 228 282 357 411
#     4  11  24  44  65 103 143 179 239 286 352 411
#
# _framework density 21.707419999999999
#
# number of rings (size 3 to 8) (size 9 to 14) (size 15 to 20)
#    0.000    1.250    3.750    1.500    0.000    3.000 
#    4.500    1.250    0.000    0.000    0.000    0.000 
#    0.000    0.000    0.000    0.000    0.000    0.000 
#
# Total GULP energy -89305.847852 kJ/mol
# GULP energy per Si atom -5581.615491 kJ/mol
# Density = 2.165801 g / cm^3
# Si number density = 21.707420 Si / 1000 Ang^3
#
#
#
# Elastic Constant Matrix: (Units=GPa)
#
#
# Indices 1 2 3 4 5 6 
#
# 1 61.6211 27.8987 47.7005 16.5922 2.5391 -6.9309
# 2 27.8987 -32.0639 -179.6297 -45.7014 18.7702 80.2377
# 3 47.7005 -179.6297 -333.7169 -115.9031 38.3580 169.0029
# 4 16.5922 -45.7014 -115.9031 3.0626 5.3901 45.9896
# 5 2.5391 18.7702 38.3580 5.3901 30.6861 -4.9188
# 6 -6.9309 80.2377 169.0029 45.9896 -4.9188 -29.2256
#
#
#
# Elastic Compliance Matrix: (Units=1/GPa)
#
#
# Indices 1 2 3 4 5 6 
#
# 1 0.016125 -0.001067 0.000641 -0.001415 -0.002025 -0.004929
# 2 -0.001067 0.017509 -0.006253 -0.006221 -0.001297 0.002591
# 3 0.000641 -0.006253 0.005193 -0.003728 -0.000942 0.007000
# 4 -0.001415 -0.006221 -0.003728 0.027562 0.004434 0.004321
# 5 -0.002025 -0.001297 -0.000942 0.004434 0.032814 -0.007074
# 6 -0.004929 0.002591 0.007000 0.004321 -0.007074 0.022537
#
#
# Mechanical properties :
#
#
# Convention : Reuss Voigt Hill
#
# Bulk Modulus (GPa) = 39.26164 -56.91341 -8.82589
# Shear Modulus (GPa) = 34.82198 -12.43731 11.19233
#
# Velocity S-wave (km/s) = 4.00953 -2.39624 2.27314
# Velocity P-wave (km/s) = 6.28976 5.82506 1.67777
#
# Compressibility (1/GPa) = 0.02547016
#
# Stress axis : x y z
#
# Youngs Moduli (GPa) = 62.01685 57.11217 192.56724
#
# Poissons Ratio (x) = 0.06091 -0.12353
# Poissons Ratio (y) = 0.06614 1.20420
# Poissons Ratio (z) = -0.03978 0.35714
#
# Static dielectric constant tensor:
#      x y z
#    x 1.780270 -0.010010 -0.024140 
#    y -0.010010 1.889890 0.037210 
#    z -0.024140 0.037210 1.815500 
# 
# From -- ./inp_files/566443.got.cif
#   From: 2010.05.17/outbox.cif.g08.bks.cpg/sg2_284_cif.got.tgz:566443.got - 2010.06.03 11:33:40.
