data_PCOD9043402
_publ_section_title
;
Structure prediction by ZEFSAII (Michael W. Deem and Ramdas Pophale) SiO2 
 PCOD9043402
Probable space group: P -1
;
_chemical_formula_sum "Si O2"
_cell_formula_units_Z 12
_cell_length_a 12.406304
_cell_length_b 11.716390
_cell_length_c 5.916991
_cell_angle_alpha 71.485233
_cell_angle_beta 91.861305
_cell_angle_gamma 38.901509
_cell_volume 452.189028
_symmetry_space_group_name_H-M "P -1"
_symmetry_group_IT_number 2
_symmetry_cell_setting 'triclinic'
loop_
_space_group_symop_operation_xyz
x,y,z
-x,-y,-z
loop_
_atom_site_type_symbol
_atom_site_label
_atom_site_fract_x
_atom_site_fract_y
_atom_site_fract_z
Si Si1 0.829104 0.488502 0.783889
Si Si2 0.502621 0.359190 0.516785
Si Si3 0.128981 0.115514 0.762699
Si Si4 0.783200 0.178912 0.293106
Si Si5 0.606186 0.912385 0.312859
Si Si6 0.724421 0.500147 0.211091
O O1 0.693721 0.499903 0.708026
O O2 0.766926 0.656569 0.516659
O O3 0.049712 0.241187 0.916093
O O4 0.765430 0.564493 0.990573
O O5 0.500000 0.500000 0.500000
O O6 0.676616 0.190585 0.458389
O O7 0.465573 0.309874 0.763930
O O8 0.278253 0.070019 0.696518
O O9 0.927767 0.304623 0.484121
O O10 0.198505 0.912515 0.880058
O O11 0.691112 0.396435 0.170313
O O12 0.000000 0.000000 0.500000
O O13 0.500000 0.000000 0.500000
O O14 0.500000 0.000000 0.000000
#
# Coordination Sequence:
#
# PCOD9043402 Si02
#       6
#     2   2   2   2   2   2
#     4  11  24  44  69 102 135 185 240 296 355 427
#     4   9  19  38  62  97 140 179 229 283 351 419
#     4  10  23  45  70  99 142 186 234 295 352 433
#     4   9  18  39  65 103 143 185 228 283 355 429
#     4  12  30  50  73 106 142 192 244 301 362 429
#     4   9  21  39  71 103 138 182 236 291 356 421
#
# _framework density 26.537575
#
# number of rings (size 3 to 8) (size 9 to 14) (size 15 to 20)
#    0.000    2.000    0.000    2.500    7.000    4.000 
#    3.000    0.000    0.000    0.000    0.000    0.000 
#    0.000    0.000    0.000    0.000    0.000    0.000 
#
# Total GULP energy -66912.652038 kJ/mol
# GULP energy per Si atom -5576.054337 kJ/mol
# Density = 2.647717 g / cm^3
# Si number density = 26.537575 Si / 1000 Ang^3
#
#
#
# Elastic Constant Matrix: (Units=GPa)
#
#
# Indices 1 2 3 4 5 6 
#
# 1 116.0725 29.3142 17.9645 7.2270 -11.6368 -11.3591
# 2 29.3142 114.3064 33.0771 31.7990 -27.0081 -9.7153
# 3 17.9645 33.0771 133.4943 11.8111 -29.8289 -13.2023
# 4 7.2270 31.7990 11.8111 30.8333 -3.7836 -15.1529
# 5 -11.6368 -27.0081 -29.8289 -3.7836 42.4853 4.9048
# 6 -11.3591 -9.7153 -13.2023 -15.1529 4.9048 57.4685
#
#
#
# Elastic Compliance Matrix: (Units=1/GPa)
#
#
# Indices 1 2 3 4 5 6 
#
# 1 0.009429 -0.002328 -0.000490 0.001265 0.000683 0.001633
# 2 -0.002328 0.015432 -0.000709 -0.015518 0.007610 -0.002755
# 3 -0.000490 -0.000709 0.009227 -0.001490 0.005642 0.001028
# 4 0.001265 -0.015518 -0.001490 0.053764 -0.007170 0.012072
# 5 0.000683 0.007610 0.005642 -0.007170 0.032106 -0.001913
# 6 0.001633 -0.002755 0.001028 0.012072 -0.001913 0.020840
#
#
# Mechanical properties :
#
#
# Convention : Reuss Voigt Hill
#
# Bulk Modulus (GPa) = 36.99248 58.28721 47.63984
# Shear Modulus (GPa) = 31.87518 45.05858 38.46688
#
# Velocity S-wave (km/s) = 3.46950 4.12505 3.81139
# Velocity P-wave (km/s) = 5.47903 6.68579 6.11226
#
# Compressibility (1/GPa) = 0.02703252
#
# Stress axis : x y z
#
# Youngs Moduli (GPa) = 106.06097 64.80227 108.37989
#
# Poissons Ratio (x) = 0.15086 0.05309
# Poissons Ratio (y) = 0.24691 0.07688
# Poissons Ratio (z) = 0.05195 0.04597
#
# Static dielectric constant tensor:
#      x y z
#    x 1.988670 0.054310 0.048680 
#    y 0.054310 2.193580 0.113740 
#    z 0.048680 0.113740 2.434760 
# 
# From -- ./inp_files/69054.got.cif
#   From: 2010.05.17/outbox.cif.g08.bks.cpg/sg2_35_cif.got.tgz:69054.got - 2010.06.03 11:33:40.
