data_PCOD9043536
_publ_section_title
;
Structure prediction by ZEFSAII (Michael W. Deem and Ramdas Pophale) SiO2 
 PCOD9043536
Probable space group: P -1
;
_chemical_formula_sum "Si O2"
_cell_formula_units_Z 14
_cell_length_a 8.792846
_cell_length_b 9.232735
_cell_length_c 22.332032
_cell_angle_alpha 153.249570
_cell_angle_beta 53.790981
_cell_angle_gamma 127.284518
_cell_volume 642.951661
_symmetry_space_group_name_H-M "P -1"
_symmetry_group_IT_number 2
_symmetry_cell_setting 'triclinic'
loop_
_space_group_symop_operation_xyz
x,y,z
-x,-y,-z
loop_
_atom_site_type_symbol
_atom_site_label
_atom_site_fract_x
_atom_site_fract_y
_atom_site_fract_z
Si Si1 0.506149 0.680273 0.420392
Si Si2 0.966691 0.625661 0.845167
Si Si3 0.879025 0.630384 0.393864
Si Si4 0.452967 0.485933 0.075329
Si Si5 0.651404 0.277818 0.145992
Si Si6 0.818372 0.620028 0.116865
Si Si7 0.142002 0.671998 0.581948
O O1 0.685110 0.640498 0.406126
O O2 0.492457 0.408517 0.270332
O O3 0.344626 0.680956 0.507179
O O4 0.500000 0.000000 0.500000
O O5 0.753064 0.414133 0.829830
O O6 0.011307 0.604334 0.756940
O O7 0.144177 0.523211 0.799922
O O8 0.000000 0.000000 0.000000
O O9 0.863712 0.516499 0.423533
O O10 0.000000 0.000000 0.500000
O O11 0.649923 0.670898 0.129026
O O12 0.500000 0.500000 0.000000
O O13 0.398066 0.110296 0.973371
O O14 0.694882 0.361415 0.097525
O O15 0.890439 0.965965 0.261154
O O16 0.000000 0.500000 0.000000
O O17 0.000000 0.500000 0.500000
#
# Coordination Sequence:
#
# PCOD9043536 Si02
#       7
#     2   2   2   2   2   2   2
#     4  11  23  47  72 102 141 183 238 289 360 425
#     4   9  22  43  72 100 139 176 231 287 356 414
#     4  11  26  44  73 105 138 185 237 297 356 422
#     4  11  25  42  72 105 139 180 230 291 356 420
#     4  10  23  45  72 101 140 183 226 291 353 423
#     4  12  28  45  71 105 142 185 241 291 356 420
#     4  12  29  47  71 102 146 194 242 293 349 425
#
# _framework density 21.774576
#
# number of rings (size 3 to 8) (size 9 to 14) (size 15 to 20)
#    0.000    1.143    1.429    2.571   16.000    2.286 
#    0.000    0.000    0.000    0.000    0.000    0.000 
#    0.000    0.000    0.000    0.000    0.000    0.000 
#
# Total GULP energy -78069.230159 kJ/mol
# GULP energy per Si atom -5576.373583 kJ/mol
# Density = 2.172502 g / cm^3
# Si number density = 21.774576 Si / 1000 Ang^3
#
#
#
# Elastic Constant Matrix: (Units=GPa)
#
#
# Indices 1 2 3 4 5 6 
#
# 1 106.9745 44.7596 37.5661 -24.9990 21.1470 -1.0502
# 2 44.7596 152.7634 56.8861 -33.6538 8.9453 -28.6287
# 3 37.5661 56.8861 129.9889 -26.7462 6.8307 10.9241
# 4 -24.9990 -33.6538 -26.7462 49.8466 -0.3122 -0.5072
# 5 21.1470 8.9453 6.8307 -0.3122 29.6092 -8.0113
# 6 -1.0502 -28.6287 10.9241 -0.5072 -8.0113 45.0602
#
#
#
# Elastic Compliance Matrix: (Units=1/GPa)
#
#
# Indices 1 2 3 4 5 6 
#
# 1 0.013701 -0.002517 -0.001235 0.004424 -0.009397 -0.002601
# 2 -0.002517 0.011219 -0.004113 0.004201 0.001677 0.008412
# 3 -0.001235 -0.004113 0.010910 0.002389 -0.001881 -0.005594
# 4 0.004424 0.004201 0.002389 0.026390 -0.004231 0.001738
# 5 -0.009397 0.001677 -0.001881 -0.004231 0.042764 0.008858
# 6 -0.002601 0.008412 -0.005594 0.001738 0.008858 0.030427
#
#
# Mechanical properties :
#
#
# Convention : Reuss Voigt Hill
#
# Bulk Modulus (GPa) = 49.75204 74.23895 61.99549
# Shear Modulus (GPa) = 31.67748 41.60420 36.64084
#
# Velocity S-wave (km/s) = 3.81831 4.37587 4.10657
# Velocity P-wave (km/s) = 6.50674 7.72654 7.14272
#
# Compressibility (1/GPa) = 0.02009968
#
# Stress axis : x y z
#
# Youngs Moduli (GPa) = 72.98818 89.13585 91.65568
#
# Poissons Ratio (x) = 0.22436 0.11323
# Poissons Ratio (y) = 0.18371 0.37696
# Poissons Ratio (z) = 0.09017 0.36660
#
# Static dielectric constant tensor:
#      x y z
#    x 1.789410 -0.055330 0.104070 
#    y -0.055330 1.626770 0.249900 
#    z 0.104070 0.249900 1.386260 
# 
# From -- ./inp_files/184627.got.cif
#   From: 2010.05.17/outbox.cif.g08.bks.cpg/sg2_93_cif.got.tgz:184627.got - 2010.06.03 11:33:40.
