data_PCOD9043920
_publ_section_title
;
Structure prediction by ZEFSAII (Michael W. Deem and Ramdas Pophale) SiO2 
 PCOD9043920
Probable space group: P -1
;
_chemical_formula_sum "Si O2"
_cell_formula_units_Z 12
_cell_length_a 9.611747
_cell_length_b 12.631130
_cell_length_c 9.628293
_cell_angle_alpha 77.701706
_cell_angle_beta 110.852880
_cell_angle_gamma 43.924440
_cell_volume 522.671186
_symmetry_space_group_name_H-M "P -1"
_symmetry_group_IT_number 2
_symmetry_cell_setting 'triclinic'
loop_
_space_group_symop_operation_xyz
x,y,z
-x,-y,-z
loop_
_atom_site_type_symbol
_atom_site_label
_atom_site_fract_x
_atom_site_fract_y
_atom_site_fract_z
Si Si1 0.711418 0.037913 0.743076
Si Si2 0.419384 0.621945 0.071092
Si Si3 0.597759 0.946586 0.210424
Si Si4 0.646814 0.674182 0.967320
Si Si5 0.274659 0.497091 0.545031
Si Si6 0.264577 0.416856 0.280950
O O1 0.635228 0.969869 0.798386
O O2 0.523554 0.243217 0.712365
O O3 0.546496 0.163484 0.502228
O O4 0.063288 0.840267 0.913738
O O5 0.602698 0.486331 0.317254
O O6 0.500000 0.500000 0.000000
O O7 0.531969 0.668219 0.046229
O O8 0.934989 0.685268 0.420554
O O9 0.589842 0.078042 0.206880
O O10 0.500000 0.000000 0.000000
O O11 0.694788 0.580876 0.865443
O O12 0.962457 0.534942 0.153468
O O13 0.247182 0.523552 0.359703
#
# Coordination Sequence:
#
# PCOD9043920 Si02
#       6
#     2   2   2   2   2   2
#     4  10  24  45  66  98 138 178 216 270 344 392
#     4  12  28  45  67  96 141 181 217 273 344 396
#     4  12  22  41  75 103 127 173 231 278 321 393
#     4  11  24  44  69 104 133 167 233 278 322 396
#     4  10  23  46  66  99 133 179 218 271 333 400
#     4   9  23  44  72  93 137 174 225 275 326 389
#
# _framework density 22.958981999999999
#
# number of rings (size 3 to 8) (size 9 to 14) (size 15 to 20)
#    1.000    0.333    1.667    3.000    7.000    1.333 
#    0.000    2.500    0.000    0.000    0.000    0.000 
#    0.000    0.000    0.000    0.000    0.000    0.000 
#
# Total GULP energy -67001.440444 kJ/mol
# GULP energy per Si atom -5583.453370 kJ/mol
# Density = 2.290673 g / cm^3
# Si number density = 22.958982 Si / 1000 Ang^3
#
#
#
# Elastic Constant Matrix: (Units=GPa)
#
#
# Indices 1 2 3 4 5 6 
#
# 1 85.5531 16.6871 34.0910 -4.1201 19.1064 -32.4030
# 2 16.6871 128.5170 59.0340 20.9902 14.0941 -14.3034
# 3 34.0910 59.0340 138.9795 3.4056 22.4816 -25.7592
# 4 -4.1201 20.9902 3.4056 48.3377 -12.2384 0.8029
# 5 19.1064 14.0941 22.4816 -12.2384 18.8283 -4.9313
# 6 -32.4030 -14.3034 -25.7592 0.8029 -4.9313 25.5014
#
#
#
# Elastic Compliance Matrix: (Units=1/GPa)
#
#
# Indices 1 2 3 4 5 6 
#
# 1 0.032134 0.003840 0.003892 -0.008806 -0.035281 0.040371
# 2 0.003840 0.011969 -0.002350 -0.008271 -0.013635 0.006844
# 3 0.003892 -0.002350 0.012344 -0.003772 -0.015942 0.013132
# 4 -0.008806 -0.008271 -0.003772 0.033637 0.037999 -0.013349
# 5 -0.035281 -0.013635 -0.015942 0.037999 0.131226 -0.044401
# 6 0.040371 0.006844 0.013132 -0.013349 -0.044401 0.099448
#
#
# Mechanical properties :
#
#
# Convention : Reuss Voigt Hill
#
# Bulk Modulus (GPa) = 14.87808 63.63042 39.25425
# Shear Modulus (GPa) = 15.04225 34.74931 24.89578
#
# Velocity S-wave (km/s) = 2.56242 3.89464 3.29653
# Velocity P-wave (km/s) = 3.90500 6.92815 5.62354
#
# Compressibility (1/GPa) = 0.06721299
#
# Stress axis : x y z
#
# Youngs Moduli (GPa) = 31.11943 83.54575 81.01222
#
# Poissons Ratio (x) = -0.32085 -0.31528
# Poissons Ratio (y) = -0.11951 0.19034
# Poissons Ratio (z) = -0.12111 0.19629
#
# Static dielectric constant tensor:
#      x y z
#    x 1.811190 0.047700 -0.014600 
#    y 0.047700 1.923390 0.027390 
#    z -0.014600 0.027390 1.856480 
# 
# From -- ./inp_files/390070.got.cif
#   From: 2010.05.17/outbox.cif.g08.bks.cpg/sg2_196_cif.got.tgz:390070.got - 2010.06.03 11:33:40.
