data_PCOD9043039
_publ_section_title
;
Structure prediction by ZEFSAII (Michael W. Deem and Ramdas Pophale) SiO2 
 PCOD9043039
Probable space group: P -1
;
_chemical_formula_sum "Si O2"
_cell_formula_units_Z 14
_cell_length_a 12.757942
_cell_length_b 6.237554
_cell_length_c 8.711820
_cell_angle_alpha 77.984392
_cell_angle_beta 103.931937
_cell_angle_gamma 86.815185
_cell_volume 654.045062
_symmetry_space_group_name_H-M "P -1"
_symmetry_group_IT_number 2
_symmetry_cell_setting 'triclinic'
loop_
_space_group_symop_operation_xyz
x,y,z
-x,-y,-z
loop_
_atom_site_type_symbol
_atom_site_label
_atom_site_fract_x
_atom_site_fract_y
_atom_site_fract_z
Si Si1 0.616117 0.224915 0.173812
Si Si2 0.267469 0.202835 0.253172
Si Si3 0.987793 0.732895 0.378952
Si Si4 0.481626 0.927524 0.329262
Si Si5 0.045402 0.250559 0.985192
Si Si6 0.815384 0.053280 0.461480
Si Si7 0.418527 0.553324 0.195791
O O1 0.730232 0.210827 0.306120
O O2 0.520046 0.388547 0.193628
O O3 0.571451 0.992418 0.231700
O O4 0.619176 0.293390 0.987427
O O5 0.316879 0.434630 0.235821
O O6 0.363772 0.049586 0.227525
O O7 0.247742 0.102229 0.427866
O O8 0.158125 0.207252 0.119857
O O9 0.950122 0.701700 0.199081
O O10 0.000000 0.500000 0.500000
O O11 0.105559 0.821089 0.421876
O O12 0.897918 0.903716 0.403705
O O13 0.466443 0.677534 0.334896
O O14 0.500000 0.000000 0.500000
O O15 0.000000 0.500000 0.000000
O O16 0.000000 0.000000 0.000000
#
# Coordination Sequence:
#
# PCOD9043039 Si02
#       7
#     2   2   2   2   2   2   2
#     4  10  23  45  68 101 138 186 233 298 361 433
#     4  11  25  44  69 105 136 193 236 299 366 433
#     4  11  27  45  72 106 144 188 248 300 371 443
#     4  11  23  44  68 103 139 180 235 294 362 435
#     4  12  28  50  78 107 150 196 248 309 369 441
#     4  11  24  47  69 101 145 185 237 300 369 432
#     4  10  25  43  71 101 139 182 245 288 367 437
#
# _framework density 21.405249999999999
#
# number of rings (size 3 to 8) (size 9 to 14) (size 15 to 20)
#    0.000    1.143    2.857    1.286    8.000    4.571 
#    2.571    0.000    0.000    0.000    0.000    0.000 
#    0.000    0.000    0.000    0.000    0.000    0.000 
#
# Total GULP energy -78057.688484 kJ/mol
# GULP energy per Si atom -5575.549177 kJ/mol
# Density = 2.135653 g / cm^3
# Si number density = 21.405250 Si / 1000 Ang^3
#
#
#
# Elastic Constant Matrix: (Units=GPa)
#
#
# Indices 1 2 3 4 5 6 
#
# 1 93.9642 30.8830 29.6238 -8.1868 13.6475 12.4571
# 2 30.8830 88.1582 44.9406 9.2549 2.9080 28.3231
# 3 29.6238 44.9406 131.0314 -16.0845 7.1895 3.7618
# 4 -8.1868 9.2549 -16.0845 35.9327 -0.1825 1.2623
# 5 13.6475 2.9080 7.1895 -0.1825 41.7414 -15.5940
# 6 12.4571 28.3231 3.7618 1.2623 -15.5940 32.6475
#
#
#
# Elastic Compliance Matrix: (Units=1/GPa)
#
#
# Indices 1 2 3 4 5 6 
#
# 1 0.013918 -0.002160 -0.001456 0.003272 -0.006577 -0.006537
# 2 -0.002160 0.025315 -0.008251 -0.009909 -0.008615 -0.023919
# 3 -0.001456 -0.008251 0.011307 0.006618 0.001742 0.006987
# 4 0.003272 -0.009909 0.006618 0.033896 0.000730 0.005624
# 5 -0.006577 -0.008615 0.001742 0.000730 0.036583 0.027228
# 6 -0.006537 -0.023919 0.006987 0.005624 0.027228 0.065858
#
#
# Mechanical properties :
#
#
# Convention : Reuss Voigt Hill
#
# Bulk Modulus (GPa) = 37.30385 58.22762 47.76574
# Shear Modulus (GPa) = 22.77415 35.91141 29.34278
#
# Velocity S-wave (km/s) = 3.26537 4.10041 3.70648
# Velocity P-wave (km/s) = 5.62868 7.04836 6.37814
#
# Compressibility (1/GPa) = 0.02680688
#
# Stress axis : x y z
#
# Youngs Moduli (GPa) = 71.84828 39.50190 88.44078
#
# Poissons Ratio (x) = 0.08533 0.12873
# Poissons Ratio (y) = 0.15519 0.72974
# Poissons Ratio (z) = 0.10458 0.32594
#
# Static dielectric constant tensor:
#      x y z
#    x 1.772620 0.033400 -0.014660 
#    y 0.033400 1.891860 -0.056100 
#    z -0.014660 -0.056100 1.716870 
# 
# From -- ./inp_files/229625.got.cif
#   From: 2010.05.17/outbox.cif.g08.bks.cpg/sg2_115_cif.got.tgz:229625.got - 2010.06.03 11:33:40.
