data_PCOD9043461
_publ_section_title
;
Structure prediction by ZEFSAII (Michael W. Deem and Ramdas Pophale) SiO2 
 PCOD9043461
Probable space group: P -1
;
_chemical_formula_sum "Si O2"
_cell_formula_units_Z 14
_cell_length_a 18.051742
_cell_length_b 8.366518
_cell_length_c 13.359867
_cell_angle_alpha 77.633732
_cell_angle_beta 22.067341
_cell_angle_gamma 66.676750
_cell_volume 624.160532
_symmetry_space_group_name_H-M "P -1"
_symmetry_group_IT_number 2
_symmetry_cell_setting 'triclinic'
loop_
_space_group_symop_operation_xyz
x,y,z
-x,-y,-z
loop_
_atom_site_type_symbol
_atom_site_label
_atom_site_fract_x
_atom_site_fract_y
_atom_site_fract_z
Si Si1 0.791271 0.958070 0.262245
Si Si2 0.532336 0.349939 0.234628
Si Si3 0.915018 0.629826 0.287101
Si Si4 0.990665 0.985152 0.394745
Si Si5 0.858034 0.673802 0.577665
Si Si6 0.453429 0.636803 0.136271
Si Si7 0.341767 0.293669 0.678412
O O1 0.824611 0.849309 0.339638
O O2 0.775198 0.812324 0.219615
O O3 0.540668 0.150745 0.527184
O O4 0.000000 0.000000 0.000000
O O5 0.299502 0.389871 0.468238
O O6 0.558028 0.511143 0.123681
O O7 0.473921 0.350066 0.424058
O O8 0.753389 0.138466 0.958372
O O9 0.956241 0.591917 0.356376
O O10 0.137635 0.482975 0.962558
O O11 0.886836 0.852111 0.528871
O O12 0.000000 0.000000 0.500000
O O13 0.819191 0.197815 0.535883
O O14 0.000000 0.500000 0.500000
O O15 0.592340 0.737114 0.917996
O O16 0.500000 0.500000 0.000000
#
# Coordination Sequence:
#
# PCOD9043461 Si02
#       7
#     2   2   2   2   2   2   2
#     4  10  23  45  71 105 141 184 252 291 357 425
#     4  11  23  44  75 104 141 187 239 288 364 434
#     4  11  25  49  71 100 149 191 236 296 358 432
#     4  12  25  44  72 101 143 188 234 301 360 425
#     4  12  25  48  69 109 144 184 245 294 360 443
#     4  12  23  46  70 103 142 186 232 293 364 429
#     4  10  25  50  72 105 150 193 238 303 359 429
#
# _framework density 22.430128
#
# number of rings (size 3 to 8) (size 9 to 14) (size 15 to 20)
#    0.000    0.857    4.286    2.143    2.000    5.143 
#    7.714    0.000    0.000    0.000    0.000    0.000 
#    0.000    0.000    0.000    0.000    0.000    0.000 
#
# Total GULP energy -78223.805593 kJ/mol
# GULP energy per Si atom -5587.414685 kJ/mol
# Density = 2.237908 g / cm^3
# Si number density = 22.430128 Si / 1000 Ang^3
#
#
#
# Elastic Constant Matrix: (Units=GPa)
#
#
# Indices 1 2 3 4 5 6 
#
# 1 75.0978 29.2843 62.8239 13.1858 6.4013 -34.2803
# 2 29.2843 81.4860 49.3742 14.2180 7.2022 -32.5954
# 3 62.8239 49.3742 162.0767 20.9387 14.1758 -13.8020
# 4 13.1858 14.2180 20.9387 47.4433 -6.5247 -10.6941
# 5 6.4013 7.2022 14.1758 -6.5247 34.4895 -1.9797
# 6 -34.2803 -32.5954 -13.8020 -10.6941 -1.9797 33.5744
#
#
#
# Elastic Compliance Matrix: (Units=1/GPa)
#
#
# Indices 1 2 3 4 5 6 
#
# 1 0.052222 0.019140 -0.020971 0.003403 -0.000734 0.064321
# 2 0.019140 0.031163 -0.013057 0.000886 -0.001966 0.044595
# 3 -0.020971 -0.013057 0.016637 -0.004475 -0.002721 -0.028835
# 4 0.003403 0.000886 -0.004475 0.025179 0.006411 0.010893
# 5 -0.000734 -0.001966 -0.002721 0.006411 0.031881 0.000146
# 6 0.064321 0.044595 -0.028835 0.010893 0.000146 0.130377
#
#
# Mechanical properties :
#
#
# Convention : Reuss Voigt Hill
#
# Bulk Modulus (GPa) = 14.23587 66.84726 40.54156
# Shear Modulus (GPa) = 14.67782 34.91330 24.79556
#
# Velocity S-wave (km/s) = 2.56086 3.94958 3.32845
# Velocity P-wave (km/s) = 3.88646 7.11801 5.73457
#
# Compressibility (1/GPa) = 0.07024510
#
# Stress axis : x y z
#
# Youngs Moduli (GPa) = 19.14902 32.08939 60.10746
#
# Poissons Ratio (x) = -0.61418 1.26050
# Poissons Ratio (y) = -0.36650 0.78483
# Poissons Ratio (z) = 0.40157 0.41899
#
# Static dielectric constant tensor:
#      x y z
#    x 1.886710 0.032250 -0.015130 
#    y 0.032250 1.881290 -0.045770 
#    z -0.015130 -0.045770 1.847590 
# 
# From -- ./inp_files/540453.got.cif
#   From: 2010.05.17/outbox.cif.g08.bks.cpg/sg2_271_cif.got.tgz:540453.got - 2010.06.03 11:33:40.
