data_PCOD9043553
_publ_section_title
;
Structure prediction by ZEFSAII (Michael W. Deem and Ramdas Pophale) SiO2 
 PCOD9043553
Probable space group: P -1
;
_chemical_formula_sum "Si O2"
_cell_formula_units_Z 12
_cell_length_a 9.441137
_cell_length_b 5.442787
_cell_length_c 15.150214
_cell_angle_alpha 120.991496
_cell_angle_beta 130.527875
_cell_angle_gamma 52.634774
_cell_volume 460.845785
_symmetry_space_group_name_H-M "P -1"
_symmetry_group_IT_number 2
_symmetry_cell_setting 'triclinic'
loop_
_space_group_symop_operation_xyz
x,y,z
-x,-y,-z
loop_
_atom_site_type_symbol
_atom_site_label
_atom_site_fract_x
_atom_site_fract_y
_atom_site_fract_z
Si Si1 0.206804 0.365791 0.117602
Si Si2 0.099261 0.233273 0.820795
Si Si3 0.094546 0.336675 0.601579
Si Si4 0.625855 0.370659 0.263105
Si Si5 0.685538 0.401012 0.489087
Si Si6 0.271795 0.751822 0.966301
O O1 0.406977 0.372031 0.154010
O O2 0.139431 0.601027 0.217728
O O3 0.000000 0.500000 0.000000
O O4 0.252785 0.999943 0.082838
O O5 0.149352 0.537945 0.891368
O O6 0.202482 0.994602 0.737784
O O7 0.209297 0.983871 0.898846
O O8 0.270943 0.447722 0.719421
O O9 0.000000 0.500000 0.500000
O O10 0.887488 0.465960 0.601405
O O11 0.206339 0.974241 0.551902
O O12 0.603066 0.518064 0.378917
O O13 0.500000 0.500000 0.500000
O O14 0.500000 0.500000 0.000000
#
# Coordination Sequence:
#
# PCOD9043553 Si02
#       6
#     2   2   2   2   2   2
#     4  10  24  43  66 102 144 192 243 291 349 422
#     4  11  25  43  67  99 143 189 243 298 352 425
#     4   9  22  43  70  96 136 174 227 291 369 426
#     4  11  24  42  69 103 137 187 242 289 361 430
#     4  10  23  45  72 103 137 176 229 301 369 435
#     4  11  22  43  70  93 142 195 239 297 359 409
#
# _framework density 26.039076999999999
#
# number of rings (size 3 to 8) (size 9 to 14) (size 15 to 20)
#    0.000    1.667    1.667    1.000    4.667    8.000 
#    6.000    0.000    0.000    0.000    0.000    0.000 
#    0.000    0.000    0.000    0.000    0.000    0.000 
#
# Total GULP energy -67010.728988 kJ/mol
# GULP energy per Si atom -5584.227416 kJ/mol
# Density = 2.597981 g / cm^3
# Si number density = 26.039077 Si / 1000 Ang^3
#
#
#
# Elastic Constant Matrix: (Units=GPa)
#
#
# Indices 1 2 3 4 5 6 
#
# 1 209.0275 60.1179 60.4013 15.7890 21.6178 -41.0353
# 2 60.1179 113.0330 24.1637 17.8877 9.3560 -23.2636
# 3 60.4013 24.1637 81.1630 5.6561 25.6677 -11.8518
# 4 15.7890 17.8877 5.6561 34.7530 1.2299 -5.4056
# 5 21.6178 9.3560 25.6677 1.2299 67.9374 4.9760
# 6 -41.0353 -23.2636 -11.8518 -5.4056 4.9760 63.9051
#
#
#
# Elastic Compliance Matrix: (Units=1/GPa)
#
#
# Indices 1 2 3 4 5 6 
#
# 1 0.007354 -0.002169 -0.004069 -0.001048 -0.000716 0.003145
# 2 -0.002169 0.011411 -0.000957 -0.004359 -0.000606 0.002262
# 3 -0.004069 -0.000957 0.017382 -0.000204 -0.005185 0.000649
# 4 -0.001048 -0.004359 -0.000204 0.031565 0.000414 0.000340
# 5 -0.000716 -0.000606 -0.005185 0.000414 0.017198 -0.002946
# 6 0.003145 0.002262 0.000649 0.000340 -0.002946 0.018870
#
#
# Mechanical properties :
#
#
# Convention : Reuss Voigt Hill
#
# Bulk Modulus (GPa) = 45.96089 76.95437 61.45763
# Shear Modulus (GPa) = 39.86520 50.55515 45.21018
#
# Velocity S-wave (km/s) = 3.91701 4.41104 4.17135
# Velocity P-wave (km/s) = 6.17628 7.45390 6.84496
#
# Compressibility (1/GPa) = 0.02175763
#
# Stress axis : x y z
#
# Youngs Moduli (GPa) = 135.97593 87.63608 57.52988
#
# Poissons Ratio (x) = 0.19011 0.23406
# Poissons Ratio (y) = 0.29497 0.05506
# Poissons Ratio (z) = 0.55322 0.08387
#
# Static dielectric constant tensor:
#      x y z
#    x 2.247940 0.069010 -0.138730 
#    y 0.069010 2.011890 0.015240 
#    z -0.138730 0.015240 2.296070 
# 
# From -- ./inp_files/55325.got.cif
#   From: 2010.05.17/outbox.cif.g08.bks.cpg/sg2_28_cif.got.tgz:55325.got - 2010.06.03 11:33:40.
