data_PCOD9043125
_publ_section_title
;
Structure prediction by ZEFSAII (Michael W. Deem and Ramdas Pophale) SiO2 
 PCOD9043125
Probable space group: P -1
;
_chemical_formula_sum "Si O2"
_cell_formula_units_Z 14
_cell_length_a 9.136034
_cell_length_b 11.564965
_cell_length_c 9.433845
_cell_angle_alpha 128.802964
_cell_angle_beta 134.776811
_cell_angle_gamma 50.807895
_cell_volume 517.659307
_symmetry_space_group_name_H-M "P -1"
_symmetry_group_IT_number 2
_symmetry_cell_setting 'triclinic'
loop_
_space_group_symop_operation_xyz
x,y,z
-x,-y,-z
loop_
_atom_site_type_symbol
_atom_site_label
_atom_site_fract_x
_atom_site_fract_y
_atom_site_fract_z
Si Si1 0.500000 0.500000 0.000000
Si Si2 0.730620 0.379949 0.761803
Si Si3 0.774852 0.694521 0.351400
Si Si4 0.331235 0.950266 0.212509
Si Si5 0.000000 0.000000 0.500000
Si Si6 0.792287 0.704400 0.032344
Si Si7 0.079167 0.855804 0.747994
Si Si8 0.517149 0.150962 0.307896
O O1 0.355161 0.581493 0.108716
O O2 0.703868 0.550178 0.233298
O O3 0.770229 0.534972 0.843114
O O4 0.571644 0.305186 0.515628
O O5 0.984556 0.258822 0.827858
O O6 0.561076 0.848522 0.359965
O O7 0.990884 0.711449 0.574482
O O8 0.790192 0.695753 0.192496
O O9 0.123471 0.001124 0.212993
O O10 0.348773 0.097283 0.248155
O O11 0.283871 0.831010 0.972181
O O12 0.750205 0.014866 0.388188
O O13 0.890953 0.102679 0.360094
O O14 0.592480 0.823344 0.901395
#
# Coordination Sequence:
#
# PCOD9043125 Si02
#       8
#     1   2   2   2   1   2   2   2
#     4  10  24  42  74  94 128 186 236 276 358 402
#     4  10  23  45  68  99 135 185 230 297 338 419
#     4  11  22  44  64  95 137 176 224 287 336 416
#     4  11  26  41  67  97 141 174 234 277 354 409
#     4  12  26  40  70 104 138 188 228 274 362 402
#     4  10  24  43  69  99 139 181 236 284 351 413
#     4  11  25  43  63 100 135 182 220 290 335 419
#     4  12  25  42  70 103 141 183 231 291 349 419
#
# _framework density 27.044816000000001
#
# number of rings (size 3 to 8) (size 9 to 14) (size 15 to 20)
#    0.000    1.143    1.429    3.429    6.000    2.286 
#    0.000    5.714    0.000    0.000    0.000    0.000 
#    0.000    0.000    0.000    0.000    0.000    0.000 
#
# Total GULP energy -77969.708664 kJ/mol
# GULP energy per Si atom -5569.264905 kJ/mol
# Density = 2.698326 g / cm^3
# Si number density = 27.044816 Si / 1000 Ang^3
#
#
#
# Elastic Constant Matrix: (Units=GPa)
#
#
# Indices 1 2 3 4 5 6 
#
# 1 138.6091 3.0865 35.8829 -7.7427 2.8484 -1.3028
# 2 3.0865 51.2541 23.7227 -4.4382 7.2666 9.6215
# 3 35.8829 23.7227 153.7588 1.0686 26.3511 16.5360
# 4 -7.7427 -4.4382 1.0686 52.1711 10.5258 16.4283
# 5 2.8484 7.2666 26.3511 10.5258 48.6322 21.2131
# 6 -1.3028 9.6215 16.5360 16.4283 21.2131 37.6658
#
#
#
# Elastic Compliance Matrix: (Units=1/GPa)
#
#
# Indices 1 2 3 4 5 6 
#
# 1 0.007773 0.000420 -0.001957 0.001050 0.000092 0.000511
# 2 0.000420 0.022326 -0.002916 0.003951 0.000052 -0.006161
# 3 -0.001957 -0.002916 0.008115 0.000334 -0.003443 -0.001092
# 4 0.001050 0.003951 0.000334 0.023226 -0.001263 -0.010538
# 5 0.000092 0.000052 -0.003443 -0.001263 0.028890 -0.014219
# 6 0.000511 -0.006161 -0.001092 -0.010538 -0.014219 0.041224
#
#
# Mechanical properties :
#
#
# Convention : Reuss Voigt Hill
#
# Bulk Modulus (GPa) = 34.12045 52.11180 43.11613
# Shear Modulus (GPa) = 33.28178 46.42249 39.85213
#
# Velocity S-wave (km/s) = 3.51182 4.14756 3.84286
# Velocity P-wave (km/s) = 5.39328 6.49976 5.97220
#
# Compressibility (1/GPa) = 0.02930793
#
# Stress axis : x y z
#
# Youngs Moduli (GPa) = 128.64496 44.79004 123.22141
#
# Poissons Ratio (x) = -0.01879 0.24113
# Poissons Ratio (y) = -0.05397 0.35935
# Poissons Ratio (z) = 0.25174 0.13062
#
# Static dielectric constant tensor:
#      x y z
#    x 2.014000 0.078110 0.003060 
#    y 0.078110 2.029270 0.067510 
#    z 0.003060 0.067510 2.068100 
# 
# From -- ./inp_files/185567.got.cif
#   From: 2010.05.17/outbox.cif.g08.bks.cpg/sg2_93_cif.got.tgz:185567.got - 2010.06.03 11:33:40.
