data_PCOD9043477
_publ_section_title
;
Structure prediction by ZEFSAII (Michael W. Deem and Ramdas Pophale) SiO2 
 PCOD9043477
Probable space group: P -1
;
_chemical_formula_sum "Si O2"
_cell_formula_units_Z 14
_cell_length_a 8.735668
_cell_length_b 18.969162
_cell_length_c 7.743260
_cell_angle_alpha 145.276260
_cell_angle_beta 54.450591
_cell_angle_gamma 137.062592
_cell_volume 497.200478
_symmetry_space_group_name_H-M "P -1"
_symmetry_group_IT_number 2
_symmetry_cell_setting 'triclinic'
loop_
_space_group_symop_operation_xyz
x,y,z
-x,-y,-z
loop_
_atom_site_type_symbol
_atom_site_label
_atom_site_fract_x
_atom_site_fract_y
_atom_site_fract_z
Si Si1 0.739181 0.688643 0.647530
Si Si2 0.772326 0.685929 0.031484
Si Si3 0.560204 0.856746 0.653795
Si Si4 0.823248 0.444169 0.652725
Si Si5 0.744665 0.418555 0.132497
Si Si6 0.015140 0.086176 0.365441
Si Si7 0.535106 0.905174 0.418959
O O1 0.720166 0.539818 0.293564
O O2 0.480832 0.647361 0.726006
O O3 0.912731 0.820101 0.669500
O O4 0.806693 0.692141 0.814308
O O5 0.602307 0.740115 0.282305
O O6 0.970918 0.810835 0.276753
O O7 0.710405 0.534796 0.859741
O O8 0.327291 0.731892 0.631051
O O9 0.782387 0.937823 0.784193
O O10 0.552207 0.953852 0.704437
O O11 0.000000 0.500000 0.500000
O O12 0.998850 0.498723 0.805487
O O13 0.675369 0.262065 0.785508
O O14 0.773948 0.938055 0.258689
O O15 0.500000 0.000000 0.500000
#
# Coordination Sequence:
#
# PCOD9043477 Si02
#       7
#     2   2   2   2   2   2   2
#     4  11  23  46  75 111 142 185 249 301 367 431
#     4  10  23  45  71 108 143 185 244 294 365 431
#     4  10  25  44  71 100 143 194 238 291 362 432
#     4  12  23  40  69 109 146 181 237 311 362 415
#     4  11  25  41  69 110 145 178 241 306 359 430
#     4  10  25  45  77  99 145 199 236 293 363 441
#     4  12  26  46  67 107 148 192 245 295 363 438
#
# _framework density 28.157655999999999
#
# number of rings (size 3 to 8) (size 9 to 14) (size 15 to 20)
#    0.857    0.286    2.857    2.571    6.000    1.143 
#    0.000    1.429    0.000    4.286    0.000    0.000 
#    0.000    0.000    0.000    0.000    0.000    0.000 
#
# Total GULP energy -78188.908307 kJ/mol
# GULP energy per Si atom -5584.922022 kJ/mol
# Density = 2.809357 g / cm^3
# Si number density = 28.157656 Si / 1000 Ang^3
#
#
#
# Elastic Constant Matrix: (Units=GPa)
#
#
# Indices 1 2 3 4 5 6 
#
# 1 136.0466 51.3420 16.6862 18.9379 13.8986 -13.8536
# 2 51.3420 169.7025 11.5910 25.2617 21.3439 -4.4785
# 3 16.6862 11.5910 61.4416 11.3889 21.4428 -4.2480
# 4 18.9379 25.2617 11.3889 52.8825 4.5476 -0.0743
# 5 13.8986 21.3439 21.4428 4.5476 35.4916 -3.9584
# 6 -13.8536 -4.4785 -4.2480 -0.0743 -3.9584 58.0929
#
#
#
# Elastic Compliance Matrix: (Units=1/GPa)
#
#
# Indices 1 2 3 4 5 6 
#
# 1 0.008844 -0.002152 -0.001182 -0.001794 -0.001026 0.001784
# 2 -0.002152 0.007349 0.001029 -0.002628 -0.003877 -0.000139
# 3 -0.001182 0.001029 0.021518 -0.003615 -0.012636 0.000505
# 4 -0.001794 -0.002628 -0.003615 0.021445 0.001635 -0.000756
# 5 -0.001026 -0.003877 -0.012636 0.001635 0.038463 0.001155
# 6 0.001784 -0.000139 0.000505 -0.000756 0.001155 0.017743
#
#
# Mechanical properties :
#
#
# Convention : Reuss Voigt Hill
#
# Bulk Modulus (GPa) = 30.21134 58.49212 44.35173
# Shear Modulus (GPa) = 38.16695 48.46485 43.31590
#
# Velocity S-wave (km/s) = 3.68567 4.15323 3.92642
# Velocity P-wave (km/s) = 5.37260 6.61946 6.02836
#
# Compressibility (1/GPa) = 0.03310016
#
# Stress axis : x y z
#
# Youngs Moduli (GPa) = 113.07562 136.08183 46.47375
#
# Poissons Ratio (x) = 0.29280 0.05492
# Poissons Ratio (y) = 0.24330 -0.04780
# Poissons Ratio (z) = 0.13362 -0.13997
#
# Static dielectric constant tensor:
#      x y z
#    x 1.656390 0.339180 -0.379140 
#    y 0.339180 1.977540 0.098550 
#    z -0.379140 0.098550 2.189210 
# 
# From -- ./inp_files/213805.got.cif
#   From: 2010.05.17/outbox.cif.g08.bks.cpg/sg2_107_cif.got.tgz:213805.got - 2010.06.03 11:33:40.
