data_PCOD9043538
_publ_section_title
;
Structure prediction by ZEFSAII (Michael W. Deem and Ramdas Pophale) SiO2 
 PCOD9043538
Probable space group: P -1
;
_chemical_formula_sum "Si O2"
_cell_formula_units_Z 16
_cell_length_a 14.181492
_cell_length_b 8.204396
_cell_length_c 14.397595
_cell_angle_alpha 123.817076
_cell_angle_beta 123.416362
_cell_angle_gamma 29.155347
_cell_volume 669.321626
_symmetry_space_group_name_H-M "P -1"
_symmetry_group_IT_number 2
_symmetry_cell_setting 'triclinic'
loop_
_space_group_symop_operation_xyz
x,y,z
-x,-y,-z
loop_
_atom_site_type_symbol
_atom_site_label
_atom_site_fract_x
_atom_site_fract_y
_atom_site_fract_z
Si Si1 0.173523 0.217311 0.075487
Si Si2 0.270987 0.774480 0.327538
Si Si3 0.947374 0.894252 0.502138
Si Si4 0.694104 0.007685 0.259724
Si Si5 0.859381 0.049879 0.886766
Si Si6 0.401936 0.654683 0.870780
Si Si7 0.655205 0.879329 0.478728
Si Si8 0.547225 0.875196 0.225542
O O1 0.102055 0.218801 0.132451
O O2 0.320862 0.184001 0.168424
O O3 0.000000 0.500000 0.000000
O O4 0.312721 0.870263 0.983928
O O5 0.476510 0.383750 0.292197
O O6 0.128109 0.950303 0.217481
O O7 0.182846 0.843916 0.400497
O O8 0.314090 0.944054 0.415538
O O9 0.138995 0.523576 0.531325
O O10 0.841784 0.885024 0.376532
O O11 0.000000 0.000000 0.500000
O O12 0.719032 0.079963 0.197008
O O13 0.677570 0.794119 0.190518
O O14 0.626024 0.406775 0.895461
O O15 0.000000 0.000000 0.000000
O O16 0.398824 0.422722 0.805829
O O17 0.576164 0.967798 0.360528
O O18 0.500000 0.000000 0.500000
#
# Coordination Sequence:
#
# PCOD9043538 Si02
#       8
#     2   2   2   2   2   2   2   2
#     4  11  26  48  71 109 140 187 245 300 361 433
#     4  11  25  46  68 104 150 185 238 298 363 432
#     4  12  26  44  69 107 144 191 247 298 358 432
#     4  11  25  46  74 107 141 192 244 298 365 429
#     4  10  23  45  72 101 140 189 234 294 367 428
#     4  10  24  49  70 104 147 186 239 298 366 434
#     4  12  25  45  71 103 144 190 239 295 369 429
#     4  11  24  45  74  99 146 190 237 296 370 424
#
# _framework density 23.904799000000001
#
# number of rings (size 3 to 8) (size 9 to 14) (size 15 to 20)
#    0.000    1.000    1.250    6.000    5.250    5.500 
#    2.250    0.000    0.000    0.000    0.000    0.000 
#    0.000    0.000    0.000    0.000    0.000    0.000 
#
# Total GULP energy -89610.758675 kJ/mol
# GULP energy per Si atom -5600.672417 kJ/mol
# Density = 2.385039 g / cm^3
# Si number density = 23.904799 Si / 1000 Ang^3
#
#
#
# Elastic Constant Matrix: (Units=GPa)
#
#
# Indices 1 2 3 4 5 6 
#
# 1 131.3679 3.5247 37.7894 -6.1796 -0.2758 5.4908
# 2 3.5247 80.8864 22.7110 -26.1664 4.8236 6.8731
# 3 37.7894 22.7110 128.4789 -39.9759 7.8772 5.8875
# 4 -6.1796 -26.1664 -39.9759 49.9652 1.2455 -2.4417
# 5 -0.2758 4.8236 7.8772 1.2455 51.4767 -4.2601
# 6 5.4908 6.8731 5.8875 -2.4417 -4.2601 24.7192
#
#
#
# Elastic Compliance Matrix: (Units=1/GPa)
#
#
# Indices 1 2 3 4 5 6 
#
# 1 0.008425 0.000114 -0.002854 -0.001254 0.000396 -0.001279
# 2 0.000114 0.015364 0.000015 0.007933 -0.001952 -0.003854
# 3 -0.002854 0.000015 0.011597 0.008908 -0.002141 -0.001622
# 4 -0.001254 0.007933 0.008908 0.031142 -0.002990 -0.001488
# 5 0.000396 -0.001952 -0.002141 -0.002990 0.020357 0.004178
# 6 -0.001279 -0.003854 -0.001622 -0.001488 0.004178 0.042769
#
#
# Mechanical properties :
#
#
# Convention : Reuss Voigt Hill
#
# Bulk Modulus (GPa) = 33.40481 52.08705 42.74593
# Shear Modulus (GPa) = 34.46271 43.67944 39.07107
#
# Velocity S-wave (km/s) = 3.80105 4.27924 4.04721
# Velocity P-wave (km/s) = 5.76787 6.80092 6.30559
#
# Compressibility (1/GPa) = 0.02993581
#
# Stress axis : x y z
#
# Youngs Moduli (GPa) = 118.68742 65.08809 86.22571
#
# Poissons Ratio (x) = -0.00739 0.24611
# Poissons Ratio (y) = -0.01347 -0.00131
# Poissons Ratio (z) = 0.33876 -0.00099
#
# Static dielectric constant tensor:
#      x y z
#    x 1.893660 0.011240 0.002290 
#    y 0.011240 1.935250 0.007620 
#    z 0.002290 0.007620 1.881570 
# 
# From -- ./inp_files/530150.got.cif
#   From: 2010.05.17/outbox.cif.g08.bks.cpg/sg2_266_cif.got.tgz:530150.got - 2010.06.03 11:33:40.
