data_PCOD9043506
_publ_section_title
;
Structure prediction by ZEFSAII (Michael W. Deem and Ramdas Pophale) SiO2 
 PCOD9043506
Probable space group: P -1
;
_chemical_formula_sum "Si O2"
_cell_formula_units_Z 12
_cell_length_a 6.625820
_cell_length_b 9.801825
_cell_length_c 15.452786
_cell_angle_alpha 51.707845
_cell_angle_beta 114.256654
_cell_angle_gamma 135.755408
_cell_volume 548.573684
_symmetry_space_group_name_H-M "P -1"
_symmetry_group_IT_number 2
_symmetry_cell_setting 'triclinic'
loop_
_space_group_symop_operation_xyz
x,y,z
-x,-y,-z
loop_
_atom_site_type_symbol
_atom_site_label
_atom_site_fract_x
_atom_site_fract_y
_atom_site_fract_z
Si Si1 0.596222 0.347548 0.561245
Si Si2 0.342728 0.431029 0.210085
Si Si3 0.764742 0.365759 0.383159
Si Si4 0.145094 0.762622 0.924647
Si Si5 0.882974 0.112970 0.388414
Si Si6 0.708176 0.939539 0.003877
O O1 0.500000 0.500000 0.500000
O O2 0.658537 0.347263 0.469885
O O3 0.888214 0.444607 0.623516
O O4 0.343608 0.083602 0.641692
O O5 0.585009 0.408165 0.276681
O O6 0.515160 0.693525 0.114374
O O7 0.098745 0.257104 0.164108
O O8 0.144050 0.342347 0.295806
O O9 0.734239 0.162984 0.412044
O O10 0.183979 0.862559 0.986935
O O11 0.486249 0.905283 0.906531
O O12 0.000000 0.500000 0.000000
O O13 0.000000 0.000000 0.500000
O O14 0.000000 0.000000 0.000000
#
# Coordination Sequence:
#
# PCOD9043506 Si02
#       6
#     2   2   2   2   2   2
#     4  11  23  41  63  89 129 181 224 276 326 375
#     4  11  25  39  65 103 132 170 228 271 332 401
#     4  11  24  40  65  93 130 177 233 268 333 386
#     4   9  22  44  70  97 133 167 213 276 338 397
#     4  12  24  43  65  92 137 181 223 281 325 385
#     4  10  23  45  71  98 133 170 215 276 340 400
#
# _framework density 21.874908000000001
#
# number of rings (size 3 to 8) (size 9 to 14) (size 15 to 20)
#    0.000    1.333    3.333    0.500    0.000   13.333 
#    0.000    0.000    0.000    2.000    0.000    0.000 
#    0.000    0.000    0.000    0.000    0.000    0.000 
#
# Total GULP energy -66887.695149 kJ/mol
# GULP energy per Si atom -5573.974596 kJ/mol
# Density = 2.182512 g / cm^3
# Si number density = 21.874908 Si / 1000 Ang^3
#
#
#
# Elastic Constant Matrix: (Units=GPa)
#
#
# Indices 1 2 3 4 5 6 
#
# 1 151.0688 79.4620 51.4403 -6.0690 29.2309 9.7000
# 2 79.4620 175.7174 56.4201 10.0181 21.4320 15.4219
# 3 51.4403 56.4201 90.3368 11.8902 23.6566 12.2991
# 4 -6.0690 10.0181 11.8902 41.6769 22.2316 14.4573
# 5 29.2309 21.4320 23.6566 22.2316 44.0447 1.4208
# 6 9.7000 15.4219 12.2991 14.4573 1.4208 50.5654
#
#
#
# Elastic Compliance Matrix: (Units=1/GPa)
#
#
# Indices 1 2 3 4 5 6 
#
# 1 0.011817 -0.003563 -0.002948 0.009270 -0.009112 -0.002857
# 2 -0.003563 0.008340 -0.003101 -0.001965 0.000982 -0.000572
# 3 -0.002948 -0.003101 0.016328 -0.001170 -0.004650 -0.001995
# 4 0.009270 -0.001965 -0.001170 0.044985 -0.026855 -0.013002
# 5 -0.009112 0.000982 -0.004650 -0.026855 0.044035 0.009020
# 6 -0.002857 -0.000572 -0.001995 -0.013002 0.009020 0.024448
#
#
# Mechanical properties :
#
#
# Convention : Reuss Voigt Hill
#
# Bulk Modulus (GPa) = 57.93468 87.97420 72.95444
# Shear Modulus (GPa) = 28.58253 42.57743 35.57998
#
# Velocity S-wave (km/s) = 3.61866 4.41659 4.03739
# Velocity P-wave (km/s) = 6.63338 8.14326 7.42679
#
# Compressibility (1/GPa) = 0.01726082
#
# Stress axis : x y z
#
# Youngs Moduli (GPa) = 84.62577 119.89856 61.24373
#
# Poissons Ratio (x) = 0.42725 0.18056
# Poissons Ratio (y) = 0.30156 0.18989
# Poissons Ratio (z) = 0.24949 0.37175
#
# Static dielectric constant tensor:
#      x y z
#    x 1.842550 0.038960 -0.011000 
#    y 0.038960 1.832430 0.023500 
#    z -0.011000 0.023500 1.895420 
# 
# From -- ./inp_files/138138.got.cif
#   From: 2010.05.17/outbox.cif.g08.bks.cpg/sg2_70_cif.got.tgz:138138.got - 2010.06.03 11:33:40.
