data_PCOD9043851
_publ_section_title
;
Structure prediction by ZEFSAII (Michael W. Deem and Ramdas Pophale) SiO2 
 PCOD9043851
Probable space group: P -1
;
_chemical_formula_sum "Si O2"
_cell_formula_units_Z 16
_cell_length_a 13.801173
_cell_length_b 10.413955
_cell_length_c 7.712685
_cell_angle_alpha 47.881711
_cell_angle_beta 69.193263
_cell_angle_gamma 50.217235
_cell_volume 626.539934
_symmetry_space_group_name_H-M "P -1"
_symmetry_group_IT_number 2
_symmetry_cell_setting 'triclinic'
loop_
_space_group_symop_operation_xyz
x,y,z
-x,-y,-z
loop_
_atom_site_type_symbol
_atom_site_label
_atom_site_fract_x
_atom_site_fract_y
_atom_site_fract_z
Si Si1 0.102603 0.013882 0.569619
Si Si2 0.628824 0.829715 0.173173
Si Si3 0.102725 0.942144 0.130855
Si Si4 0.370878 0.577025 0.356797
Si Si5 0.637106 0.949447 0.434018
Si Si6 0.635947 0.294960 0.362919
Si Si7 0.883472 0.732983 0.984077
Si Si8 0.907516 0.628765 0.601001
O O1 0.121153 0.131102 0.295978
O O2 0.110175 0.148014 0.595560
O O3 0.965000 0.066291 0.641673
O O4 0.223733 0.769189 0.716666
O O5 0.618646 0.637393 0.408566
O O6 0.642114 0.945541 0.224660
O O7 0.759466 0.731650 0.071298
O O8 0.500000 0.000000 0.000000
O O9 0.238248 0.726282 0.209151
O O10 0.124287 0.120669 0.988445
O O11 0.000000 0.000000 0.000000
O O12 0.495944 0.510355 0.229321
O O13 0.362953 0.697052 0.432299
O O14 0.761218 0.711137 0.616043
O O15 0.500000 0.000000 0.500000
O O16 0.635605 0.116411 0.414314
O O17 0.014849 0.511555 0.153129
O O18 0.000000 0.500000 0.500000
#
# Coordination Sequence:
#
# PCOD9043851 Si02
#       8
#     2   2   2   2   2   2   2   2
#     4  11  24  48  69 105 146 193 249 309 366 458
#     4  12  27  46  78 113 151 199 253 313 385 449
#     4  12  28  45  76 108 151 197 250 310 381 451
#     4  11  24  49  76 108 155 201 247 311 385 450
#     4  11  24  45  74 111 153 194 253 319 365 447
#     4  10  23  45  78 102 149 204 245 312 376 445
#     4  12  25  45  73 108 149 199 254 310 377 451
#     4  11  23  43  74 105 148 194 248 310 376 435
#
# _framework density 25.537078999999999
#
# number of rings (size 3 to 8) (size 9 to 14) (size 15 to 20)
#    0.000    0.750    3.750    3.000    7.000    0.000 
#    0.000    2.500    0.000    0.000    0.000    0.000 
#    0.000    0.000    0.000    0.000    0.000    0.000 
#
# Total GULP energy -89280.546284 kJ/mol
# GULP energy per Si atom -5580.034143 kJ/mol
# Density = 2.547896 g / cm^3
# Si number density = 25.537079 Si / 1000 Ang^3
#
#
#
# Elastic Constant Matrix: (Units=GPa)
#
#
# Indices 1 2 3 4 5 6 
#
# 1 122.5164 49.6189 30.9119 -15.6282 24.7278 -21.5468
# 2 49.6189 165.5125 28.9565 -23.3357 23.7975 -27.4740
# 3 30.9119 28.9565 80.9027 -9.9618 30.9107 -12.7136
# 4 -15.6282 -23.3357 -9.9618 54.1446 -6.1973 16.7822
# 5 24.7278 23.7975 30.9107 -6.1973 50.6988 -5.8858
# 6 -21.5468 -27.4740 -12.7136 16.7822 -5.8858 81.6080
#
#
#
# Elastic Compliance Matrix: (Units=1/GPa)
#
#
# Indices 1 2 3 4 5 6 
#
# 1 0.010366 -0.002022 -0.001871 0.001049 -0.002681 0.001356
# 2 -0.002022 0.007525 -0.000847 0.001895 -0.001640 0.001360
# 3 -0.001871 -0.000847 0.017032 0.000890 -0.008843 0.001054
# 4 0.001049 0.001895 0.000890 0.020770 0.000224 -0.003202
# 5 -0.002681 -0.001640 -0.008843 0.000224 0.027136 -0.000726
# 6 0.001356 0.001360 0.001054 -0.003202 -0.000726 0.013839
#
#
# Mechanical properties :
#
#
# Convention : Reuss Voigt Hill
#
# Bulk Modulus (GPa) = 39.30195 65.32290 52.31243
# Shear Modulus (GPa) = 43.61832 54.58658 49.10245
#
# Velocity S-wave (km/s) = 4.13733 4.62837 4.38972
# Velocity P-wave (km/s) = 6.18440 7.36190 6.79869
#
# Compressibility (1/GPa) = 0.02544403
#
# Stress axis : x y z
#
# Youngs Moduli (GPa) = 96.46521 132.89368 58.71142
#
# Poissons Ratio (x) = 0.26871 0.10983
# Poissons Ratio (y) = 0.19506 0.04974
# Poissons Ratio (z) = 0.18045 0.11258
#
# Static dielectric constant tensor:
#      x y z
#    x 2.189710 0.007980 0.135880 
#    y 0.007980 2.003590 0.123320 
#    z 0.135880 0.123320 2.106620 
# 
# From -- ./inp_files/306486.got.cif
#   From: 2010.05.17/outbox.cif.g08.bks.cpg/sg2_154_cif.got.tgz:306486.got - 2010.06.03 11:33:40.
