data_PCOD9043163
_publ_section_title
;
Structure prediction by ZEFSAII (Michael W. Deem and Ramdas Pophale) SiO2 
 PCOD9043163
Probable space group: P -1
;
_chemical_formula_sum "Si O2"
_cell_formula_units_Z 10
_cell_length_a 10.522438
_cell_length_b 11.077950
_cell_length_c 7.616390
_cell_angle_alpha 46.004431
_cell_angle_beta 66.501209
_cell_angle_gamma 40.864178
_cell_volume 402.482773
_symmetry_space_group_name_H-M "P -1"
_symmetry_group_IT_number 2
_symmetry_cell_setting 'triclinic'
loop_
_space_group_symop_operation_xyz
x,y,z
-x,-y,-z
loop_
_atom_site_type_symbol
_atom_site_label
_atom_site_fract_x
_atom_site_fract_y
_atom_site_fract_z
Si Si1 0.278648 0.544147 0.472724
Si Si2 0.718827 0.256856 0.057270
Si Si3 0.934616 0.390125 0.810708
Si Si4 0.106013 0.217053 0.383529
Si Si5 0.343951 0.986166 0.121882
O O1 0.187757 0.498054 0.418473
O O2 0.506163 0.302121 0.642566
O O3 0.123981 0.649693 0.609561
O O4 0.262564 0.725714 0.179882
O O5 0.774834 0.023360 0.322338
O O6 0.500000 0.500000 0.000000
O O7 0.861059 0.275778 0.043483
O O8 0.886594 0.599383 0.734425
O O9 0.173485 0.155870 0.897381
O O10 0.210187 0.121437 0.234457
O O11 0.500000 0.000000 0.000000
#
# Coordination Sequence:
#
# PCOD9043163 Si02
#       5
#     2   2   2   2   2
#     4  10  24  46  68 101 137 176 226 279 330 405
#     4  10  23  45  69 102 136 174 229 276 331 405
#     4  10  25  44  69 101 138 176 224 278 335 398
#     4  12  22  46  73  94 141 181 217 284 338 390
#     4  12  25  43  70 104 136 175 232 277 328 410
#
# _framework density 24.845782
#
# number of rings (size 3 to 8) (size 9 to 14) (size 15 to 20)
#    1.200    0.000    4.000    1.800    0.000    4.000 
#    0.000    1.000    0.000    0.000    0.000    0.000 
#    0.000    0.000    0.000    0.000    0.000    0.000 
#
# Total GULP energy -55883.300166 kJ/mol
# GULP energy per Si atom -5588.330017 kJ/mol
# Density = 2.478923 g / cm^3
# Si number density = 24.845782 Si / 1000 Ang^3
#
#
#
# Elastic Constant Matrix: (Units=GPa)
#
#
# Indices 1 2 3 4 5 6 
#
# 1 110.6956 48.7283 45.2338 -16.2677 9.1464 -15.9136
# 2 48.7283 152.3722 46.2621 -1.2088 -6.5732 -10.6676
# 3 45.2338 46.2621 156.4274 -24.7522 -17.1517 18.1100
# 4 -16.2677 -1.2088 -24.7522 64.1929 -6.6272 0.3971
# 5 9.1464 -6.5732 -17.1517 -6.6272 34.0122 -3.7011
# 6 -15.9136 -10.6676 18.1100 0.3971 -3.7011 35.0311
#
#
#
# Elastic Compliance Matrix: (Units=1/GPa)
#
#
# Indices 1 2 3 4 5 6 
#
# 1 0.013662 -0.002779 -0.004359 0.001125 -0.005425 0.007028
# 2 -0.002779 0.008266 -0.001955 -0.001173 0.001394 0.002426
# 3 -0.004359 -0.001955 0.010267 0.003467 0.005853 -0.007304
# 4 0.001125 -0.001173 0.003467 0.017652 0.004510 -0.001362
# 5 -0.005425 0.001394 0.005853 0.004510 0.034803 -0.001440
# 6 0.007028 0.002426 -0.007304 -0.001362 -0.001440 0.036117
#
#
# Mechanical properties :
#
#
# Convention : Reuss Voigt Hill
#
# Bulk Modulus (GPa) = 71.37748 77.77150 74.57449
# Shear Modulus (GPa) = 34.81346 45.26530 40.03938
#
# Velocity S-wave (km/s) = 3.74730 4.27294 4.01872
# Velocity P-wave (km/s) = 6.89301 7.46416 7.18426
#
# Compressibility (1/GPa) = 0.01401002
#
# Stress axis : x y z
#
# Youngs Moduli (GPa) = 73.19380 120.98320 97.39624
#
# Poissons Ratio (x) = 0.33618 0.42458
# Poissons Ratio (y) = 0.20339 0.19037
# Poissons Ratio (z) = 0.31908 0.23647
#
# Static dielectric constant tensor:
#      x y z
#    x 2.022310 0.042990 0.016030 
#    y 0.042990 1.950850 0.032790 
#    z 0.016030 0.032790 2.058190 
# 
# From -- ./inp_files/162670.got.cif
#   From: 2010.05.17/outbox.cif.g08.bks.cpg/sg2_82_cif.got.tgz:162670.got - 2010.06.03 11:33:40.
