data_PCOD9043896
_publ_section_title
;
Structure prediction by ZEFSAII (Michael W. Deem and Ramdas Pophale) SiO2 
 PCOD9043896
Probable space group: P -1
;
_chemical_formula_sum "Si O2"
_cell_formula_units_Z 16
_cell_length_a 13.081096
_cell_length_b 14.066119
_cell_length_c 8.401416
_cell_angle_alpha 44.585856
_cell_angle_beta 107.590684
_cell_angle_gamma 138.142025
_cell_volume 632.345429
_symmetry_space_group_name_H-M "P -1"
_symmetry_group_IT_number 2
_symmetry_cell_setting 'triclinic'
loop_
_space_group_symop_operation_xyz
x,y,z
-x,-y,-z
loop_
_atom_site_type_symbol
_atom_site_label
_atom_site_fract_x
_atom_site_fract_y
_atom_site_fract_z
Si Si1 0.859850 0.580562 0.072317
Si Si2 0.121544 0.085496 0.250320
Si Si3 0.247352 0.214130 0.501748
Si Si4 0.137545 0.670270 0.230805
Si Si5 0.817283 0.389177 0.988642
Si Si6 0.490765 0.852707 0.476330
Si Si7 0.573371 0.846689 0.170444
Si Si8 0.551998 0.720039 0.967679
O O1 0.048795 0.707966 0.049712
O O2 0.715300 0.329645 0.370475
O O3 0.840445 0.713438 0.967023
O O4 0.819699 0.525337 0.932766
O O5 0.162831 0.074046 0.463484
O O6 0.249456 0.139036 0.123908
O O7 0.912961 0.867329 0.392336
O O8 0.314161 0.173550 0.709082
O O9 0.416730 0.461198 0.220421
O O10 0.000000 0.500000 0.500000
O O11 0.164768 0.576691 0.231950
O O12 0.317964 0.907405 0.094779
O O13 0.000000 0.500000 0.000000
O O14 0.644377 0.119560 0.246379
O O15 0.488516 0.788363 0.373961
O O16 0.530564 0.787212 0.717331
O O17 0.508543 0.752626 0.073994
#
# Coordination Sequence:
#
# PCOD9043896 Si02
#       8
#     2   2   2   2   2   2   2   2
#     4  11  21  43  70  98 130 181 225 280 348 406
#     4  11  23  41  71 100 140 184 228 282 342 407
#     4  11  22  43  64 100 137 178 234 277 333 412
#     4  10  23  46  65  96 138 173 225 291 344 402
#     4   9  22  40  70  93 126 175 227 276 343 407
#     4  11  23  45  69  99 139 176 227 289 337 410
#     4  11  24  44  67  97 138 180 226 286 340 404
#     4  12  25  43  72 100 142 190 225 276 356 402
#
# _framework density 25.302627000000001
#
# number of rings (size 3 to 8) (size 9 to 14) (size 15 to 20)
#    0.000    1.250    3.750    1.875    3.500    0.500 
#    4.500    1.250    0.000    0.000    0.000    0.000 
#    0.000    0.000    0.000    0.000    0.000    0.000 
#
# Total GULP energy -89370.788916 kJ/mol
# GULP energy per Si atom -5585.674307 kJ/mol
# Density = 2.524504 g / cm^3
# Si number density = 25.302627 Si / 1000 Ang^3
#
#
#
# Elastic Constant Matrix: (Units=GPa)
#
#
# Indices 1 2 3 4 5 6 
#
# 1 85.1626 16.6542 22.4869 5.4957 -5.6363 4.9141
# 2 16.6542 78.9674 27.1915 15.5281 3.9722 -8.7107
# 3 22.4869 27.1915 133.8404 4.7700 -4.7616 -6.5733
# 4 5.4957 15.5281 4.7700 41.8521 10.7739 -10.4523
# 5 -5.6363 3.9722 -4.7616 10.7739 36.3712 4.6849
# 6 4.9141 -8.7107 -6.5733 -10.4523 4.6849 38.1815
#
#
#
# Elastic Compliance Matrix: (Units=1/GPa)
#
#
# Indices 1 2 3 4 5 6 
#
# 1 0.013223 -0.002273 -0.001734 -0.002427 0.003251 -0.003582
# 2 -0.002273 0.015132 -0.002481 -0.004071 -0.001430 0.002379
# 3 -0.001734 -0.002481 0.008342 0.000229 0.000892 0.001047
# 4 -0.002427 -0.004071 0.000229 0.030556 -0.010116 0.009029
# 5 0.003251 -0.001430 0.000892 -0.010116 0.032209 -0.007312
# 6 -0.003582 0.002379 0.001047 0.009029 -0.007312 0.030744
#
#
# Mechanical properties :
#
#
# Convention : Reuss Voigt Hill
#
# Bulk Modulus (GPa) = 42.15727 47.84839 45.00283
# Shear Modulus (GPa) = 33.09314 38.72347 35.90831
#
# Velocity S-wave (km/s) = 3.62040 3.91629 3.77125
# Velocity P-wave (km/s) = 5.84584 6.27705 6.06528
#
# Compressibility (1/GPa) = 0.02372070
#
# Stress axis : x y z
#
# Youngs Moduli (GPa) = 75.62593 66.08457 119.87649
#
# Poissons Ratio (x) = 0.15023 0.20782
# Poissons Ratio (y) = 0.17192 0.29745
# Poissons Ratio (z) = 0.13110 0.16398
#
# Static dielectric constant tensor:
#      x y z
#    x 2.089490 0.045520 0.014030 
#    y 0.045520 2.086280 0.042850 
#    z 0.014030 0.042850 2.011320 
# 
# From -- ./inp_files/314670.got.cif
#   From: 2010.05.17/outbox.cif.g08.bks.cpg/sg2_158_cif.got.tgz:314670.got - 2010.06.03 11:33:40.
