data_PCOD9043520
_publ_section_title
;
Structure prediction by ZEFSAII (Michael W. Deem and Ramdas Pophale) SiO2 
 PCOD9043520
Probable space group: P -1
;
_chemical_formula_sum "Si O2"
_cell_formula_units_Z 16
_cell_length_a 8.827258
_cell_length_b 14.443033
_cell_length_c 14.519314
_cell_angle_alpha 149.659355
_cell_angle_beta 80.281300
_cell_angle_gamma 82.655802
_cell_volume 770.115528
_symmetry_space_group_name_H-M "P -1"
_symmetry_group_IT_number 2
_symmetry_cell_setting 'triclinic'
loop_
_space_group_symop_operation_xyz
x,y,z
-x,-y,-z
loop_
_atom_site_type_symbol
_atom_site_label
_atom_site_fract_x
_atom_site_fract_y
_atom_site_fract_z
Si Si1 0.173739 0.779642 0.247605
Si Si2 0.629878 0.464485 0.542447
Si Si3 0.914112 0.301213 0.015531
Si Si4 0.564317 0.586537 0.964569
Si Si5 0.021510 0.053866 0.148516
Si Si6 0.523097 0.644370 0.375938
Si Si7 0.696103 0.862498 0.099745
Si Si8 0.288461 0.175389 0.151710
O O1 0.103283 0.759678 0.138463
O O2 0.257765 0.562891 0.117160
O O3 0.371238 0.749197 0.177635
O O4 0.000000 0.000000 0.500000
O O5 0.500000 0.500000 0.500000
O O6 0.502129 0.504415 0.676106
O O7 0.720593 0.603062 0.639629
O O8 0.810707 0.229802 0.345525
O O9 0.107019 0.269528 0.985221
O O10 0.906633 0.138851 0.950536
O O11 0.738708 0.543384 0.259427
O O12 0.542422 0.409920 0.758184
O O13 0.597029 0.736235 0.023001
O O14 0.154973 0.141695 0.199696
O O15 0.000000 0.000000 0.000000
O O16 0.417935 0.892316 0.635911
O O17 0.734426 0.853946 0.979258
O O18 0.500000 0.000000 0.000000
#
# Coordination Sequence:
#
# PCOD9043520 Si02
#       8
#     2   2   2   2   2   2   2   2
#     4  10  23  45  72 100 137 181 223 286 353 404
#     4  12  24  42  65  95 139 187 227 289 342 404
#     4  11  24  42  69 100 138 178 229 284 342 413
#     4  10  24  45  70 101 136 174 234 283 337 419
#     4  12  23  42  66  99 140 181 232 281 338 418
#     4  11  22  44  67  96 138 182 220 281 349 393
#     4  12  24  44  70 101 138 179 229 285 340 413
#     4  12  25  41  62 100 138 183 236 277 344 417
#
# _framework density 20.776102999999999
#
# number of rings (size 3 to 8) (size 9 to 14) (size 15 to 20)
#    0.000    0.750    3.750    4.125    1.750    1.500 
#    2.250    8.750    0.000    0.000    0.000    0.000 
#    0.000    0.000    0.000    0.000    0.000    0.000 
#
# Total GULP energy -89257.179932 kJ/mol
# GULP energy per Si atom -5578.573746 kJ/mol
# Density = 2.072882 g / cm^3
# Si number density = 20.776103 Si / 1000 Ang^3
#
#
#
# Elastic Constant Matrix: (Units=GPa)
#
#
# Indices 1 2 3 4 5 6 
#
# 1 96.7537 18.2107 54.5516 3.8722 -9.5895 -13.4325
# 2 18.2107 77.8160 10.5433 -7.3088 1.5401 -19.7163
# 3 54.5516 10.5433 84.1324 -2.3950 -15.8611 -3.6813
# 4 3.8722 -7.3088 -2.3950 25.4547 1.7438 0.8587
# 5 -9.5895 1.5401 -15.8611 1.7438 40.8582 4.7567
# 6 -13.4325 -19.7163 -3.6813 0.8587 4.7567 41.3573
#
#
#
# Elastic Compliance Matrix: (Units=1/GPa)
#
#
# Indices 1 2 3 4 5 6 
#
# 1 0.017776 -0.002043 -0.011301 -0.004459 -0.000406 0.003933
# 2 -0.002043 0.015651 -0.000639 0.004671 -0.002321 0.006911
# 3 -0.011301 -0.000639 0.020285 0.003168 0.005444 -0.002862
# 4 -0.004459 0.004671 0.003168 0.041714 -0.001820 0.000404
# 5 -0.000406 -0.002321 0.005444 -0.001820 0.027105 -0.003833
# 6 0.003933 0.006911 -0.002862 0.000404 -0.003833 0.028929
#
#
# Mechanical properties :
#
#
# Convention : Reuss Voigt Hill
#
# Bulk Modulus (GPa) = 38.84124 47.25704 43.04914
# Shear Modulus (GPa) = 26.59437 33.22715 29.91076
#
# Velocity S-wave (km/s) = 3.58165 4.00346 3.79842
# Velocity P-wave (km/s) = 5.98666 6.64571 6.32477
#
# Compressibility (1/GPa) = 0.02574583
#
# Stress axis : x y z
#
# Youngs Moduli (GPa) = 56.25458 63.89297 49.29668
#
# Poissons Ratio (x) = 0.13054 0.55713
# Poissons Ratio (y) = 0.11494 0.03149
# Poissons Ratio (z) = 0.63576 0.04082
#
# Static dielectric constant tensor:
#      x y z
#    x 1.754870 0.015110 0.028590 
#    y 0.015110 1.914300 0.134380 
#    z 0.028590 0.134380 1.774460 
# 
# From -- ./inp_files/505790.got.cif
#   From: 2010.05.17/outbox.cif.g08.bks.cpg/sg2_253_cif.got.tgz:505790.got - 2010.06.03 11:33:40.
