data_PCOD9043453
_publ_section_title
;
Structure prediction by ZEFSAII (Michael W. Deem and Ramdas Pophale) SiO2 
 PCOD9043453
Probable space group: P -1
;
_chemical_formula_sum "Si O2"
_cell_formula_units_Z 14
_cell_length_a 12.357235
_cell_length_b 28.662816
_cell_length_c 12.184608
_cell_angle_alpha 159.438691
_cell_angle_beta 26.046824
_cell_angle_gamma 154.860315
_cell_volume 605.398556
_symmetry_space_group_name_H-M "P -1"
_symmetry_group_IT_number 2
_symmetry_cell_setting 'triclinic'
loop_
_space_group_symop_operation_xyz
x,y,z
-x,-y,-z
loop_
_atom_site_type_symbol
_atom_site_label
_atom_site_fract_x
_atom_site_fract_y
_atom_site_fract_z
Si Si1 0.721762 0.320897 0.150841
Si Si2 0.703967 0.968239 0.160736
Si Si3 0.448773 0.637790 0.383761
Si Si4 0.293649 0.578682 0.853011
Si Si5 0.269144 0.830857 0.830410
Si Si6 0.442476 0.850847 0.473182
Si Si7 0.029441 0.866166 0.347883
O O1 0.704302 0.410271 0.467807
O O2 0.792853 0.402805 0.152128
O O3 0.869492 0.226060 0.862014
O O4 0.428340 0.199784 0.119658
O O5 0.706259 0.062058 0.260522
O O6 0.500000 0.000000 0.500000
O O7 0.000000 0.000000 0.000000
O O8 0.302450 0.691439 0.544098
O O9 0.712296 0.792664 0.499439
O O10 0.500000 0.500000 0.000000
O O11 0.500000 0.500000 0.500000
O O12 0.432749 0.727011 0.124607
O O13 0.000000 0.500000 0.000000
O O14 0.278734 0.802301 0.629249
O O15 0.053158 0.838028 0.133349
O O16 0.500000 0.000000 0.000000
O O17 0.756689 0.966669 0.461212
#
# Coordination Sequence:
#
# PCOD9043453 Si02
#       7
#     2   2   2   2   2   2   2
#     4  10  25  44  68  97 139 183 237 290 356 433
#     4  11  24  43  74 107 137 185 240 294 351 426
#     4  11  25  41  73 103 137 186 239 299 360 427
#     4  12  30  47  67 106 145 192 235 293 364 428
#     4   9  21  45  63 104 140 178 242 288 368 417
#     4  10  23  45  71 104 141 189 236 301 358 430
#     4   9  22  45  72 100 133 185 239 297 353 433
#
# _framework density 23.125261999999999
#
# number of rings (size 3 to 8) (size 9 to 14) (size 15 to 20)
#    0.000    1.714    1.429    0.857   10.000    5.714 
#   10.286    0.000    0.000    0.000    0.000    0.000 
#    0.000    0.000    0.000    0.000    0.000    0.000 
#
# Total GULP energy -78014.004632 kJ/mol
# GULP energy per Si atom -5572.428902 kJ/mol
# Density = 2.307263 g / cm^3
# Si number density = 23.125262 Si / 1000 Ang^3
#
#
#
# Elastic Constant Matrix: (Units=GPa)
#
#
# Indices 1 2 3 4 5 6 
#
# 1 128.4513 69.5914 27.0621 -9.5991 11.9859 -55.5580
# 2 69.5914 112.5416 37.6067 -12.4692 -4.0886 -31.5325
# 3 27.0621 37.6067 86.9722 17.7509 6.4915 -24.2438
# 4 -9.5991 -12.4692 17.7509 23.0074 3.0401 8.9113
# 5 11.9859 -4.0886 6.4915 3.0401 14.8603 -14.7871
# 6 -55.5580 -31.5325 -24.2438 8.9113 -14.7871 60.5752
#
#
#
# Elastic Compliance Matrix: (Units=1/GPa)
#
#
# Indices 1 2 3 4 5 6 
#
# 1 0.017287 -0.009036 0.002887 -0.003638 -0.005504 0.011499
# 2 -0.009036 0.019245 -0.009050 0.011919 0.013831 -0.000268
# 3 0.002887 -0.009050 0.022830 -0.025937 0.001784 0.011325
# 4 -0.003638 0.011919 -0.025937 0.081525 -0.024494 -0.025486
# 5 -0.005504 0.013831 0.001784 -0.024494 0.113866 0.034265
# 6 0.011499 -0.000268 0.011325 -0.025486 0.034265 0.043562
#
#
# Mechanical properties :
#
#
# Convention : Reuss Voigt Hill
#
# Bulk Modulus (GPa) = 34.52440 66.27616 50.40028
# Shear Modulus (GPa) = 14.77687 32.60224 23.68955
#
# Velocity S-wave (km/s) = 2.53057 3.75882 3.20410
# Velocity P-wave (km/s) = 4.84769 6.89639 5.96071
#
# Compressibility (1/GPa) = 0.02896502
#
# Stress axis : x y z
#
# Youngs Moduli (GPa) = 57.84541 51.96234 43.80175
#
# Poissons Ratio (x) = 0.46951 -0.12644
# Poissons Ratio (y) = 0.52267 0.39639
# Poissons Ratio (z) = -0.16698 0.47024
#
# Static dielectric constant tensor:
#      x y z
#    x 2.261380 -0.156760 -0.124250 
#    y -0.156760 2.019450 0.003930 
#    z -0.124250 0.003930 1.970650 
# 
# From -- ./inp_files/409742.got.cif
#   From: 2010.05.17/outbox.cif.g08.bks.cpg/sg2_205_cif.got.tgz:409742.got - 2010.06.03 11:33:40.
