data_PCOD9043710
_publ_section_title
;
Structure prediction by ZEFSAII (Michael W. Deem and Ramdas Pophale) SiO2 
 PCOD9043710
Probable space group: P -1
;
_chemical_formula_sum "Si O2"
_cell_formula_units_Z 14
_cell_length_a 11.100640
_cell_length_b 20.191353
_cell_length_c 12.826612
_cell_angle_alpha 147.198692
_cell_angle_beta 21.951666
_cell_angle_gamma 149.175261
_cell_volume 535.922539
_symmetry_space_group_name_H-M "P -1"
_symmetry_group_IT_number 2
_symmetry_cell_setting 'triclinic'
loop_
_space_group_symop_operation_xyz
x,y,z
-x,-y,-z
loop_
_atom_site_type_symbol
_atom_site_label
_atom_site_fract_x
_atom_site_fract_y
_atom_site_fract_z
Si Si1 0.296830 0.149486 0.450009
Si Si2 0.725465 0.390060 0.793740
Si Si3 0.620749 0.618014 0.644106
Si Si4 0.271054 0.947138 0.900714
Si Si5 0.129312 0.773518 0.277254
Si Si6 0.421602 0.589430 0.291870
Si Si7 0.511546 0.890747 0.424062
O O1 0.624482 0.107188 0.148648
O O2 0.428482 0.269132 0.586135
O O3 0.166306 0.219060 0.555531
O O4 0.000000 0.000000 0.500000
O O5 0.517641 0.376563 0.833437
O O6 0.541127 0.238259 0.773507
O O7 0.137157 0.417954 0.512058
O O8 0.641603 0.511147 0.063321
O O9 0.500000 0.500000 0.500000
O O10 0.908871 0.743636 0.520573
O O11 0.298944 0.660855 0.986763
O O12 0.259788 0.864556 0.692591
O O13 0.546317 0.090329 0.831178
O O14 0.902973 0.947364 0.225335
O O15 0.000000 0.500000 0.500000
O O16 0.500000 0.000000 0.500000
#
# Coordination Sequence:
#
# PCOD9043710 Si02
#       7
#     2   2   2   2   2   2   2
#     4  10  23  45  74 104 145 188 248 301 360 435
#     4  11  26  42  71 104 144 189 241 302 362 440
#     4  12  27  46  69 100 140 188 243 292 367 433
#     4  11  23  43  67 103 137 182 235 289 358 422
#     4  11  25  45  71 101 139 188 238 298 360 426
#     4  11  24  45  72 105 143 190 246 298 369 429
#     4  12  24  42  69 104 146 185 234 293 361 431
#
# _framework density 26.123176999999998
#
# number of rings (size 3 to 8) (size 9 to 14) (size 15 to 20)
#    0.000    0.857    1.429    5.143    4.000    1.143 
#    0.000    4.286    0.000    0.000    0.000    0.000 
#    0.000    0.000    0.000    0.000    0.000    0.000 
#
# Total GULP energy -77972.661310 kJ/mol
# GULP energy per Si atom -5569.475808 kJ/mol
# Density = 2.606372 g / cm^3
# Si number density = 26.123177 Si / 1000 Ang^3
#
#
#
# Elastic Constant Matrix: (Units=GPa)
#
#
# Indices 1 2 3 4 5 6 
#
# 1 101.6823 14.2220 53.9298 6.5389 -44.5274 -1.3355
# 2 14.2220 105.8961 28.9143 25.4199 -10.1899 9.2608
# 3 53.9298 28.9143 161.7100 10.6867 -47.7144 -21.5565
# 4 6.5389 25.4199 10.6867 44.9570 -12.2559 -2.1794
# 5 -44.5274 -10.1899 -47.7144 -12.2559 59.2535 5.8208
# 6 -1.3355 9.2608 -21.5565 -2.1794 5.8208 32.8637
#
#
#
# Elastic Compliance Matrix: (Units=1/GPa)
#
#
# Indices 1 2 3 4 5 6 
#
# 1 0.015549 -0.000491 -0.002562 0.001238 0.010049 -0.002608
# 2 -0.000491 0.012231 -0.002683 -0.006826 -0.001302 -0.005448
# 3 -0.002562 -0.002683 0.009783 0.001268 0.005140 0.006243
# 4 0.001238 -0.006826 0.001268 0.027459 0.006109 0.003545
# 5 0.010049 -0.001302 0.005140 0.006109 0.029676 -0.000704
# 6 -0.002608 -0.005448 0.006243 0.003545 -0.000704 0.036313
#
#
# Mechanical properties :
#
#
# Convention : Reuss Voigt Hill
#
# Bulk Modulus (GPa) = 38.32592 62.60228 50.46410
# Shear Modulus (GPa) = 33.07319 45.56298 39.31809
#
# Velocity S-wave (km/s) = 3.56202 4.18084 3.88378
# Velocity P-wave (km/s) = 5.62320 6.87912 6.28262
#
# Compressibility (1/GPa) = 0.02609200
#
# Stress axis : x y z
#
# Youngs Moduli (GPa) = 64.31343 81.75704 102.21697
#
# Poissons Ratio (x) = 0.04012 0.26189
# Poissons Ratio (y) = 0.03156 0.27423
# Poissons Ratio (z) = 0.16478 0.21934
#
# Static dielectric constant tensor:
#      x y z
#    x 2.444350 -0.057960 0.001730 
#    y -0.057960 2.343060 0.249380 
#    z 0.001730 0.249380 2.378840 
# 
# From -- ./inp_files/370582.got.cif
#   From: 2010.05.17/outbox.cif.g08.bks.cpg/sg2_186_cif.got.tgz:370582.got - 2010.06.03 11:33:40.
