data_PCOD9043726
_publ_section_title
;
Structure prediction by ZEFSAII (Michael W. Deem and Ramdas Pophale) SiO2 
 PCOD9043726
Probable space group: P -1
;
_chemical_formula_sum "Si O2"
_cell_formula_units_Z 12
_cell_length_a 14.662218
_cell_length_b 7.778377
_cell_length_c 5.032243
_cell_angle_alpha 63.860204
_cell_angle_beta 61.047617
_cell_angle_gamma 57.965904
_cell_volume 412.449321
_symmetry_space_group_name_H-M "P -1"
_symmetry_group_IT_number 2
_symmetry_cell_setting 'triclinic'
loop_
_space_group_symop_operation_xyz
x,y,z
-x,-y,-z
loop_
_atom_site_type_symbol
_atom_site_label
_atom_site_fract_x
_atom_site_fract_y
_atom_site_fract_z
Si Si1 0.848560 0.125199 0.813159
Si Si2 0.948074 0.252772 0.078006
Si Si3 0.219348 0.314113 0.878875
Si Si4 0.618323 0.486097 0.219754
Si Si5 0.296640 0.917937 0.332913
Si Si6 0.408092 0.137595 0.323981
O O1 0.917712 0.894175 0.002411
O O2 0.899460 0.136193 0.439826
O O3 0.718314 0.196418 0.837003
O O4 0.893646 0.258229 0.858369
O O5 0.896785 0.485375 0.103352
O O6 0.310495 0.402726 0.801462
O O7 0.284353 0.203156 0.597112
O O8 0.208036 0.149147 0.214881
O O9 0.500000 0.500000 0.500000
O O10 0.698231 0.239694 0.332676
O O11 0.585908 0.641779 0.905774
O O12 0.401941 0.981756 0.203981
O O13 0.500000 0.000000 0.500000
#
# Coordination Sequence:
#
# PCOD9043726 Si02
#       6
#     2   2   2   2   2   2
#     4  10  23  45  74 107 145 196 242 303 367 437
#     4  10  23  45  74 106 148 191 247 301 366 437
#     4  11  25  41  69 105 144 188 244 302 357 438
#     4  11  24  44  68  98 140 194 241 304 364 431
#     4  11  25  41  70 104 143 192 242 298 365 437
#     4  11  26  46  69 107 151 189 247 303 363 440
#
# _framework density 29.094480999999998
#
# number of rings (size 3 to 8) (size 9 to 14) (size 15 to 20)
#    0.000    1.333    1.667    2.000    7.000    7.333 
#    0.000    0.833    0.000    3.000    0.000    0.000 
#    0.000    0.000    0.000    0.000    0.000    0.000 
#
# Total GULP energy -66932.813130 kJ/mol
# GULP energy per Si atom -5577.734427 kJ/mol
# Density = 2.902826 g / cm^3
# Si number density = 29.094481 Si / 1000 Ang^3
#
#
#
# Elastic Constant Matrix: (Units=GPa)
#
#
# Indices 1 2 3 4 5 6 
#
# 1 198.5626 18.0907 61.3471 2.1923 21.2208 1.9056
# 2 18.0907 137.7390 68.2554 -53.0528 7.2024 -23.4742
# 3 61.3471 68.2554 223.3512 -50.1298 15.3331 18.0011
# 4 2.1923 -53.0528 -50.1298 71.1379 12.5909 6.4244
# 5 21.2208 7.2024 15.3331 12.5909 55.4281 -0.0880
# 6 1.9056 -23.4742 18.0011 6.4244 -0.0880 32.5557
#
#
#
# Elastic Compliance Matrix: (Units=1/GPa)
#
#
# Indices 1 2 3 4 5 6 
#
# 1 0.005769 -0.000207 -0.001818 -0.001447 -0.001349 0.000800
# 2 -0.000207 0.013487 -0.003007 0.007498 -0.002529 0.009913
# 3 -0.001818 -0.003007 0.007510 0.004082 -0.001929 -0.007025
# 4 -0.001447 0.007498 0.004082 0.023944 -0.006991 -0.001510
# 5 -0.001349 -0.002529 -0.001929 -0.006991 0.021009 0.000759
# 6 0.000800 0.009913 -0.007025 -0.001510 0.000759 0.042002
#
#
# Mechanical properties :
#
#
# Convention : Reuss Voigt Hill
#
# Bulk Modulus (GPa) = 59.87342 95.00437 77.43889
# Shear Modulus (GPa) = 38.65363 59.28831 48.97097
#
# Velocity S-wave (km/s) = 3.64889 4.51908 4.10710
# Velocity P-wave (km/s) = 6.19485 7.74300 7.01178
#
# Compressibility (1/GPa) = 0.01670190
#
# Stress axis : x y z
#
# Youngs Moduli (GPa) = 173.33455 74.14411 133.15085
#
# Poissons Ratio (x) = 0.01538 0.24205
# Poissons Ratio (y) = 0.03595 0.40041
# Poissons Ratio (z) = 0.31509 0.22297
#
# Static dielectric constant tensor:
#      x y z
#    x 2.527170 -0.125420 -0.183230 
#    y -0.125420 2.536210 0.200760 
#    z -0.183230 0.200760 2.313540 
# 
# From -- ./inp_files/106051.got.cif
#   From: 2010.05.17/outbox.cif.g08.bks.cpg/sg2_54_cif.got.tgz:106051.got - 2010.06.03 11:33:40.
