data_PCOD9043095
_publ_section_title
;
Structure prediction by ZEFSAII (Michael W. Deem and Ramdas Pophale) SiO2 
 PCOD9043095
Probable space group: P -1
;
_chemical_formula_sum "Si O2"
_cell_formula_units_Z 15
_cell_length_a 15.452261
_cell_length_b 11.219344
_cell_length_c 9.077375
_cell_angle_alpha 98.029860
_cell_angle_beta 62.395911
_cell_angle_gamma 45.425253
_cell_volume 672.009008
_symmetry_space_group_name_H-M "P -1"
_symmetry_group_IT_number 2
_symmetry_cell_setting 'triclinic'
loop_
_space_group_symop_operation_xyz
x,y,z
-x,-y,-z
loop_
_atom_site_type_symbol
_atom_site_label
_atom_site_fract_x
_atom_site_fract_y
_atom_site_fract_z
Si Si1 0.906690 0.618090 0.759501
Si Si2 0.382535 0.843965 0.973198
Si Si3 0.403461 0.985579 0.501693
Si Si4 0.096603 0.927613 0.256789
Si Si5 0.303906 0.642382 0.532175
Si Si6 0.444792 0.163956 0.956079
Si Si7 0.000000 0.500000 0.000000
Si Si8 0.395765 0.480316 0.751257
O O1 0.000000 0.500000 0.500000
O O2 0.760921 0.891146 0.911667
O O3 0.773076 0.641087 0.894590
O O4 0.025029 0.504274 0.800141
O O5 0.527079 0.740881 0.968040
O O6 0.241184 0.887569 0.143439
O O7 0.530854 0.633967 0.695495
O O8 0.405819 0.998759 0.326404
O O9 0.548231 0.715926 0.361704
O O10 0.500000 0.000000 0.500000
O O11 0.189438 0.203280 0.784055
O O12 0.910978 0.150197 0.331923
O O13 0.000000 0.000000 0.500000
O O14 0.237226 0.670199 0.038270
O O15 0.299084 0.646329 0.712509
O O16 0.399664 0.665455 0.405698
O O17 0.500000 0.000000 0.000000
#
# Coordination Sequence:
#
# PCOD9043095 Si02
#       8
#     2   2   2   2   2   2   1   2
#     4  11  24  44  70 106 146 190 244 291 360 436
#     4  10  24  43  72  98 139 189 232 294 357 417
#     4  12  26  44  69 104 146 183 236 288 354 427
#     4  11  26  44  72 107 134 178 241 292 357 424
#     4  10  23  46  73  95 138 181 237 292 353 416
#     4  10  23  45  68  95 147 187 230 294 356 422
#     4  12  24  44  68 106 142 188 238 288 350 432
#     4  10  25  46  70 101 138 185 230 295 353 417
#
# _framework density 22.321131999999999
#
# number of rings (size 3 to 8) (size 9 to 14) (size 15 to 20)
#    0.000    1.333    1.333    2.800    7.467    3.200 
#    0.000    0.000    0.000    0.000    0.000    0.000 
#    0.000    0.000    0.000    0.000    0.000    0.000 
#
# Total GULP energy -83535.791997 kJ/mol
# GULP energy per Si atom -5569.052800 kJ/mol
# Density = 2.227033 g / cm^3
# Si number density = 22.321132 Si / 1000 Ang^3
#
#
#
# Elastic Constant Matrix: (Units=GPa)
#
#
# Indices 1 2 3 4 5 6 
#
# 1 81.4688 5.8199 23.8376 7.0607 11.2334 21.6857
# 2 5.8199 67.3211 28.8883 1.1150 7.3972 7.9678
# 3 23.8376 28.8883 151.2021 -12.9450 12.3167 12.9968
# 4 7.0607 1.1150 -12.9450 38.7489 -1.4132 15.3861
# 5 11.2334 7.3972 12.3167 -1.4132 31.7577 1.0984
# 6 21.6857 7.9678 12.9968 15.3861 1.0984 16.5841
#
#
#
# Elastic Compliance Matrix: (Units=1/GPa)
#
#
# Indices 1 2 3 4 5 6 
#
# 1 0.023858 0.003447 0.001444 0.014339 -0.007546 -0.046788
# 2 0.003447 0.017507 -0.001968 0.003937 -0.003848 -0.014774
# 3 0.001444 -0.001968 0.009222 0.009426 -0.002631 -0.016741
# 4 0.014339 0.003937 0.009426 0.058733 -0.004187 -0.082241
# 5 -0.007546 -0.003848 -0.002631 -0.004187 0.035358 0.015320
# 6 -0.046788 -0.014774 -0.016741 -0.082241 0.015320 0.216983
#
#
# Mechanical properties :
#
#
# Convention : Reuss Voigt Hill
#
# Bulk Modulus (GPa) = 17.71994 46.34261 32.03127
# Shear Modulus (GPa) = 13.34669 33.51456 23.43063
#
# Velocity S-wave (km/s) = 2.44793 3.87909 3.24343
# Velocity P-wave (km/s) = 3.99321 6.39296 5.32990
#
# Compressibility (1/GPa) = 0.05643359
#
# Stress axis : x y z
#
# Youngs Moduli (GPa) = 41.91489 57.12081 108.43358
#
# Poissons Ratio (x) = -0.19690 -0.15660
# Poissons Ratio (y) = -0.14448 0.21338
# Poissons Ratio (z) = -0.06053 0.11241
#
# Static dielectric constant tensor:
#      x y z
#    x 1.882730 -0.057010 -0.016330 
#    y -0.057010 1.900570 0.024800 
#    z -0.016330 0.024800 1.858530 
# 
# From -- ./inp_files/305531.got.cif
#   From: 2010.05.17/outbox.cif.g08.bks.cpg/sg2_153_cif.got.tgz:305531.got - 2010.06.03 11:33:40.
