data_PCOD9043631
_publ_section_title
;
Structure prediction by ZEFSAII (Michael W. Deem and Ramdas Pophale) SiO2 
 PCOD9043631
Probable space group: P -1
;
_chemical_formula_sum "Si O2"
_cell_formula_units_Z 14
_cell_length_a 11.917877
_cell_length_b 8.897149
_cell_length_c 11.335809
_cell_angle_alpha 52.053376
_cell_angle_beta 36.619040
_cell_angle_gamma 59.800519
_cell_volume 565.284046
_symmetry_space_group_name_H-M "P -1"
_symmetry_group_IT_number 2
_symmetry_cell_setting 'triclinic'
loop_
_space_group_symop_operation_xyz
x,y,z
-x,-y,-z
loop_
_atom_site_type_symbol
_atom_site_label
_atom_site_fract_x
_atom_site_fract_y
_atom_site_fract_z
Si Si1 0.193855 0.895282 0.872534
Si Si2 0.355732 0.286199 0.531890
Si Si3 0.933470 0.428382 0.460514
Si Si4 0.553334 0.298874 0.106253
Si Si5 0.270483 0.635246 0.716393
Si Si6 0.924327 0.715661 0.819128
Si Si7 0.662761 0.076975 0.908272
O O1 0.233768 0.727939 0.012650
O O2 0.218556 0.807505 0.766455
O O3 0.331148 0.069788 0.694273
O O4 0.000000 0.000000 0.000000
O O5 0.162619 0.402580 0.618546
O O6 0.439404 0.282687 0.330924
O O7 0.503274 0.376264 0.454770
O O8 0.767783 0.273528 0.694146
O O9 0.000000 0.500000 0.500000
O O10 0.082516 0.321929 0.298001
O O11 0.500000 0.500000 0.000000
O O12 0.547272 0.132341 0.096943
O O13 0.144440 0.689753 0.683342
O O14 0.186967 0.445452 0.937230
O O15 0.827425 0.914407 0.845772
O O16 0.500000 0.000000 0.000000
#
# Coordination Sequence:
#
# PCOD9043631 Si02
#       7
#     2   2   2   2   2   2   2
#     4  11  24  43  75 109 147 195 257 310 379 453
#     4  11  25  44  77 110 144 201 254 313 376 455
#     4  12  29  45  74 110 154 200 255 312 387 459
#     4  11  24  45  73 107 148 195 254 315 373 458
#     4  10  23  45  73 104 145 194 252 311 385 437
#     4  11  26  47  73 107 152 194 249 322 378 455
#     4  12  28  46  72 107 149 203 248 311 386 448
#
# _framework density 24.766311999999999
#
# number of rings (size 3 to 8) (size 9 to 14) (size 15 to 20)
#    0.000    0.857    1.429    4.714   12.000    4.000 
#    0.000    0.000    0.000    0.000    0.000    0.000 
#    0.000    0.000    0.000    0.000    0.000    0.000 
#
# Total GULP energy -78272.427304 kJ/mol
# GULP energy per Si atom -5590.887665 kJ/mol
# Density = 2.470994 g / cm^3
# Si number density = 24.766312 Si / 1000 Ang^3
#
#
#
# Elastic Constant Matrix: (Units=GPa)
#
#
# Indices 1 2 3 4 5 6 
#
# 1 169.1100 72.4753 36.3346 -1.0895 -3.8855 13.6124
# 2 72.4753 157.6786 23.2078 2.6469 9.9714 -0.3503
# 3 36.3346 23.2078 52.6537 -18.9799 0.5890 -1.4742
# 4 -1.0895 2.6469 -18.9799 41.6436 4.3715 1.4108
# 5 -3.8855 9.9714 0.5890 4.3715 40.6789 7.3444
# 6 13.6124 -0.3503 -1.4742 1.4108 7.3444 60.6587
#
#
#
# Elastic Compliance Matrix: (Units=1/GPa)
#
#
# Indices 1 2 3 4 5 6 
#
# 1 0.008746 -0.003336 -0.005457 -0.002218 0.002395 -0.002353
# 2 -0.003336 0.008304 -0.001729 -0.001188 -0.002395 0.001072
# 3 -0.005457 -0.001729 0.028296 0.013036 -0.002246 0.001871
# 4 -0.002218 -0.001188 0.013036 0.030318 -0.003462 0.000522
# 5 0.002395 -0.002395 -0.002246 -0.003462 0.026477 -0.003731
# 6 -0.002353 0.001072 0.001871 0.000522 -0.003731 0.017505
#
#
# Mechanical properties :
#
#
# Convention : Reuss Voigt Hill
#
# Bulk Modulus (GPa) = 41.15008 71.49751 56.32380
# Shear Modulus (GPa) = 33.60434 45.09124 39.34779
#
# Velocity S-wave (km/s) = 3.68755 4.27156 3.99025
# Velocity P-wave (km/s) = 5.89764 7.29793 6.63483
#
# Compressibility (1/GPa) = 0.02430129
#
# Stress axis : x y z
#
# Youngs Moduli (GPa) = 114.34241 120.42751 35.34027
#
# Poissons Ratio (x) = 0.40177 0.19284
# Poissons Ratio (y) = 0.38147 0.06111
# Poissons Ratio (z) = 0.62394 0.20825
#
# Static dielectric constant tensor:
#      x y z
#    x 1.974040 -0.000580 -0.070960 
#    y -0.000580 1.977960 0.056690 
#    z -0.070960 0.056690 2.025690 
# 
# From -- ./inp_files/418804.got.cif
#   From: 2010.05.17/outbox.cif.g08.bks.cpg/sg2_210_cif.got.tgz:418804.got - 2010.06.03 11:33:40.
