data_PCOD9043998
_publ_section_title
;
Structure prediction by ZEFSAII (Michael W. Deem and Ramdas Pophale) SiO2 
 PCOD9043998
Probable space group: P -1
;
_chemical_formula_sum "Si O2"
_cell_formula_units_Z 16
_cell_length_a 12.644168
_cell_length_b 9.279616
_cell_length_c 21.360115
_cell_angle_alpha 47.846831
_cell_angle_beta 31.177633
_cell_angle_gamma 36.541392
_cell_volume 771.439010
_symmetry_space_group_name_H-M "P -1"
_symmetry_group_IT_number 2
_symmetry_cell_setting 'triclinic'
loop_
_space_group_symop_operation_xyz
x,y,z
-x,-y,-z
loop_
_atom_site_type_symbol
_atom_site_label
_atom_site_fract_x
_atom_site_fract_y
_atom_site_fract_z
Si Si1 0.548582 0.553320 0.863696
Si Si2 0.699674 0.253797 0.543535
Si Si3 0.090845 0.669932 0.136242
Si Si4 0.779779 0.373247 0.600955
Si Si5 0.673769 0.096434 0.305691
Si Si6 0.121028 0.629547 0.698711
Si Si7 0.300221 0.182564 0.377251
Si Si8 0.928750 0.080752 0.737510
O O1 0.715588 0.503075 0.855697
O O2 0.569776 0.722513 0.756835
O O3 0.685356 0.288277 0.840396
O O4 0.264509 0.666547 0.996064
O O5 0.770449 0.247155 0.581159
O O6 0.411965 0.493208 0.612131
O O7 0.875645 0.274894 0.400048
O O8 0.687762 0.035241 0.595660
O O9 0.951472 0.554566 0.216972
O O10 0.895145 0.933046 0.190166
O O11 0.498165 0.612264 0.687934
O O12 0.893894 0.207696 0.652294
O O13 0.999912 0.406474 0.465224
O O14 0.451293 0.081488 0.396165
O O15 0.824979 0.995478 0.323957
O O16 0.955283 0.842458 0.771317
#
# Coordination Sequence:
#
# PCOD9043998 Si02
#       8
#     2   2   2   2   2   2   2   2
#     4  10  24  43  68  98 127 176 224 271 324 379
#     4  11  24  41  64  99 134 173 216 261 335 394
#     4  10  23  46  68  92 132 176 226 267 319 394
#     4  12  24  42  63 101 139 168 217 266 330 399
#     4  11  24  43  65  97 135 172 218 271 328 386
#     4  11  22  43  65  95 132 179 213 265 329 395
#     4  12  23  42  66 100 132 173 216 272 326 391
#     4  11  24  42  66  97 136 172 213 275 328 387
#
# _framework density 20.740461
#
# number of rings (size 3 to 8) (size 9 to 14) (size 15 to 20)
#    0.000    1.000    5.000    1.500    1.750    1.500 
#    2.250    0.000    0.000    2.250    0.000    0.000 
#    0.000    0.000    0.000    0.000    0.000    0.000 
#
# Total GULP energy -89241.131124 kJ/mol
# GULP energy per Si atom -5577.570695 kJ/mol
# Density = 2.069325 g / cm^3
# Si number density = 20.740461 Si / 1000 Ang^3
#
#
#
# Elastic Constant Matrix: (Units=GPa)
#
#
# Indices 1 2 3 4 5 6 
#
# 1 138.3156 29.1189 15.5854 9.5871 1.9075 2.6993
# 2 29.1189 79.8594 25.4650 17.6201 6.6475 4.0157
# 3 15.5854 25.4650 77.4142 13.2015 2.6717 -1.0440
# 4 9.5871 17.6201 13.2015 25.9501 -0.3217 -0.0230
# 5 1.9075 6.6475 2.6717 -0.3217 19.2804 4.8821
# 6 2.6993 4.0157 -1.0440 -0.0230 4.8821 48.7888
#
#
#
# Elastic Compliance Matrix: (Units=1/GPa)
#
#
# Indices 1 2 3 4 5 6 
#
# 1 0.007888 -0.002480 -0.000628 -0.000908 0.000214 -0.000268
# 2 -0.002480 0.016939 -0.003387 -0.008926 -0.005065 -0.000827
# 3 -0.000628 -0.003387 0.015087 -0.005157 -0.001136 0.000748
# 4 -0.000908 -0.008926 -0.005157 0.047613 0.004617 0.000235
# 5 0.000214 -0.005065 -0.001136 0.004617 0.055125 -0.005133
# 6 -0.000268 -0.000827 0.000748 0.000235 -0.005133 0.021109
#
#
# Mechanical properties :
#
#
# Convention : Reuss Voigt Hill
#
# Bulk Modulus (GPa) = 37.14250 48.43640 42.78945
# Shear Modulus (GPa) = 26.92149 33.83185 30.37667
#
# Velocity S-wave (km/s) = 3.60671 4.04319 3.83117
# Velocity P-wave (km/s) = 5.94067 6.72316 6.34399
#
# Compressibility (1/GPa) = 0.02692333
#
# Stress axis : x y z
#
# Youngs Moduli (GPa) = 126.77601 59.03628 66.28307
#
# Poissons Ratio (x) = 0.14639 0.04166
# Poissons Ratio (y) = 0.31437 0.22449
# Poissons Ratio (z) = 0.07967 0.19995
#
# Static dielectric constant tensor:
#      x y z
#    x 1.764950 -0.009790 0.023180 
#    y -0.009790 1.789860 0.038260 
#    z 0.023180 0.038260 1.729380 
# 
# From -- ./inp_files/594015.got.cif
#   From: 2010.05.17/outbox.cif.g08.bks.cpg/sg2_298_cif.got.tgz:594015.got - 2010.06.03 11:33:40.
