data_PCOD9043966
_publ_section_title
;
Structure prediction by ZEFSAII (Michael W. Deem and Ramdas Pophale) SiO2 
 PCOD9043966
Probable space group: P -1
;
_chemical_formula_sum "Si O2"
_cell_formula_units_Z 14
_cell_length_a 6.394230
_cell_length_b 8.601105
_cell_length_c 27.134628
_cell_angle_alpha 29.325775
_cell_angle_beta 58.352989
_cell_angle_gamma 62.375583
_cell_volume 622.150188
_symmetry_space_group_name_H-M "P -1"
_symmetry_group_IT_number 2
_symmetry_cell_setting 'triclinic'
loop_
_space_group_symop_operation_xyz
x,y,z
-x,-y,-z
loop_
_atom_site_type_symbol
_atom_site_label
_atom_site_fract_x
_atom_site_fract_y
_atom_site_fract_z
Si Si1 0.628336 0.719813 0.343811
Si Si2 0.976214 0.974389 0.849879
Si Si3 0.779963 0.384379 0.988722
Si Si4 0.891997 0.146905 0.616766
Si Si5 0.693677 0.239212 0.277776
Si Si6 0.565265 0.923415 0.069399
Si Si7 0.245015 0.967450 0.446629
O O1 0.358537 0.814099 0.331624
O O2 0.627907 0.365330 0.462014
O O3 0.665836 0.961671 0.317426
O O4 0.851565 0.761539 0.267307
O O5 0.117423 0.836146 0.918601
O O6 0.700898 0.071079 0.872270
O O7 0.944092 0.695884 0.889811
O O8 0.746900 0.182358 0.999065
O O9 0.500000 0.500000 0.000000
O O10 0.836318 0.046649 0.595839
O O11 0.000000 0.500000 0.500000
O O12 0.062773 0.872993 0.693599
O O13 0.682953 0.578371 0.159525
O O14 0.463515 0.220475 0.349671
O O15 0.500000 0.000000 0.000000
O O16 0.000000 0.000000 0.500000
#
# Coordination Sequence:
#
# PCOD9043966 Si02
#       7
#     2   2   2   2   2   2   2
#     4  11  23  41  71  99 138 178 225 286 338 414
#     4  10  23  46  68 100 138 178 237 285 346 412
#     4   9  22  44  70  95 135 179 232 287 344 406
#     4  11  21  45  68  96 135 182 225 273 344 416
#     4  11  24  43  68 100 135 181 227 279 348 411
#     4  11  26  46  69 102 139 182 236 288 347 410
#     4  11  23  42  67 101 140 171 222 286 339 409
#
# _framework density 22.502606
#
# number of rings (size 3 to 8) (size 9 to 14) (size 15 to 20)
#    0.000    1.429    2.857    1.714    6.000    6.857 
#    5.143    0.000    0.000    0.000    0.000    0.000 
#    0.000    0.000    0.000    0.000    0.000    0.000 
#
# Total GULP energy -78231.630508 kJ/mol
# GULP energy per Si atom -5587.973608 kJ/mol
# Density = 2.245139 g / cm^3
# Si number density = 22.502606 Si / 1000 Ang^3
#
#
#
# Elastic Constant Matrix: (Units=GPa)
#
#
# Indices 1 2 3 4 5 6 
#
# 1 137.5579 39.9440 48.9973 -2.7608 22.2235 -13.7308
# 2 39.9440 92.7538 31.0605 4.5179 5.4097 -19.5074
# 3 48.9973 31.0605 119.7099 -6.8672 17.4946 -5.9647
# 4 -2.7608 4.5179 -6.8672 32.5326 -19.3779 -5.0394
# 5 22.2235 5.4097 17.4946 -19.3779 33.5166 -4.1543
# 6 -13.7308 -19.5074 -5.9647 -5.0394 -4.1543 40.9030
#
#
#
# Elastic Compliance Matrix: (Units=1/GPa)
#
#
# Indices 1 2 3 4 5 6 
#
# 1 0.010070 -0.002807 -0.002576 -0.003154 -0.006628 0.000605
# 2 -0.002807 0.013923 -0.002383 -0.001474 0.000655 0.005235
# 3 -0.002576 -0.002383 0.010490 0.000200 -0.003365 -0.000788
# 4 -0.003154 -0.001474 0.000200 0.051662 0.033084 0.007993
# 5 -0.006628 0.000655 -0.003365 0.033084 0.055921 0.007352
# 6 0.000605 0.005235 -0.000788 0.007993 0.007352 0.028764
#
#
# Mechanical properties :
#
#
# Convention : Reuss Voigt Hill
#
# Bulk Modulus (GPa) = 52.76509 65.55836 59.16172
# Shear Modulus (GPa) = 25.95014 36.72510 31.33762
#
# Velocity S-wave (km/s) = 3.39957 4.04423 3.73583
# Velocity P-wave (km/s) = 6.23769 7.14175 6.70498
#
# Compressibility (1/GPa) = 0.01895192
#
# Stress axis : x y z
#
# Youngs Moduli (GPa) = 99.30557 71.82578 95.32924
#
# Poissons Ratio (x) = 0.20160 0.24552
# Poissons Ratio (y) = 0.27873 0.22716
# Poissons Ratio (z) = 0.25576 0.17116
#
# Static dielectric constant tensor:
#      x y z
#    x 1.749420 -0.054760 -0.094010 
#    y -0.054760 1.866190 -0.010080 
#    z -0.094010 -0.010080 1.807200 
# 
# From -- ./inp_files/99487.got.cif
#   From: 2010.05.17/outbox.cif.g08.bks.cpg/sg2_50_cif.got.tgz:99487.got - 2010.06.03 11:33:40.
