data_PCOD9043249
_publ_section_title
;
Structure prediction by ZEFSAII (Michael W. Deem and Ramdas Pophale) SiO2 
 PCOD9043249
Probable space group: P -1
;
_chemical_formula_sum "Si O2"
_cell_formula_units_Z 14
_cell_length_a 8.682283
_cell_length_b 12.008783
_cell_length_c 4.860778
_cell_angle_alpha 76.401657
_cell_angle_beta 88.279990
_cell_angle_gamma 73.614864
_cell_volume 472.231603
_symmetry_space_group_name_H-M "P -1"
_symmetry_group_IT_number 2
_symmetry_cell_setting 'triclinic'
loop_
_space_group_symop_operation_xyz
x,y,z
-x,-y,-z
loop_
_atom_site_type_symbol
_atom_site_label
_atom_site_fract_x
_atom_site_fract_y
_atom_site_fract_z
Si Si1 0.039022 0.103730 0.757792
Si Si2 0.607315 0.692046 0.676095
Si Si3 0.693745 0.156502 0.769121
Si Si4 0.673531 0.340008 0.126030
Si Si5 0.204078 0.501839 0.650997
Si Si6 0.992919 0.652288 0.151745
Si Si7 0.327069 0.067743 0.341737
O O1 0.175581 0.067814 0.543385
O O2 0.859505 0.160934 0.607715
O O3 0.074784 0.205956 0.887325
O O4 0.000000 0.000000 0.000000
O O5 0.453603 0.767080 0.451504
O O6 0.520376 0.624475 0.932550
O O7 0.717880 0.597462 0.525425
O O8 0.668318 0.796032 0.748917
O O9 0.681468 0.021237 0.857098
O O10 0.702748 0.213194 0.032690
O O11 0.676667 0.416166 0.360443
O O12 0.835160 0.371848 0.992646
O O13 0.047198 0.599740 0.481566
O O14 0.131616 0.417022 0.903608
O O15 0.500000 0.000000 0.500000
#
# Coordination Sequence:
#
# PCOD9043249 Si02
#       7
#     2   2   2   2   2   2   2
#     4  11  23  45  73 103 135 183 236 287 349 411
#     4  11  24  45  71 100 143 183 229 291 349 407
#     4  10  25  43  68 101 140 183 234 281 348 414
#     4  11  23  41  68  99 139 182 229 281 342 417
#     4  11  23  46  73 100 143 184 230 291 343 412
#     4  10  24  44  70 106 137 182 236 283 351 409
#     4  10  23  45  69  98 142 178 231 290 345 412
#
# _framework density 29.646473
#
# number of rings (size 3 to 8) (size 9 to 14) (size 15 to 20)
#    0.000    1.429    1.429    3.000    8.000    2.857 
#    7.714    1.429    0.000    0.000    0.000    0.000 
#    0.000    0.000    0.000    0.000    0.000    0.000 
#
# Total GULP energy -78210.376366 kJ/mol
# GULP energy per Si atom -5586.455455 kJ/mol
# Density = 2.957900 g / cm^3
# Si number density = 29.646473 Si / 1000 Ang^3
#
#
#
# Elastic Constant Matrix: (Units=GPa)
#
#
# Indices 1 2 3 4 5 6 
#
# 1 176.7756 107.2236 36.0481 35.0393 -18.3562 34.6656
# 2 107.2236 261.4804 35.8867 -17.1346 6.5016 73.7669
# 3 36.0481 35.8867 72.7329 -1.2447 -2.1489 10.2455
# 4 35.0393 -17.1346 -1.2447 44.2779 -1.6493 12.1329
# 5 -18.3562 6.5016 -2.1489 -1.6493 64.7731 10.6267
# 6 34.6656 73.7669 10.2455 12.1329 10.6267 87.8560
#
#
#
# Elastic Compliance Matrix: (Units=1/GPa)
#
#
# Indices 1 2 3 4 5 6 
#
# 1 0.012703 -0.006211 -0.003634 -0.012979 0.003444 0.002003
# 2 -0.006211 0.008828 -0.000284 0.009952 -0.001396 -0.006134
# 3 -0.003634 -0.000284 0.015824 0.003365 -0.000292 -0.000603
# 4 -0.012979 0.009952 0.003365 0.039126 -0.002130 -0.008773
# 5 0.003444 -0.001396 -0.000292 -0.002130 0.016801 -0.001891
# 6 0.002003 -0.006134 -0.000603 -0.008773 -0.001891 0.017253
#
#
# Mechanical properties :
#
#
# Convention : Reuss Voigt Hill
#
# Bulk Modulus (GPa) = 58.49201 96.58952 77.54076
# Shear Modulus (GPa) = 36.63272 61.50344 49.06808
#
# Velocity S-wave (km/s) = 3.51900 4.55968 4.07271
# Velocity P-wave (km/s) = 6.02360 7.76994 6.95183
#
# Compressibility (1/GPa) = 0.01709635
#
# Stress axis : x y z
#
# Youngs Moduli (GPa) = 78.72303 113.28076 63.19596
#
# Poissons Ratio (x) = 0.70362 0.22963
# Poissons Ratio (y) = 0.48897 0.01795
# Poissons Ratio (z) = 0.28605 0.03217
#
# Static dielectric constant tensor:
#      x y z
#    x 2.379910 0.009690 -0.007570 
#    y 0.009690 2.422760 -0.172400 
#    z -0.007570 -0.172400 2.727530 
# 
# From -- ./inp_files/26745.got.cif
#   From: 2010.05.17/outbox.cif.g08.bks.cpg/sg2_14_cif.got.tgz:26745.got - 2010.06.03 11:33:40.
