data_PCOD9043310
_publ_section_title
;
Structure prediction by ZEFSAII (Michael W. Deem and Ramdas Pophale) SiO2 
 PCOD9043310
Probable space group: P -1
;
_chemical_formula_sum "Si O2"
_cell_formula_units_Z 16
_cell_length_a 11.307082
_cell_length_b 7.868724
_cell_length_c 20.074416
_cell_angle_alpha 34.430379
_cell_angle_beta 141.151207
_cell_angle_gamma 129.261677
_cell_volume 633.218449
_symmetry_space_group_name_H-M "P -1"
_symmetry_group_IT_number 2
_symmetry_cell_setting 'triclinic'
loop_
_space_group_symop_operation_xyz
x,y,z
-x,-y,-z
loop_
_atom_site_type_symbol
_atom_site_label
_atom_site_fract_x
_atom_site_fract_y
_atom_site_fract_z
Si Si1 0.283988 0.964233 0.898716
Si Si2 0.998727 0.468945 0.088219
Si Si3 0.321875 0.333772 0.670704
Si Si4 0.755802 0.414726 0.647510
Si Si5 0.805702 0.640672 0.150952
Si Si6 0.708119 0.135673 0.858262
Si Si7 0.707320 0.075513 0.593851
Si Si8 0.226433 0.990290 0.606247
O O1 0.244499 0.181887 0.750228
O O2 0.176876 0.092434 0.874228
O O3 0.209768 0.639663 0.951874
O O4 0.500000 0.000000 0.000000
O O5 0.082634 0.758921 0.064955
O O6 0.146602 0.200677 0.258134
O O7 0.000000 0.500000 0.000000
O O8 0.551194 0.320853 0.773719
O O9 0.234935 0.660257 0.515674
O O10 0.276794 0.136980 0.650823
O O11 0.679571 0.243098 0.734771
O O12 0.712943 0.224112 0.622810
O O13 0.980555 0.438719 0.749417
O O14 0.698492 0.768957 0.493467
O O15 0.718646 0.362144 0.244035
O O16 0.695760 0.794742 0.990639
O O17 0.500000 0.000000 0.500000
O O18 0.000000 0.000000 0.500000
#
# Coordination Sequence:
#
# PCOD9043310 Si02
#       8
#     2   2   2   2   2   2   2   2
#     4  12  25  46  72 102 144 187 239 294 357 424
#     4  12  24  45  74 103 143 192 236 299 357 424
#     4  11  25  46  67 104 146 180 237 298 354 433
#     4  10  23  45  70 103 142 189 236 297 353 430
#     4  11  22  46  69 103 139 189 241 292 356 428
#     4  12  24  44  71 107 146 180 243 297 363 423
#     4  11  23  46  72 107 143 182 245 291 362 427
#     4   9  23  44  66  96 143 185 235 287 358 430
#
# _framework density 25.267741000000001
#
# number of rings (size 3 to 8) (size 9 to 14) (size 15 to 20)
#    0.000    1.000    5.000    0.375    3.500    4.000 
#    2.250    0.000    0.000    0.000    0.000    0.000 
#    0.000    0.000    0.000    0.000    0.000    0.000 
#
# Total GULP energy -89440.359577 kJ/mol
# GULP energy per Si atom -5590.022474 kJ/mol
# Density = 2.521023 g / cm^3
# Si number density = 25.267741 Si / 1000 Ang^3
#
#
#
# Elastic Constant Matrix: (Units=GPa)
#
#
# Indices 1 2 3 4 5 6 
#
# 1 74.4325 1.8058 41.6893 -4.7459 -29.8539 8.8523
# 2 1.8058 89.7602 24.5794 0.9829 -4.9495 9.2645
# 3 41.6893 24.5794 164.7262 -18.5942 -32.1447 11.4138
# 4 -4.7459 0.9829 -18.5942 44.4411 6.1417 6.0586
# 5 -29.8539 -4.9495 -32.1447 6.1417 55.7856 5.2423
# 6 8.8523 9.2645 11.4138 6.0586 5.2423 22.5685
#
#
#
# Elastic Compliance Matrix: (Units=1/GPa)
#
#
# Indices 1 2 3 4 5 6 
#
# 1 0.020251 0.001900 -0.002576 0.000987 0.010361 -0.010092
# 2 0.001900 0.012187 -0.001640 -0.000271 0.001675 -0.005235
# 3 -0.002576 -0.001640 0.008268 0.003336 0.003263 -0.004151
# 4 0.000987 -0.000271 0.003336 0.025145 0.000487 -0.008826
# 5 0.010361 0.001675 0.003263 0.000487 0.026641 -0.012721
# 6 -0.010092 -0.005235 -0.004151 -0.008826 -0.012721 0.057841
#
#
# Mechanical properties :
#
#
# Convention : Reuss Voigt Hill
#
# Bulk Modulus (GPa) = 27.72108 51.67422 39.69765
# Shear Modulus (GPa) = 29.94184 41.94864 35.94524
#
# Velocity S-wave (km/s) = 3.44609 4.07893 3.77579
# Velocity P-wave (km/s) = 5.17966 6.53289 5.89523
#
# Compressibility (1/GPa) = 0.03607363
#
# Stress axis : x y z
#
# Youngs Moduli (GPa) = 49.38122 82.05182 120.94324
#
# Poissons Ratio (x) = -0.15591 0.31156
# Poissons Ratio (y) = -0.09383 0.19840
# Poissons Ratio (z) = 0.12721 0.13460
#
# Static dielectric constant tensor:
#      x y z
#    x 1.874810 -0.053890 -0.108000 
#    y -0.053890 1.988090 -0.137480 
#    z -0.108000 -0.137480 1.890820 
# 
# From -- ./inp_files/593924.got.cif
#   From: 2010.05.17/outbox.cif.g08.bks.cpg/sg2_297_cif.got.tgz:593924.got - 2010.06.03 11:33:40.
