data_PCOD9043504
_publ_section_title
;
Structure prediction by ZEFSAII (Michael W. Deem and Ramdas Pophale) SiO2 
 PCOD9043504
Probable space group: P -1
;
_chemical_formula_sum "Si O2"
_cell_formula_units_Z 16
_cell_length_a 5.107338
_cell_length_b 15.790775
_cell_length_c 10.001890
_cell_angle_alpha 87.357142
_cell_angle_beta 113.922956
_cell_angle_gamma 92.512194
_cell_volume 736.280087
_symmetry_space_group_name_H-M "P -1"
_symmetry_group_IT_number 2
_symmetry_cell_setting 'triclinic'
loop_
_space_group_symop_operation_xyz
x,y,z
-x,-y,-z
loop_
_atom_site_type_symbol
_atom_site_label
_atom_site_fract_x
_atom_site_fract_y
_atom_site_fract_z
Si Si1 0.850301 0.319814 0.511169
Si Si2 0.324768 0.030647 0.589267
Si Si3 0.923547 0.837152 0.310882
Si Si4 0.508974 0.379281 0.675244
Si Si5 0.390928 0.764794 0.086162
Si Si6 0.244941 0.652488 0.818364
Si Si7 0.756640 0.542988 0.857911
Si Si8 0.801662 0.055206 0.863350
O O1 0.641454 0.372027 0.556677
O O2 0.769717 0.321081 0.340303
O O3 0.850476 0.223664 0.572917
O O4 0.172210 0.357242 0.597653
O O5 0.279005 0.129413 0.613805
O O6 0.511150 0.004883 0.760038
O O7 0.500000 0.000000 0.500000
O O8 0.000000 0.000000 0.500000
O O9 0.730295 0.784550 0.169085
O O10 0.052477 0.915254 0.247998
O O11 0.655961 0.308550 0.806160
O O12 0.583234 0.470011 0.747382
O O13 0.260617 0.855646 0.084321
O O14 0.293771 0.728064 0.927718
O O15 0.522283 0.593134 0.890631
O O16 0.947173 0.604581 0.798095
O O17 0.000000 0.500000 0.000000
O O18 0.000000 0.000000 0.000000
#
# Coordination Sequence:
#
# PCOD9043504 Si02
#       8
#     2   2   2   2   2   2   2   2
#     4  11  25  44  70 101 141 186 231 289 350 416
#     4  11  23  44  71 101 138 178 228 289 361 419
#     4  10  23  45  71  97 141 191 230 278 363 420
#     4  11  23  44  72  95 140 192 229 280 361 417
#     4  10  24  42  71 102 140 193 231 286 351 425
#     4  12  27  44  68 109 140 178 244 292 340 412
#     4  12  26  43  72 104 140 184 237 292 345 411
#     4  11  24  46  75 109 140 185 247 291 352 430
#
# _framework density 21.730861999999998
#
# number of rings (size 3 to 8) (size 9 to 14) (size 15 to 20)
#    0.000    1.000    3.750    1.875    5.250    6.000 
#    2.250    0.000    0.000    0.000    0.000    0.000 
#    0.000    0.000    0.000    0.000    0.000    0.000 
#
# Total GULP energy -89377.620153 kJ/mol
# GULP energy per Si atom -5586.101260 kJ/mol
# Density = 2.168140 g / cm^3
# Si number density = 21.730862 Si / 1000 Ang^3
#
#
#
# Elastic Constant Matrix: (Units=GPa)
#
#
# Indices 1 2 3 4 5 6 
#
# 1 124.3539 34.5693 36.3643 14.0826 2.6343 -0.0789
# 2 34.5693 84.7832 54.8838 18.9239 6.9079 -2.6909
# 3 36.3643 54.8838 122.8123 26.3660 11.1072 13.6733
# 4 14.0826 18.9239 26.3660 27.8748 -5.9453 -2.3784
# 5 2.6343 6.9079 11.1072 -5.9453 36.7714 2.5775
# 6 -0.0789 -2.6909 13.6733 -2.3784 2.5775 29.8476
#
#
#
# Elastic Compliance Matrix: (Units=1/GPa)
#
#
# Indices 1 2 3 4 5 6 
#
# 1 0.009328 -0.002587 -0.001236 -0.001793 -0.000115 0.000225
# 2 -0.002587 0.018737 -0.006806 -0.005101 -0.002426 0.004603
# 3 -0.001236 -0.006806 0.015132 -0.010685 -0.004369 -0.008023
# 4 -0.001793 -0.005101 -0.010685 0.053658 0.012455 0.007630
# 5 -0.000115 -0.002426 -0.004369 0.012455 0.030986 0.000099
# 6 0.000225 0.004603 -0.008023 0.007630 0.000099 0.038194
#
#
# Mechanical properties :
#
#
# Convention : Reuss Voigt Hill
#
# Bulk Modulus (GPa) = 45.57617 64.84271 55.20944
# Shear Modulus (GPa) = 25.69325 32.64089 29.16707
#
# Velocity S-wave (km/s) = 3.44225 3.87984 3.66757
# Velocity P-wave (km/s) = 6.06773 7.06927 6.58756
#
# Compressibility (1/GPa) = 0.02194129
#
# Stress axis : x y z
#
# Youngs Moduli (GPa) = 107.20899 53.36906 66.08536
#
# Poissons Ratio (x) = 0.13805 0.08166
# Poissons Ratio (y) = 0.27732 0.44975
# Poissons Ratio (z) = 0.13247 0.36320
#
# Static dielectric constant tensor:
#      x y z
#    x 1.868550 -0.002210 -0.020360 
#    y -0.002210 1.856620 0.031360 
#    z -0.020360 0.031360 1.822110 
# 
# From -- ./inp_files/135388.got.cif
#   From: 2010.05.17/outbox.cif.g08.bks.cpg/sg2_68_cif.got.tgz:135388.got - 2010.06.03 11:33:40.
