data_PCOD9043280
_publ_section_title
;
Structure prediction by ZEFSAII (Michael W. Deem and Ramdas Pophale) SiO2 
 PCOD9043280
Probable space group: P -1
;
_chemical_formula_sum "Si O2"
_cell_formula_units_Z 16
_cell_length_a 15.638717
_cell_length_b 9.324259
_cell_length_c 10.466814
_cell_angle_alpha 51.072261
_cell_angle_beta 82.288981
_cell_angle_gamma 46.741070
_cell_volume 736.898741
_symmetry_space_group_name_H-M "P -1"
_symmetry_group_IT_number 2
_symmetry_cell_setting 'triclinic'
loop_
_space_group_symop_operation_xyz
x,y,z
-x,-y,-z
loop_
_atom_site_type_symbol
_atom_site_label
_atom_site_fract_x
_atom_site_fract_y
_atom_site_fract_z
Si Si1 0.978470 0.673589 0.524517
Si Si2 0.118967 0.274397 0.207133
Si Si3 0.857339 0.345279 0.347201
Si Si4 0.594817 0.772852 0.281425
Si Si5 0.283371 0.319537 0.061810
Si Si6 0.640098 0.336935 0.632449
Si Si7 0.599084 0.205181 0.980697
Si Si8 0.303132 0.704687 0.863315
O O1 0.948490 0.641209 0.688578
O O2 0.000000 0.500000 0.500000
O O3 0.110040 0.582988 0.576087
O O4 0.842012 0.016364 0.329012
O O5 0.220179 0.281141 0.193218
O O6 0.222539 0.945448 0.316611
O O7 0.000000 0.500000 0.000000
O O8 0.708294 0.503132 0.312376
O O9 0.824964 0.496972 0.135463
O O10 0.000000 0.000000 0.500000
O O11 0.624486 0.587687 0.500538
O O12 0.433650 0.011748 0.152815
O O13 0.611175 0.967648 0.149305
O O14 0.322080 0.808787 0.919910
O O15 0.302793 0.490022 0.019560
O O16 0.500000 0.500000 0.500000
O O17 0.648798 0.207723 0.835227
O O18 0.436011 0.518397 0.852515
#
# Coordination Sequence:
#
# PCOD9043280 Si02
#       8
#     2   2   2   2   2   2   2   2
#     4  12  26  45  71 100 147 194 244 297 380 447
#     4  12  26  45  69 107 147 186 243 313 364 436
#     4  12  23  42  70 106 142 189 246 296 363 439
#     4  11  25  42  73 105 141 191 240 303 373 430
#     4  11  23  44  72 102 142 192 241 306 368 431
#     4  12  25  42  73 109 140 185 249 305 360 438
#     4  10  24  47  70 103 151 189 245 302 371 443
#     4  10  23  45  70 100 144 198 236 301 372 440
#
# _framework density 21.712617000000002
#
# number of rings (size 3 to 8) (size 9 to 14) (size 15 to 20)
#    0.000    0.750    3.750    3.375    5.250    0.000 
#    4.500    2.500    0.000    0.000    0.000    0.000 
#    0.000    0.000    0.000    0.000    0.000    0.000 
#
# Total GULP energy -89227.661080 kJ/mol
# GULP energy per Si atom -5576.728818 kJ/mol
# Density = 2.166320 g / cm^3
# Si number density = 21.712617 Si / 1000 Ang^3
#
#
#
# Elastic Constant Matrix: (Units=GPa)
#
#
# Indices 1 2 3 4 5 6 
#
# 1 87.4899 29.1673 51.7699 2.7039 -3.7359 9.4623
# 2 29.1673 103.7522 58.7743 -4.2902 2.4734 -4.1988
# 3 51.7699 58.7743 127.4503 -15.8736 -8.8664 -3.3998
# 4 2.7039 -4.2902 -15.8736 37.1241 -11.8588 7.3576
# 5 -3.7359 2.4734 -8.8664 -11.8588 50.9206 -8.3854
# 6 9.4623 -4.1988 -3.3998 7.3576 -8.3854 41.9836
#
#
#
# Elastic Compliance Matrix: (Units=1/GPa)
#
#
# Indices 1 2 3 4 5 6 
#
# 1 0.016307 -0.000975 -0.006877 -0.003946 -0.001522 -0.003942
# 2 -0.000975 0.013397 -0.006130 -0.001854 -0.002061 0.000977
# 3 -0.006877 -0.006130 0.014696 0.007103 0.004293 0.001740
# 4 -0.003946 -0.001854 0.007103 0.033275 0.008310 -0.002893
# 5 -0.001522 -0.002061 0.004293 0.008310 0.022903 0.003603
# 6 -0.003942 0.000977 0.001740 -0.002893 0.003603 0.026172
#
#
# Mechanical properties :
#
#
# Convention : Reuss Voigt Hill
#
# Bulk Modulus (GPa) = 60.84048 66.45726 63.64887
# Shear Modulus (GPa) = 31.21216 37.93773 34.57495
#
# Velocity S-wave (km/s) = 3.79557 4.18457 3.99480
# Velocity P-wave (km/s) = 6.87678 7.34994 7.11729
#
# Compressibility (1/GPa) = 0.01643643
#
# Stress axis : x y z
#
# Youngs Moduli (GPa) = 61.32154 74.64251 68.04510
#
# Poissons Ratio (x) = 0.07280 0.46793
# Poissons Ratio (y) = 0.05980 0.41713
# Poissons Ratio (z) = 0.42169 0.45757
#
# Static dielectric constant tensor:
#      x y z
#    x 1.835670 0.018470 -0.071990 
#    y 0.018470 1.843370 -0.024090 
#    z -0.071990 -0.024090 1.833770 
# 
# From -- ./inp_files/446796.got.cif
#   From: 2010.05.17/outbox.cif.g08.bks.cpg/sg2_224_cif.got.tgz:446796.got - 2010.06.03 11:33:40.
