data_PCOD9043135
_publ_section_title
;
Structure prediction by ZEFSAII (Michael W. Deem and Ramdas Pophale) SiO2 
 PCOD9043135
Probable space group: P -1
;
_chemical_formula_sum "Si O2"
_cell_formula_units_Z 16
_cell_length_a 12.749215
_cell_length_b 12.838480
_cell_length_c 7.707636
_cell_angle_alpha 95.908460
_cell_angle_beta 61.381163
_cell_angle_gamma 48.234853
_cell_volume 631.597863
_symmetry_space_group_name_H-M "P -1"
_symmetry_group_IT_number 2
_symmetry_cell_setting 'triclinic'
loop_
_space_group_symop_operation_xyz
x,y,z
-x,-y,-z
loop_
_atom_site_type_symbol
_atom_site_label
_atom_site_fract_x
_atom_site_fract_y
_atom_site_fract_z
Si Si1 0.664145 0.813405 0.224038
Si Si2 0.001735 0.264235 0.045847
Si Si3 0.219180 0.279258 0.290727
Si Si4 0.197389 0.922344 0.762780
Si Si5 0.693261 0.436726 0.815136
Si Si6 0.496391 0.751254 0.819189
Si Si7 0.876919 0.883774 0.678590
Si Si8 0.602887 0.612770 0.258553
O O1 0.888210 0.704158 0.072592
O O2 0.625107 0.720963 0.283270
O O3 0.500000 0.000000 0.500000
O O4 0.675455 0.805821 0.000252
O O5 0.106227 0.100345 0.814656
O O6 0.067845 0.181952 0.173650
O O7 0.756419 0.445761 0.243040
O O8 0.371866 0.236521 0.284772
O O9 0.177525 0.190842 0.368604
O O10 0.000000 0.500000 0.500000
O O11 0.363405 0.819704 0.768700
O O12 0.359076 0.755970 0.472380
O O13 0.000000 0.000000 0.000000
O O14 0.645312 0.550222 0.716777
O O15 0.912832 0.222677 0.584836
O O16 0.500000 0.500000 0.000000
O O17 0.703715 0.506894 0.980621
O O18 0.319790 0.899367 0.130137
#
# Coordination Sequence:
#
# PCOD9043135 Si02
#       8
#     2   2   2   2   2   2   2   2
#     4  11  22  43  70 109 149 174 231 298 360 424
#     4  10  24  44  71 102 136 186 229 283 352 427
#     4  11  21  43  74 105 143 183 238 288 356 435
#     4  11  27  46  71 100 137 188 245 284 342 425
#     4  12  28  45  68 104 142 184 237 290 354 421
#     4  11  24  47  72  99 139 187 232 294 349 420
#     4  10  23  45  69 100 136 183 233 281 346 426
#     4  12  25  45  71 101 142 184 228 299 356 412
#
# _framework density 25.332574999999999
#
# number of rings (size 3 to 8) (size 9 to 14) (size 15 to 20)
#    0.000    1.000    3.750    1.500    7.000    3.000 
#    2.250    0.000    0.000    0.000    0.000    0.000 
#    0.000    0.000    0.000    0.000    0.000    0.000 
#
# Total GULP energy -89533.004780 kJ/mol
# GULP energy per Si atom -5595.812799 kJ/mol
# Density = 2.527492 g / cm^3
# Si number density = 25.332575 Si / 1000 Ang^3
#
#
#
# Elastic Constant Matrix: (Units=GPa)
#
#
# Indices 1 2 3 4 5 6 
#
# 1 68.9226 11.5982 14.6670 0.3396 -9.9188 -16.1767
# 2 11.5982 43.1604 2.7519 5.0442 6.0306 -17.1261
# 3 14.6670 2.7519 142.4097 20.7186 -11.4336 -17.1910
# 4 0.3396 5.0442 20.7186 36.4981 -1.8630 2.0330
# 5 -9.9188 6.0306 -11.4336 -1.8630 43.9829 4.0365
# 6 -16.1767 -17.1261 -17.1910 2.0330 4.0365 22.0784
#
#
#
# Elastic Compliance Matrix: (Units=1/GPa)
#
#
# Indices 1 2 3 4 5 6 
#
# 1 0.017893 -0.000157 0.000006 -0.000699 0.002878 0.012531
# 2 -0.000157 0.039940 0.004586 -0.010593 -0.008155 0.036903
# 3 0.000006 0.004586 0.009282 -0.006508 0.000473 0.011301
# 4 -0.000699 -0.010593 -0.006508 0.033666 0.002624 -0.017377
# 5 0.002878 -0.008155 0.000473 0.002624 0.025541 -0.008760
# 6 0.012531 0.036903 0.011301 -0.017377 -0.008760 0.095102
#
#
# Mechanical properties :
#
#
# Convention : Reuss Voigt Hill
#
# Bulk Modulus (GPa) = 13.16067 34.72520 23.94293
# Shear Modulus (GPa) = 21.01881 35.54359 28.28120
#
# Velocity S-wave (km/s) = 2.88360 3.74983 3.34488
# Velocity P-wave (km/s) = 4.03650 5.69963 4.93858
#
# Compressibility (1/GPa) = 0.07598398
#
# Stress axis : x y z
#
# Youngs Moduli (GPa) = 55.88764 25.03760 107.73750
#
# Poissons Ratio (x) = 0.00392 -0.00062
# Poissons Ratio (y) = 0.00876 -0.49404
# Poissons Ratio (z) = -0.00032 -0.11481
#
# Static dielectric constant tensor:
#      x y z
#    x 2.000140 -0.067320 0.102120 
#    y -0.067320 1.950460 0.032300 
#    z 0.102120 0.032300 1.893540 
# 
# From -- ./inp_files/273646.got.cif
#   From: 2010.05.17/outbox.cif.g08.bks.cpg/sg2_137_cif.got.tgz:273646.got - 2010.06.03 11:33:40.
