data_PCOD9043352
_publ_section_title
;
Structure prediction by ZEFSAII (Michael W. Deem and Ramdas Pophale) SiO2 
 PCOD9043352
Probable space group: P -1
;
_chemical_formula_sum "Si O2"
_cell_formula_units_Z 15
_cell_length_a 4.895945
_cell_length_b 24.658468
_cell_length_c 11.966948
_cell_angle_alpha 152.382373
_cell_angle_beta 114.041943
_cell_angle_gamma 55.777179
_cell_volume 537.964544
_symmetry_space_group_name_H-M "P -1"
_symmetry_group_IT_number 2
_symmetry_cell_setting 'triclinic'
loop_
_space_group_symop_operation_xyz
x,y,z
-x,-y,-z
loop_
_atom_site_type_symbol
_atom_site_label
_atom_site_fract_x
_atom_site_fract_y
_atom_site_fract_z
Si Si1 0.660350 0.191244 0.025943
Si Si2 0.823642 0.396384 0.508577
Si Si3 0.345188 0.226882 0.464126
Si Si4 0.376999 0.876907 0.342819
Si Si5 0.245026 0.639468 0.954297
Si Si6 0.816645 0.353094 0.793662
Si Si7 0.462936 0.022616 0.819773
Si Si8 0.000000 0.500000 0.500000
O O1 0.497977 0.163471 0.837302
O O2 0.059098 0.115893 0.927044
O O3 0.612731 0.121671 0.000313
O O4 0.565577 0.344988 0.318226
O O5 0.602642 0.503744 0.760092
O O6 0.129638 0.277680 0.407880
O O7 0.946125 0.460642 0.551386
O O8 0.671747 0.249841 0.555249
O O9 0.429613 0.079278 0.245919
O O10 0.109772 0.322546 0.698433
O O11 0.563056 0.927808 0.553084
O O12 0.323106 0.760040 0.171629
O O13 0.000000 0.000000 0.500000
O O14 0.071605 0.620002 0.779671
O O15 0.073597 0.656896 0.077393
O O16 0.500000 0.500000 0.000000
#
# Coordination Sequence:
#
# PCOD9043352 Si02
#       8
#     2   2   2   2   2   2   2   1
#     4  11  26  47  74 107 151 201 253 308 382 446
#     4  12  29  47  75 112 154 205 250 317 380 466
#     4  12  27  47  77 112 153 200 258 312 385 445
#     4  10  23  45  70 108 146 195 251 314 370 444
#     4  12  26  47  76 110 153 197 251 318 382 454
#     4  12  25  47  75 112 151 199 251 316 378 448
#     4  11  25  47  75 108 150 197 257 315 371 453
#     4  12  28  48  74 110 156 198 254 304 392 458
#
# _framework density 27.882877000000001
#
# number of rings (size 3 to 8) (size 9 to 14) (size 15 to 20)
#    0.000    0.533    4.000    2.800    5.600    1.067 
#    0.000    0.000    0.000    0.000    0.000    0.000 
#    0.000    0.000    0.000    0.000    0.000    0.000 
#
# Total GULP energy -84110.663369 kJ/mol
# GULP energy per Si atom -5607.377558 kJ/mol
# Density = 2.781941 g / cm^3
# Si number density = 27.882877 Si / 1000 Ang^3
#
#
#
# Elastic Constant Matrix: (Units=GPa)
#
#
# Indices 1 2 3 4 5 6 
#
# 1 102.8970 3.1533 21.3091 -2.0837 5.5862 14.5222
# 2 3.1533 148.1134 37.7350 -4.7976 13.7906 8.3666
# 3 21.3091 37.7350 140.5648 -1.8493 -9.7218 17.8850
# 4 -2.0837 -4.7976 -1.8493 56.1048 9.1738 6.3488
# 5 5.5862 13.7906 -9.7218 9.1738 53.7251 2.7449
# 6 14.5222 8.3666 17.8850 6.3488 2.7449 36.6714
#
#
#
# Elastic Compliance Matrix: (Units=1/GPa)
#
#
# Indices 1 2 3 4 5 6 
#
# 1 0.010611 0.000501 -0.001356 0.001054 -0.001467 -0.003728
# 2 0.000501 0.007617 -0.002170 0.001114 -0.002545 -0.000880
# 3 -0.001356 -0.002170 0.008487 0.000024 0.002398 -0.003291
# 4 0.001054 0.001114 0.000024 0.018940 -0.003436 -0.003705
# 5 -0.001467 -0.002545 0.002398 -0.003436 0.020488 -0.000947
# 6 -0.003728 -0.000880 -0.003291 -0.003705 -0.000947 0.031263
#
#
# Mechanical properties :
#
#
# Convention : Reuss Voigt Hill
#
# Bulk Modulus (GPa) = 48.39361 57.32999 52.86180
# Shear Modulus (GPa) = 45.31232 51.25877 48.28555
#
# Velocity S-wave (km/s) = 4.03562 4.29226 4.16592
# Velocity P-wave (km/s) = 6.25369 6.72089 6.49149
#
# Compressibility (1/GPa) = 0.02066389
#
# Stress axis : x y z
#
# Youngs Moduli (GPa) = 94.24130 131.29296 117.82475
#
# Poissons Ratio (x) = -0.06577 0.15982
# Poissons Ratio (y) = -0.04721 0.25568
# Poissons Ratio (z) = 0.12783 0.28491
#
# Static dielectric constant tensor:
#      x y z
#    x 1.941610 0.011470 0.004530 
#    y 0.011470 2.120070 -0.017700 
#    z 0.004530 -0.017700 2.150290 
# 
# From -- ./inp_files/370916.got.cif
#   From: 2010.05.17/outbox.cif.g08.bks.cpg/sg2_186_cif.got.tgz:370916.got - 2010.06.03 11:33:40.
