data_PCOD9043646
_publ_section_title
;
Structure prediction by ZEFSAII (Michael W. Deem and Ramdas Pophale) SiO2 
 PCOD9043646
Probable space group: P -1
;
_chemical_formula_sum "Si O2"
_cell_formula_units_Z 16
_cell_length_a 11.268776
_cell_length_b 17.708777
_cell_length_c 8.278569
_cell_angle_alpha 134.414562
_cell_angle_beta 75.675209
_cell_angle_gamma 136.224699
_cell_volume 696.385434
_symmetry_space_group_name_H-M "P -1"
_symmetry_group_IT_number 2
_symmetry_cell_setting 'triclinic'
loop_
_space_group_symop_operation_xyz
x,y,z
-x,-y,-z
loop_
_atom_site_type_symbol
_atom_site_label
_atom_site_fract_x
_atom_site_fract_y
_atom_site_fract_z
Si Si1 0.947896 0.850043 0.728866
Si Si2 0.237616 0.636998 0.831653
Si Si3 0.402896 0.434921 0.760273
Si Si4 0.091160 0.762989 0.075894
Si Si5 0.355389 0.010316 0.885251
Si Si6 0.496878 0.872194 0.623837
Si Si7 0.764726 0.588496 0.674767
Si Si8 0.222431 0.527873 0.002057
O O1 0.817211 0.767292 0.486747
O O2 0.804701 0.694311 0.672880
O O3 0.145219 0.913412 0.756807
O O4 0.000000 0.000000 0.000000
O O5 0.136352 0.675421 0.861182
O O6 0.222507 0.523162 0.557435
O O7 0.471952 0.827684 0.046897
O O8 0.159165 0.555924 0.914522
O O9 0.555678 0.476446 0.658030
O O10 0.500000 0.500000 0.000000
O O11 0.362076 0.530881 0.885221
O O12 0.943115 0.722411 0.944861
O O13 0.965778 0.655059 0.118760
O O14 0.306599 0.968252 0.313642
O O15 0.366765 0.891135 0.702300
O O16 0.418226 0.087490 0.162757
O O17 0.356176 0.684393 0.319885
#
# Coordination Sequence:
#
# PCOD9043646 Si02
#       8
#     2   2   2   2   2   2   2   2
#     4  12  27  44  75 105 139 192 251 306 364 435
#     4  11  25  43  74 107 145 187 238 304 374 442
#     4  12  28  49  68 101 145 195 244 305 364 434
#     4  11  24  45  73 108 141 192 241 299 372 444
#     4  10  23  45  73 106 143 188 242 307 365 442
#     4  10  24  46  72 107 149 186 245 303 372 441
#     4  12  24  48  71 100 141 189 251 295 366 444
#     4  12  26  44  72 104 153 195 240 304 371 436
#
# _framework density 22.975781999999999
#
# number of rings (size 3 to 8) (size 9 to 14) (size 15 to 20)
#    0.000    0.750    3.750    2.625    5.250    4.000 
#    0.000    1.250    0.000    0.000    0.000    0.000 
#    0.000    0.000    0.000    0.000    0.000    0.000 
#
# Total GULP energy -89561.308733 kJ/mol
# GULP energy per Si atom -5597.581796 kJ/mol
# Density = 2.292349 g / cm^3
# Si number density = 22.975782 Si / 1000 Ang^3
#
#
#
# Elastic Constant Matrix: (Units=GPa)
#
#
# Indices 1 2 3 4 5 6 
#
# 1 91.8187 18.6533 40.2396 6.3038 18.5097 24.3017
# 2 18.6533 107.2516 18.9889 1.8812 6.4366 13.7414
# 3 40.2396 18.9889 116.9146 2.6605 0.9051 15.2358
# 4 6.3038 1.8812 2.6605 19.0046 2.4814 0.1786
# 5 18.5097 6.4366 0.9051 2.4814 41.2546 3.7224
# 6 24.3017 13.7414 15.2358 0.1786 3.7224 39.1105
#
#
#
# Elastic Compliance Matrix: (Units=1/GPa)
#
#
# Indices 1 2 3 4 5 6 
#
# 1 0.016550 -0.000658 -0.004448 -0.003908 -0.006295 -0.007703
# 2 -0.000658 0.010025 -0.001043 -0.000475 -0.000982 -0.002612
# 3 -0.004448 -0.001043 0.010385 -0.000131 0.002038 -0.001109
# 4 -0.003908 -0.000475 -0.000131 0.054173 -0.001659 0.002557
# 5 -0.006295 -0.000982 0.002038 -0.001659 0.027193 0.000882
# 6 -0.007703 -0.002612 -0.001109 0.002557 0.000882 0.031609
#
#
# Mechanical properties :
#
#
# Convention : Reuss Voigt Hill
#
# Bulk Modulus (GPa) = 40.54710 52.41650 46.48180
# Shear Modulus (GPa) = 29.33365 35.74747 32.54056
#
# Velocity S-wave (km/s) = 3.57700 3.94874 3.76746
# Velocity P-wave (km/s) = 5.89457 6.60707 6.26096
#
# Compressibility (1/GPa) = 0.02466268
#
# Stress axis : x y z
#
# Youngs Moduli (GPa) = 60.42333 99.75257 96.29049
#
# Poissons Ratio (x) = 0.06560 0.42829
# Poissons Ratio (y) = 0.03974 0.10044
# Poissons Ratio (z) = 0.26876 0.10405
#
# Static dielectric constant tensor:
#      x y z
#    x 1.942950 -0.016210 0.072990 
#    y -0.016210 1.880090 -0.036180 
#    z 0.072990 -0.036180 1.899500 
# 
# From -- ./inp_files/283372.got.cif
#   From: 2010.05.17/outbox.cif.g08.bks.cpg/sg2_142_cif.got.tgz:283372.got - 2010.06.03 11:33:40.
