data_PCOD9043691
_publ_section_title
;
Structure prediction by ZEFSAII (Michael W. Deem and Ramdas Pophale) SiO2 
 PCOD9043691
Probable space group: P -1
;
_chemical_formula_sum "Si O2"
_cell_formula_units_Z 16
_cell_length_a 7.804258
_cell_length_b 15.162709
_cell_length_c 9.509965
_cell_angle_alpha 98.516751
_cell_angle_beta 77.757032
_cell_angle_gamma 141.987410
_cell_volume 676.930814
_symmetry_space_group_name_H-M "P -1"
_symmetry_group_IT_number 2
_symmetry_cell_setting 'triclinic'
loop_
_space_group_symop_operation_xyz
x,y,z
-x,-y,-z
loop_
_atom_site_type_symbol
_atom_site_label
_atom_site_fract_x
_atom_site_fract_y
_atom_site_fract_z
Si Si1 0.343630 0.870497 0.654138
Si Si2 0.682481 0.577832 0.631099
Si Si3 0.599785 0.630364 0.934840
Si Si4 0.235818 0.069004 0.585311
Si Si5 0.852827 0.048679 0.141934
Si Si6 0.217163 0.637295 0.087974
Si Si7 0.743498 0.400833 0.628698
Si Si8 0.533607 0.117406 0.056881
O O1 0.579967 0.936586 0.518765
O O2 0.377622 0.981565 0.742680
O O3 0.025400 0.734829 0.610372
O O4 0.403305 0.836640 0.780371
O O5 0.500000 0.500000 0.500000
O O6 0.541554 0.590358 0.769190
O O7 0.674279 0.476865 0.678963
O O8 0.929092 0.788347 0.907669
O O9 0.500000 0.500000 0.000000
O O10 0.476853 0.671847 0.031632
O O11 0.460706 0.238246 0.595580
O O12 0.090923 0.991830 0.743381
O O13 0.000000 0.000000 0.500000
O O14 0.738665 0.955013 0.000669
O O15 0.152764 0.609889 0.255036
O O16 0.233119 0.740975 0.043503
O O17 0.000000 0.500000 0.000000
O O18 0.000000 0.500000 0.500000
O O19 0.500000 0.000000 0.000000
#
# Coordination Sequence:
#
# PCOD9043691 Si02
#       8
#     2   2   2   2   2   2   2   2
#     4  10  23  46  70  98 146 189 239 298 367 438
#     4  11  25  46  73 106 144 197 245 306 366 440
#     4  11  26  47  72 104 148 188 250 307 367 440
#     4  12  27  43  70 107 148 190 242 302 373 440
#     4  10  24  47  70 100 143 189 244 296 374 439
#     4  12  27  44  75 108 146 196 247 308 376 439
#     4  12  26  48  72 107 148 192 250 303 372 452
#     4  10  23  45  74 102 140 188 245 299 373 432
#
# _framework density 23.636094
#
# number of rings (size 3 to 8) (size 9 to 14) (size 15 to 20)
#    0.000    1.000    3.750    1.125   10.500    1.500 
#    0.000    0.000    0.000    0.000    0.000    0.000 
#    0.000    0.000    0.000    0.000    0.000    0.000 
#
# Total GULP energy -89130.079855 kJ/mol
# GULP energy per Si atom -5570.629991 kJ/mol
# Density = 2.358230 g / cm^3
# Si number density = 23.636094 Si / 1000 Ang^3
#
#
#
# Elastic Constant Matrix: (Units=GPa)
#
#
# Indices 1 2 3 4 5 6 
#
# 1 54.1081 19.5548 26.7463 -16.6282 3.1625 0.2866
# 2 19.5548 131.3177 58.7349 6.4883 21.3786 -8.6214
# 3 26.7463 58.7349 180.2721 -7.8733 26.5794 19.7870
# 4 -16.6282 6.4883 -7.8733 42.4183 5.0893 12.7544
# 5 3.1625 21.3786 26.5794 5.0893 46.4109 5.0522
# 6 0.2866 -8.6214 19.7870 12.7544 5.0522 42.2636
#
#
#
# Elastic Compliance Matrix: (Units=1/GPa)
#
#
# Indices 1 2 3 4 5 6 
#
# 1 0.023826 -0.003632 -0.001534 0.010618 0.000134 -0.003405
# 2 -0.003632 0.010757 -0.003393 -0.005066 -0.002826 0.005674
# 3 -0.001534 -0.003393 0.007978 0.003249 -0.002705 -0.005074
# 4 0.010618 -0.005066 0.003249 0.033124 -0.002542 -0.012319
# 5 0.000134 -0.002826 -0.002705 -0.002542 0.024832 -0.001512
# 6 -0.003405 0.005674 -0.005074 -0.012319 -0.001512 0.031115
#
#
# Mechanical properties :
#
#
# Convention : Reuss Voigt Hill
#
# Bulk Modulus (GPa) = 39.30451 63.97443 51.63947
# Shear Modulus (GPa) = 31.80050 43.59603 37.69827
#
# Velocity S-wave (km/s) = 3.67198 4.29939 3.99801
# Velocity P-wave (km/s) = 5.88583 7.19524 6.57322
#
# Compressibility (1/GPa) = 0.02544237
#
# Stress axis : x y z
#
# Youngs Moduli (GPa) = 41.97150 92.96682 125.34553
#
# Poissons Ratio (x) = 0.33764 0.19227
# Poissons Ratio (y) = 0.15243 0.42531
# Poissons Ratio (z) = 0.06438 0.31545
#
# Static dielectric constant tensor:
#      x y z
#    x 2.010860 0.007850 0.099930 
#    y 0.007850 1.867530 0.081850 
#    z 0.099930 0.081850 1.856520 
# 
# From -- ./inp_files/209292.got.cif
#   From: 2010.05.17/outbox.cif.g08.bks.cpg/sg2_105_cif.got.tgz:209292.got - 2010.06.03 11:33:40.
