data_PCOD9043315
_publ_section_title
;
Structure prediction by ZEFSAII (Michael W. Deem and Ramdas Pophale) SiO2 
 PCOD9043315
Probable space group: P -1
;
_chemical_formula_sum "Si O2"
_cell_formula_units_Z 15
_cell_length_a 9.800200
_cell_length_b 11.545753
_cell_length_c 14.041442
_cell_angle_alpha 55.015395
_cell_angle_beta 36.316230
_cell_angle_gamma 39.113044
_cell_volume 587.861410
_symmetry_space_group_name_H-M "P -1"
_symmetry_group_IT_number 2
_symmetry_cell_setting 'triclinic'
loop_
_space_group_symop_operation_xyz
x,y,z
-x,-y,-z
loop_
_atom_site_type_symbol
_atom_site_label
_atom_site_fract_x
_atom_site_fract_y
_atom_site_fract_z
Si Si1 0.222069 0.474906 0.618856
Si Si2 0.142613 0.154910 0.023243
Si Si3 0.500000 0.000000 0.500000
Si Si4 0.447844 0.351784 0.337796
Si Si5 0.467359 0.778705 0.129312
Si Si6 0.768371 0.842310 0.241099
Si Si7 0.829870 0.210531 0.525928
Si Si8 0.331570 0.617733 0.132588
O O1 0.351635 0.432128 0.459501
O O2 0.093126 0.369420 0.750267
O O3 0.505042 0.352787 0.589017
O O4 0.027378 0.695910 0.631693
O O5 0.786813 0.272840 0.166461
O O6 0.254400 0.260907 0.952328
O O7 0.278390 0.983414 0.096896
O O8 0.262584 0.086918 0.879937
O O9 0.559596 0.813196 0.589328
O O10 0.481351 0.951736 0.419264
O O11 0.258002 0.512799 0.290314
O O12 0.255935 0.777147 0.321865
O O13 0.523660 0.651820 0.070218
O O14 0.014580 0.816491 0.185708
O O15 0.000000 0.000000 0.500000
O O16 0.500000 0.500000 0.000000
#
# Coordination Sequence:
#
# PCOD9043315 Si02
#       8
#     2   2   1   2   2   2   2   2
#     4  10  23  45  70 103 147 188 239 306 366 431
#     4  11  24  46  76 103 143 188 244 307 363 434
#     4  10  26  42  76 102 144 194 240 298 358 442
#     4  11  23  47  70 105 143 192 240 299 372 430
#     4  11  25  46  71 108 141 188 249 301 362 441
#     4  11  24  48  70 106 145 189 245 298 370 436
#     4  11  22  44  72 105 146 190 243 301 371 439
#     4  12  26  46  72 106 145 191 237 300 369 443
#
# _framework density 25.516217999999999
#
# number of rings (size 3 to 8) (size 9 to 14) (size 15 to 20)
#    0.000    1.067    4.000    1.600    1.867    4.800 
#   16.800    0.000    0.000    0.000    0.000    0.000 
#    0.000    0.000    0.000    0.000    0.000    0.000 
#
# Total GULP energy -83700.628265 kJ/mol
# GULP energy per Si atom -5580.041884 kJ/mol
# Density = 2.545814 g / cm^3
# Si number density = 25.516218 Si / 1000 Ang^3
#
#
#
# Elastic Constant Matrix: (Units=GPa)
#
#
# Indices 1 2 3 4 5 6 
#
# 1 109.4103 33.5449 29.7501 -6.3729 14.8221 -0.1127
# 2 33.5449 128.9339 14.3298 -16.2854 -8.7786 17.2518
# 3 29.7501 14.3298 54.2925 -7.8492 10.3834 -8.6842
# 4 -6.3729 -16.2854 -7.8492 33.0069 1.5407 0.4471
# 5 14.8221 -8.7786 10.3834 1.5407 44.5090 -8.9404
# 6 -0.1127 17.2518 -8.6842 0.4471 -8.9404 42.1442
#
#
#
# Elastic Compliance Matrix: (Units=1/GPa)
#
#
# Indices 1 2 3 4 5 6 
#
# 1 0.011832 -0.002644 -0.005266 -0.000106 -0.003367 -0.000684
# 2 -0.002644 0.009794 -0.001636 0.003880 0.002274 -0.003912
# 3 -0.005266 -0.001636 0.023693 0.003898 -0.003266 0.004803
# 4 -0.000106 0.003880 0.003898 0.033210 -0.001553 -0.001467
# 5 -0.003367 0.002274 -0.003266 -0.001553 0.025624 0.003840
# 6 -0.000684 -0.003912 0.004803 -0.001467 0.003840 0.027148
#
#
# Mechanical properties :
#
#
# Convention : Reuss Voigt Hill
#
# Bulk Modulus (GPa) = 38.13022 49.76513 43.94768
# Shear Modulus (GPa) = 31.42003 38.26614 34.84308
#
# Velocity S-wave (km/s) = 3.51290 3.87677 3.69931
# Velocity P-wave (km/s) = 5.60624 6.29165 5.95881
#
# Compressibility (1/GPa) = 0.02622592
#
# Stress axis : x y z
#
# Youngs Moduli (GPa) = 84.51804 102.10409 42.20702
#
# Poissons Ratio (x) = 0.26997 0.22228
# Poissons Ratio (y) = 0.22347 0.06905
# Poissons Ratio (z) = 0.44510 0.16703
#
# Static dielectric constant tensor:
#      x y z
#    x 2.041630 0.116400 0.003870 
#    y 0.116400 1.956110 -0.051960 
#    z 0.003870 -0.051960 1.951560 
# 
# From -- ./inp_files/518741.got.cif
#   From: 2010.05.17/outbox.cif.g08.bks.cpg/sg2_260_cif.got.tgz:518741.got - 2010.06.03 11:33:40.
