data_PCOD9043339
_publ_section_title
;
Structure prediction by ZEFSAII (Michael W. Deem and Ramdas Pophale) SiO2 
 PCOD9043339
Probable space group: P -1
;
_chemical_formula_sum "Si O2"
_cell_formula_units_Z 15
_cell_length_a 24.162390
_cell_length_b 6.636425
_cell_length_c 8.253439
_cell_angle_alpha 110.380387
_cell_angle_beta 146.400922
_cell_angle_gamma 57.937669
_cell_volume 608.093882
_symmetry_space_group_name_H-M "P -1"
_symmetry_group_IT_number 2
_symmetry_cell_setting 'triclinic'
loop_
_space_group_symop_operation_xyz
x,y,z
-x,-y,-z
loop_
_atom_site_type_symbol
_atom_site_label
_atom_site_fract_x
_atom_site_fract_y
_atom_site_fract_z
Si Si1 0.004482 0.106104 0.866751
Si Si2 0.500000 0.500000 0.000000
Si Si3 0.822403 0.821478 0.828864
Si Si4 0.061816 0.213662 0.576553
Si Si5 0.310458 0.854420 0.959602
Si Si6 0.404130 0.734409 0.498088
Si Si7 0.428280 0.039389 0.068082
Si Si8 0.762876 0.494273 0.441330
O O1 0.881172 0.331517 0.595546
O O2 0.103994 0.181358 0.145480
O O3 0.016230 0.894046 0.714645
O O4 0.000000 0.000000 0.000000
O O5 0.459000 0.528342 0.710496
O O6 0.521226 0.216239 0.975948
O O7 0.797492 0.593150 0.712619
O O8 0.709096 0.064183 0.639174
O O9 0.905551 0.826420 0.168548
O O10 0.000000 0.500000 0.500000
O O11 0.183962 0.065327 0.745999
O O12 0.362221 0.697060 0.205950
O O13 0.381044 0.983648 0.102440
O O14 0.299553 0.673971 0.746251
O O15 0.481399 0.861814 0.678187
O O16 0.319775 0.257208 0.778640
#
# Coordination Sequence:
#
# PCOD9043339 Si02
#       8
#     2   1   2   2   2   2   2   2
#     4  11  25  44  75 107 145 193 241 306 368 435
#     4  12  26  46  76 100 150 186 254 302 364 434
#     4  11  24  45  71 103 148 185 241 299 358 446
#     4  10  23  45  70 106 144 189 240 289 370 433
#     4  10  26  47  73 109 149 188 247 308 363 444
#     4  11  26  49  71 110 141 201 244 304 370 431
#     4  12  26  45  76 105 149 193 248 307 364 441
#     4  11  25  44  75 105 146 187 247 298 373 431
#
# _framework density 24.667242000000002
#
# number of rings (size 3 to 8) (size 9 to 14) (size 15 to 20)
#    0.000    1.067    1.333    3.200    7.467    4.267 
#    4.800    0.000    0.000    0.000    0.000    0.000 
#    0.000    0.000    0.000    0.000    0.000    0.000 
#
# Total GULP energy -83604.958889 kJ/mol
# GULP energy per Si atom -5573.663926 kJ/mol
# Density = 2.461110 g / cm^3
# Si number density = 24.667242 Si / 1000 Ang^3
#
#
#
# Elastic Constant Matrix: (Units=GPa)
#
#
# Indices 1 2 3 4 5 6 
#
# 1 42.2588 15.8414 31.5942 -4.2703 1.4025 27.3590
# 2 15.8414 156.6882 62.7694 -6.2291 1.5007 1.6177
# 3 31.5942 62.7694 108.2428 8.7727 1.3013 19.6982
# 4 -4.2703 -6.2291 8.7727 40.1898 -5.4650 -2.5616
# 5 1.4025 1.5007 1.3013 -5.4650 45.2181 2.5211
# 6 27.3590 1.6177 19.6982 -2.5616 2.5211 30.6053
#
#
#
# Elastic Compliance Matrix: (Units=1/GPa)
#
#
# Indices 1 2 3 4 5 6 
#
# 1 0.065594 -0.002449 -0.008596 0.005364 0.001880 -0.052680
# 2 -0.002449 0.008981 -0.005741 0.002739 -0.000040 0.005642
# 3 -0.008596 -0.005741 0.016034 -0.005550 -0.000521 -0.002753
# 4 0.005364 0.002739 -0.005550 0.027566 0.003196 0.000676
# 5 0.001880 -0.000040 -0.000521 0.003196 0.022623 -0.002939
# 6 -0.052680 0.005642 -0.002753 0.000676 -0.002939 0.081539
#
#
# Mechanical properties :
#
#
# Convention : Reuss Voigt Hill
#
# Bulk Modulus (GPa) = 17.53276 58.62221 38.07749
# Shear Modulus (GPa) = 18.18697 36.33497 27.26097
#
# Velocity S-wave (km/s) = 2.71826 3.84214 3.32798
# Velocity P-wave (km/s) = 4.12008 6.59542 5.49884
#
# Compressibility (1/GPa) = 0.05703609
#
# Stress axis : x y z
#
# Youngs Moduli (GPa) = 15.24521 111.34971 62.36699
#
# Poissons Ratio (x) = 0.27268 0.53613
# Poissons Ratio (y) = 0.03733 0.35807
# Poissons Ratio (z) = 0.13105 0.63930
#
# Static dielectric constant tensor:
#      x y z
#    x 2.706960 0.083970 -0.026960 
#    y 0.083970 1.974170 0.002890 
#    z -0.026960 0.002890 2.091280 
# 
# From -- ./inp_files/356047.got.cif
#   From: 2010.05.17/outbox.cif.g08.bks.cpg/sg2_179_cif.got.tgz:356047.got - 2010.06.03 11:33:40.
