data_PCOD9043076
_publ_section_title
;
Structure prediction by ZEFSAII (Michael W. Deem and Ramdas Pophale) SiO2 
 PCOD9043076
Probable space group: P -1
;
_chemical_formula_sum "Si O2"
_cell_formula_units_Z 15
_cell_length_a 20.256040
_cell_length_b 11.824396
_cell_length_c 5.470006
_cell_angle_alpha 71.538770
_cell_angle_beta 83.074219
_cell_angle_gamma 29.929525
_cell_volume 586.362228
_symmetry_space_group_name_H-M "P -1"
_symmetry_group_IT_number 2
_symmetry_cell_setting 'triclinic'
loop_
_space_group_symop_operation_xyz
x,y,z
-x,-y,-z
loop_
_atom_site_type_symbol
_atom_site_label
_atom_site_fract_x
_atom_site_fract_y
_atom_site_fract_z
Si Si1 0.173559 0.655781 0.014296
Si Si2 0.249658 0.335484 0.562571
Si Si3 0.500000 0.500000 0.000000
Si Si4 0.716657 0.100508 0.776413
Si Si5 0.919049 0.598784 0.218808
Si Si6 0.624855 0.647908 0.243529
Si Si7 0.126491 0.904933 0.279156
Si Si8 0.586335 0.137657 0.442854
O O1 0.333763 0.397160 0.025172
O O2 0.166315 0.556872 0.273880
O O3 0.148598 0.819995 0.051508
O O4 0.038370 0.848265 0.772037
O O5 0.141786 0.438141 0.717685
O O6 0.357544 0.249490 0.715779
O O7 0.328751 0.106767 0.537279
O O8 0.419351 0.639835 0.201230
O O9 0.499409 0.351717 0.139198
O O10 0.822534 0.042207 0.740166
O O11 0.685900 0.084628 0.545884
O O12 0.787512 0.893645 0.063205
O O13 0.000000 0.500000 0.500000
O O14 0.000000 0.500000 0.000000
O O15 0.762094 0.351308 0.450458
O O16 0.499365 0.778491 0.342778
#
# Coordination Sequence:
#
# PCOD9043076 Si02
#       8
#     2   2   1   2   2   2   2   2
#     4  10  24  46  73 102 149 194 253 315 383 466
#     4  11  26  48  71 108 146 198 257 315 392 460
#     4  12  26  48  72 104 160 196 256 314 392 464
#     4  12  27  45  79 109 152 200 253 323 389 472
#     4  12  28  51  81 117 158 205 260 328 398 477
#     4  11  25  44  75 104 145 201 255 314 384 463
#     4  10  23  45  68 108 143 193 247 313 386 464
#     4  12  27  49  73 112 150 201 261 324 390 466
#
# _framework density 25.581458000000001
#
# number of rings (size 3 to 8) (size 9 to 14) (size 15 to 20)
#    0.000    0.800    2.667    2.800    7.467    0.533 
#    0.000    0.000    0.000    0.000    0.000    0.000 
#    0.000    0.000    0.000    0.000    0.000    0.000 
#
# Total GULP energy -83706.854547 kJ/mol
# GULP energy per Si atom -5580.456970 kJ/mol
# Density = 2.552323 g / cm^3
# Si number density = 25.581458 Si / 1000 Ang^3
#
#
#
# Elastic Constant Matrix: (Units=GPa)
#
#
# Indices 1 2 3 4 5 6 
#
# 1 168.5596 32.2165 20.9888 8.1977 -30.9908 -0.2268
# 2 32.2165 111.3711 24.6037 13.8092 -11.3420 6.2121
# 3 20.9888 24.6037 53.2116 6.5634 -23.1319 -15.0333
# 4 8.1977 13.8092 6.5634 40.0339 -5.3939 -16.5707
# 5 -30.9908 -11.3420 -23.1319 -5.3939 33.7342 0.8249
# 6 -0.2268 6.2121 -15.0333 -16.5707 0.8249 33.2706
#
#
#
# Elastic Compliance Matrix: (Units=1/GPa)
#
#
# Indices 1 2 3 4 5 6 
#
# 1 0.007405 -0.001747 0.001137 0.000176 0.007004 0.000805
# 2 -0.001747 0.012415 -0.008838 -0.007104 -0.004388 -0.009753
# 3 0.001137 -0.008838 0.039121 0.009604 0.025860 0.023477
# 4 0.000176 -0.007104 0.009604 0.036998 0.009691 0.023854
# 5 0.007004 -0.004388 0.025860 0.009691 0.053492 0.016053
# 6 0.000805 -0.009753 0.023477 0.023854 0.016053 0.053973
#
#
# Mechanical properties :
#
#
# Convention : Reuss Voigt Hill
#
# Bulk Modulus (GPa) = 24.97196 54.30669 39.63933
# Shear Modulus (GPa) = 21.21816 38.42996 29.82406
#
# Velocity S-wave (km/s) = 2.88312 3.88010 3.41815
# Velocity P-wave (km/s) = 4.56794 6.43029 5.57740
#
# Compressibility (1/GPa) = 0.04004491
#
# Stress axis : x y z
#
# Youngs Moduli (GPa) = 135.04218 80.55037 25.56194
#
# Poissons Ratio (x) = 0.14070 -0.02906
# Poissons Ratio (y) = 0.23589 0.22592
# Poissons Ratio (z) = -0.15354 0.71190
#
# Static dielectric constant tensor:
#      x y z
#    x 2.296200 -0.180100 0.250610 
#    y -0.180100 2.167810 -0.018770 
#    z 0.250610 -0.018770 2.335930 
# 
# From -- ./inp_files/118532.got.cif
#   From: 2010.05.17/outbox.cif.g08.bks.cpg/sg2_60_cif.got.tgz:118532.got - 2010.06.03 11:33:40.
