data_PCOD9043102
_publ_section_title
;
Structure prediction by ZEFSAII (Michael W. Deem and Ramdas Pophale) SiO2 
 PCOD9043102
Probable space group: P -1
;
_chemical_formula_sum "Si O2"
_cell_formula_units_Z 16
_cell_length_a 15.063182
_cell_length_b 12.753526
_cell_length_c 9.178870
_cell_angle_alpha 100.904553
_cell_angle_beta 88.953843
_cell_angle_gamma 151.730108
_cell_volume 777.241305
_symmetry_space_group_name_H-M "P -1"
_symmetry_group_IT_number 2
_symmetry_cell_setting 'triclinic'
loop_
_space_group_symop_operation_xyz
x,y,z
-x,-y,-z
loop_
_atom_site_type_symbol
_atom_site_label
_atom_site_fract_x
_atom_site_fract_y
_atom_site_fract_z
Si Si1 0.350795 0.578847 0.553025
Si Si2 0.232443 0.827549 0.719018
Si Si3 0.239740 0.022481 0.260393
Si Si4 0.931605 0.154208 0.094546
Si Si5 0.014151 0.371595 0.612163
Si Si6 0.398830 0.673419 0.251173
Si Si7 0.372847 0.297309 0.834234
Si Si8 0.774545 0.783786 0.486848
O O1 0.537147 0.780655 0.707715
O O2 0.157239 0.427652 0.580301
O O3 0.409710 0.696915 0.431172
O O4 0.307091 0.407631 0.479093
O O5 0.153829 0.824279 0.842468
O O6 0.149943 0.621343 0.693404
O O7 0.133779 0.763471 0.553467
O O8 0.468591 0.092068 0.764563
O O9 0.242594 0.128135 0.394553
O O10 0.108135 0.792926 0.285980
O O11 0.149171 0.956038 0.091972
O O12 0.167874 0.415805 0.155288
O O13 0.836083 0.964650 0.157594
O O14 0.508653 0.682953 0.203168
O O15 0.335239 0.319017 0.691189
O O16 0.500000 0.500000 0.000000
O O17 0.000000 0.000000 0.500000
#
# Coordination Sequence:
#
# PCOD9043102 Si02
#       8
#     2   2   2   2   2   2   2   2
#     4  12  23  41  69  96 126 173 215 262 319 387
#     4  10  23  45  68  97 127 165 217 277 315 385
#     4  12  25  43  64 100 131 170 214 265 320 387
#     4  11  25  43  66  95 136 168 214 268 324 376
#     4  11  23  43  71  96 126 166 220 269 324 379
#     4  11  23  42  67  94 131 170 219 260 322 383
#     4  11  25  43  62  97 133 173 220 263 310 386
#     4  12  24  41  65  91 137 170 210 264 318 374
#
# _framework density 20.585626999999999
#
# number of rings (size 3 to 8) (size 9 to 14) (size 15 to 20)
#    0.000    0.750    5.000    2.625    3.500    4.500 
#    0.000    1.250    0.000    0.000    0.000    0.000 
#    0.000    0.000    0.000    0.000    0.000    0.000 
#
# Total GULP energy -89503.973636 kJ/mol
# GULP energy per Si atom -5593.998352 kJ/mol
# Density = 2.053877 g / cm^3
# Si number density = 20.585627 Si / 1000 Ang^3
#
#
#
# Elastic Constant Matrix: (Units=GPa)
#
#
# Indices 1 2 3 4 5 6 
#
# 1 22.7147 16.8332 8.6572 5.7868 8.8398 -1.1358
# 2 16.8332 105.7367 -10.2821 12.1429 6.5641 14.7915
# 3 8.6572 -10.2821 57.1300 7.7322 -0.6867 6.0490
# 4 5.7868 12.1429 7.7322 31.6140 1.2090 4.9029
# 5 8.8398 6.5641 -0.6867 1.2090 20.7548 7.0386
# 6 -1.1358 14.7915 6.0490 4.9029 7.0386 36.5094
#
#
#
# Elastic Compliance Matrix: (Units=1/GPa)
#
#
# Indices 1 2 3 4 5 6 
#
# 1 0.075219 -0.013049 -0.015138 -0.006477 -0.033987 0.017557
# 2 -0.013049 0.013158 0.005560 -0.003092 0.004149 -0.007043
# 3 -0.015138 0.005560 0.022221 -0.003957 0.008182 -0.007451
# 4 -0.006477 -0.003092 -0.003957 0.035422 0.002757 -0.003582
# 5 -0.033987 0.004149 0.008182 0.002757 0.067374 -0.017453
# 6 0.017557 -0.007043 -0.007451 -0.003582 -0.017453 0.035870
#
#
# Mechanical properties :
#
#
# Convention : Reuss Voigt Hill
#
# Bulk Modulus (GPa) = 15.30371 23.99979 19.65175
# Shear Modulus (GPa) = 15.80774 29.13384 22.47079
#
# Velocity S-wave (km/s) = 2.77411 3.76606 3.30749
# Velocity P-wave (km/s) = 4.20847 5.53126 4.91457
#
# Compressibility (1/GPa) = 0.06534365
#
# Stress axis : x y z
#
# Youngs Moduli (GPa) = 13.29453 75.99826 45.00194
#
# Poissons Ratio (x) = 0.99171 0.68123
# Poissons Ratio (y) = 0.17348 -0.25019
# Poissons Ratio (z) = 0.20125 -0.42252
#
# Static dielectric constant tensor:
#      x y z
#    x 1.706290 0.005610 0.002870 
#    y 0.005610 1.780250 0.013610 
#    z 0.002870 0.013610 1.703840 
# 
# From -- ./inp_files/187961.got.cif
#   From: 2010.05.17/outbox.cif.g08.bks.cpg/sg2_94_cif.got.tgz:187961.got - 2010.06.03 11:33:40.
