data_PCOD9043263
_publ_section_title
;
Structure prediction by ZEFSAII (Michael W. Deem and Ramdas Pophale) SiO2 
 PCOD9043263
Probable space group: P -1
;
_chemical_formula_sum "Si O2"
_cell_formula_units_Z 14
_cell_length_a 11.131998
_cell_length_b 7.309802
_cell_length_c 8.070724
_cell_angle_alpha 88.871834
_cell_angle_beta 79.096346
_cell_angle_gamma 76.761817
_cell_volume 627.551775
_symmetry_space_group_name_H-M "P -1"
_symmetry_group_IT_number 2
_symmetry_cell_setting 'triclinic'
loop_
_space_group_symop_operation_xyz
x,y,z
-x,-y,-z
loop_
_atom_site_type_symbol
_atom_site_label
_atom_site_fract_x
_atom_site_fract_y
_atom_site_fract_z
Si Si1 0.634532 0.912293 0.050880
Si Si2 0.253480 0.731977 0.384283
Si Si3 0.079620 0.599679 0.853948
Si Si4 0.856015 0.896480 0.733871
Si Si5 0.520919 0.583589 0.172480
Si Si6 0.141915 0.402449 0.512970
Si Si7 0.299911 0.766782 0.751533
O O1 0.618367 0.715730 0.130208
O O2 0.666815 0.053788 0.176306
O O3 0.743582 0.884838 0.887050
O O4 0.500000 0.000000 0.000000
O O5 0.390199 0.708563 0.270163
O O6 0.224994 0.526791 0.398112
O O7 0.254466 0.793646 0.574214
O O8 0.151839 0.885864 0.307656
O O9 0.144045 0.441559 0.706131
O O10 0.191359 0.694821 0.884038
O O11 0.981772 0.769708 0.782997
O O12 0.000000 0.500000 0.000000
O O13 0.831286 0.802040 0.567895
O O14 0.577948 0.405131 0.274281
O O15 0.500000 0.500000 0.000000
O O16 0.000000 0.500000 0.500000
#
# Coordination Sequence:
#
# PCOD9043263 Si02
#       7
#     2   2   2   2   2   2   2
#     4  12  24  43  66 102 131 177 226 269 339 392
#     4  11  24  41  66 100 130 177 223 269 337 389
#     4  10  23  45  70 100 132 176 223 273 338 395
#     4  11  23  43  70  95 136 174 218 275 328 396
#     4  12  23  43  67  91 137 177 223 274 328 398
#     4   9  22  41  65  94 129 171 216 266 331 389
#     4  11  26  43  65 100 136 173 226 277 330 399
#
# _framework density 22.308916
#
# number of rings (size 3 to 8) (size 9 to 14) (size 15 to 20)
#    0.000    1.143    2.857    2.143    0.000   13.143 
#    0.000    1.429    0.000    0.000    0.000    0.000 
#    0.000    0.000    0.000    0.000    0.000    0.000 
#
# Total GULP energy -78289.538373 kJ/mol
# GULP energy per Si atom -5592.109884 kJ/mol
# Density = 2.225814 g / cm^3
# Si number density = 22.308916 Si / 1000 Ang^3
#
#
#
# Elastic Constant Matrix: (Units=GPa)
#
#
# Indices 1 2 3 4 5 6 
#
# 1 74.3987 15.6368 9.5400 3.2336 6.6180 3.7140
# 2 15.6368 99.2534 21.6510 -0.6496 5.1511 2.7201
# 3 9.5400 21.6510 55.0635 -1.2503 -11.0431 1.3011
# 4 3.2336 -0.6496 -1.2503 32.2927 -1.0934 5.0808
# 5 6.6180 5.1511 -11.0431 -1.0934 29.8446 -1.4227
# 6 3.7140 2.7201 1.3011 5.0808 -1.4227 47.2826
#
#
#
# Elastic Compliance Matrix: (Units=1/GPa)
#
#
# Indices 1 2 3 4 5 6 
#
# 1 0.014589 -0.001460 -0.002794 -0.001590 -0.004120 -0.000938
# 2 -0.001460 0.011596 -0.005002 0.000150 -0.003549 -0.000538
# 3 -0.002794 -0.005002 0.022630 0.001385 0.009909 0.000034
# 4 -0.001590 0.000150 0.001385 0.031761 0.001847 -0.003279
# 5 -0.004120 -0.003549 0.009909 0.001847 0.038825 0.001225
# 6 -0.000938 -0.000538 0.000034 -0.003279 0.001225 0.021642
#
#
# Mechanical properties :
#
#
# Convention : Reuss Voigt Hill
#
# Bulk Modulus (GPa) = 33.00030 35.81903 34.40967
# Shear Modulus (GPa) = 29.47139 34.00984 31.74061
#
# Velocity S-wave (km/s) = 3.63858 3.90871 3.77606
# Velocity P-wave (km/s) = 5.69885 6.03834 5.87105
#
# Compressibility (1/GPa) = 0.03030275
#
# Stress axis : x y z
#
# Youngs Moduli (GPa) = 68.54684 86.23424 44.18976
#
# Poissons Ratio (x) = 0.12589 0.12345
# Poissons Ratio (y) = 0.10007 0.22105
# Poissons Ratio (z) = 0.19150 0.43138
#
# Static dielectric constant tensor:
#      x y z
#    x 1.925930 0.206420 -0.159940 
#    y 0.206420 2.234370 -0.413860 
#    z -0.159940 -0.413860 2.204810 
# 
# From -- ./inp_files/229708.got.cif
#   From: 2010.05.17/outbox.cif.g08.bks.cpg/sg2_115_cif.got.tgz:229708.got - 2010.06.03 11:33:40.
