data_PCOD9043919
_publ_section_title
;
Structure prediction by ZEFSAII (Michael W. Deem and Ramdas Pophale) SiO2 
 PCOD9043919
Probable space group: P -1
;
_chemical_formula_sum "Si O2"
_cell_formula_units_Z 16
_cell_length_a 11.723098
_cell_length_b 9.015897
_cell_length_c 8.179152
_cell_angle_alpha 69.198906
_cell_angle_beta 127.799780
_cell_angle_gamma 96.137318
_cell_volume 631.340715
_symmetry_space_group_name_H-M "P -1"
_symmetry_group_IT_number 2
_symmetry_cell_setting 'triclinic'
loop_
_space_group_symop_operation_xyz
x,y,z
-x,-y,-z
loop_
_atom_site_type_symbol
_atom_site_label
_atom_site_fract_x
_atom_site_fract_y
_atom_site_fract_z
Si Si1 0.360653 0.864428 0.225086
Si Si2 0.219434 0.489937 0.872384
Si Si3 0.934714 0.501875 0.759390
Si Si4 0.691397 0.700107 0.643727
Si Si5 0.097183 0.851762 0.231592
Si Si6 0.198514 0.022002 0.520846
Si Si7 0.278041 0.189878 0.833554
Si Si8 0.401395 0.752179 0.955584
O O1 0.525218 0.784481 0.443669
O O2 0.256517 0.840250 0.292801
O O3 0.327197 0.775891 0.060848
O O4 0.326593 0.051069 0.066088
O O5 0.284952 0.394206 0.129489
O O6 0.338063 0.601902 0.884032
O O7 0.203896 0.355128 0.779219
O O8 0.057587 0.579035 0.737293
O O9 0.767475 0.582011 0.612897
O O10 0.944558 0.322158 0.770360
O O11 0.000000 0.500000 0.000000
O O12 0.784432 0.846146 0.652354
O O13 0.096402 0.906355 0.398230
O O14 0.000000 0.000000 0.000000
O O15 0.184131 0.116309 0.641839
O O16 0.346495 0.903016 0.734104
O O17 0.429837 0.235589 0.878163
#
# Coordination Sequence:
#
# PCOD9043919 Si02
#       8
#     2   2   2   2   2   2   2   2
#     4  11  22  43  74 100 138 182 235 287 355 410
#     4  11  25  42  72 101 143 190 232 284 353 411
#     4  10  23  46  66  98 145 177 226 294 344 404
#     4  11  22  44  73 104 134 184 235 296 344 403
#     4  12  26  45  72 108 138 180 239 290 346 420
#     4  11  24  45  72  99 143 184 226 293 345 412
#     4  11  22  45  68 103 149 179 227 292 349 417
#     4  11  23  45  67 104 145 183 229 287 347 424
#
# _framework density 25.342891999999999
#
# number of rings (size 3 to 8) (size 9 to 14) (size 15 to 20)
#    0.000    1.000    2.500    5.625    1.750    4.000 
#    0.000   11.250    0.000    0.000    0.000    0.000 
#    0.000    0.000    0.000    0.000    0.000    0.000 
#
# Total GULP energy -89436.525072 kJ/mol
# GULP energy per Si atom -5589.782817 kJ/mol
# Density = 2.528521 g / cm^3
# Si number density = 25.342892 Si / 1000 Ang^3
#
#
#
# Elastic Constant Matrix: (Units=GPa)
#
#
# Indices 1 2 3 4 5 6 
#
# 1 126.6807 44.1753 18.2326 3.9003 15.7993 -0.0926
# 2 44.1753 145.6412 27.2149 25.6845 4.1288 -0.9832
# 3 18.2326 27.2149 83.8562 -2.9885 9.2841 -6.5283
# 4 3.9003 25.6845 -2.9885 47.3937 -2.2565 -6.0855
# 5 15.7993 4.1288 9.2841 -2.2565 27.3649 -8.8876
# 6 -0.0926 -0.9832 -6.5283 -6.0855 -8.8876 30.8560
#
#
#
# Elastic Compliance Matrix: (Units=1/GPa)
#
#
# Indices 1 2 3 4 5 6 
#
# 1 0.009601 -0.002647 -0.000758 0.000111 -0.005450 -0.001764
# 2 -0.002647 0.009028 -0.002654 -0.004982 0.000271 -0.001186
# 3 -0.000758 -0.002654 0.013539 0.002544 -0.002736 0.002491
# 4 0.000111 -0.004982 0.002544 0.024968 0.003978 0.006450
# 5 -0.005450 0.000271 -0.002736 0.003978 0.045198 0.013217
# 6 -0.001764 -0.001186 0.002491 0.006450 0.013217 0.037971
#
#
# Mechanical properties :
#
#
# Convention : Reuss Voigt Hill
#
# Bulk Modulus (GPa) = 49.87942 59.49151 54.68546
# Shear Modulus (GPa) = 31.42499 38.89328 35.15914
#
# Velocity S-wave (km/s) = 3.52517 3.92175 3.72874
# Velocity P-wave (km/s) = 6.02442 6.63569 6.33743
#
# Compressibility (1/GPa) = 0.02004835
#
# Stress axis : x y z
#
# Youngs Moduli (GPa) = 104.15299 110.76635 73.86057
#
# Poissons Ratio (x) = 0.29325 0.05601
# Poissons Ratio (y) = 0.27574 0.19604
# Poissons Ratio (z) = 0.07898 0.29400
#
# Static dielectric constant tensor:
#      x y z
#    x 2.001500 -0.014170 -0.010250 
#    y -0.014170 2.016430 -0.001730 
#    z -0.010250 -0.001730 2.034580 
# 
# From -- ./inp_files/243698.got.cif
#   From: 2010.05.17/outbox.cif.g08.bks.cpg/sg2_122_cif.got.tgz:243698.got - 2010.06.03 11:33:40.
