data_PCOD9043155
_publ_section_title
;
Structure prediction by ZEFSAII (Michael W. Deem and Ramdas Pophale) SiO2 
 PCOD9043155
Probable space group: P -1
;
_chemical_formula_sum "Si O2"
_cell_formula_units_Z 8
_cell_length_a 5.008857
_cell_length_b 7.958643
_cell_length_c 9.479046
_cell_angle_alpha 122.171579
_cell_angle_beta 76.623497
_cell_angle_gamma 113.851088
_cell_volume 292.472511
_symmetry_space_group_name_H-M "P -1"
_symmetry_group_IT_number 2
_symmetry_cell_setting 'triclinic'
loop_
_space_group_symop_operation_xyz
x,y,z
-x,-y,-z
loop_
_atom_site_type_symbol
_atom_site_label
_atom_site_fract_x
_atom_site_fract_y
_atom_site_fract_z
Si Si1 0.042174 0.572494 0.865529
Si Si2 0.552497 0.805112 0.718647
Si Si3 0.179616 0.092548 0.839585
Si Si4 0.541155 0.247860 0.610380
O O1 0.840775 0.395012 0.706934
O O2 0.364488 0.657968 0.798475
O O3 0.000000 0.500000 0.000000
O O4 0.922008 0.770154 0.974323
O O5 0.432201 0.004329 0.818277
O O6 0.486856 0.700491 0.525513
O O7 0.102934 0.101153 0.260037
O O8 0.297642 0.238762 0.752518
O O9 0.500000 0.000000 0.500000
#
# Coordination Sequence:
#
# PCOD9043155 Si02
#       4
#     2   2   2   2
#     4  12  25  44  71 105 139 181 229 282 340 406
#     4  11  25  47  72 101 138 181 227 281 342 406
#     4  11  24  46  72 103 136 178 228 285 340 404
#     4  10  23  45  69 101 138 180 227 282 339 404
#
# _framework density 27.352996000000001
#
# number of rings (size 3 to 8) (size 9 to 14) (size 15 to 20)
#    0.000    1.000    0.000    6.750    0.000    6.000 
#    0.000    7.500    0.000    0.000    0.000    0.000 
#    0.000    0.000    0.000    0.000    0.000    0.000 
#
# Total GULP energy -44930.239801 kJ/mol
# GULP energy per Si atom -5616.279975 kJ/mol
# Density = 2.729074 g / cm^3
# Si number density = 27.352996 Si / 1000 Ang^3
#
#
#
# Elastic Constant Matrix: (Units=GPa)
#
#
# Indices 1 2 3 4 5 6 
#
# 1 84.2337 22.0663 17.5459 -7.7658 14.2066 20.2979
# 2 22.0663 161.9226 23.5788 -45.0832 21.3068 16.8710
# 3 17.5459 23.5788 96.3886 -0.2649 18.9680 -4.4708
# 4 -7.7658 -45.0832 -0.2649 64.2892 3.2477 -5.0617
# 5 14.2066 21.3068 18.9680 3.2477 67.7759 6.6159
# 6 20.2979 16.8710 -4.4708 -5.0617 6.6159 58.7015
#
#
#
# Elastic Compliance Matrix: (Units=1/GPa)
#
#
# Indices 1 2 3 4 5 6 
#
# 1 0.013979 -0.000600 -0.002270 0.000986 -0.001709 -0.004556
# 2 -0.000600 0.008615 -0.001613 0.005948 -0.002258 -0.001624
# 3 -0.002270 -0.001613 0.011778 -0.001047 -0.002491 0.002336
# 4 0.000986 0.005948 -0.001047 0.019971 -0.002731 -0.000100
# 5 -0.001709 -0.002258 -0.002491 -0.002731 0.016755 -0.001074
# 6 -0.004556 -0.001624 0.002336 -0.000100 -0.001074 0.019368
#
#
# Mechanical properties :
#
#
# Convention : Reuss Voigt Hill
#
# Bulk Modulus (GPa) = 39.36210 52.10300 45.73255
# Shear Modulus (GPa) = 46.33879 56.77691 51.55785
#
# Velocity S-wave (km/s) = 4.12041 4.56094 4.34626
# Velocity P-wave (km/s) = 6.08759 6.84295 6.47629
#
# Compressibility (1/GPa) = 0.02540515
#
# Stress axis : x y z
#
# Youngs Moduli (GPa) = 71.53640 116.07862 84.90286
#
# Poissons Ratio (x) = 0.06969 0.19274
# Poissons Ratio (y) = 0.04295 0.13693
# Poissons Ratio (z) = 0.16240 0.18721
#
# Static dielectric constant tensor:
#      x y z
#    x 2.122430 -0.125590 -0.099130 
#    y -0.125590 2.185370 0.021680 
#    z -0.099130 0.021680 2.105070 
# 
# From -- ./inp_files/148421.got.cif
#   From: 2010.05.17/outbox.cif.g08.bks.cpg/sg2_75_cif.got.tgz:148421.got - 2010.06.03 11:33:40.
