data_PCOD9043588
_publ_section_title
;
Structure prediction by ZEFSAII (Michael W. Deem and Ramdas Pophale) SiO2 
 PCOD9043588
Probable space group: P -1
;
_chemical_formula_sum "Si O2"
_cell_formula_units_Z 14
_cell_length_a 6.213493
_cell_length_b 23.956579
_cell_length_c 16.806893
_cell_angle_alpha 161.098793
_cell_angle_beta 57.494867
_cell_angle_gamma 130.001233
_cell_volume 595.024132
_symmetry_space_group_name_H-M "P -1"
_symmetry_group_IT_number 2
_symmetry_cell_setting 'triclinic'
loop_
_space_group_symop_operation_xyz
x,y,z
-x,-y,-z
loop_
_atom_site_type_symbol
_atom_site_label
_atom_site_fract_x
_atom_site_fract_y
_atom_site_fract_z
Si Si1 0.137052 0.641893 0.241095
Si Si2 0.778535 0.925371 0.540197
Si Si3 0.430714 0.282401 0.056174
Si Si4 0.299716 0.602253 0.680595
Si Si5 0.903612 0.256110 0.849172
Si Si6 0.176618 0.094699 0.318932
Si Si7 0.626483 0.329212 0.416944
O O1 0.482515 0.796366 0.374168
O O2 0.961711 0.758332 0.451806
O O3 0.000000 0.500000 0.000000
O O4 0.099588 0.490907 0.116608
O O5 0.685239 0.900804 0.616820
O O6 0.000151 0.839439 0.368963
O O7 0.941892 0.145230 0.768265
O O8 0.610077 0.285025 0.102442
O O9 0.456697 0.494760 0.325367
O O10 0.575918 0.223738 0.876441
O O11 0.098657 0.123948 0.925426
O O12 0.500000 0.500000 0.500000
O O13 0.369656 0.722312 0.746184
O O14 0.961587 0.435097 0.521945
O O15 0.401297 0.157869 0.287188
#
# Coordination Sequence:
#
# PCOD9043588 Si02
#       7
#     2   2   2   2   2   2   2
#     4  12  25  43  64  95 132 181 231 274 326 388
#     4  11  27  42  61 101 138 177 229 274 331 385
#     4  11  24  41  68 101 131 176 226 271 329 398
#     4   9  22  46  70 100 129 169 219 267 346 402
#     4  11  24  44  66  92 140 182 217 284 322 386
#     4  12  26  41  68 102 133 174 229 273 332 397
#     4  10  23  45  72  95 134 174 211 280 337 398
#
# _framework density 23.528455999999998
#
# number of rings (size 3 to 8) (size 9 to 14) (size 15 to 20)
#    0.000    1.143    4.286    0.429    4.000    4.000 
#    0.000    6.429    0.000    0.000    0.000    0.000 
#    0.000    0.000    0.000    0.000    0.000    0.000 
#
# Total GULP energy -78280.691500 kJ/mol
# GULP energy per Si atom -5591.477964 kJ/mol
# Density = 2.347490 g / cm^3
# Si number density = 23.528456 Si / 1000 Ang^3
#
#
#
# Elastic Constant Matrix: (Units=GPa)
#
#
# Indices 1 2 3 4 5 6 
#
# 1 81.4182 28.5294 15.6790 -3.9334 10.1988 1.7273
# 2 28.5294 122.4260 14.3197 24.1795 10.9832 18.2924
# 3 15.6790 14.3197 53.2847 14.9130 -12.8771 -12.4705
# 4 -3.9334 24.1795 14.9130 37.8684 -3.4017 -12.5578
# 5 10.1988 10.9832 -12.8771 -3.4017 53.0984 -2.7101
# 6 1.7273 18.2924 -12.4705 -12.5578 -2.7101 26.5741
#
#
#
# Elastic Compliance Matrix: (Units=1/GPa)
#
#
# Indices 1 2 3 4 5 6 
#
# 1 0.015592 -0.004663 -0.005393 0.007440 -0.002714 0.002904
# 2 -0.004663 0.017428 -0.005295 -0.017800 -0.006320 -0.023234
# 3 -0.005393 -0.005295 0.028805 -0.001768 0.009906 0.017688
# 4 0.007440 -0.017800 -0.001768 0.051861 0.006992 0.036160
# 5 -0.002714 -0.006320 0.009906 0.006992 0.024275 0.014955
# 6 0.002904 -0.023234 0.017688 0.036160 0.014955 0.080349
#
#
# Mechanical properties :
#
#
# Convention : Reuss Voigt Hill
#
# Bulk Modulus (GPa) = 32.12933 41.57615 36.85274
# Shear Modulus (GPa) = 19.27620 36.74823 28.01221
#
# Velocity S-wave (km/s) = 2.86540 3.95633 3.45420
# Velocity P-wave (km/s) = 4.96311 6.21120 5.62190
#
# Compressibility (1/GPa) = 0.03112421
#
# Stress axis : x y z
#
# Youngs Moduli (GPa) = 64.13357 57.37855 34.71567
#
# Poissons Ratio (x) = 0.26754 0.18724
# Poissons Ratio (y) = 0.29903 0.18381
# Poissons Ratio (z) = 0.34590 0.30381
#
# Static dielectric constant tensor:
#      x y z
#    x 1.882310 -0.035030 -0.017070 
#    y -0.035030 1.912940 -0.040700 
#    z -0.017070 -0.040700 1.891170 
# 
# From -- ./inp_files/52329.got.cif
#   From: 2010.05.17/outbox.cif.g08.bks.cpg/sg2_27_cif.got.tgz:52329.got - 2010.06.03 11:33:40.
