data_PCOD9043558
_publ_section_title
;
Structure prediction by ZEFSAII (Michael W. Deem and Ramdas Pophale) SiO2 
 PCOD9043558
Probable space group: P -1
;
_chemical_formula_sum "Si O2"
_cell_formula_units_Z 12
_cell_length_a 5.002600
_cell_length_b 9.089069
_cell_length_c 13.885989
_cell_angle_alpha 93.142271
_cell_angle_beta 82.755035
_cell_angle_gamma 128.459744
_cell_volume 490.226414
_symmetry_space_group_name_H-M "P -1"
_symmetry_group_IT_number 2
_symmetry_cell_setting 'triclinic'
loop_
_space_group_symop_operation_xyz
x,y,z
-x,-y,-z
loop_
_atom_site_type_symbol
_atom_site_label
_atom_site_fract_x
_atom_site_fract_y
_atom_site_fract_z
Si Si1 0.904881 0.402017 0.102702
Si Si2 0.616320 0.188977 0.448649
Si Si3 0.433504 0.058434 0.233384
Si Si4 0.019664 0.344686 0.724482
Si Si5 0.644184 0.428666 0.598165
Si Si6 0.814677 0.068626 0.062118
O O1 0.535665 0.220299 0.158104
O O2 0.013182 0.557877 0.180791
O O3 0.064175 0.292751 0.077464
O O4 0.000000 0.500000 0.000000
O O5 0.533884 0.144591 0.337788
O O6 0.459910 0.278129 0.514085
O O7 0.020287 0.366333 0.441092
O O8 0.500000 0.000000 0.500000
O O9 0.656828 0.999460 0.173624
O O10 0.074560 0.854974 0.250624
O O11 0.396430 0.454292 0.666841
O O12 0.779832 0.340263 0.655686
O O13 0.500000 0.000000 0.000000
O O14 0.000000 0.000000 0.000000
#
# Coordination Sequence:
#
# PCOD9043558 Si02
#       6
#     2   2   2   2   2   2
#     4  10  24  46  75 105 149 191 245 303 367 435
#     4  11  23  49  72 109 144 195 240 304 363 435
#     4  10  24  45  74 107 150 188 249 298 370 428
#     4  12  25  49  72 110 146 195 241 306 365 438
#     4  11  27  46  74 107 148 190 248 297 367 438
#     4  10  23  45  72 103 144 189 243 297 367 432
#
# _framework density 24.478483000000001
#
# number of rings (size 3 to 8) (size 9 to 14) (size 15 to 20)
#    1.000    0.333    3.333    1.000    0.000   10.000 
#    0.000    2.500    0.000    0.000    0.000    0.000 
#    0.000    0.000    0.000    0.000    0.000    0.000 
#
# Total GULP energy -66888.201188 kJ/mol
# GULP energy per Si atom -5574.016766 kJ/mol
# Density = 2.442277 g / cm^3
# Si number density = 24.478483 Si / 1000 Ang^3
#
#
#
# Elastic Constant Matrix: (Units=GPa)
#
#
# Indices 1 2 3 4 5 6 
#
# 1 78.0631 20.9838 32.9520 4.8923 -10.1762 -24.3138
# 2 20.9838 179.2403 73.6810 -0.9841 9.4695 0.4538
# 3 32.9520 73.6810 222.6311 27.0041 -5.4216 -7.0031
# 4 4.8923 -0.9841 27.0041 69.2502 -8.8844 -0.7388
# 5 -10.1762 9.4695 -5.4216 -8.8844 25.7648 0.7039
# 6 -24.3138 0.4538 -7.0031 -0.7388 0.7039 16.8361
#
#
#
# Elastic Compliance Matrix: (Units=1/GPa)
#
#
# Indices 1 2 3 4 5 6 
#
# 1 0.028125 -0.003316 -0.001603 0.000432 0.011057 0.039596
# 2 -0.003316 0.007108 -0.002214 0.000622 -0.004017 -0.005706
# 3 -0.001603 -0.002214 0.005729 -0.002066 0.000674 0.000009
# 4 0.000432 0.000622 -0.002066 0.015865 0.004971 0.000236
# 5 0.011057 -0.004017 0.000674 0.004971 0.046112 0.014647
# 6 0.039596 -0.005706 0.000009 0.000236 0.014647 0.116134
#
#
# Mechanical properties :
#
#
# Convention : Reuss Voigt Hill
#
# Bulk Modulus (GPa) = 37.45936 81.68534 59.57235
# Shear Modulus (GPa) = 20.64091 45.85806 33.24949
#
# Velocity S-wave (km/s) = 2.90699 4.33298 3.68953
# Velocity P-wave (km/s) = 5.15787 7.64694 6.52224
#
# Compressibility (1/GPa) = 0.02669560
#
# Stress axis : x y z
#
# Youngs Moduli (GPa) = 35.55541 140.69355 174.54677
#
# Poissons Ratio (x) = 0.46649 0.27982
# Poissons Ratio (y) = 0.11789 0.38651
# Poissons Ratio (z) = 0.05700 0.31155
#
# Static dielectric constant tensor:
#      x y z
#    x 2.115630 -0.017090 0.032280 
#    y -0.017090 2.065830 -0.042620 
#    z 0.032280 -0.042620 1.966020 
# 
# From -- ./inp_files/479281.got.cif
#   From: 2010.05.17/outbox.cif.g08.bks.cpg/sg2_240_cif.got.tgz:479281.got - 2010.06.03 11:33:40.
