data_PCOD9043647
_publ_section_title
;
Structure prediction by ZEFSAII (Michael W. Deem and Ramdas Pophale) SiO2 
 PCOD9043647
Probable space group: P -1
;
_chemical_formula_sum "Si O2"
_cell_formula_units_Z 12
_cell_length_a 10.503026
_cell_length_b 7.172783
_cell_length_c 7.047056
_cell_angle_alpha 85.357531
_cell_angle_beta 83.156232
_cell_angle_gamma 57.117755
_cell_volume 442.579864
_symmetry_space_group_name_H-M "P -1"
_symmetry_group_IT_number 2
_symmetry_cell_setting 'triclinic'
loop_
_space_group_symop_operation_xyz
x,y,z
-x,-y,-z
loop_
_atom_site_type_symbol
_atom_site_label
_atom_site_fract_x
_atom_site_fract_y
_atom_site_fract_z
Si Si1 0.425550 0.032260 0.719614
Si Si2 0.162088 0.713056 0.127503
Si Si3 0.328069 0.904213 0.276008
Si Si4 0.117420 0.497913 0.825715
Si Si5 0.470333 0.439921 0.217916
Si Si6 0.957497 0.818271 0.480474
O O1 0.563030 0.019478 0.819318
O O2 0.270383 0.260745 0.778859
O O3 0.500000 0.000000 0.500000
O O4 0.416688 0.816900 0.757309
O O5 0.212128 0.887724 0.152565
O O6 0.298161 0.494913 0.228943
O O7 0.161706 0.656306 0.914974
O O8 0.011473 0.765248 0.259048
O O9 0.444238 0.644527 0.333322
O O10 0.217955 0.061022 0.447082
O O11 0.044199 0.615480 0.629072
O O12 0.000000 0.500000 0.000000
O O13 0.500000 0.500000 0.000000
O O14 0.000000 0.000000 0.500000
#
# Coordination Sequence:
#
# PCOD9043647 Si02
#       6
#     2   2   2   2   2   2
#     4  12  28  48  76 115 154 197 261 319 375 461
#     4   9  23  48  74 109 152 202 250 309 387 458
#     4   9  24  46  77 104 147 205 246 308 386 446
#     4  12  29  45  76 121 152 197 265 318 378 460
#     4  10  23  45  73 106 144 199 250 307 382 447
#     4  10  23  48  75 106 152 206 246 307 392 454
#
# _framework density 27.113748000000001
#
# number of rings (size 3 to 8) (size 9 to 14) (size 15 to 20)
#    1.000    0.667    0.000    2.000    7.000    5.333 
#    6.000    0.000    0.000    0.000    0.000    0.000 
#    0.000    0.000    0.000    0.000    0.000    0.000 
#
# Total GULP energy -67075.325063 kJ/mol
# GULP energy per Si atom -5589.610422 kJ/mol
# Density = 2.705204 g / cm^3
# Si number density = 27.113748 Si / 1000 Ang^3
#
#
#
# Elastic Constant Matrix: (Units=GPa)
#
#
# Indices 1 2 3 4 5 6 
#
# 1 116.0224 45.0438 47.8125 19.8926 -32.0061 -4.2916
# 2 45.0438 163.7760 74.6433 19.1160 -16.9996 -17.5395
# 3 47.8125 74.6433 141.6500 29.7384 -25.7701 -3.5832
# 4 19.8926 19.1160 29.7384 57.6970 -0.3154 -6.1302
# 5 -32.0061 -16.9996 -25.7701 -0.3154 54.8940 18.6750
# 6 -4.2916 -17.5395 -3.5832 -6.1302 18.6750 42.7761
#
#
#
# Elastic Compliance Matrix: (Units=1/GPa)
#
#
# Indices 1 2 3 4 5 6 
#
# 1 0.012298 -0.002089 -0.001162 -0.003258 0.007073 -0.003275
# 2 -0.002089 0.008797 -0.004244 0.000396 -0.001806 0.003887
# 3 -0.001162 -0.004244 0.011338 -0.004384 0.004496 -0.003498
# 4 -0.003258 0.000396 -0.004384 0.021067 -0.005356 0.004826
# 5 0.007073 -0.001806 0.004496 -0.005356 0.028192 -0.012730
# 6 -0.003275 0.003887 -0.003498 0.004826 -0.012730 0.030599
#
#
# Mechanical properties :
#
#
# Convention : Reuss Voigt Hill
#
# Bulk Modulus (GPa) = 57.33036 84.04973 70.69005
# Shear Modulus (GPa) = 37.56682 48.00333 42.78508
#
# Velocity S-wave (km/s) = 3.72630 4.21223 3.97669
# Velocity P-wave (km/s) = 6.30112 7.39752 6.87122
#
# Compressibility (1/GPa) = 0.01744276
#
# Stress axis : x y z
#
# Youngs Moduli (GPa) = 81.31661 113.67078 88.19662
#
# Poissons Ratio (x) = 0.23744 0.10251
# Poissons Ratio (y) = 0.16985 0.37432
# Poissons Ratio (z) = 0.09451 0.48244
#
# Static dielectric constant tensor:
#      x y z
#    x 2.221090 0.031430 0.069230 
#    y 0.031430 2.149890 0.082320 
#    z 0.069230 0.082320 2.132440 
# 
# From -- ./inp_files/229541.got.cif
#   From: 2010.05.17/outbox.cif.g08.bks.cpg/sg2_115_cif.got.tgz:229541.got - 2010.06.03 11:33:40.
