data_PCOD9043732
_publ_section_title
;
Structure prediction by ZEFSAII (Michael W. Deem and Ramdas Pophale) SiO2 
 PCOD9043732
Probable space group: P -1
;
_chemical_formula_sum "Si O2"
_cell_formula_units_Z 14
_cell_length_a 11.854259
_cell_length_b 7.555072
_cell_length_c 7.377233
_cell_angle_alpha 59.720996
_cell_angle_beta 108.846758
_cell_angle_gamma 87.417840
_cell_volume 522.211383
_symmetry_space_group_name_H-M "P -1"
_symmetry_group_IT_number 2
_symmetry_cell_setting 'triclinic'
loop_
_space_group_symop_operation_xyz
x,y,z
-x,-y,-z
loop_
_atom_site_type_symbol
_atom_site_label
_atom_site_fract_x
_atom_site_fract_y
_atom_site_fract_z
Si Si1 0.389064 0.559330 0.720067
Si Si2 0.605983 0.760999 0.602346
Si Si3 0.138813 0.801179 0.312773
Si Si4 0.580157 0.143171 0.103929
Si Si5 0.877505 0.524086 0.809153
Si Si6 0.702307 0.930124 0.913000
Si Si7 0.916578 0.731550 0.380255
O O1 0.490979 0.651301 0.614017
O O2 0.255007 0.614995 0.536412
O O3 0.369758 0.694361 0.827362
O O4 0.446144 0.308259 0.906018
O O5 0.736521 0.584147 0.772164
O O6 0.613372 0.879281 0.736697
O O7 0.601415 0.924748 0.346706
O O8 0.101064 0.701106 0.162928
O O9 0.016231 0.867174 0.334461
O O10 0.206027 0.979330 0.212878
O O11 0.363388 0.915128 0.037112
O O12 0.874825 0.717326 0.569196
O O13 0.000000 0.500000 0.000000
O O14 0.804953 0.767393 0.165338
O O15 0.000000 0.500000 0.500000
#
# Coordination Sequence:
#
# PCOD9043732 Si02
#       7
#     2   2   2   2   2   2   2
#     4  11  27  52  74 113 160 203 250 316 381 458
#     4  12  25  51  75 116 159 197 261 310 380 459
#     4  11  25  48  75 111 153 199 254 315 381 456
#     4  11  26  49  75 113 153 207 254 310 377 452
#     4  11  25  48  78 109 153 200 251 323 386 448
#     4  12  25  47  79 112 149 201 256 317 378 455
#     4  10  23  45  74 107 146 194 247 313 381 442
#
# _framework density 26.809068
#
# number of rings (size 3 to 8) (size 9 to 14) (size 15 to 20)
#    0.000    0.857    2.857    3.429    0.000   10.857 
#    0.000    2.143    0.000    0.000    0.000    0.000 
#    0.000    0.000    0.000    0.000    0.000    0.000 
#
# Total GULP energy -78241.167280 kJ/mol
# GULP energy per Si atom -5588.654806 kJ/mol
# Density = 2.674805 g / cm^3
# Si number density = 26.809068 Si / 1000 Ang^3
#
#
#
# Elastic Constant Matrix: (Units=GPa)
#
#
# Indices 1 2 3 4 5 6 
#
# 1 142.3252 21.7547 39.3455 6.3394 -0.8183 14.4996
# 2 21.7547 69.9114 19.4002 18.3812 -1.8762 3.0436
# 3 39.3455 19.4002 156.2273 -2.3608 8.1965 20.0268
# 4 6.3394 18.3812 -2.3608 41.8980 8.9564 3.1724
# 5 -0.8183 -1.8762 8.1965 8.9564 56.3817 6.0413
# 6 14.4996 3.0436 20.0268 3.1724 6.0413 43.6227
#
#
#
# Elastic Compliance Matrix: (Units=1/GPa)
#
#
# Indices 1 2 3 4 5 6 
#
# 1 0.007951 -0.001817 -0.001578 -0.000475 0.000556 -0.001834
# 2 -0.001817 0.017576 -0.002033 -0.008038 0.002066 0.000609
# 3 -0.001578 -0.002033 0.007498 0.002020 -0.001206 -0.002756
# 4 -0.000475 -0.008038 0.002020 0.028763 -0.004964 -0.001613
# 5 0.000556 0.002066 -0.001206 -0.004964 0.018996 -0.002045
# 6 -0.001834 0.000609 -0.002756 -0.001613 -0.002045 0.025157
#
#
# Mechanical properties :
#
#
# Convention : Reuss Voigt Hill
#
# Bulk Modulus (GPa) = 45.10764 58.82942 51.96853
# Shear Modulus (GPa) = 40.26234 47.57804 43.92019
#
# Velocity S-wave (km/s) = 3.87953 4.21729 4.05193
# Velocity P-wave (km/s) = 6.07699 6.76059 6.42788
#
# Compressibility (1/GPa) = 0.02216919
#
# Stress axis : x y z
#
# Youngs Moduli (GPa) = 125.76498 56.89734 133.37093
#
# Poissons Ratio (x) = 0.10336 0.21048
# Poissons Ratio (y) = 0.22847 0.27114
# Poissons Ratio (z) = 0.19848 0.11567
#
# Static dielectric constant tensor:
#      x y z
#    x 2.567520 0.040950 -0.040280 
#    y 0.040950 2.127640 -0.076100 
#    z -0.040280 -0.076100 2.183910 
# 
# From -- ./inp_files/186296.got.cif
#   From: 2010.05.17/outbox.cif.g08.bks.cpg/sg2_94_cif.got.tgz:186296.got - 2010.06.03 11:33:40.
