data_PCOD9043251
_publ_section_title
;
Structure prediction by ZEFSAII (Michael W. Deem and Ramdas Pophale) SiO2 
 PCOD9043251
Probable space group: P -1
;
_chemical_formula_sum "Si O2"
_cell_formula_units_Z 16
_cell_length_a 8.352740
_cell_length_b 15.830489
_cell_length_c 8.568719
_cell_angle_alpha 76.874403
_cell_angle_beta 54.630128
_cell_angle_gamma 111.757561
_cell_volume 697.069144
_symmetry_space_group_name_H-M "P -1"
_symmetry_group_IT_number 2
_symmetry_cell_setting 'triclinic'
loop_
_space_group_symop_operation_xyz
x,y,z
-x,-y,-z
loop_
_atom_site_type_symbol
_atom_site_label
_atom_site_fract_x
_atom_site_fract_y
_atom_site_fract_z
Si Si1 0.193626 0.171602 0.624505
Si Si2 0.598185 0.467061 0.599509
Si Si3 0.297137 0.015909 0.555309
Si Si4 0.287010 0.951776 0.268295
Si Si5 0.077567 0.736075 0.664313
Si Si6 0.419082 0.383905 0.211381
Si Si7 0.117381 0.216965 0.987585
Si Si8 0.993886 0.519835 0.809872
O O1 0.320143 0.112718 0.592002
O O2 0.373896 0.294025 0.397685
O O3 0.085560 0.179289 0.843261
O O4 0.967947 0.097923 0.659043
O O5 0.500000 0.500000 0.500000
O O6 0.601854 0.532677 0.715656
O O7 0.404302 0.332491 0.789677
O O8 0.866992 0.508357 0.369270
O O9 0.500000 0.000000 0.500000
O O10 0.337413 0.036179 0.338910
O O11 0.012109 0.898138 0.794594
O O12 0.254035 0.851865 0.423009
O O13 0.500000 0.000000 0.000000
O O14 0.802384 0.678677 0.765007
O O15 0.130825 0.650432 0.653190
O O16 0.044435 0.749277 0.860585
O O17 0.700433 0.449167 0.963356
O O18 0.000000 0.500000 0.000000
#
# Coordination Sequence:
#
# PCOD9043251 Si02
#       8
#     2   2   2   2   2   2   2   2
#     4  11  23  43  69  95 132 183 221 278 347 398
#     4  12  23  41  66 101 135 182 229 276 338 411
#     4  11  25  43  69 100 134 175 227 283 340 407
#     4  10  23  45  69  99 134 174 228 283 339 408
#     4  10  24  44  68 101 139 177 225 290 339 403
#     4  11  24  46  65  98 143 176 230 284 334 409
#     4  11  22  41  69  95 136 172 224 286 333 402
#     4  12  23  40  70  97 136 186 222 276 346 401
#
# _framework density 22.953247000000001
#
# number of rings (size 3 to 8) (size 9 to 14) (size 15 to 20)
#    0.000    1.000    3.750    1.875    0.000    6.500 
#    4.500    0.000    0.000    0.000    0.000    0.000 
#    0.000    0.000    0.000    0.000    0.000    0.000 
#
# Total GULP energy -89458.203230 kJ/mol
# GULP energy per Si atom -5591.137702 kJ/mol
# Density = 2.290100 g / cm^3
# Si number density = 22.953247 Si / 1000 Ang^3
#
#
#
# Elastic Constant Matrix: (Units=GPa)
#
#
# Indices 1 2 3 4 5 6 
#
# 1 82.4642 40.4161 34.9317 12.5676 -1.1418 -5.4032
# 2 40.4161 107.8495 47.0718 10.1141 -10.0975 -7.9383
# 3 34.9317 47.0718 149.7124 10.6830 -7.7212 -10.1419
# 4 12.5676 10.1141 10.6830 39.3414 -6.2445 4.0581
# 5 -1.1418 -10.0975 -7.7212 -6.2445 29.0630 3.9012
# 6 -5.4032 -7.9383 -10.1419 4.0581 3.9012 40.9070
#
#
#
# Elastic Compliance Matrix: (Units=1/GPa)
#
#
# Indices 1 2 3 4 5 6 
#
# 1 0.016010 -0.004932 -0.001955 -0.003864 -0.002610 0.001305
# 2 -0.004932 0.012665 -0.002560 -0.000558 0.003284 0.000914
# 3 -0.001955 -0.002560 0.008136 -0.000927 0.000825 0.001275
# 4 -0.003864 -0.000558 -0.000927 0.028454 0.006092 -0.004252
# 5 -0.002610 0.003284 0.000825 0.006092 0.037469 -0.003681
# 6 0.001305 0.000914 0.001275 -0.004252 -0.003681 0.025884
#
#
# Mechanical properties :
#
#
# Convention : Reuss Voigt Hill
#
# Bulk Modulus (GPa) = 55.81709 64.98505 60.40107
# Shear Modulus (GPa) = 32.57642 36.36937 34.47290
#
# Velocity S-wave (km/s) = 3.77138 3.98489 3.87961
# Velocity P-wave (km/s) = 6.58293 7.03888 6.81472
#
# Compressibility (1/GPa) = 0.01791566
#
# Stress axis : x y z
#
# Youngs Moduli (GPa) = 62.45948 78.95790 122.91481
#
# Poissons Ratio (x) = 0.38944 0.24033
# Poissons Ratio (y) = 0.30807 0.31468
# Poissons Ratio (z) = 0.12213 0.20214
#
# Static dielectric constant tensor:
#      x y z
#    x 1.895920 0.016970 -0.007980 
#    y 0.016970 1.886690 -0.033140 
#    z -0.007980 -0.033140 1.850210 
# 
# From -- ./inp_files/206745.got.cif
#   From: 2010.05.17/outbox.cif.g08.bks.cpg/sg2_104_cif.got.tgz:206745.got - 2010.06.03 11:33:40.
