data_PCOD9043369
_publ_section_title
;
Structure prediction by ZEFSAII (Michael W. Deem and Ramdas Pophale) SiO2 
 PCOD9043369
Probable space group: P -1
;
_chemical_formula_sum "Si O2"
_cell_formula_units_Z 14
_cell_length_a 11.155459
_cell_length_b 13.856993
_cell_length_c 6.365149
_cell_angle_alpha 70.515155
_cell_angle_beta 73.062724
_cell_angle_gamma 37.527588
_cell_volume 564.414957
_symmetry_space_group_name_H-M "P -1"
_symmetry_group_IT_number 2
_symmetry_cell_setting 'triclinic'
loop_
_space_group_symop_operation_xyz
x,y,z
-x,-y,-z
loop_
_atom_site_type_symbol
_atom_site_label
_atom_site_fract_x
_atom_site_fract_y
_atom_site_fract_z
Si Si1 0.954755 0.734717 0.231469
Si Si2 0.310784 0.833782 0.527148
Si Si3 0.896676 0.175851 0.671298
Si Si4 0.221867 0.454701 0.951889
Si Si5 0.336944 0.018139 0.128835
Si Si6 0.563764 0.346458 0.013192
Si Si7 0.857140 0.696844 0.692114
O O1 0.840626 0.721531 0.434932
O O2 0.076687 0.723498 0.346359
O O3 0.090157 0.596122 0.091237
O O4 0.803711 0.902374 0.060901
O O5 0.244482 0.772410 0.483034
O O6 0.454061 0.712986 0.729488
O O7 0.385920 0.877147 0.304646
O O8 0.109179 0.001666 0.617640
O O9 0.784413 0.202849 0.913978
O O10 0.414713 0.400139 0.874307
O O11 0.265232 0.316493 0.127530
O O12 0.081601 0.531962 0.767187
O O13 0.212098 0.155032 0.272406
O O14 0.500000 0.000000 0.000000
O O15 0.500000 0.500000 0.000000
#
# Coordination Sequence:
#
# PCOD9043369 Si02
#       7
#     2   2   2   2   2   2   2
#     4  11  23  43  74  92 141 183 231 284 349 409
#     4  11  28  45  71 102 145 186 229 290 350 411
#     4  11  26  45  72 100 140 188 234 279 352 416
#     4  10  24  43  68 105 135 180 233 285 352 408
#     4  11  27  44  68 106 134 179 239 283 340 416
#     4  12  27  45  73 106 142 179 236 292 347 418
#     4  10  23  45  70  95 141 184 227 288 345 412
#
# _framework density 24.804445999999999
#
# number of rings (size 3 to 8) (size 9 to 14) (size 15 to 20)
#    0.000    1.143    2.857    0.857   12.000    2.286 
#    0.000    0.000    0.000    0.000    0.000    0.000 
#    0.000    0.000    0.000    0.000    0.000    0.000 
#
# Total GULP energy -78298.195723 kJ/mol
# GULP energy per Si atom -5592.728266 kJ/mol
# Density = 2.474799 g / cm^3
# Si number density = 24.804446 Si / 1000 Ang^3
#
#
#
# Elastic Constant Matrix: (Units=GPa)
#
#
# Indices 1 2 3 4 5 6 
#
# 1 103.0294 21.9128 8.8233 0.0023 -3.8274 8.6117
# 2 21.9128 54.8715 33.6534 4.3384 0.9112 12.9602
# 3 8.8233 33.6534 107.5915 -2.1028 -20.9943 -1.9476
# 4 0.0023 4.3384 -2.1028 30.4966 6.0877 -1.8058
# 5 -3.8274 0.9112 -20.9943 6.0877 33.5617 11.1106
# 6 8.6117 12.9602 -1.9476 -1.8058 11.1106 31.6529
#
#
#
# Elastic Compliance Matrix: (Units=1/GPa)
#
#
# Indices 1 2 3 4 5 6 
#
# 1 0.010845 -0.004539 0.001008 0.000076 0.002621 -0.001946
# 2 -0.004539 0.028707 -0.009458 -0.004765 -0.002924 -0.010346
# 3 0.001008 -0.009458 0.013850 0.000716 0.008394 0.001545
# 4 0.000076 -0.004765 0.000716 0.035547 -0.008132 0.006856
# 5 0.002621 -0.002924 0.008394 -0.008132 0.041551 -0.014048
# 6 -0.001946 -0.010346 0.001545 0.006856 -0.014048 0.041776
#
#
# Mechanical properties :
#
#
# Convention : Reuss Voigt Hill
#
# Bulk Modulus (GPa) = 36.46463 43.80793 40.13628
# Shear Modulus (GPa) = 24.10872 32.54911 28.32891
#
# Velocity S-wave (km/s) = 3.12100 3.62640 3.38315
# Velocity P-wave (km/s) = 5.26500 5.93583 5.61045
#
# Compressibility (1/GPa) = 0.02742384
#
# Stress axis : x y z
#
# Youngs Moduli (GPa) = 92.20805 34.83514 72.20250
#
# Poissons Ratio (x) = 0.15812 -0.07279
# Poissons Ratio (y) = 0.41855 0.68288
# Poissons Ratio (z) = -0.09296 0.32946
#
# Static dielectric constant tensor:
#      x y z
#    x 1.956010 -0.009880 -0.037280 
#    y -0.009880 1.952280 0.022450 
#    z -0.037280 0.022450 1.965890 
# 
# From -- ./inp_files/77335.got.cif
#   From: 2010.05.17/outbox.cif.g08.bks.cpg/sg2_39_cif.got.tgz:77335.got - 2010.06.03 11:33:40.
