data_PCOD9043094
_publ_section_title
;
Structure prediction by ZEFSAII (Michael W. Deem and Ramdas Pophale) SiO2 
 PCOD9043094
Probable space group: P -1
;
_chemical_formula_sum "Si O2"
_cell_formula_units_Z 12
_cell_length_a 10.500996
_cell_length_b 8.856455
_cell_length_c 5.414191
_cell_angle_alpha 105.337046
_cell_angle_beta 75.771598
_cell_angle_gamma 97.965364
_cell_volume 469.239971
_symmetry_space_group_name_H-M "P -1"
_symmetry_group_IT_number 2
_symmetry_cell_setting 'triclinic'
loop_
_space_group_symop_operation_xyz
x,y,z
-x,-y,-z
loop_
_atom_site_type_symbol
_atom_site_label
_atom_site_fract_x
_atom_site_fract_y
_atom_site_fract_z
Si Si1 0.012465 0.177814 0.163677
Si Si2 0.644902 0.945691 0.861219
Si Si3 0.773097 0.606653 0.085813
Si Si4 0.141232 0.439511 0.463449
Si Si5 0.720324 0.118795 0.389192
Si Si6 0.530339 0.679976 0.493135
O O1 0.864285 0.207034 0.326143
O O2 0.107819 0.247083 0.371093
O O3 0.091383 0.281116 0.960521
O O4 0.000000 0.000000 0.000000
O O5 0.611802 0.767410 0.714803
O O6 0.706656 0.035608 0.627632
O O7 0.500000 0.000000 0.000000
O O8 0.714648 0.997289 0.106205
O O9 0.798530 0.515584 0.284390
O O10 0.637112 0.683814 0.224223
O O11 0.768807 0.510871 0.793085
O O12 0.000000 0.500000 0.500000
O O13 0.596266 0.224951 0.464110
O O14 0.500000 0.500000 0.500000
#
# Coordination Sequence:
#
# PCOD9043094 Si02
#       6
#     2   2   2   2   2   2
#     4  10  25  43  73 103 133 176 232 280 336 410
#     4  10  23  45  68  95 142 179 224 279 339 401
#     4  10  25  43  70  97 142 172 225 280 344 393
#     4  10  24  44  70  93 141 179 222 274 348 393
#     4  11  25  45  73 102 137 183 228 278 349 406
#     4  11  25  45  71 103 139 182 233 281 339 410
#
# _framework density 25.573271999999999
#
# number of rings (size 3 to 8) (size 9 to 14) (size 15 to 20)
#    1.000    0.667    0.000    3.500    7.000    3.333 
#    3.000   10.000    0.000    0.000    0.000    0.000 
#    0.000    0.000    0.000    0.000    0.000    0.000 
#
# Total GULP energy -67023.258253 kJ/mol
# GULP energy per Si atom -5585.271521 kJ/mol
# Density = 2.551507 g / cm^3
# Si number density = 25.573272 Si / 1000 Ang^3
#
#
#
# Elastic Constant Matrix: (Units=GPa)
#
#
# Indices 1 2 3 4 5 6 
#
# 1 152.8790 37.7711 59.4078 -9.0981 -29.5050 -0.9534
# 2 37.7711 120.6956 56.4527 -0.4830 -0.5868 7.1908
# 3 59.4078 56.4527 209.1427 -21.4040 -14.9103 -5.2204
# 4 -9.0981 -0.4830 -21.4040 36.2522 -8.2094 -0.7680
# 5 -29.5050 -0.5868 -14.9103 -8.2094 47.0339 -0.7022
# 6 -0.9534 7.1908 -5.2204 -0.7680 -0.7022 42.7971
#
#
#
# Elastic Compliance Matrix: (Units=1/GPa)
#
#
# Indices 1 2 3 4 5 6 
#
# 1 0.008798 -0.002178 -0.001219 0.002738 0.005592 0.000554
# 2 -0.002178 0.010326 -0.002675 -0.002618 -0.002576 -0.002199
# 3 -0.001219 -0.002675 0.006422 0.003917 0.001941 0.001308
# 4 0.002738 -0.002618 0.003917 0.032540 0.008632 0.001704
# 5 0.005592 -0.002576 0.001941 0.008632 0.026880 0.001390
# 6 0.000554 -0.002199 0.001308 0.001704 0.001390 0.023961
#
#
# Mechanical properties :
#
#
# Convention : Reuss Voigt Hill
#
# Bulk Modulus (GPa) = 74.61362 87.77562 81.19462
# Shear Modulus (GPa) = 39.82847 47.15570 43.49208
#
# Velocity S-wave (km/s) = 3.95070 4.29878 4.12841
# Velocity P-wave (km/s) = 7.07464 7.68355 7.38537
#
# Compressibility (1/GPa) = 0.01340238
#
# Stress axis : x y z
#
# Youngs Moduli (GPa) = 113.65617 96.84109 155.72616
#
# Poissons Ratio (x) = 0.21096 0.18976
# Poissons Ratio (y) = 0.24758 0.41656
# Poissons Ratio (z) = 0.13850 0.25905
#
# Static dielectric constant tensor:
#      x y z
#    x 2.021450 -0.044910 -0.021360 
#    y -0.044910 2.128470 0.090680 
#    z -0.021360 0.090680 2.110320 
# 
# From -- ./inp_files/59581.got.cif
#   From: 2010.05.17/outbox.cif.g08.bks.cpg/sg2_30_cif.got.tgz:59581.got - 2010.06.03 11:33:40.
