data_PCOD9043123
_publ_section_title
;
Structure prediction by ZEFSAII (Michael W. Deem and Ramdas Pophale) SiO2 
 PCOD9043123
Probable space group: P -1
;
_chemical_formula_sum "Si O2"
_cell_formula_units_Z 16
_cell_length_a 8.531186
_cell_length_b 11.752091
_cell_length_c 7.649181
_cell_angle_alpha 124.763474
_cell_angle_beta 85.848241
_cell_angle_gamma 91.493103
_cell_volume 628.257535
_symmetry_space_group_name_H-M "P -1"
_symmetry_group_IT_number 2
_symmetry_cell_setting 'triclinic'
loop_
_space_group_symop_operation_xyz
x,y,z
-x,-y,-z
loop_
_atom_site_type_symbol
_atom_site_label
_atom_site_fract_x
_atom_site_fract_y
_atom_site_fract_z
Si Si1 0.848288 0.401628 0.306963
Si Si2 0.268511 0.576777 0.021922
Si Si3 0.943366 0.347207 0.594230
Si Si4 0.537159 0.109229 0.371246
Si Si5 0.111941 0.955427 0.608717
Si Si6 0.565983 0.825557 0.918319
Si Si7 0.912500 0.856667 0.925727
Si Si8 0.409506 0.297478 0.823917
O O1 0.807453 0.397707 0.511137
O O2 0.919626 0.549412 0.378942
O O3 0.733321 0.370041 0.130389
O O4 0.983845 0.281871 0.189102
O O5 0.116441 0.628291 0.184290
O O6 0.419791 0.634597 0.158167
O O7 0.281594 0.411452 0.880261
O O8 0.972448 0.182554 0.427190
O O9 0.706323 0.098852 0.445407
O O10 0.536478 0.198799 0.268755
O O11 0.416152 0.167053 0.576926
O O12 0.504136 0.959859 0.153162
O O13 0.129098 0.099898 0.833918
O O14 0.000000 0.000000 0.500000
O O15 0.741128 0.849408 0.847841
O O16 0.595366 0.720552 0.982606
O O17 0.000000 0.000000 0.000000
#
# Coordination Sequence:
#
# PCOD9043123 Si02
#       8
#     2   2   2   2   2   2   2   2
#     4  11  25  42  70  98 136 187 227 295 350 412
#     4  11  25  41  65  97 136 181 231 284 341 415
#     4  11  23  44  66  98 138 179 234 283 352 410
#     4  10  23  45  68  99 135 181 225 286 348 410
#     4  11  23  43  70 104 138 180 232 289 349 418
#     4  10  24  44  69  99 137 176 231 288 344 424
#     4  11  23  44  68 102 136 176 231 288 352 413
#     4  11  24  42  66  98 134 182 232 278 349 413
#
# _framework density 25.467262999999999
#
# number of rings (size 3 to 8) (size 9 to 14) (size 15 to 20)
#    0.000    1.250    2.500    2.250    1.750    6.000 
#    4.500    2.500    0.000    0.000    0.000    0.000 
#    0.000    0.000    0.000    0.000    0.000    0.000 
#
# Total GULP energy -89247.594331 kJ/mol
# GULP energy per Si atom -5577.974646 kJ/mol
# Density = 2.540930 g / cm^3
# Si number density = 25.467263 Si / 1000 Ang^3
#
#
#
# Elastic Constant Matrix: (Units=GPa)
#
#
# Indices 1 2 3 4 5 6 
#
# 1 63.8404 28.4399 26.7622 1.7195 15.8612 -10.2629
# 2 28.4399 146.3335 24.0347 -16.4124 9.8517 -18.5408
# 3 26.7622 24.0347 74.2531 1.2492 6.8438 -15.2990
# 4 1.7195 -16.4124 1.2492 59.5362 -8.6505 7.5066
# 5 15.8612 9.8517 6.8438 -8.6505 30.8321 -8.8019
# 6 -10.2629 -18.5408 -15.2990 7.5066 -8.8019 40.6619
#
#
#
# Elastic Compliance Matrix: (Units=1/GPa)
#
#
# Indices 1 2 3 4 5 6 
#
# 1 0.022019 -0.002905 -0.005971 -0.002776 -0.009741 0.000390
# 2 -0.002905 0.008083 -0.001188 0.002117 0.000398 0.002201
# 3 -0.005971 -0.001188 0.016911 -0.000988 0.000750 0.004659
# 4 -0.002776 0.002117 -0.000988 0.018578 0.005514 -0.002343
# 5 -0.009741 0.000398 0.000750 0.005514 0.040331 0.005717
# 6 0.000390 0.002201 0.004659 -0.002343 0.005717 0.029118
#
#
# Mechanical properties :
#
#
# Convention : Reuss Voigt Hill
#
# Bulk Modulus (GPa) = 37.19473 49.21119 43.20296
# Shear Modulus (GPa) = 30.46382 39.88539 35.17461
#
# Velocity S-wave (km/s) = 3.46236 3.96175 3.72044
# Velocity P-wave (km/s) = 5.53358 6.34764 5.95454
#
# Compressibility (1/GPa) = 0.02688553
#
# Stress axis : x y z
#
# Youngs Moduli (GPa) = 45.41574 123.71736 59.13140
#
# Poissons Ratio (x) = 0.35937 0.35306
# Poissons Ratio (y) = 0.13192 0.07026
# Poissons Ratio (z) = 0.27117 0.14701
#
# Static dielectric constant tensor:
#      x y z
#    x 2.223780 0.097140 -0.102100 
#    y 0.097140 2.071990 -0.101480 
#    z -0.102100 -0.101480 2.249930 
# 
# From -- ./inp_files/182504.got.cif
#   From: 2010.05.17/outbox.cif.g08.bks.cpg/sg2_92_cif.got.tgz:182504.got - 2010.06.03 11:33:40.
