data_PCOD9043776
_publ_section_title
;
Structure prediction by ZEFSAII (Michael W. Deem and Ramdas Pophale) SiO2 
 PCOD9043776
Probable space group: P -1
;
_chemical_formula_sum "Si O2"
_cell_formula_units_Z 12
_cell_length_a 5.322760
_cell_length_b 7.219800
_cell_length_c 13.706224
_cell_angle_alpha 90.678077
_cell_angle_beta 75.246383
_cell_angle_gamma 71.885730
_cell_volume 481.730270
_symmetry_space_group_name_H-M "P -1"
_symmetry_group_IT_number 2
_symmetry_cell_setting 'triclinic'
loop_
_space_group_symop_operation_xyz
x,y,z
-x,-y,-z
loop_
_atom_site_type_symbol
_atom_site_label
_atom_site_fract_x
_atom_site_fract_y
_atom_site_fract_z
Si Si1 0.236651 0.555969 0.922781
Si Si2 0.347305 0.606205 0.692633
Si Si3 0.049113 0.978067 0.281774
Si Si4 0.752128 0.918405 0.550037
Si Si5 0.006945 0.594914 0.388390
Si Si6 0.340877 0.852645 0.051653
O O1 0.225321 0.575429 0.808657
O O2 0.490096 0.359860 0.919138
O O3 0.231908 0.765337 0.967986
O O4 0.000000 0.500000 0.000000
O O5 0.674330 0.529811 0.660041
O O6 0.223160 0.489473 0.629119
O O7 0.221519 0.833780 0.681037
O O8 0.993523 0.784253 0.322434
O O9 0.145612 0.955823 0.160382
O O10 0.274703 0.023529 0.332385
O O11 0.900076 0.692537 0.504676
O O12 0.500000 0.000000 0.500000
O O13 0.000000 0.000000 0.500000
O O14 0.500000 0.000000 0.000000
#
# Coordination Sequence:
#
# PCOD9043776 Si02
#       6
#     2   2   2   2   2   2
#     4  11  25  45  70 104 150 195 246 308 369 436
#     4  12  27  43  77 107 146 196 246 294 376 436
#     4  11  25  46  74 107 144 195 244 302 368 440
#     4  10  23  45  75 107 143 193 243 298 371 434
#     4  11  25  48  70 107 151 189 241 312 358 435
#     4  11  25  45  72 105 146 192 249 303 369 443
#
# _framework density 24.910205999999999
#
# number of rings (size 3 to 8) (size 9 to 14) (size 15 to 20)
#    0.000    1.000    1.667    4.000    4.667    9.333 
#    0.000    0.000    0.000    0.000    0.000    0.000 
#    0.000    0.000    0.000    0.000    0.000    0.000 
#
# Total GULP energy -67140.258042 kJ/mol
# GULP energy per Si atom -5595.021503 kJ/mol
# Density = 2.485351 g / cm^3
# Si number density = 24.910206 Si / 1000 Ang^3
#
#
#
# Elastic Constant Matrix: (Units=GPa)
#
#
# Indices 1 2 3 4 5 6 
#
# 1 57.5874 31.0664 -17.3911 -11.7450 5.3116 -2.3771
# 2 31.0664 144.1554 7.5061 12.7577 -7.0168 4.9794
# 3 -17.3911 7.5061 106.3291 -5.9986 2.4187 10.1707
# 4 -11.7450 12.7577 -5.9986 43.6099 7.4976 1.3348
# 5 5.3116 -7.0168 2.4187 7.4976 43.4717 -3.1651
# 6 -2.3771 4.9794 10.1707 1.3348 -3.1651 58.0487
#
#
#
# Elastic Compliance Matrix: (Units=1/GPa)
#
#
# Indices 1 2 3 4 5 6 
#
# 1 0.025636 -0.007083 0.005440 0.010828 -0.006438 0.000104
# 2 -0.007083 0.009240 -0.002159 -0.005479 0.003393 -0.000393
# 3 0.005440 -0.002159 0.010898 0.004070 -0.002447 -0.001728
# 4 0.010828 -0.005479 0.004070 0.029336 -0.007558 -0.000886
# 5 -0.006438 0.003393 -0.002447 -0.007558 0.025884 0.001459
# 6 0.000104 -0.000393 -0.001728 -0.000886 0.001459 0.017668
#
#
# Mechanical properties :
#
#
# Convention : Reuss Voigt Hill
#
# Bulk Modulus (GPa) = 26.19988 38.93719 32.56853
# Shear Modulus (GPa) = 35.97447 48.15209 42.06328
#
# Velocity S-wave (km/s) = 3.80434 4.40139 4.11371
# Velocity P-wave (km/s) = 5.46241 6.44163 5.97212
#
# Compressibility (1/GPa) = 0.03816812
#
# Stress axis : x y z
#
# Youngs Moduli (GPa) = 39.00830 108.23080 91.76327
#
# Poissons Ratio (x) = 0.76662 -0.49922
# Poissons Ratio (y) = 0.27630 0.19816
# Poissons Ratio (z) = -0.21222 0.23372
#
# Static dielectric constant tensor:
#      x y z
#    x 2.400040 -0.583570 -0.105010 
#    y -0.583570 2.802380 0.123290 
#    z -0.105010 0.123290 2.064790 
# 
# From -- ./inp_files/478232.got.cif
#   From: 2010.05.17/outbox.cif.g08.bks.cpg/sg2_240_cif.got.tgz:478232.got - 2010.06.03 11:33:40.
