data_PCOD9043216
_publ_section_title
;
Structure prediction by ZEFSAII (Michael W. Deem and Ramdas Pophale) SiO2 
 PCOD9043216
Probable space group: P -1
;
_chemical_formula_sum "Si O2"
_cell_formula_units_Z 16
_cell_length_a 8.199253
_cell_length_b 13.979308
_cell_length_c 19.365011
_cell_angle_alpha 25.672055
_cell_angle_beta 45.897370
_cell_angle_gamma 45.205538
_cell_volume 668.839421
_symmetry_space_group_name_H-M "P -1"
_symmetry_group_IT_number 2
_symmetry_cell_setting 'triclinic'
loop_
_space_group_symop_operation_xyz
x,y,z
-x,-y,-z
loop_
_atom_site_type_symbol
_atom_site_label
_atom_site_fract_x
_atom_site_fract_y
_atom_site_fract_z
Si Si1 0.598126 0.743587 0.368487
Si Si2 0.797455 0.290601 0.687929
Si Si3 0.116093 0.768976 0.543165
Si Si4 0.718207 0.056567 0.244202
Si Si5 0.375191 0.596552 0.186580
Si Si6 0.386552 0.076280 0.899049
Si Si7 0.660750 0.101684 0.465066
Si Si8 0.911834 0.344033 0.909138
O O1 0.736993 0.522624 0.511504
O O2 0.329881 0.722658 0.457122
O O3 0.619532 0.959843 0.267205
O O4 0.680483 0.783508 0.242832
O O5 0.792667 0.366918 0.720031
O O6 0.575750 0.180241 0.814097
O O7 0.034197 0.123900 0.699394
O O8 0.234874 0.853406 0.520145
O O9 0.024081 0.558908 0.735994
O O10 0.890421 0.946128 0.463293
O O11 0.534683 0.037833 0.370243
O O12 0.770109 0.294294 0.050344
O O13 0.545364 0.346248 0.307310
O O14 0.241930 0.628124 0.132922
O O15 0.488276 0.812764 0.020590
O O16 0.135439 0.126531 0.978086
#
# Coordination Sequence:
#
# PCOD9043216 Si02
#       8
#     2   2   2   2   2   2   2   2
#     4  11  22  43  63  94 130 166 207 256 323 373
#     4  12  23  37  65  95 130 163 212 252 318 382
#     4  10  23  45  69  88 122 172 218 256 307 375
#     4  11  23  39  64  97 127 164 205 265 316 374
#     4  12  23  39  63  93 131 166 205 261 313 371
#     4  12  24  38  62 103 131 162 202 264 326 373
#     4  10  24  45  69  88 122 171 220 256 308 373
#     4  12  24  39  65  94 136 163 203 264 321 371
#
# _framework density 23.922035999999999
#
# number of rings (size 3 to 8) (size 9 to 14) (size 15 to 20)
#    0.000    0.750    6.250    2.250    3.500    1.000 
#    0.000    0.625    0.000    0.000    0.000    0.000 
#    0.000    0.000    0.000    0.000    0.000    0.000 
#
# Total GULP energy -89543.527994 kJ/mol
# GULP energy per Si atom -5596.470500 kJ/mol
# Density = 2.386759 g / cm^3
# Si number density = 23.922036 Si / 1000 Ang^3
#
#
#
# Elastic Constant Matrix: (Units=GPa)
#
#
# Indices 1 2 3 4 5 6 
#
# 1 58.2426 6.5808 10.1405 0.5244 5.9887 -17.4339
# 2 6.5808 62.3659 31.0118 -10.2461 4.6925 -32.2099
# 3 10.1405 31.0118 127.9183 5.9175 -4.9971 -22.5506
# 4 0.5244 -10.2461 5.9175 20.4595 -8.2524 2.5388
# 5 5.9887 4.6925 -4.9971 -8.2524 44.3315 -2.9411
# 6 -17.4339 -32.2099 -22.5506 2.5388 -2.9411 31.2313
#
#
#
# Elastic Compliance Matrix: (Units=1/GPa)
#
#
# Indices 1 2 3 4 5 6 
#
# 1 0.023010 0.009346 -0.000339 0.000414 -0.002602 0.021959
# 2 0.009346 0.043474 -0.004000 0.016960 -0.000121 0.045775
# 3 -0.000339 -0.004000 0.009617 -0.004813 0.000863 0.003102
# 4 0.000414 0.016960 -0.004813 0.061407 0.009712 0.010171
# 5 -0.002602 -0.000121 0.000863 0.009712 0.024867 0.000598
# 6 0.021959 0.045775 0.003102 0.010171 0.000598 0.092955
#
#
# Mechanical properties :
#
#
# Convention : Reuss Voigt Hill
#
# Bulk Modulus (GPa) = 11.61260 38.22145 24.91702
# Shear Modulus (GPa) = 18.24672 32.59073 25.41872
#
# Velocity S-wave (km/s) = 2.76480 3.69504 3.26324
# Velocity P-wave (km/s) = 3.88034 5.84950 4.96355
#
# Compressibility (1/GPa) = 0.08611337
#
# Stress axis : x y z
#
# Youngs Moduli (GPa) = 43.46019 23.00232 103.97875
#
# Poissons Ratio (x) = -0.21498 0.03530
# Poissons Ratio (y) = -0.40618 0.41593
# Poissons Ratio (z) = 0.01475 0.09201
#
# Static dielectric constant tensor:
#      x y z
#    x 1.900390 0.004390 -0.018820 
#    y 0.004390 1.938380 -0.011700 
#    z -0.018820 -0.011700 1.951950 
# 
# From -- ./inp_files/181337.got.cif
#   From: 2010.05.17/outbox.cif.g08.bks.cpg/sg2_91_cif.got.tgz:181337.got - 2010.06.03 11:33:40.
