data_PCOD9043343
_publ_section_title
;
Structure prediction by ZEFSAII (Michael W. Deem and Ramdas Pophale) SiO2 
 PCOD9043343
Probable space group: P -1
;
_chemical_formula_sum "Si O2"
_cell_formula_units_Z 14
_cell_length_a 10.301411
_cell_length_b 9.444586
_cell_length_c 9.410203
_cell_angle_alpha 65.787984
_cell_angle_beta 56.189714
_cell_angle_gamma 46.379992
_cell_volume 550.177621
_symmetry_space_group_name_H-M "P -1"
_symmetry_group_IT_number 2
_symmetry_cell_setting 'triclinic'
loop_
_space_group_symop_operation_xyz
x,y,z
-x,-y,-z
loop_
_atom_site_type_symbol
_atom_site_label
_atom_site_fract_x
_atom_site_fract_y
_atom_site_fract_z
Si Si1 0.795299 0.750327 0.487454
Si Si2 0.770482 0.611708 0.848180
Si Si3 0.587948 0.200334 0.833300
Si Si4 0.482417 0.175877 0.588939
Si Si5 0.993912 0.821653 0.116971
Si Si6 0.604293 0.410398 0.322777
Si Si7 0.064362 0.220684 0.128637
O O1 0.728478 0.697339 0.410369
O O2 0.147750 0.386716 0.355789
O O3 0.596752 0.947207 0.591571
O O4 0.919362 0.817853 0.319409
O O5 0.884361 0.650983 0.876490
O O6 0.545037 0.776849 0.964153
O O7 0.809972 0.403357 0.920866
O O8 0.494186 0.205171 0.736810
O O9 0.544503 0.410669 0.766302
O O10 0.804619 0.996650 0.791491
O O11 0.598306 0.229600 0.396180
O O12 0.873436 0.823058 0.056535
O O13 0.000000 0.000000 0.000000
O O14 0.500000 0.500000 0.500000
O O15 0.830385 0.329119 0.229198
#
# Coordination Sequence:
#
# PCOD9043343 Si02
#       7
#     2   2   2   2   2   2   2
#     4  11  25  44  75 105 153 200 248 312 387 454
#     4  12  26  48  78 115 148 201 264 311 382 459
#     4  11  24  46  76 113 148 199 258 313 378 457
#     4  10  23  45  70 106 155 195 253 311 384 447
#     4  12  28  49  73 110 159 199 247 315 387 456
#     4  10  24  44  72 110 152 194 257 313 374 443
#     4  12  25  47  79 110 152 201 259 316 379 450
#
# _framework density 25.446328000000001
#
# number of rings (size 3 to 8) (size 9 to 14) (size 15 to 20)
#    0.000    0.857    2.857    3.000    8.000    3.429 
#    5.143    1.429    0.000    0.000    0.000    0.000 
#    0.000    0.000    0.000    0.000    0.000    0.000 
#
# Total GULP energy -78090.223888 kJ/mol
# GULP energy per Si atom -5577.873135 kJ/mol
# Density = 2.538841 g / cm^3
# Si number density = 25.446328 Si / 1000 Ang^3
#
#
#
# Elastic Constant Matrix: (Units=GPa)
#
#
# Indices 1 2 3 4 5 6 
#
# 1 41.3555 21.1537 24.1493 -0.9116 10.0059 -11.4608
# 2 21.1537 140.5853 37.0235 -12.3026 -1.9220 -19.6662
# 3 24.1493 37.0235 159.1543 -7.2230 20.6562 -4.6046
# 4 -0.9116 -12.3026 -7.2230 39.0162 -1.8242 -2.3239
# 5 10.0059 -1.9220 20.6562 -1.8242 41.7706 4.2058
# 6 -11.4608 -19.6662 -4.6046 -2.3239 4.2058 37.2621
#
#
#
# Elastic Compliance Matrix: (Units=1/GPa)
#
#
# Indices 1 2 3 4 5 6 
#
# 1 0.031465 -0.002906 -0.002955 -0.000551 -0.007094 0.008545
# 2 -0.002906 0.008710 -0.001576 0.002671 0.001642 0.003490
# 3 -0.002955 -0.001576 0.007505 0.000657 -0.003004 -0.000433
# 4 -0.000551 0.002671 0.000657 0.026792 0.000808 0.002901
# 5 -0.007094 0.001642 -0.003004 0.000808 0.027716 -0.004765
# 6 0.008545 0.003490 -0.000433 0.002901 -0.004765 0.031972
#
#
# Mechanical properties :
#
#
# Convention : Reuss Voigt Hill
#
# Bulk Modulus (GPa) = 30.48281 56.19422 43.33851
# Shear Modulus (GPa) = 31.25582 40.86103 36.05842
#
# Velocity S-wave (km/s) = 3.50852 4.01156 3.76844
# Velocity P-wave (km/s) = 5.33087 6.60213 6.00026
#
# Compressibility (1/GPa) = 0.03280538
#
# Stress axis : x y z
#
# Youngs Moduli (GPa) = 31.78120 114.81314 133.23694
#
# Poissons Ratio (x) = 0.33365 0.39377
# Poissons Ratio (y) = 0.09236 0.20999
# Poissons Ratio (z) = 0.09393 0.18095
#
# Static dielectric constant tensor:
#      x y z
#    x 2.122600 0.032720 -0.042270 
#    y 0.032720 2.111500 -0.073450 
#    z -0.042270 -0.073450 2.093130 
# 
# From -- ./inp_files/419095.got.cif
#   From: 2010.05.17/outbox.cif.g08.bks.cpg/sg2_210_cif.got.tgz:419095.got - 2010.06.03 11:33:40.
