data_PCOD9043069
_publ_section_title
;
Structure prediction by ZEFSAII (Michael W. Deem and Ramdas Pophale) SiO2 
 PCOD9043069
Probable space group: P -1
;
_chemical_formula_sum "Si O2"
_cell_formula_units_Z 14
_cell_length_a 7.331617
_cell_length_b 11.643732
_cell_length_c 10.608623
_cell_angle_alpha 96.152076
_cell_angle_beta 93.960393
_cell_angle_gamma 140.364923
_cell_volume 557.720627
_symmetry_space_group_name_H-M "P -1"
_symmetry_group_IT_number 2
_symmetry_cell_setting 'triclinic'
loop_
_space_group_symop_operation_xyz
x,y,z
-x,-y,-z
loop_
_atom_site_type_symbol
_atom_site_label
_atom_site_fract_x
_atom_site_fract_y
_atom_site_fract_z
Si Si1 0.105917 0.383855 0.205097
Si Si2 0.754303 0.292261 0.740197
Si Si3 0.268653 0.123242 0.229457
Si Si4 0.336203 0.039694 0.483846
Si Si5 0.825922 0.707202 0.577011
Si Si6 0.346685 0.503355 0.814992
Si Si7 0.885956 0.188351 0.931904
O O1 0.134347 0.530253 0.184741
O O2 0.030959 0.328195 0.342319
O O3 0.426679 0.482104 0.215131
O O4 0.874865 0.207553 0.080636
O O5 0.500277 0.193331 0.617747
O O6 0.672922 0.161814 0.831609
O O7 0.046982 0.376160 0.704490
O O8 0.381993 0.112370 0.357086
O O9 0.145552 0.175652 0.302516
O O10 0.487777 0.293220 0.162474
O O11 0.109473 0.942756 0.123814
O O12 0.500000 0.000000 0.500000
O O13 0.001778 0.850320 0.486616
O O14 0.500000 0.500000 0.500000
O O15 0.200907 0.397211 0.927243
#
# Coordination Sequence:
#
# PCOD9043069 Si02
#       7
#     2   2   2   2   2   2   2
#     4  11  23  46  71  99 143 188 235 286 359 418
#     4  10  24  42  69 101 143 179 236 289 353 411
#     4  11  24  45  73  98 144 181 239 291 347 422
#     4  12  25  43  70 102 140 182 235 293 356 412
#     4  11  28  45  72 106 137 190 239 291 355 424
#     4   9  24  42  68 104 135 189 228 293 349 411
#     4  10  23  45  68 106 139 185 237 291 347 423
#
# _framework density 25.102174999999999
#
# number of rings (size 3 to 8) (size 9 to 14) (size 15 to 20)
#    0.857    0.571    1.429    2.143   12.000    2.857 
#    2.571    1.429    0.000    0.000    0.000    0.000 
#    0.000    0.000    0.000    0.000    0.000    0.000 
#
# Total GULP energy -78064.996379 kJ/mol
# GULP energy per Si atom -5576.071170 kJ/mol
# Density = 2.504504 g / cm^3
# Si number density = 25.102175 Si / 1000 Ang^3
#
#
#
# Elastic Constant Matrix: (Units=GPa)
#
#
# Indices 1 2 3 4 5 6 
#
# 1 67.6545 42.8526 6.5131 4.6259 -1.5772 -3.2478
# 2 42.8526 140.5436 37.4859 4.3725 -5.2812 -19.4433
# 3 6.5131 37.4859 93.9833 32.9171 2.4068 -11.4553
# 4 4.6259 4.3725 32.9171 34.7771 -5.2399 0.3909
# 5 -1.5772 -5.2812 2.4068 -5.2399 25.8219 6.9710
# 6 -3.2478 -19.4433 -11.4553 0.3909 6.9710 27.1706
#
#
#
# Elastic Compliance Matrix: (Units=1/GPa)
#
#
# Indices 1 2 3 4 5 6 
#
# 1 0.018885 -0.006526 0.002785 -0.004485 -0.001111 -0.000889
# 2 -0.006526 0.010988 -0.005028 0.004506 0.002051 0.004372
# 3 0.002785 -0.005028 0.021173 -0.021292 -0.009416 0.008383
# 4 -0.004485 0.004506 -0.021292 0.051488 0.016093 -0.011158
# 5 -0.001111 0.002051 -0.009416 0.016093 0.047269 -0.014994
# 6 -0.000889 0.004372 0.008383 -0.011158 -0.014994 0.047369
#
#
# Mechanical properties :
#
#
# Convention : Reuss Voigt Hill
#
# Bulk Modulus (GPa) = 29.84403 52.87608 41.36006
# Shear Modulus (GPa) = 22.13584 31.90925 27.02254
#
# Velocity S-wave (km/s) = 2.97278 3.56922 3.28457
# Velocity P-wave (km/s) = 4.86807 6.17218 5.55850
#
# Compressibility (1/GPa) = 0.03350754
#
# Stress axis : x y z
#
# Youngs Moduli (GPa) = 52.95318 91.00911 47.23024
#
# Poissons Ratio (x) = 0.59394 -0.13155
# Poissons Ratio (y) = 0.34558 0.23748
# Poissons Ratio (z) = -0.14749 0.45760
#
# Static dielectric constant tensor:
#      x y z
#    x 2.060010 0.054300 0.002560 
#    y 0.054300 2.022860 0.029420 
#    z 0.002560 0.029420 2.098250 
# 
# From -- ./inp_files/387832.got.cif
#   From: 2010.05.17/outbox.cif.g08.bks.cpg/sg2_194_cif.got.tgz:387832.got - 2010.06.03 11:33:40.
