data_PCOD9043260
_publ_section_title
;
Structure prediction by ZEFSAII (Michael W. Deem and Ramdas Pophale) SiO2 
 PCOD9043260
Probable space group: P -1
;
_chemical_formula_sum "Si O2"
_cell_formula_units_Z 12
_cell_length_a 14.089308
_cell_length_b 5.238669
_cell_length_c 12.014860
_cell_angle_alpha 51.654840
_cell_angle_beta 138.776692
_cell_angle_gamma 113.186718
_cell_volume 453.757012
_symmetry_space_group_name_H-M "P -1"
_symmetry_group_IT_number 2
_symmetry_cell_setting 'triclinic'
loop_
_space_group_symop_operation_xyz
x,y,z
-x,-y,-z
loop_
_atom_site_type_symbol
_atom_site_label
_atom_site_fract_x
_atom_site_fract_y
_atom_site_fract_z
Si Si1 0.965509 0.563337 0.698501
Si Si2 0.584249 0.148580 0.132402
Si Si3 0.253359 0.125960 0.025518
Si Si4 0.450353 0.146835 0.582948
Si Si5 0.830536 0.543833 0.806003
Si Si6 0.850531 0.882526 0.303121
O O1 0.848998 0.484963 0.705615
O O2 0.017950 0.919273 0.667710
O O3 0.907610 0.582137 0.516165
O O4 0.112588 0.313054 0.910386
O O5 0.743157 0.128620 0.221431
O O6 0.585514 0.910746 0.303833
O O7 0.500000 0.500000 0.000000
O O8 0.500000 0.000000 0.000000
O O9 0.234000 0.211262 0.854562
O O10 0.405491 0.128025 0.223992
O O11 0.232166 0.745818 0.109056
O O12 0.500000 0.500000 0.500000
O O13 0.296990 0.143386 0.384175
O O14 0.000000 0.500000 0.000000
#
# Coordination Sequence:
#
# PCOD9043260 Si02
#       6
#     2   2   2   2   2   2
#     4  11  23  41  65  99 134 178 232 284 355 417
#     4  12  25  47  74 108 146 188 240 301 363 431
#     4  11  22  42  69  96 133 179 227 289 350 424
#     4  10  23  45  69  99 145 186 240 297 363 431
#     4  11  22  43  65  94 139 179 235 284 353 424
#     4  11  23  40  68  97 137 174 232 292 350 421
#
# _framework density 26.445875999999998
#
# number of rings (size 3 to 8) (size 9 to 14) (size 15 to 20)
#    0.000    1.000    5.000    2.000    0.000    0.000 
#    3.000    1.667    0.000    0.000    0.000    0.000 
#    0.000    0.000    0.000    0.000    0.000    0.000 
#
# Total GULP energy -67036.855261 kJ/mol
# GULP energy per Si atom -5586.404605 kJ/mol
# Density = 2.638568 g / cm^3
# Si number density = 26.445876 Si / 1000 Ang^3
#
#
#
# Elastic Constant Matrix: (Units=GPa)
#
#
# Indices 1 2 3 4 5 6 
#
# 1 86.1257 15.2638 35.3813 5.1830 -2.2517 -14.3199
# 2 15.2638 71.9822 32.4491 3.6164 0.4367 -10.5182
# 3 35.3813 32.4491 232.8245 10.1444 33.5087 -9.8613
# 4 5.1830 3.6164 10.1444 22.4461 3.6916 10.9616
# 5 -2.2517 0.4367 33.5087 3.6916 67.2694 -12.8385
# 6 -14.3199 -10.5182 -9.8613 10.9616 -12.8385 33.0874
#
#
#
# Elastic Compliance Matrix: (Units=1/GPa)
#
#
# Indices 1 2 3 4 5 6 
#
# 1 0.014660 -0.000453 -0.001956 -0.007745 0.003731 0.009631
# 2 -0.000453 0.016206 -0.002013 -0.005522 0.002555 0.007177
# 3 -0.001956 -0.002013 0.005276 -0.000797 -0.002776 -0.000727
# 4 -0.007745 -0.005522 -0.000797 0.063706 -0.009040 -0.029958
# 5 0.003731 0.002555 -0.002776 -0.009040 0.019148 0.012024
# 6 0.009631 0.007177 -0.000727 -0.029958 0.012024 0.051047
#
#
# Mechanical properties :
#
#
# Convention : Reuss Voigt Hill
#
# Bulk Modulus (GPa) = 36.63252 61.90232 49.26742
# Shear Modulus (GPa) = 26.59757 45.08312 35.84035
#
# Velocity S-wave (km/s) = 3.17477 4.13332 3.68534
# Velocity P-wave (km/s) = 5.22694 6.79979 6.06457
#
# Compressibility (1/GPa) = 0.02729815
#
# Stress axis : x y z
#
# Youngs Moduli (GPa) = 68.21313 61.70402 189.52465
#
# Poissons Ratio (x) = 0.02795 0.37077
# Poissons Ratio (y) = 0.03089 0.38153
# Poissons Ratio (z) = 0.13345 0.12421
#
# Static dielectric constant tensor:
#      x y z
#    x 2.288670 0.202960 0.096910 
#    y 0.202960 2.237120 0.028720 
#    z 0.096910 0.028720 2.188050 
# 
# From -- ./inp_files/33754.got.cif
#   From: 2010.05.17/outbox.cif.g08.bks.cpg/sg2_17_cif.got.tgz:33754.got - 2010.06.03 11:33:40.
