data_PCOD9043766
_publ_section_title
;
Structure prediction by ZEFSAII (Michael W. Deem and Ramdas Pophale) SiO2 
 PCOD9043766
Probable space group: P -1
;
_chemical_formula_sum "Si O2"
_cell_formula_units_Z 14
_cell_length_a 17.853852
_cell_length_b 4.890299
_cell_length_c 12.520111
_cell_angle_alpha 70.440395
_cell_angle_beta 144.846214
_cell_angle_gamma 91.564130
_cell_volume 528.372146
_symmetry_space_group_name_H-M "P -1"
_symmetry_group_IT_number 2
_symmetry_cell_setting 'triclinic'
loop_
_space_group_symop_operation_xyz
x,y,z
-x,-y,-z
loop_
_atom_site_type_symbol
_atom_site_label
_atom_site_fract_x
_atom_site_fract_y
_atom_site_fract_z
Si Si1 0.178849 0.528252 0.828939
Si Si2 0.746496 0.067629 0.569770
Si Si3 0.447548 0.237020 0.682593
Si Si4 0.719253 0.186860 0.909593
Si Si5 0.619568 0.240925 0.093217
Si Si6 0.107630 0.220711 0.425694
Si Si7 0.909162 0.858805 0.977715
O O1 0.269347 0.618108 0.836188
O O2 0.008620 0.759499 0.623486
O O3 0.201003 0.162174 0.888790
O O4 0.253679 0.550757 0.025705
O O5 0.605187 0.029517 0.372322
O O6 0.846945 0.027550 0.589228
O O7 0.794418 0.110855 0.893456
O O8 0.822433 0.801166 0.785695
O O9 0.307965 0.580179 0.489887
O O10 0.551630 0.263685 0.709565
O O11 0.537592 0.182778 0.904659
O O12 0.017578 0.555353 0.213443
O O13 0.734289 0.892918 0.322191
O O14 0.500000 0.500000 0.000000
O O15 0.000000 0.000000 0.000000
#
# Coordination Sequence:
#
# PCOD9043766 Si02
#       7
#     2   2   2   2   2   2   2
#     4  10  23  46  71 113 147 193 245 307 376 447
#     4  12  25  44  73 105 150 194 247 304 357 450
#     4  11  25  46  70 112 146 192 244 300 387 436
#     4  10  23  45  75 102 155 191 246 308 371 447
#     4  11  23  48  78 109 151 194 246 313 377 455
#     4  11  24  46  76 109 147 198 245 313 370 441
#     4  11  25  48  74 110 145 202 257 306 366 440
#
# _framework density 26.496475
#
# number of rings (size 3 to 8) (size 9 to 14) (size 15 to 20)
#    0.000    1.143    1.429    4.286    0.000    6.286 
#    2.571   12.143    0.000    0.000    0.000    0.000 
#    0.000    0.000    0.000    0.000    0.000    0.000 
#
# Total GULP energy -78429.002656 kJ/mol
# GULP energy per Si atom -5602.071618 kJ/mol
# Density = 2.643617 g / cm^3
# Si number density = 26.496475 Si / 1000 Ang^3
#
#
#
# Elastic Constant Matrix: (Units=GPa)
#
#
# Indices 1 2 3 4 5 6 
#
# 1 175.8135 24.7964 74.4500 -16.6069 23.8105 -17.1878
# 2 24.7964 69.1365 23.0386 -1.3454 3.3276 -9.8787
# 3 74.4500 23.0386 153.8417 -7.6431 3.9992 -5.1968
# 4 -16.6069 -1.3454 -7.6431 37.8253 -9.3549 9.0269
# 5 23.8105 3.3276 3.9992 -9.3549 68.7835 -11.4987
# 6 -17.1878 -9.8787 -5.1968 9.0269 -11.4987 39.6813
#
#
#
# Elastic Compliance Matrix: (Units=1/GPa)
#
#
# Indices 1 2 3 4 5 6 
#
# 1 0.007936 -0.001331 -0.003442 0.001861 -0.001951 0.001667
# 2 -0.001331 0.015973 -0.001692 -0.001140 0.000217 0.003500
# 3 -0.003442 -0.001692 0.008400 0.000476 0.000731 -0.000708
# 4 0.001861 -0.001140 0.000476 0.029194 0.002460 -0.005343
# 5 -0.001951 0.000217 0.000731 0.002460 0.016064 0.003400
# 6 0.001667 0.003500 -0.000708 -0.005343 0.003400 0.028902
#
#
# Mechanical properties :
#
#
# Convention : Reuss Voigt Hill
#
# Bulk Modulus (GPa) = 51.60146 71.48463 61.54305
# Shear Modulus (GPa) = 39.72749 47.69180 43.70964
#
# Velocity S-wave (km/s) = 3.87634 4.24716 4.06598
# Velocity P-wave (km/s) = 6.28903 7.14763 6.73203
#
# Compressibility (1/GPa) = 0.01937930
#
# Stress axis : x y z
#
# Youngs Moduli (GPa) = 126.00884 62.60605 119.04998
#
# Poissons Ratio (x) = 0.08334 0.40973
# Poissons Ratio (y) = 0.16774 0.20141
# Poissons Ratio (z) = 0.43368 0.10592
#
# Static dielectric constant tensor:
#      x y z
#    x 2.116530 0.034090 -0.038610 
#    y 0.034090 2.026130 0.010250 
#    z -0.038610 0.010250 2.153710 
# 
# From -- ./inp_files/539715.got.cif
#   From: 2010.05.17/outbox.cif.g08.bks.cpg/sg2_270_cif.got.tgz:539715.got - 2010.06.03 11:33:40.
