data_PCOD9043904
_publ_section_title
;
Structure prediction by ZEFSAII (Michael W. Deem and Ramdas Pophale) SiO2 
 PCOD9043904
Probable space group: P -1
;
_chemical_formula_sum "Si O2"
_cell_formula_units_Z 15
_cell_length_a 8.922047
_cell_length_b 13.417545
_cell_length_c 13.606757
_cell_angle_alpha 146.858829
_cell_angle_beta 63.420719
_cell_angle_gamma 95.687169
_cell_volume 657.877330
_symmetry_space_group_name_H-M "P -1"
_symmetry_group_IT_number 2
_symmetry_cell_setting 'triclinic'
loop_
_space_group_symop_operation_xyz
x,y,z
-x,-y,-z
loop_
_atom_site_type_symbol
_atom_site_label
_atom_site_fract_x
_atom_site_fract_y
_atom_site_fract_z
Si Si1 0.301564 0.705577 0.010976
Si Si2 0.000000 0.000000 0.500000
Si Si3 0.101977 0.266259 0.328881
Si Si4 0.261243 0.726284 0.485134
Si Si5 0.315771 0.122080 0.327644
Si Si6 0.966171 0.401749 0.117738
Si Si7 0.727347 0.939068 0.390630
Si Si8 0.764476 0.959770 0.096385
O O1 0.534206 0.507271 0.788767
O O2 0.201556 0.640848 0.903694
O O3 0.166450 0.774502 0.205288
O O4 0.279766 0.929553 0.174577
O O5 0.186432 0.028249 0.507496
O O6 0.289525 0.207415 0.293607
O O7 0.000000 0.500000 0.500000
O O8 0.933005 0.283421 0.464115
O O9 0.168002 0.090915 0.077942
O O10 0.248284 0.899432 0.554967
O O11 0.256340 0.827263 0.675870
O O12 0.149737 0.340220 0.615512
O O13 0.539251 0.015757 0.215388
O O14 0.081855 0.252767 0.056875
O O15 0.129637 0.301808 0.899475
O O16 0.500000 0.000000 0.500000
#
# Coordination Sequence:
#
# PCOD9043904 Si02
#       8
#     2   1   2   2   2   2   2   2
#     4  11  25  45  69 103 144 187 238 302 369 430
#     4  10  24  42  68 104 142 184 242 302 366 440
#     4  12  24  43  69 106 142 190 246 296 354 432
#     4  11  25  45  70 105 146 188 241 300 360 439
#     4  12  24  43  72 101 140 193 237 295 363 432
#     4  10  23  46  66 103 143 182 242 297 360 431
#     4  10  24  45  75 108 145 192 245 304 377 442
#     4  11  23  44  69  99 142 189 238 296 355 425
#
# _framework density 22.800601
#
# number of rings (size 3 to 8) (size 9 to 14) (size 15 to 20)
#    0.000    1.067    2.667    4.000    3.733    1.600 
#    0.000    4.667    0.000    0.000    0.000    0.000 
#    0.000    0.000    0.000    0.000    0.000    0.000 
#
# Total GULP energy -83623.921033 kJ/mol
# GULP energy per Si atom -5574.928069 kJ/mol
# Density = 2.274871 g / cm^3
# Si number density = 22.800601 Si / 1000 Ang^3
#
#
#
# Elastic Constant Matrix: (Units=GPa)
#
#
# Indices 1 2 3 4 5 6 
#
# 1 117.4763 20.8867 30.4615 -0.3418 3.9045 2.2568
# 2 20.8867 51.1928 37.1772 10.4713 -2.9694 3.4534
# 3 30.4615 37.1772 157.6976 12.9553 0.3990 -9.1436
# 4 -0.3418 10.4713 12.9553 28.6325 1.8979 3.7627
# 5 3.9045 -2.9694 0.3990 1.8979 45.0361 -6.2657
# 6 2.2568 3.4534 -9.1436 3.7627 -6.2657 34.5785
#
#
#
# Elastic Compliance Matrix: (Units=1/GPa)
#
#
# Indices 1 2 3 4 5 6 
#
# 1 0.009517 -0.003401 -0.001274 0.002161 -0.001280 -0.001085
# 2 -0.003401 0.026413 -0.005139 -0.007163 0.002018 -0.002630
# 3 -0.001274 -0.005139 0.008158 -0.002241 0.000216 0.003037
# 4 0.002161 -0.007163 -0.002241 0.039419 -0.002975 -0.004847
# 5 -0.001280 0.002018 0.000216 -0.002975 0.023193 0.004466
# 6 -0.001085 -0.002630 0.003037 -0.004847 0.004466 0.031393
#
#
# Mechanical properties :
#
#
# Convention : Reuss Voigt Hill
#
# Bulk Modulus (GPa) = 40.88132 55.93526 48.40829
# Shear Modulus (GPa) = 30.14315 37.50549 33.82432
#
# Velocity S-wave (km/s) = 3.63992 4.06018 3.85578
# Velocity P-wave (km/s) = 5.96944 6.82391 6.41093
#
# Compressibility (1/GPa) = 0.02446105
#
# Stress axis : x y z
#
# Youngs Moduli (GPa) = 105.07491 37.85958 122.57228
#
# Poissons Ratio (x) = 0.12876 0.15613
# Poissons Ratio (y) = 0.35736 0.62991
# Poissons Ratio (z) = 0.13385 0.19456
#
# Static dielectric constant tensor:
#      x y z
#    x 1.882660 -0.018460 0.006040 
#    y -0.018460 1.932140 -0.043530 
#    z 0.006040 -0.043530 1.819840 
# 
# From -- ./inp_files/504582.got.cif
#   From: 2010.05.17/outbox.cif.g08.bks.cpg/sg2_253_cif.got.tgz:504582.got - 2010.06.03 11:33:40.
