data_PCOD9043746
_publ_section_title
;
Structure prediction by ZEFSAII (Michael W. Deem and Ramdas Pophale) SiO2 
 PCOD9043746
Probable space group: P -1
;
_chemical_formula_sum "Si O2"
_cell_formula_units_Z 15
_cell_length_a 9.059982
_cell_length_b 7.900770
_cell_length_c 12.474473
_cell_angle_alpha 114.855800
_cell_angle_beta 82.917766
_cell_angle_gamma 50.021917
_cell_volume 511.957452
_symmetry_space_group_name_H-M "P -1"
_symmetry_group_IT_number 2
_symmetry_cell_setting 'triclinic'
loop_
_space_group_symop_operation_xyz
x,y,z
-x,-y,-z
loop_
_atom_site_type_symbol
_atom_site_label
_atom_site_fract_x
_atom_site_fract_y
_atom_site_fract_z
Si Si1 0.231207 0.588598 0.502968
Si Si2 0.745862 0.582867 0.306480
Si Si3 0.000000 0.000000 0.000000
Si Si4 0.261243 0.959066 0.360816
Si Si5 0.535318 0.064085 0.862086
Si Si6 0.739289 0.006132 0.339054
Si Si7 0.197689 0.698679 0.128933
Si Si8 0.187961 0.147934 0.013997
O O1 0.181439 0.554758 0.618794
O O2 0.489995 0.266352 0.370398
O O3 0.243013 0.802379 0.560521
O O4 0.003430 0.753415 0.498183
O O5 0.491411 0.742626 0.353570
O O6 0.915508 0.357155 0.129287
O O7 0.730417 0.820723 0.356705
O O8 0.756541 0.117951 0.089213
O O9 0.095506 0.906161 0.092914
O O10 0.328339 0.049918 0.290122
O O11 0.242444 0.786121 0.249513
O O12 0.713086 0.854391 0.887361
O O13 0.424423 0.370188 0.983298
O O14 0.305849 0.157560 0.915381
O O15 0.989586 0.754624 0.190800
#
# Coordination Sequence:
#
# PCOD9043746 Si02
#       8
#     2   2   1   2   2   2   2   2
#     4  10  23  49  68  99 136 169 226 284 330 397
#     4  12  23  44  69 100 131 179 224 274 338 398
#     4  12  24  40  68  90 134 182 214 268 334 388
#     4  11  24  40  68  97 133 173 219 277 336 391
#     4  11  22  41  61  93 136 167 218 271 324 402
#     4  10  23  45  74  94 134 180 221 276 339 394
#     4  11  23  43  63  98 131 177 216 273 331 397
#     4  11  24  38  61  96 130 175 218 267 331 396
#
# _framework density 29.299309000000001
#
# number of rings (size 3 to 8) (size 9 to 14) (size 15 to 20)
#    0.000    1.067    4.000    2.400    3.733    1.600 
#    0.000    8.667    0.000    0.000    0.000    0.000 
#    0.000    0.000    0.000    0.000    0.000    0.000 
#
# Total GULP energy -83835.754209 kJ/mol
# GULP energy per Si atom -5589.050281 kJ/mol
# Density = 2.923262 g / cm^3
# Si number density = 29.299309 Si / 1000 Ang^3
#
#
#
# Elastic Constant Matrix: (Units=GPa)
#
#
# Indices 1 2 3 4 5 6 
#
# 1 207.4923 46.6587 30.1061 5.4999 -34.8081 -3.4131
# 2 46.6587 127.1409 29.7056 12.0322 -6.5044 -1.6560
# 3 30.1061 29.7056 131.6594 25.1700 -22.3803 0.6702
# 4 5.4999 12.0322 25.1700 36.9587 3.8846 -8.7010
# 5 -34.8081 -6.5044 -22.3803 3.8846 59.2568 -1.1252
# 6 -3.4131 -1.6560 0.6702 -8.7010 -1.1252 63.9466
#
#
#
# Elastic Compliance Matrix: (Units=1/GPa)
#
#
# Indices 1 2 3 4 5 6 
#
# 1 0.005822 -0.001870 -0.000324 -0.000299 0.003117 0.000280
# 2 -0.001870 0.009003 -0.001369 -0.001688 -0.000518 -0.000091
# 3 -0.000324 -0.001369 0.009967 -0.006943 0.003859 -0.001034
# 4 -0.000299 -0.001688 -0.006943 0.033989 -0.005125 0.004548
# 5 0.003117 -0.000518 0.003859 -0.005125 0.020439 -0.000225
# 6 0.000280 -0.000091 -0.001034 0.004548 -0.000225 0.016276
#
#
# Mechanical properties :
#
#
# Convention : Reuss Voigt Hill
#
# Bulk Modulus (GPa) = 56.59987 75.47039 66.03513
# Shear Modulus (GPa) = 46.07834 56.02057 51.04946
#
# Velocity S-wave (km/s) = 3.97000 4.37740 4.17867
# Velocity P-wave (km/s) = 6.35408 7.16681 6.77265
#
# Compressibility (1/GPa) = 0.01766788
#
# Stress axis : x y z
#
# Youngs Moduli (GPa) = 171.75114 111.07114 100.33234
#
# Poissons Ratio (x) = 0.20766 0.03250
# Poissons Ratio (y) = 0.32111 0.13733
# Poissons Ratio (z) = 0.05563 0.15203
#
# Static dielectric constant tensor:
#      x y z
#    x -14.547450 -11.770360 -14.236870 
#    y -11.770360 -5.869880 -10.007290 
#    z -14.236870 -10.007290 -9.783280 
# 
# From -- ./inp_files/493388.got.cif
#   From: 2010.05.17/outbox.cif.g08.bks.cpg/sg2_247_cif.got.tgz:493388.got - 2010.06.03 11:33:40.
