data_PCOD9043643
_publ_section_title
;
Structure prediction by ZEFSAII (Michael W. Deem and Ramdas Pophale) SiO2 
 PCOD9043643
Probable space group: P -1
;
_chemical_formula_sum "Si O2"
_cell_formula_units_Z 16
_cell_length_a 19.286224
_cell_length_b 8.086628
_cell_length_c 9.789057
_cell_angle_alpha 59.421390
_cell_angle_beta 44.620430
_cell_angle_gamma 36.753826
_cell_volume 634.761183
_symmetry_space_group_name_H-M "P -1"
_symmetry_group_IT_number 2
_symmetry_cell_setting 'triclinic'
loop_
_space_group_symop_operation_xyz
x,y,z
-x,-y,-z
loop_
_atom_site_type_symbol
_atom_site_label
_atom_site_fract_x
_atom_site_fract_y
_atom_site_fract_z
Si Si1 0.795713 0.299342 0.976598
Si Si2 0.484622 0.722259 0.840859
Si Si3 0.052660 0.704026 0.464825
Si Si4 0.817154 0.892490 0.549152
Si Si5 0.497612 0.551052 0.320242
Si Si6 0.787304 0.633956 0.075169
Si Si7 0.895859 0.789590 0.196420
Si Si8 0.752090 0.601036 0.446884
O O1 0.625552 0.511683 0.118184
O O2 0.813639 0.432808 0.011987
O O3 0.861287 0.005515 0.052262
O O4 0.872032 0.246922 0.753859
O O5 0.478761 0.669526 0.712215
O O6 0.619592 0.679935 0.672327
O O7 0.337755 0.047422 0.934710
O O8 0.500000 0.500000 0.000000
O O9 0.129692 0.400020 0.424398
O O10 0.887705 0.892881 0.581031
O O11 0.895179 0.332877 0.439715
O O12 0.884384 0.896139 0.318875
O O13 0.649878 0.153211 0.653759
O O14 0.500000 0.500000 0.500000
O O15 0.748728 0.588808 0.293264
O O16 0.943060 0.514679 0.923259
O O17 0.773007 0.801141 0.353750
#
# Coordination Sequence:
#
# PCOD9043643 Si02
#       8
#     2   2   2   2   2   2   2   2
#     4  12  25  44  79 114 145 201 258 312 367 453
#     4  12  30  52  75 114 158 196 251 322 391 449
#     4  10  24  44  72 108 148 195 253 306 371 444
#     4  10  23  45  73 105 150 191 256 307 365 439
#     4  12  26  46  79 107 147 199 257 306 373 460
#     4  12  27  47  77 115 157 198 251 318 382 453
#     4  11  24  48  77 109 153 198 260 304 376 454
#     4  11  26  49  74 109 154 202 249 312 385 455
#
# _framework density 25.206329
#
# number of rings (size 3 to 8) (size 9 to 14) (size 15 to 20)
#    0.000    0.750    2.500    3.375    7.000    0.500 
#    0.000    4.375    0.000    0.000    0.000    0.000 
#    0.000    0.000    0.000    0.000    0.000    0.000 
#
# Total GULP energy -89560.780140 kJ/mol
# GULP energy per Si atom -5597.548759 kJ/mol
# Density = 2.514896 g / cm^3
# Si number density = 25.206329 Si / 1000 Ang^3
#
#
#
# Elastic Constant Matrix: (Units=GPa)
#
#
# Indices 1 2 3 4 5 6 
#
# 1 112.0409 62.9973 35.5703 1.9316 -18.6095 -21.6304
# 2 62.9973 125.6831 69.2973 4.7127 -18.5227 -26.3481
# 3 35.5703 69.2973 111.7276 -13.2110 -23.2685 -31.6147
# 4 1.9316 4.7127 -13.2110 43.0241 -14.4532 0.5652
# 5 -18.6095 -18.5227 -23.2685 -14.4532 53.2296 5.3401
# 6 -21.6304 -26.3481 -31.6147 0.5652 5.3401 50.6790
#
#
#
# Elastic Compliance Matrix: (Units=1/GPa)
#
#
# Indices 1 2 3 4 5 6 
#
# 1 0.013077 -0.006330 0.001389 0.001542 0.003113 0.002812
# 2 -0.006330 0.015907 -0.008669 -0.004727 -0.001791 0.000402
# 3 0.001389 -0.008669 0.018315 0.008845 0.007209 0.006653
# 4 0.001542 -0.004727 0.008845 0.029962 0.010669 0.002260
# 5 0.003113 -0.001791 0.007209 0.010669 0.025086 0.002132
# 6 0.002812 0.000402 0.006653 0.002260 0.002132 0.025041
#
#
# Mechanical properties :
#
#
# Convention : Reuss Voigt Hill
#
# Bulk Modulus (GPa) = 49.80506 76.13125 62.96816
# Shear Modulus (GPa) = 30.99821 41.49231 36.24526
#
# Velocity S-wave (km/s) = 3.51062 4.06163 3.79614
# Velocity P-wave (km/s) = 6.01951 7.22942 6.65203
#
# Compressibility (1/GPa) = 0.02007828
#
# Stress axis : x y z
#
# Youngs Moduli (GPa) = 76.47120 62.86689 54.60127
#
# Poissons Ratio (x) = 0.39796 -0.07585
# Poissons Ratio (y) = 0.48407 0.47333
# Poissons Ratio (z) = -0.10623 0.54498
#
# Static dielectric constant tensor:
#      x y z
#    x 2.098510 -0.049400 -0.005330 
#    y -0.049400 2.090860 -0.010020 
#    z -0.005330 -0.010020 1.996650 
# 
# From -- ./inp_files/474121.got.cif
#   From: 2010.05.17/outbox.cif.g08.bks.cpg/sg2_238_cif.got.tgz:474121.got - 2010.06.03 11:33:40.
