data_PCOD9043485
_publ_section_title
;
Structure prediction by ZEFSAII (Michael W. Deem and Ramdas Pophale) SiO2 
 PCOD9043485
Probable space group: P -1
;
_chemical_formula_sum "Si O2"
_cell_formula_units_Z 16
_cell_length_a 8.442699
_cell_length_b 17.699721
_cell_length_c 7.845207
_cell_angle_alpha 93.645998
_cell_angle_beta 114.016548
_cell_angle_gamma 134.004261
_cell_volume 654.538717
_symmetry_space_group_name_H-M "P -1"
_symmetry_group_IT_number 2
_symmetry_cell_setting 'triclinic'
loop_
_space_group_symop_operation_xyz
x,y,z
-x,-y,-z
loop_
_atom_site_type_symbol
_atom_site_label
_atom_site_fract_x
_atom_site_fract_y
_atom_site_fract_z
Si Si1 0.603074 0.215857 0.433985
Si Si2 0.816339 0.825172 0.337912
Si Si3 0.004705 0.482270 0.796872
Si Si4 0.881184 0.683639 0.329882
Si Si5 0.397457 0.093607 0.651863
Si Si6 0.214450 0.440919 0.413143
Si Si7 0.976395 0.727313 0.986001
Si Si8 0.587699 0.718732 0.883656
O O1 0.365400 0.104601 0.440282
O O2 0.506786 0.237430 0.245503
O O3 0.821941 0.343826 0.659796
O O4 0.782048 0.202485 0.467846
O O5 0.746942 0.715113 0.346363
O O6 0.602100 0.821080 0.259905
O O7 0.833471 0.820042 0.142669
O O8 0.114699 0.953588 0.565124
O O9 0.317278 0.595844 0.861315
O O10 0.829897 0.486675 0.622363
O O11 0.000000 0.500000 0.000000
O O12 0.802606 0.587307 0.401562
O O13 0.841808 0.660444 0.105660
O O14 0.687819 0.147793 0.812510
O O15 0.500000 0.500000 0.500000
O O16 0.016131 0.332076 0.169627
O O17 0.759018 0.719347 0.837585
#
# Coordination Sequence:
#
# PCOD9043485 Si02
#       8
#     2   2   2   2   2   2   2   2
#     4  11  23  41  65  97 134 171 216 275 321 401
#     4  10  23  45  71  92 126 173 220 279 331 394
#     4  12  25  42  66  97 138 179 215 269 325 398
#     4  10  24  43  64  97 132 174 218 272 324 394
#     4  10  23  46  69  93 127 171 224 273 337 388
#     4  12  26  40  65  99 136 179 219 267 326 396
#     4  10  24  43  65  98 132 172 222 272 326 395
#     4  11  23  40  67  97 134 171 218 268 334 388
#
# _framework density 24.444694999999999
#
# number of rings (size 3 to 8) (size 9 to 14) (size 15 to 20)
#    0.000    1.250    1.250    4.125    8.750    5.500 
#    0.000    0.625    0.000    0.000    0.000    0.000 
#    0.000    0.000    0.000    0.000    0.000    0.000 
#
# Total GULP energy -89144.027836 kJ/mol
# GULP energy per Si atom -5571.501740 kJ/mol
# Density = 2.438906 g / cm^3
# Si number density = 24.444695 Si / 1000 Ang^3
#
#
#
# Elastic Constant Matrix: (Units=GPa)
#
#
# Indices 1 2 3 4 5 6 
#
# 1 104.2412 4.6093 15.1638 5.5466 20.6198 -10.1183
# 2 4.6093 39.8322 19.6869 -2.0416 9.7092 -1.9271
# 3 15.1638 19.6869 82.5228 -5.7137 19.0830 -5.4424
# 4 5.5466 -2.0416 -5.7137 31.5365 -0.1337 8.1619
# 5 20.6198 9.7092 19.0830 -0.1337 41.0398 -7.6346
# 6 -10.1183 -1.9271 -5.4424 8.1619 -7.6346 35.1494
#
#
#
# Elastic Compliance Matrix: (Units=1/GPa)
#
#
# Indices 1 2 3 4 5 6 
#
# 1 0.011065 0.000365 -0.001061 -0.002829 -0.004662 0.002685
# 2 0.000365 0.029099 -0.005969 0.000812 -0.004356 -0.000359
# 3 -0.001061 -0.005969 0.015081 0.002505 -0.005055 0.000023
# 4 -0.002829 0.000812 0.002505 0.034991 -0.001463 -0.008825
# 5 -0.004662 -0.004356 -0.005055 -0.001463 0.030960 0.004701
# 6 0.002685 -0.000359 0.000023 -0.008825 0.004701 0.032277
#
#
# Mechanical properties :
#
#
# Convention : Reuss Voigt Hill
#
# Bulk Modulus (GPa) = 23.85782 33.94622 28.90202
# Shear Modulus (GPa) = 27.65877 34.02087 30.83982
#
# Velocity S-wave (km/s) = 3.36740 3.73466 3.55578
# Velocity P-wave (km/s) = 4.99002 5.70211 5.35791
#
# Compressibility (1/GPa) = 0.04191498
#
# Stress axis : x y z
#
# Youngs Moduli (GPa) = 90.37730 34.36487 66.31001
#
# Poissons Ratio (x) = -0.01255 0.07036
# Poissons Ratio (y) = -0.03302 0.39582
# Poissons Ratio (z) = 0.09590 0.20513
#
# Static dielectric constant tensor:
#      x y z
#    x -14.373970 -7.334000 4.058260 
#    y -7.334000 -1.267460 1.892230 
#    z 4.058260 1.892230 0.970040 
# 
# From -- ./inp_files/217718.got.cif
#   From: 2010.05.17/outbox.cif.g08.bks.cpg/sg2_109_cif.got.tgz:217718.got - 2010.06.03 11:33:40.
