data_PCOD9043759
_publ_section_title
;
Structure prediction by ZEFSAII (Michael W. Deem and Ramdas Pophale) SiO2 
 PCOD9043759
Probable space group: P -1
;
_chemical_formula_sum "Si O2"
_cell_formula_units_Z 14
_cell_length_a 9.580232
_cell_length_b 16.754218
_cell_length_c 12.288961
_cell_angle_alpha 24.616660
_cell_angle_beta 135.190785
_cell_angle_gamma 130.172924
_cell_volume 579.043855
_symmetry_space_group_name_H-M "P -1"
_symmetry_group_IT_number 2
_symmetry_cell_setting 'triclinic'
loop_
_space_group_symop_operation_xyz
x,y,z
-x,-y,-z
loop_
_atom_site_type_symbol
_atom_site_label
_atom_site_fract_x
_atom_site_fract_y
_atom_site_fract_z
Si Si1 0.020897 0.037178 0.094487
Si Si2 0.624301 0.115703 0.141870
Si Si3 0.245888 0.645799 0.710889
Si Si4 0.618170 0.233372 0.597256
Si Si5 0.559654 0.663092 0.413863
Si Si6 0.061308 0.555579 0.085802
Si Si7 0.429005 0.199694 0.158040
O O1 0.190837 0.192335 0.027055
O O2 0.118917 0.837629 0.436337
O O3 0.800570 0.112703 0.903252
O O4 0.000000 0.000000 0.000000
O O5 0.507662 0.198927 0.078507
O O6 0.570299 0.890966 0.397285
O O7 0.525747 0.156199 0.919951
O O8 0.829176 0.236687 0.105889
O O9 0.286025 0.669217 0.576287
O O10 0.448726 0.652319 0.884029
O O11 0.115126 0.466853 0.898244
O O12 0.532352 0.358715 0.491716
O O13 0.500000 0.500000 0.500000
O O14 0.789210 0.621500 0.591362
O O15 0.000000 0.500000 0.000000
O O16 0.500000 0.000000 0.500000
#
# Coordination Sequence:
#
# PCOD9043759 Si02
#       7
#     2   2   2   2   2   2   2
#     4   9  17  31  62  97 125 159 215 266 310 369
#     4  11  20  38  66  94 129 167 211 257 321 383
#     4  10  20  36  64  98 130 171 210 264 316 389
#     4  11  21  41  69  97 123 166 228 264 311 388
#     4  10  25  44  64  89 132 173 212 272 332 377
#     4  11  23  40  65  90 135 177 204 255 341 381
#     4  10  17  33  61  99 134 162 206 263 324 372
#
# _framework density 24.177789000000001
#
# number of rings (size 3 to 8) (size 9 to 14) (size 15 to 20)
#    0.000    1.714    5.714    1.286    2.000    0.000 
#    0.000    7.143    0.000    0.000    0.000    0.000 
#    0.000    0.000    0.000    0.286    0.000    0.000 
#
# Total GULP energy -78029.579180 kJ/mol
# GULP energy per Si atom -5573.541370 kJ/mol
# Density = 2.412276 g / cm^3
# Si number density = 24.177789 Si / 1000 Ang^3
#
#
#
# Elastic Constant Matrix: (Units=GPa)
#
#
# Indices 1 2 3 4 5 6 
#
# 1 125.9416 86.1054 31.3145 -19.0667 -31.5110 12.8852
# 2 86.1054 161.9885 37.9916 14.0278 -12.0765 34.7045
# 3 31.3145 37.9916 61.9539 8.2612 -8.1937 8.6824
# 4 -19.0667 14.0278 8.2612 36.8565 -0.8389 -5.5703
# 5 -31.5110 -12.0765 -8.1937 -0.8389 43.4301 -3.2614
# 6 12.8852 34.7045 8.6824 -5.5703 -3.2614 47.6234
#
#
#
# Elastic Compliance Matrix: (Units=1/GPa)
#
#
# Indices 1 2 3 4 5 6 
#
# 1 0.025671 -0.014880 -0.006068 0.021925 0.014410 0.008555
# 2 -0.014880 0.017374 -0.000413 -0.016032 -0.007173 -0.010926
# 3 -0.006068 -0.000413 0.020816 -0.008103 -0.000962 -0.002866
# 4 0.021925 -0.016032 -0.008103 0.048740 0.011894 0.013744
# 5 0.014410 -0.007173 -0.000962 0.011894 0.031916 0.005081
# 6 0.008555 -0.010926 -0.002866 0.013744 0.005081 0.029124
#
#
# Mechanical properties :
#
#
# Convention : Reuss Voigt Hill
#
# Bulk Modulus (GPa) = 47.30179 73.41189 60.35684
# Shear Modulus (GPa) = 22.38053 38.54685 30.46369
#
# Velocity S-wave (km/s) = 3.04577 3.99721 3.55348
# Velocity P-wave (km/s) = 5.65470 7.19256 6.46949
#
# Compressibility (1/GPa) = 0.02114085
#
# Stress axis : x y z
#
# Youngs Moduli (GPa) = 38.95381 57.55765 48.04010
#
# Poissons Ratio (x) = 0.85645 0.29149
# Poissons Ratio (y) = 0.57963 0.01983
# Poissons Ratio (z) = 0.23636 0.02375
#
# Static dielectric constant tensor:
#      x y z
#    x 1.701960 -0.176720 -0.625380 
#    y -0.176720 1.688750 -0.844480 
#    z -0.625380 -0.844480 -0.133580 
# 
# From -- ./inp_files/401730.got.cif
#   From: 2010.05.17/outbox.cif.g08.bks.cpg/sg2_201_cif.got.tgz:401730.got - 2010.06.03 11:33:40.
