data_PCOD9043381
_publ_section_title
;
Structure prediction by ZEFSAII (Michael W. Deem and Ramdas Pophale) SiO2 
 PCOD9043381
Probable space group: P -1
;
_chemical_formula_sum "Si O2"
_cell_formula_units_Z 16
_cell_length_a 24.372226
_cell_length_b 9.149712
_cell_length_c 15.426336
_cell_angle_alpha 51.588172
_cell_angle_beta 30.484740
_cell_angle_gamma 29.480825
_cell_volume 735.586110
_symmetry_space_group_name_H-M "P -1"
_symmetry_group_IT_number 2
_symmetry_cell_setting 'triclinic'
loop_
_space_group_symop_operation_xyz
x,y,z
-x,-y,-z
loop_
_atom_site_type_symbol
_atom_site_label
_atom_site_fract_x
_atom_site_fract_y
_atom_site_fract_z
Si Si1 0.847491 0.154423 0.931365
Si Si2 0.955066 0.568024 0.398840
Si Si3 0.270340 0.280559 0.187317
Si Si4 0.475833 0.191809 0.388588
Si Si5 0.091458 0.328463 0.032682
Si Si6 0.609357 0.517463 0.300179
Si Si7 0.777736 0.234151 0.353315
Si Si8 0.235395 0.314710 0.536718
O O1 0.819907 0.384541 0.831678
O O2 0.842534 0.983716 0.940420
O O3 0.705190 0.350409 0.137486
O O4 0.066975 0.849567 0.785100
O O5 0.827089 0.688403 0.611614
O O6 0.911194 0.466334 0.427382
O O7 0.183875 0.284611 0.221333
O O8 0.861516 0.901089 0.368763
O O9 0.500000 0.000000 0.000000
O O10 0.412285 0.462334 0.434598
O O11 0.311133 0.372660 0.473822
O O12 0.500000 0.000000 0.500000
O O13 0.697888 0.878968 0.160123
O O14 0.897627 0.634167 0.243519
O O15 0.000000 0.500000 0.000000
O O16 0.500000 0.500000 0.500000
O O17 0.757943 0.336214 0.244618
O O18 0.443025 0.919135 0.370547
#
# Coordination Sequence:
#
# PCOD9043381 Si02
#       8
#     2   2   2   2   2   2   2   2
#     4  11  24  41  67  99 128 180 220 277 331 395
#     4  10  24  43  70  96 127 170 220 291 324 382
#     4  10  23  45  70  97 125 165 234 281 336 378
#     4  12  23  39  61  94 140 187 209 256 329 402
#     4  12  24  40  62  93 145 178 213 259 333 402
#     4  12  22  35  62 100 138 171 217 268 323 399
#     4  11  21  40  64  98 136 173 221 264 333 398
#     4  12  24  41  63 100 136 174 219 268 330 391
#
# _framework density 21.751362
#
# number of rings (size 3 to 8) (size 9 to 14) (size 15 to 20)
#    0.000    0.750    5.000    2.625    1.750    3.000 
#    0.000    0.625    0.000    1.500    0.000    0.000 
#    0.000    0.000    0.000    0.000    0.000    0.000 
#
# Total GULP energy -89149.462162 kJ/mol
# GULP energy per Si atom -5571.841385 kJ/mol
# Density = 2.170186 g / cm^3
# Si number density = 21.751362 Si / 1000 Ang^3
#
#
#
# Elastic Constant Matrix: (Units=GPa)
#
#
# Indices 1 2 3 4 5 6 
#
# 1 124.8608 17.3631 25.4825 8.2134 -26.9271 -10.7859
# 2 17.3631 30.5716 7.6997 1.7148 -2.7194 4.1084
# 3 25.4825 7.6997 90.1682 12.2273 -20.1810 -3.8337
# 4 8.2134 1.7148 12.2273 29.0188 -2.4908 -6.8689
# 5 -26.9271 -2.7194 -20.1810 -2.4908 41.7022 5.7534
# 6 -10.7859 4.1084 -3.8337 -6.8689 5.7534 25.6044
#
#
#
# Elastic Compliance Matrix: (Units=1/GPa)
#
#
# Indices 1 2 3 4 5 6 
#
# 1 0.010554 -0.005718 -0.001012 -0.000869 0.005380 0.003770
# 2 -0.005718 0.037685 -0.001948 -0.002021 -0.001049 -0.009054
# 3 -0.001012 -0.001948 0.013417 -0.004937 0.005510 -0.000667
# 4 -0.000869 -0.002021 -0.004937 0.039136 -0.002152 0.010202
# 5 0.005380 -0.001049 0.005510 -0.002152 0.030498 -0.004171
# 6 0.003770 -0.009054 -0.000667 0.010202 -0.004171 0.045671
#
#
# Mechanical properties :
#
#
# Convention : Reuss Voigt Hill
#
# Bulk Modulus (GPa) = 22.57363 38.52123 30.54743
# Shear Modulus (GPa) = 23.91392 32.26876 28.09134
#
# Velocity S-wave (km/s) = 3.31935 3.85584 3.59761
# Velocity P-wave (km/s) = 5.00913 6.12956 5.59745
#
# Compressibility (1/GPa) = 0.04429947
#
# Stress axis : x y z
#
# Youngs Moduli (GPa) = 94.75386 26.53568 74.53263
#
# Poissons Ratio (x) = 0.15174 0.07544
# Poissons Ratio (y) = 0.54184 0.14516
# Poissons Ratio (z) = 0.09590 0.05168
#
# Static dielectric constant tensor:
#      x y z
#    x 1.946080 -0.060860 0.044180 
#    y -0.060860 1.831860 0.048360 
#    z 0.044180 0.048360 1.789590 
# 
# From -- ./inp_files/349493.got.cif
#   From: 2010.05.17/outbox.cif.g08.bks.cpg/sg2_175_cif.got.tgz:349493.got - 2010.06.03 11:33:40.
