data_PCOD9043391
_publ_section_title
;
Structure prediction by ZEFSAII (Michael W. Deem and Ramdas Pophale) SiO2 
 PCOD9043391
Probable space group: P -1
;
_chemical_formula_sum "Si O2"
_cell_formula_units_Z 14
_cell_length_a 21.195779
_cell_length_b 9.491321
_cell_length_c 5.740683
_cell_angle_alpha 115.260680
_cell_angle_beta 97.567728
_cell_angle_gamma 36.366949
_cell_volume 568.897999
_symmetry_space_group_name_H-M "P -1"
_symmetry_group_IT_number 2
_symmetry_cell_setting 'triclinic'
loop_
_space_group_symop_operation_xyz
x,y,z
-x,-y,-z
loop_
_atom_site_type_symbol
_atom_site_label
_atom_site_fract_x
_atom_site_fract_y
_atom_site_fract_z
Si Si1 0.474365 0.399533 0.070613
Si Si2 0.725679 0.111429 0.383681
Si Si3 0.296813 0.185173 0.016590
Si Si4 0.915441 0.576940 0.350350
Si Si5 0.434031 0.153124 0.820439
Si Si6 0.920772 0.935888 0.253900
Si Si7 0.083349 0.721764 0.572782
O O1 0.406812 0.588964 0.405409
O O2 0.597114 0.065210 0.933480
O O3 0.500000 0.500000 0.000000
O O4 0.394191 0.415780 0.968572
O O5 0.739219 0.918616 0.126518
O O6 0.802529 0.913560 0.507252
O O7 0.794832 0.114914 0.314275
O O8 0.345009 0.191176 0.831503
O O9 0.190532 0.497816 0.287399
O O10 0.883030 0.477972 0.370636
O O11 0.000000 0.500000 0.500000
O O12 0.989070 0.375110 0.017909
O O13 0.500000 0.000000 0.500000
O O14 0.500000 0.000000 0.000000
O O15 0.969891 0.894367 0.498029
O O16 0.925443 0.083658 0.210001
#
# Coordination Sequence:
#
# PCOD9043391 Si02
#       7
#     2   2   2   2   2   2   2
#     4  11  24  43  68 105 139 181 234 286 349 428
#     4  12  23  42  67  98 139 178 227 283 350 417
#     4  11  23  44  70 101 140 185 226 292 351 425
#     4  12  23  42  66  98 134 178 226 281 350 410
#     4  10  23  45  70  98 141 187 237 289 350 421
#     4  11  24  43  65  97 133 176 226 288 340 412
#     4  11  23  43  68  96 134 174 231 280 348 408
#
# _framework density 24.608982999999998
#
# number of rings (size 3 to 8) (size 9 to 14) (size 15 to 20)
#    0.000    0.857    2.857    4.714    0.000    2.286 
#    0.000    4.286    0.000    0.000    0.000    0.000 
#    0.000    0.000    0.000    0.000    0.000    0.000 
#
# Total GULP energy -78127.628329 kJ/mol
# GULP energy per Si atom -5580.544881 kJ/mol
# Density = 2.455297 g / cm^3
# Si number density = 24.608983 Si / 1000 Ang^3
#
#
#
# Elastic Constant Matrix: (Units=GPa)
#
#
# Indices 1 2 3 4 5 6 
#
# 1 196.3683 32.8300 34.4696 -7.0755 -1.8423 40.5400
# 2 32.8300 47.4258 5.9565 3.5089 9.0731 12.1429
# 3 34.4696 5.9565 82.0901 15.2997 -3.5975 3.8106
# 4 -7.0755 3.5089 15.2997 28.5573 8.2396 -0.5558
# 5 -1.8423 9.0731 -3.5975 8.2396 39.6490 -0.2181
# 6 40.5400 12.1429 3.8106 -0.5558 -0.2181 55.9226
#
#
#
# Elastic Compliance Matrix: (Units=1/GPa)
#
#
# Indices 1 2 3 4 5 6 
#
# 1 0.007345 -0.003896 -0.003345 0.003986 0.000078 -0.004211
# 2 -0.003896 0.025739 0.000156 -0.002675 -0.005517 -0.002823
# 3 -0.003345 0.000156 0.015548 -0.010114 0.003328 0.001244
# 4 0.003986 -0.002675 -0.010114 0.044429 -0.009360 -0.001215
# 5 0.000078 -0.005517 0.003328 -0.009360 0.028740 0.000934
# 6 -0.004211 -0.002823 0.001244 -0.001215 0.000934 0.021454
#
#
# Mechanical properties :
#
#
# Convention : Reuss Voigt Hill
#
# Bulk Modulus (GPa) = 29.01789 52.48848 40.75319
# Shear Modulus (GPa) = 29.60110 41.66767 35.63439
#
# Velocity S-wave (km/s) = 3.47199 4.11930 3.80942
# Velocity P-wave (km/s) = 5.28111 6.63326 5.99543
#
# Compressibility (1/GPa) = 0.03446150
#
# Stress axis : x y z
#
# Youngs Moduli (GPa) = 136.15294 38.85155 64.31560
#
# Poissons Ratio (x) = 0.15136 0.21517
# Poissons Ratio (y) = 0.53043 -0.01004
# Poissons Ratio (z) = 0.45550 -0.00606
#
# Static dielectric constant tensor:
#      x y z
#    x 2.123470 -0.102960 0.013230 
#    y -0.102960 2.051940 -0.067710 
#    z 0.013230 -0.067710 1.998490 
# 
# From -- ./inp_files/27236.got.cif
#   From: 2010.05.17/outbox.cif.g08.bks.cpg/sg2_14_cif.got.tgz:27236.got - 2010.06.03 11:33:40.
