data_PCOD9043562
_publ_section_title
;
Structure prediction by ZEFSAII (Michael W. Deem and Ramdas Pophale) SiO2 
 PCOD9043562
Probable space group: P -1
;
_chemical_formula_sum "Si O2"
_cell_formula_units_Z 13
_cell_length_a 20.201095
_cell_length_b 5.110403
_cell_length_c 6.817614
_cell_angle_alpha 45.824890
_cell_angle_beta 75.859990
_cell_angle_gamma 83.186934
_cell_volume 488.146448
_symmetry_space_group_name_H-M "P -1"
_symmetry_group_IT_number 2
_symmetry_cell_setting 'triclinic'
loop_
_space_group_symop_operation_xyz
x,y,z
-x,-y,-z
loop_
_atom_site_type_symbol
_atom_site_label
_atom_site_fract_x
_atom_site_fract_y
_atom_site_fract_z
Si Si1 0.190038 0.530640 0.355423
Si Si2 0.284542 0.117224 0.770655
Si Si3 0.612838 0.532378 0.208679
Si Si4 0.078123 0.638900 0.103646
Si Si5 0.927361 0.494090 0.276244
Si Si6 0.410589 0.228995 0.331692
Si Si7 0.500000 0.500000 0.500000
O O1 0.222302 0.235732 0.622377
O O2 0.141400 0.446095 0.249783
O O3 0.133068 0.692064 0.451858
O O4 0.254464 0.781412 0.098186
O O5 0.316122 0.406326 0.758343
O O6 0.344351 0.082204 0.586333
O O7 0.562561 0.802597 0.205393
O O8 0.565755 0.180618 0.523798
O O9 0.612015 0.593756 0.946584
O O10 0.004603 0.437489 0.316604
O O11 0.081727 0.629333 0.873543
O O12 0.078087 0.065922 0.939195
O O13 0.462417 0.446276 0.321442
#
# Coordination Sequence:
#
# PCOD9043562 Si02
#       7
#     2   2   2   2   2   2   1
#     4  12  23  46  66 101 136 186 236 292 356 433
#     4  11  26  43  65  98 135 182 232 280 347 424
#     4  11  24  44  68  99 137 179 224 285 341 409
#     4  10  23  45  72 104 141 184 239 304 370 432
#     4  10  23  45  72 104 141 184 239 304 370 432
#     4  11  24  44  68  99 137 179 224 285 341 409
#     4  10  24  42  72 104 134 174 234 274 346 408
#
# _framework density 26.631354999999999
#
# number of rings (size 3 to 8) (size 9 to 14) (size 15 to 20)
#    0.000    1.231    1.538    3.231    0.000    9.846 
#    5.538    4.615    0.000    0.000    0.000    0.000 
#    0.000    0.000    0.000    0.000    0.000    0.000 
#
# Total GULP energy -72548.585216 kJ/mol
# GULP energy per Si atom -5580.660401 kJ/mol
# Density = 2.657074 g / cm^3
# Si number density = 26.631355 Si / 1000 Ang^3
#
#
#
# Elastic Constant Matrix: (Units=GPa)
#
#
# Indices 1 2 3 4 5 6 
#
# 1 98.2650 2.2806 -0.8815 -4.9733 -4.3599 30.1267
# 2 2.2806 132.3785 27.3379 -1.8153 3.7080 63.7569
# 3 -0.8815 27.3379 117.0303 12.8189 3.3268 22.2537
# 4 -4.9733 -1.8153 12.8189 33.4513 -5.4661 13.5981
# 5 -4.3599 3.7080 3.3268 -5.4661 70.6813 -11.0045
# 6 30.1267 63.7569 22.2537 13.5981 -11.0045 92.4345
#
#
#
# Elastic Compliance Matrix: (Units=1/GPa)
#
#
# Indices 1 2 3 4 5 6 
#
# 1 0.012507 0.003223 0.000160 0.004823 -0.000132 -0.007063
# 2 0.003223 0.013164 -0.001598 0.005934 -0.001641 -0.010814
# 3 0.000160 -0.001598 0.009476 -0.003488 -0.000748 -0.000807
# 4 0.004823 0.005934 -0.003488 0.036582 0.001417 -0.010038
# 5 -0.000132 -0.001641 -0.000748 0.001417 0.014824 0.002912
# 6 -0.007063 -0.010814 -0.000807 -0.010038 0.002912 0.022597
#
#
# Mechanical properties :
#
#
# Convention : Reuss Voigt Hill
#
# Bulk Modulus (GPa) = 25.82800 45.01642 35.42221
# Shear Modulus (GPa) = 42.19907 60.57586 51.38746
#
# Velocity S-wave (km/s) = 3.98498 4.77446 4.39747
# Velocity P-wave (km/s) = 5.55813 6.87998 6.25408
#
# Compressibility (1/GPa) = 0.03871767
#
# Stress axis : x y z
#
# Youngs Moduli (GPa) = 79.95605 75.96294 105.52876
#
# Poissons Ratio (x) = -0.24484 -0.01687
# Poissons Ratio (y) = -0.25771 0.16861
# Poissons Ratio (z) = -0.01278 0.12137
#
# Static dielectric constant tensor:
#      x y z
#    x 2.332540 -0.513460 0.091720 
#    y -0.513460 2.965060 -0.266100 
#    z 0.091720 -0.266100 2.149210 
# 
# From -- ./inp_files/9339.got.cif
#   From: 2010.05.17/outbox.cif.g08.bks.cpg/sg2_5_cif.got.tgz:9339.got - 2010.06.03 11:33:40.
