data_PCOD9043981
_publ_section_title
;
Structure prediction by ZEFSAII (Michael W. Deem and Ramdas Pophale) SiO2 
 PCOD9043981
Probable space group: P -1
;
_chemical_formula_sum "Si O2"
_cell_formula_units_Z 12
_cell_length_a 16.153620
_cell_length_b 10.016421
_cell_length_c 15.883466
_cell_angle_alpha 148.261358
_cell_angle_beta 154.092854
_cell_angle_gamma 27.973134
_cell_volume 506.606631
_symmetry_space_group_name_H-M "P -1"
_symmetry_group_IT_number 2
_symmetry_cell_setting 'triclinic'
loop_
_space_group_symop_operation_xyz
x,y,z
-x,-y,-z
loop_
_atom_site_type_symbol
_atom_site_label
_atom_site_fract_x
_atom_site_fract_y
_atom_site_fract_z
Si Si1 0.295444 0.611651 0.434237
Si Si2 0.655066 0.810035 0.616044
Si Si3 0.281144 0.813528 0.975578
Si Si4 0.072816 0.687473 0.853716
Si Si5 0.809987 0.853895 0.104300
Si Si6 0.669263 0.953614 0.214562
O O1 0.500000 0.500000 0.500000
O O2 0.394971 0.415605 0.504043
O O3 0.071755 0.604836 0.206436
O O4 0.212737 0.953988 0.559125
O O5 0.887439 0.624910 0.682114
O O6 0.500000 0.000000 0.500000
O O7 0.670466 0.006719 0.811523
O O8 0.500000 0.500000 0.000000
O O9 0.096856 0.755438 0.816205
O O10 0.221585 0.961375 0.909578
O O11 0.288513 0.377425 0.911913
O O12 0.000000 0.000000 0.000000
O O13 0.763041 0.979097 0.224092
O O14 0.593466 0.818353 0.887435
#
# Coordination Sequence:
#
# PCOD9043981 Si02
#       6
#     2   2   2   2   2   2
#     4  12  28  46  72 111 145 189 248 299 364 433
#     4  11  27  46  68 102 147 189 241 301 363 432
#     4  11  24  44  72 104 137 187 241 295 365 426
#     4  10  23  46  68 102 140 185 242 286 365 435
#     4  11  25  46  74 104 145 190 243 300 360 433
#     4  11  24  47  75 104 144 196 238 297 368 432
#
# _framework density 23.687017000000001
#
# number of rings (size 3 to 8) (size 9 to 14) (size 15 to 20)
#    0.000    1.000    3.333    1.500    4.667    4.000 
#    0.000    1.667    0.000    0.000    0.000    0.000 
#    0.000    0.000    0.000    0.000    0.000    0.000 
#
# Total GULP energy -66825.039795 kJ/mol
# GULP energy per Si atom -5568.753316 kJ/mol
# Density = 2.363310 g / cm^3
# Si number density = 23.687017 Si / 1000 Ang^3
#
#
#
# Elastic Constant Matrix: (Units=GPa)
#
#
# Indices 1 2 3 4 5 6 
#
# 1 258.0635 70.2087 40.7571 -13.9813 23.4829 21.0879
# 2 70.2087 122.5329 42.2568 -3.9644 -9.5484 7.9271
# 3 40.7571 42.2568 56.6741 -6.2035 3.9585 -3.4228
# 4 -13.9813 -3.9644 -6.2035 36.0986 -2.3520 -3.3289
# 5 23.4829 -9.5484 3.9585 -2.3520 41.9769 -10.8698
# 6 21.0879 7.9271 -3.4228 -3.3289 -10.8698 44.3557
#
#
#
# Elastic Compliance Matrix: (Units=1/GPa)
#
#
# Indices 1 2 3 4 5 6 
#
# 1 0.005619 -0.002684 -0.001828 0.000974 -0.004391 -0.003336
# 2 -0.002684 0.012913 -0.008160 -0.000740 0.005042 -0.000481
# 3 -0.001828 -0.008160 0.025766 0.003064 -0.002045 0.004044
# 4 0.000974 -0.000740 0.003064 0.028823 0.001227 0.002369
# 5 -0.004391 0.005042 -0.002045 0.001227 0.029873 0.008441
# 6 -0.003336 -0.000481 0.004044 0.002369 0.008441 0.026775
#
#
# Mechanical properties :
#
#
# Convention : Reuss Voigt Hill
#
# Bulk Modulus (GPa) = 52.75934 82.63508 67.69721
# Shear Modulus (GPa) = 30.97299 43.42274 37.19787
#
# Velocity S-wave (km/s) = 3.61999 4.28622 3.96711
# Velocity P-wave (km/s) = 6.30827 7.71087 7.04457
#
# Compressibility (1/GPa) = 0.01895399
#
# Stress axis : x y z
#
# Youngs Moduli (GPa) = 177.97672 77.44016 38.81093
#
# Poissons Ratio (x) = 0.20784 0.07094
# Poissons Ratio (y) = 0.47768 0.31671
# Poissons Ratio (z) = 0.32529 0.63193
#
# Static dielectric constant tensor:
#      x y z
#    x 1.882150 -0.035240 0.017100 
#    y -0.035240 2.063920 -0.041180 
#    z 0.017100 -0.041180 2.048740 
# 
# From -- ./inp_files/316219.got.cif
#   From: 2010.05.17/outbox.cif.g08.bks.cpg/sg2_159_cif.got.tgz:316219.got - 2010.06.03 11:33:40.
