data_PCOD9043580
_publ_section_title
;
Structure prediction by ZEFSAII (Michael W. Deem and Ramdas Pophale) SiO2 
 PCOD9043580
Probable space group: P -1
;
_chemical_formula_sum "Si O2"
_cell_formula_units_Z 14
_cell_length_a 11.210983
_cell_length_b 5.331769
_cell_length_c 11.040765
_cell_angle_alpha 120.175879
_cell_angle_beta 77.368259
_cell_angle_gamma 88.428718
_cell_volume 549.284650
_symmetry_space_group_name_H-M "P -1"
_symmetry_group_IT_number 2
_symmetry_cell_setting 'triclinic'
loop_
_space_group_symop_operation_xyz
x,y,z
-x,-y,-z
loop_
_atom_site_type_symbol
_atom_site_label
_atom_site_fract_x
_atom_site_fract_y
_atom_site_fract_z
Si Si1 0.735963 0.402347 0.117083
Si Si2 0.792646 0.390243 0.843872
Si Si3 0.627499 0.522522 0.541814
Si Si4 0.966843 0.628602 0.715106
Si Si5 0.164642 0.171353 0.451457
Si Si6 0.462337 0.332478 0.134591
Si Si7 0.808650 0.041491 0.257689
O O1 0.587621 0.470721 0.147963
O O2 0.759467 0.194536 0.178201
O O3 0.790834 0.705357 0.187104
O O4 0.797377 0.258264 0.944820
O O5 0.887671 0.613885 0.850449
O O6 0.649355 0.524684 0.890853
O O7 0.825342 0.159011 0.672520
O O8 0.500000 0.500000 0.500000
O O9 0.701551 0.762374 0.525753
O O10 0.595834 0.630710 0.710204
O O11 0.723652 0.223549 0.424349
O O12 0.878185 0.661291 0.625349
O O13 0.064412 0.324023 0.605116
O O14 0.053459 0.879481 0.745800
O O15 0.500000 0.000000 0.000000
#
# Coordination Sequence:
#
# PCOD9043580 Si02
#       7
#     2   2   2   2   2   2   2
#     4  12  28  48  73 111 160 196 256 311 386 451
#     4  12  26  43  80 102 147 209 247 316 382 457
#     4  11  23  45  78 107 153 195 250 315 388 443
#     4  10  24  47  73 105 148 194 256 314 370 457
#     4  10  23  45  72 111 143 191 263 310 375 453
#     4  12  26  49  78 113 154 197 255 316 381 459
#     4  11  28  48  73 113 151 201 251 321 371 457
#
# _framework density 25.487697000000001
#
# number of rings (size 3 to 8) (size 9 to 14) (size 15 to 20)
#    0.000    0.857    2.857    2.571    6.000    4.000 
#    0.000    0.000    0.000    0.000    0.000    0.000 
#    0.000    0.000    0.000    0.000    0.000    0.000 
#
# Total GULP energy -78449.406662 kJ/mol
# GULP energy per Si atom -5603.529047 kJ/mol
# Density = 2.542969 g / cm^3
# Si number density = 25.487697 Si / 1000 Ang^3
#
#
#
# Elastic Constant Matrix: (Units=GPa)
#
#
# Indices 1 2 3 4 5 6 
#
# 1 156.6123 37.9373 41.4415 -6.8122 -10.6800 29.4468
# 2 37.9373 99.0948 44.5020 -2.4430 2.3808 -1.4392
# 3 41.4415 44.5020 110.7286 -7.8822 5.4468 -6.6046
# 4 -6.8122 -2.4430 -7.8822 53.6057 4.3665 9.0627
# 5 -10.6800 2.3808 5.4468 4.3665 26.6371 2.3646
# 6 29.4468 -1.4392 -6.6046 9.0627 2.3646 33.1048
#
#
#
# Elastic Compliance Matrix: (Units=1/GPa)
#
#
# Indices 1 2 3 4 5 6 
#
# 1 0.010642 -0.002652 -0.003734 0.002115 0.005926 -0.011328
# 2 -0.002652 0.012982 -0.004053 -0.000623 -0.001505 0.002393
# 3 -0.003734 -0.004053 0.012658 0.000571 -0.004334 0.005824
# 4 0.002115 -0.000623 0.000571 0.020357 -0.001908 -0.007231
# 5 0.005926 -0.001505 -0.004334 -0.001908 0.042022 -0.008680
# 6 -0.011328 0.002393 0.005824 -0.007231 -0.008680 0.044149
#
#
# Mechanical properties :
#
#
# Convention : Reuss Voigt Hill
#
# Bulk Modulus (GPa) = 64.91096 68.24415 66.57756
# Shear Modulus (GPa) = 29.61708 38.83986 34.22847
#
# Velocity S-wave (km/s) = 3.41253 3.90791 3.66859
# Velocity P-wave (km/s) = 6.40703 6.86992 6.64251
#
# Compressibility (1/GPa) = 0.01540572
#
# Stress axis : x y z
#
# Youngs Moduli (GPa) = 93.97016 77.02860 78.99971
#
# Poissons Ratio (x) = 0.20429 0.29495
# Poissons Ratio (y) = 0.24922 0.32015
# Poissons Ratio (z) = 0.35084 0.31216
#
# Static dielectric constant tensor:
#      x y z
#    x 1.983390 -0.023450 0.030150 
#    y -0.023450 2.098950 0.023370 
#    z 0.030150 0.023370 2.010360 
# 
# From -- ./inp_files/109668.got.cif
#   From: 2010.05.17/outbox.cif.g08.bks.cpg/sg2_55_cif.got.tgz:109668.got - 2010.06.03 11:33:40.
