data_PCOD9043010
_publ_section_title
;
Structure prediction by ZEFSAII (Michael W. Deem and Ramdas Pophale) SiO2 
 PCOD9043010
Probable space group: P -1
;
_chemical_formula_sum "Si O2"
_cell_formula_units_Z 16
_cell_length_a 21.700778
_cell_length_b 8.960727
_cell_length_c 17.624713
_cell_angle_alpha 51.153743
_cell_angle_beta 18.996228
_cell_angle_gamma 42.052321
_cell_volume 701.794231
_symmetry_space_group_name_H-M "P -1"
_symmetry_group_IT_number 2
_symmetry_cell_setting 'triclinic'
loop_
_space_group_symop_operation_xyz
x,y,z
-x,-y,-z
loop_
_atom_site_type_symbol
_atom_site_label
_atom_site_fract_x
_atom_site_fract_y
_atom_site_fract_z
Si Si1 0.439561 0.990338 0.761549
Si Si2 0.125240 0.406704 0.221903
Si Si3 0.733482 0.482362 0.248107
Si Si4 0.065825 0.786594 0.742787
Si Si5 0.920977 0.599718 0.244999
Si Si6 0.026726 0.208452 0.606797
Si Si7 0.823029 0.249228 0.669191
Si Si8 0.506361 0.883896 0.899399
O O1 0.353275 0.251898 0.753632
O O2 0.478718 0.944527 0.821438
O O3 0.671988 0.807359 0.502321
O O4 0.213144 0.003271 0.995858
O O5 0.103405 0.498718 0.133516
O O6 0.126205 0.584350 0.220637
O O7 0.888750 0.418216 0.506118
O O8 0.337768 0.130839 0.062139
O O9 0.500000 0.500000 0.500000
O O10 0.825607 0.377090 0.257862
O O11 0.965816 0.331764 0.972675
O O12 0.095019 0.610586 0.699053
O O13 0.162888 0.940722 0.566632
O O14 0.895359 0.216799 0.682851
O O15 0.233326 0.233019 0.338087
O O16 0.000000 0.000000 0.500000
O O17 0.579002 0.282714 0.934720
#
# Coordination Sequence:
#
# PCOD9043010 Si02
#       8
#     2   2   2   2   2   2   2   2
#     4  11  21  44  67  96 136 178 223 278 338 402
#     4  11  23  41  70  98 133 178 225 282 335 403
#     4  11  25  43  67 100 138 174 226 283 335 407
#     4  11  24  43  68  98 136 179 225 281 339 402
#     4  11  23  44  70  97 134 181 226 276 345 401
#     4  12  24  43  69 102 136 177 229 279 341 401
#     4  10  23  45  67  98 139 178 227 280 336 403
#     4  11  22  44  68  95 140 178 221 286 336 400
#
# _framework density 22.798707
#
# number of rings (size 3 to 8) (size 9 to 14) (size 15 to 20)
#    0.000    1.000    5.000    3.375    0.000    6.000 
#    0.000    0.000    0.000    0.000    0.000    0.000 
#    0.000    0.000    0.000    0.000    0.000    0.000 
#
# Total GULP energy -89434.982852 kJ/mol
# GULP energy per Si atom -5589.686428 kJ/mol
# Density = 2.274682 g / cm^3
# Si number density = 22.798707 Si / 1000 Ang^3
#
#
#
# Elastic Constant Matrix: (Units=GPa)
#
#
# Indices 1 2 3 4 5 6 
#
# 1 122.1722 46.4210 11.7468 10.5013 10.4843 16.3142
# 2 46.4210 86.2934 16.8360 -0.5976 15.5050 10.3488
# 3 11.7468 16.8360 98.4480 9.2991 0.8440 20.1987
# 4 10.5013 -0.5976 9.2991 44.1639 3.6022 -0.1065
# 5 10.4843 15.5050 0.8440 3.6022 34.1507 1.8136
# 6 16.3142 10.3488 20.1987 -0.1065 1.8136 39.7507
#
#
#
# Elastic Compliance Matrix: (Units=1/GPa)
#
#
# Indices 1 2 3 4 5 6 
#
# 1 0.010959 -0.005561 0.000595 -0.002783 -0.000383 -0.003343
# 2 -0.005561 0.016126 -0.002166 0.002468 -0.005792 -0.000544
# 3 0.000595 -0.002166 0.011897 -0.002780 0.001107 -0.005784
# 4 -0.002783 0.002468 -0.002780 0.024162 -0.002858 0.002108
# 5 -0.000383 -0.005792 0.001107 -0.002858 0.032324 -0.000380
# 6 -0.003343 -0.000544 -0.005784 0.002108 -0.000380 0.029632
#
#
# Mechanical properties :
#
#
# Convention : Reuss Voigt Hill
#
# Bulk Modulus (GPa) = 40.45605 50.76904 45.61254
# Shear Modulus (GPa) = 33.87483 39.07373 36.47428
#
# Velocity S-wave (km/s) = 3.85882 4.14437 4.00414
# Velocity P-wave (km/s) = 6.13493 6.72442 6.43643
#
# Compressibility (1/GPa) = 0.02471818
#
# Stress axis : x y z
#
# Youngs Moduli (GPa) = 91.24506 62.01301 84.05672
#
# Poissons Ratio (x) = 0.34487 -0.05005
# Poissons Ratio (y) = 0.50744 0.18206
# Poissons Ratio (z) = -0.05432 0.13431
#
# Static dielectric constant tensor:
#      x y z
#    x 1.823340 0.010270 0.027270 
#    y 0.010270 1.887140 -0.055330 
#    z 0.027270 -0.055330 1.977260 
# 
# From -- ./inp_files/577297.got.cif
#   From: 2010.05.17/outbox.cif.g08.bks.cpg/sg2_289_cif.got.tgz:577297.got - 2010.06.03 11:33:40.
