data_PCOD9043326
_publ_section_title
;
Structure prediction by ZEFSAII (Michael W. Deem and Ramdas Pophale) SiO2 
 PCOD9043326
Probable space group: P -1
;
_chemical_formula_sum "Si O2"
_cell_formula_units_Z 14
_cell_length_a 11.864222
_cell_length_b 11.281870
_cell_length_c 5.337599
_cell_angle_alpha 105.613803
_cell_angle_beta 114.203976
_cell_angle_gamma 55.507906
_cell_volume 536.430661
_symmetry_space_group_name_H-M "P -1"
_symmetry_group_IT_number 2
_symmetry_cell_setting 'triclinic'
loop_
_space_group_symop_operation_xyz
x,y,z
-x,-y,-z
loop_
_atom_site_type_symbol
_atom_site_label
_atom_site_fract_x
_atom_site_fract_y
_atom_site_fract_z
Si Si1 0.160698 0.132458 0.287438
Si Si2 0.518282 0.570138 0.806462
Si Si3 0.031862 0.620728 0.373306
Si Si4 0.050474 0.869955 0.266962
Si Si5 0.342422 0.837369 0.529997
Si Si6 0.600416 0.831569 0.513944
Si Si7 0.772898 0.594965 0.189227
O O1 0.042082 0.276955 0.393187
O O2 0.259109 0.175287 0.239053
O O3 0.258215 0.011077 0.516776
O O4 0.076664 0.073857 0.019862
O O5 0.500000 0.500000 0.500000
O O6 0.397477 0.742433 0.779510
O O7 0.500000 0.500000 0.000000
O O8 0.678820 0.543474 0.936717
O O9 0.911636 0.580392 0.173707
O O10 0.055235 0.726163 0.283880
O O11 0.173622 0.484473 0.537688
O O12 0.214476 0.814918 0.303852
O O13 0.000000 0.000000 0.500000
O O14 0.496723 0.780507 0.502071
O O15 0.660100 0.758170 0.258887
O O16 0.500000 0.000000 0.500000
#
# Coordination Sequence:
#
# PCOD9043326 Si02
#       7
#     2   2   2   2   2   2   2
#     4  10  23  45  70 104 144 195 250 316 385 455
#     4  12  28  48  75 112 161 206 260 322 402 475
#     4  10  23  47  72 106 146 197 260 317 379 471
#     4  12  25  40  70 106 148 193 256 316 389 460
#     4  11  24  43  72 105 145 194 245 321 384 457
#     4   9  21  45  73 108 147 194 254 317 388 460
#     4  10  23  47  75 107 150 203 260 316 393 467
#
# _framework density 26.098433
#
# number of rings (size 3 to 8) (size 9 to 14) (size 15 to 20)
#    0.000    1.429    1.429    2.143    4.000    3.429 
#    0.000    5.000    0.000    0.000    0.000    0.000 
#    0.000    0.000    0.000    0.000    0.000    0.000 
#
# Total GULP energy -78191.012115 kJ/mol
# GULP energy per Si atom -5585.072294 kJ/mol
# Density = 2.603903 g / cm^3
# Si number density = 26.098433 Si / 1000 Ang^3
#
#
#
# Elastic Constant Matrix: (Units=GPa)
#
#
# Indices 1 2 3 4 5 6 
#
# 1 201.0142 33.6210 77.2259 11.6959 43.8340 27.7996
# 2 33.6210 122.1797 43.7356 -18.7791 -4.9047 18.6097
# 3 77.2259 43.7356 128.0763 -9.4770 32.8000 14.7010
# 4 11.6959 -18.7791 -9.4770 41.4907 10.6221 -6.2450
# 5 43.8340 -4.9047 32.8000 10.6221 54.5012 7.8175
# 6 27.7996 18.6097 14.7010 -6.2450 7.8175 49.4772
#
#
#
# Elastic Compliance Matrix: (Units=1/GPa)
#
#
# Indices 1 2 3 4 5 6 
#
# 1 0.007725 -0.001103 -0.003333 -0.003008 -0.003319 -0.002790
# 2 -0.001103 0.010724 -0.003417 0.003049 0.003687 -0.002596
# 3 -0.003333 -0.003417 0.012780 0.004035 -0.006227 0.000854
# 4 -0.003008 0.003049 0.004035 0.029401 -0.006040 0.004010
# 5 -0.003319 0.003687 -0.006227 -0.006040 0.026654 -0.002645
# 6 -0.002790 -0.002596 0.000854 0.004010 -0.002645 0.023426
#
#
# Mechanical properties :
#
#
# Convention : Reuss Voigt Hill
#
# Bulk Modulus (GPa) = 64.43068 84.49279 74.46174
# Shear Modulus (GPa) = 37.99692 48.87298 43.43495
#
# Velocity S-wave (km/s) = 3.81978 4.33210 4.08398
# Velocity P-wave (km/s) = 6.64796 7.58074 7.12962
#
# Compressibility (1/GPa) = 0.01552056
#
# Stress axis : x y z
#
# Youngs Moduli (GPa) = 129.45664 93.25234 78.24851
#
# Poissons Ratio (x) = 0.10287 0.26082
# Poissons Ratio (y) = 0.14281 0.26740
# Poissons Ratio (z) = 0.43151 0.31868
#
# Static dielectric constant tensor:
#      x y z
#    x 2.127850 0.028180 0.012060 
#    y 0.028180 2.080940 -0.006090 
#    z 0.012060 -0.006090 2.113480 
# 
# From -- ./inp_files/71455.got.cif
#   From: 2010.05.17/outbox.cif.g08.bks.cpg/sg2_36_cif.got.tgz:71455.got - 2010.06.03 11:33:40.
