data_PCOD9043104
_publ_section_title
;
Structure prediction by ZEFSAII (Michael W. Deem and Ramdas Pophale) SiO2 
 PCOD9043104
Probable space group: P -1
;
_chemical_formula_sum "Si O2"
_cell_formula_units_Z 10
_cell_length_a 14.903156
_cell_length_b 12.816830
_cell_length_c 13.399461
_cell_angle_alpha 39.038004
_cell_angle_beta 29.953457
_cell_angle_gamma 19.966060
_cell_volume 425.604688
_symmetry_space_group_name_H-M "P -1"
_symmetry_group_IT_number 2
_symmetry_cell_setting 'triclinic'
loop_
_space_group_symop_operation_xyz
x,y,z
-x,-y,-z
loop_
_atom_site_type_symbol
_atom_site_label
_atom_site_fract_x
_atom_site_fract_y
_atom_site_fract_z
Si Si1 0.220457 0.690905 0.712303
Si Si2 0.661392 0.053104 0.825683
Si Si3 0.311289 0.632498 0.975982
Si Si4 0.103885 0.368791 0.608411
Si Si5 0.050443 0.765260 0.458485
O O1 0.500000 0.500000 0.500000
O O2 0.370112 0.420951 0.830085
O O3 0.877219 0.898106 0.833988
O O4 0.152164 0.933776 0.632881
O O5 0.923345 0.881640 0.608067
O O6 0.500000 0.000000 0.000000
O O7 0.569208 0.484690 0.751388
O O8 0.500000 0.500000 0.000000
O O9 0.146468 0.582780 0.156925
O O10 0.000000 0.000000 0.000000
O O11 0.025692 0.593363 0.580968
O O12 0.000000 0.500000 0.500000
O O13 0.500000 0.000000 0.500000
#
# Coordination Sequence:
#
# PCOD9043104 Si02
#       5
#     2   2   2   2   2
#     4  10  23  45  68  97 137 174 226 282 335 406
#     4  11  25  46  70 105 135 174 234 283 332 413
#     4  12  25  46  68  99 140 181 227 281 333 405
#     4  12  25  46  67 102 137 178 234 279 327 411
#     4  11  25  45  74  96 143 183 222 279 355 384
#
# _framework density 23.495979999999999
#
# number of rings (size 3 to 8) (size 9 to 14) (size 15 to 20)
#    0.000    0.800    4.000    3.000    2.800    9.600 
#    3.600    0.000    0.000    0.000    0.000    0.000 
#    0.000    0.000    0.000    0.000    0.000    0.000 
#
# Total GULP energy -55940.934692 kJ/mol
# GULP energy per Si atom -5594.093469 kJ/mol
# Density = 2.344250 g / cm^3
# Si number density = 23.495980 Si / 1000 Ang^3
#
#
#
# Elastic Constant Matrix: (Units=GPa)
#
#
# Indices 1 2 3 4 5 6 
#
# 1 121.4410 80.8014 38.9793 -11.5039 -21.2699 -6.2114
# 2 80.8014 230.1601 57.6887 -11.9936 -23.5765 1.0502
# 3 38.9793 57.6887 170.1498 -15.3801 -23.0857 10.6698
# 4 -11.5039 -11.9936 -15.3801 47.7082 17.2394 -13.7998
# 5 -21.2699 -23.5765 -23.0857 17.2394 47.6144 -6.7558
# 6 -6.2114 1.0502 10.6698 -13.7998 -6.7558 56.1720
#
#
#
# Elastic Compliance Matrix: (Units=1/GPa)
#
#
# Indices 1 2 3 4 5 6 
#
# 1 0.011613 -0.003452 -0.001140 0.001185 0.002808 0.002194
# 2 -0.003452 0.005915 -0.001092 -0.000062 0.000852 -0.000198
# 3 -0.001140 -0.001092 0.006892 0.000693 0.001897 -0.001016
# 4 0.001185 -0.000062 0.000693 0.025819 -0.007746 0.005412
# 5 0.002808 0.000852 0.001897 -0.007746 0.026576 0.001228
# 6 0.002194 -0.000198 -0.001016 0.005412 0.001228 0.019719
#
#
# Mechanical properties :
#
#
# Convention : Reuss Voigt Hill
#
# Bulk Modulus (GPa) = 76.61014 97.40994 87.01004
# Shear Modulus (GPa) = 44.54178 53.25103 48.89640
#
# Velocity S-wave (km/s) = 4.35871 4.76583 4.56681
# Velocity P-wave (km/s) = 7.61627 8.47539 8.05729
#
# Compressibility (1/GPa) = 0.01305310
#
# Stress axis : x y z
#
# Youngs Moduli (GPa) = 86.10766 169.04967 145.08870
#
# Poissons Ratio (x) = 0.58357 0.16533
# Poissons Ratio (y) = 0.29725 0.15850
# Poissons Ratio (z) = 0.09812 0.18468
#
# Static dielectric constant tensor:
#      x y z
#    x 1.967150 -0.002620 -0.022740 
#    y -0.002620 1.891260 0.067730 
#    z -0.022740 0.067730 1.811740 
# 
# From -- ./inp_files/19374.got.cif
#   From: 2010.05.17/outbox.cif.g08.bks.cpg/sg2_10_cif.got.tgz:19374.got - 2010.06.03 11:33:40.
