data_PCOD9043807
_publ_section_title
;
Structure prediction by ZEFSAII (Michael W. Deem and Ramdas Pophale) SiO2 
 PCOD9043807
Probable space group: P -1
;
_chemical_formula_sum "Si O2"
_cell_formula_units_Z 14
_cell_length_a 18.001675
_cell_length_b 12.250750
_cell_length_c 12.380108
_cell_angle_alpha 25.271160
_cell_angle_beta 144.673202
_cell_angle_gamma 152.481244
_cell_volume 537.191667
_symmetry_space_group_name_H-M "P -1"
_symmetry_group_IT_number 2
_symmetry_cell_setting 'triclinic'
loop_
_space_group_symop_operation_xyz
x,y,z
-x,-y,-z
loop_
_atom_site_type_symbol
_atom_site_label
_atom_site_fract_x
_atom_site_fract_y
_atom_site_fract_z
Si Si1 0.566113 0.568149 0.395616
Si Si2 0.855717 0.640621 0.177412
Si Si3 0.947272 0.718660 0.440166
Si Si4 0.757795 0.547136 0.923998
Si Si5 0.127689 0.710856 0.867247
Si Si6 0.371963 0.713547 0.458475
Si Si7 0.364517 0.162653 0.188194
O O1 0.500000 0.500000 0.500000
O O2 0.414600 0.526548 0.195367
O O3 0.596966 0.332212 0.585914
O O4 0.737947 0.916457 0.279119
O O5 0.893111 0.525700 0.433347
O O6 0.797916 0.440167 0.177789
O O7 0.740982 0.738249 0.981196
O O8 0.000000 0.000000 0.000000
O O9 0.778256 0.633351 0.361191
O O10 0.020495 0.661547 0.680538
O O11 0.092365 0.081261 0.252943
O O12 0.763795 0.387159 0.965797
O O13 0.000000 0.500000 0.000000
O O14 0.545099 0.890124 0.564083
O O15 0.311450 0.915776 0.247814
O O16 0.500000 0.500000 0.000000
#
# Coordination Sequence:
#
# PCOD9043807 Si02
#       7
#     2   2   2   2   2   2   2
#     4  12  26  51  75 111 154 201 261 313 373 456
#     4  10  23  45  76 108 150 184 247 323 383 448
#     4  11  25  48  73 112 151 195 258 309 389 456
#     4  11  25  50  76 112 152 199 254 321 382 448
#     4  12  29  48  78 110 155 209 257 310 380 460
#     4  11  26  43  75 105 150 199 246 314 375 454
#     4  11  23  47  69 109 144 192 248 303 382 455
#
# _framework density 26.061461000000001
#
# number of rings (size 3 to 8) (size 9 to 14) (size 15 to 20)
#    0.000    0.857    4.286    1.286    6.000    4.000 
#    2.571    0.000    0.000    0.000    0.000    0.000 
#    0.000    0.000    0.000    0.000    0.000    0.000 
#
# Total GULP energy -78138.314878 kJ/mol
# GULP energy per Si atom -5581.308206 kJ/mol
# Density = 2.600214 g / cm^3
# Si number density = 26.061461 Si / 1000 Ang^3
#
#
#
# Elastic Constant Matrix: (Units=GPa)
#
#
# Indices 1 2 3 4 5 6 
#
# 1 199.3620 63.2811 36.3827 -2.7223 -22.6842 -16.9241
# 2 63.2811 137.1595 26.6566 3.7880 -9.8453 4.0209
# 3 36.3827 26.6566 67.0605 15.5409 -22.8107 -16.2179
# 4 -2.7223 3.7880 15.5409 44.1027 -8.4603 -1.1829
# 5 -22.6842 -9.8453 -22.8107 -8.4603 40.4358 2.7459
# 6 -16.9241 4.0209 -16.2179 -1.1829 2.7459 67.3894
#
#
#
# Elastic Compliance Matrix: (Units=1/GPa)
#
#
# Indices 1 2 3 4 5 6 
#
# 1 0.006572 -0.002595 -0.001847 0.001754 0.002292 0.001298
# 2 -0.002595 0.009048 -0.002871 -0.000124 -0.000772 -0.001853
# 3 -0.001847 -0.002871 0.022831 -0.005948 0.009580 0.004707
# 4 0.001754 -0.000124 -0.005948 0.025441 0.002966 -0.000658
# 5 0.002292 -0.000772 0.009580 0.002966 0.031738 0.001686
# 6 0.001298 -0.001853 0.004707 -0.000658 0.001686 0.016328
#
#
# Mechanical properties :
#
#
# Convention : Reuss Voigt Hill
#
# Bulk Modulus (GPa) = 41.97296 72.91363 57.44329
# Shear Modulus (GPa) = 37.16774 48.86970 43.01872
#
# Velocity S-wave (km/s) = 3.78055 4.33502 4.06724
# Velocity P-wave (km/s) = 5.93271 7.28662 6.64424
#
# Compressibility (1/GPa) = 0.02382486
#
# Stress axis : x y z
#
# Youngs Moduli (GPa) = 152.16859 110.51751 43.80085
#
# Poissons Ratio (x) = 0.28680 0.08089
# Poissons Ratio (y) = 0.39488 0.12576
# Poissons Ratio (z) = 0.28101 0.31731
#
# Static dielectric constant tensor:
#      x y z
#    x 2.024110 -0.045650 0.006690 
#    y -0.045650 1.946820 -0.033520 
#    z 0.006690 -0.033520 2.130170 
# 
# From -- ./inp_files/465001.got.cif
#   From: 2010.05.17/outbox.cif.g08.bks.cpg/sg2_233_cif.got.tgz:465001.got - 2010.06.03 11:33:40.
