data_PCOD9043142
_publ_section_title
;
Structure prediction by ZEFSAII (Michael W. Deem and Ramdas Pophale) SiO2 
 PCOD9043142
Probable space group: P -1
;
_chemical_formula_sum "Si O2"
_cell_formula_units_Z 16
_cell_length_a 6.023215
_cell_length_b 27.094838
_cell_length_c 6.144771
_cell_angle_alpha 125.932423
_cell_angle_beta 100.857029
_cell_angle_gamma 57.877061
_cell_volume 676.403251
_symmetry_space_group_name_H-M "P -1"
_symmetry_group_IT_number 2
_symmetry_cell_setting 'triclinic'
loop_
_space_group_symop_operation_xyz
x,y,z
-x,-y,-z
loop_
_atom_site_type_symbol
_atom_site_label
_atom_site_fract_x
_atom_site_fract_y
_atom_site_fract_z
Si Si1 0.629818 0.771608 0.349803
Si Si2 0.626024 0.597037 0.612976
Si Si3 0.110114 0.848447 0.200731
Si Si4 0.809209 0.981604 0.781396
Si Si5 0.213523 0.327358 0.525657
Si Si6 0.929352 0.461915 0.078239
Si Si7 0.945020 0.280069 0.027613
Si Si8 0.717670 0.889781 0.874833
O O1 0.419986 0.807731 0.209167
O O2 0.574494 0.726060 0.394662
O O3 0.645078 0.833773 0.632300
O O4 0.913424 0.716912 0.154188
O O5 0.675904 0.641345 0.551708
O O6 0.668305 0.525594 0.316212
O O7 0.346826 0.651513 0.813050
O O8 0.848128 0.569816 0.772372
O O9 0.969114 0.928928 0.476346
O O10 0.033437 0.795909 0.168006
O O11 0.000539 0.854134 0.954767
O O12 0.734805 0.934717 0.797252
O O13 0.528237 0.054588 0.870772
O O14 0.000000 0.000000 0.000000
O O15 0.109182 0.283109 0.268451
O O16 0.966862 0.394136 0.779354
O O17 0.000000 0.500000 0.000000
#
# Coordination Sequence:
#
# PCOD9043142 Si02
#       8
#     2   2   2   2   2   2   2   2
#     4  12  26  45  69 104 144 184 239 288 353 426
#     4  10  23  45  69 100 140 186 238 291 355 414
#     4  12  25  44  71 101 139 186 233 291 349 423
#     4  11  24  46  73 101 138 183 235 297 349 416
#     4  11  23  43  69 101 138 185 237 292 354 417
#     4   9  20  43  71  99 137 186 238 295 344 418
#     4  12  25  42  67 105 139 184 234 288 351 428
#     4  11  25  47  69 102 138 184 236 287 357 420
#
# _framework density 23.654529
#
# number of rings (size 3 to 8) (size 9 to 14) (size 15 to 20)
#    0.000    1.000    3.750    2.625    0.000    7.000 
#    2.250    8.750    0.000    0.000    0.000    0.000 
#    0.000    0.000    0.000    0.000    0.000    0.000 
#
# Total GULP energy -89443.981215 kJ/mol
# GULP energy per Si atom -5590.248826 kJ/mol
# Density = 2.360069 g / cm^3
# Si number density = 23.654529 Si / 1000 Ang^3
#
#
#
# Elastic Constant Matrix: (Units=GPa)
#
#
# Indices 1 2 3 4 5 6 
#
# 1 53.8699 37.5988 36.7822 11.3978 -7.9687 -16.8754
# 2 37.5988 115.5776 35.8989 -7.1935 -8.5410 -12.8604
# 3 36.7822 35.8989 108.8135 29.2557 1.8522 -6.6806
# 4 11.3978 -7.1935 29.2557 34.6263 -0.9206 1.2059
# 5 -7.9687 -8.5410 1.8522 -0.9206 38.9937 6.2937
# 6 -16.8754 -12.8604 -6.6806 1.2059 6.2937 34.1598
#
#
#
# Elastic Compliance Matrix: (Units=1/GPa)
#
#
# Indices 1 2 3 4 5 6 
#
# 1 0.034630 -0.008286 -0.006005 -0.008393 0.003332 0.012496
# 2 -0.008286 0.013220 -0.004025 0.008938 0.001690 -0.000530
# 3 -0.006005 -0.004025 0.015903 -0.012365 -0.003097 -0.000365
# 4 -0.008393 0.008938 -0.012365 0.044202 0.002723 -0.005262
# 5 0.003332 0.001690 -0.003097 0.002723 0.027469 -0.003481
# 6 0.012496 -0.000530 -0.000365 -0.005262 -0.003481 0.036004
#
#
# Mechanical properties :
#
#
# Convention : Reuss Voigt Hill
#
# Bulk Modulus (GPa) = 36.87242 55.42455 46.14848
# Shear Modulus (GPa) = 23.03070 32.75470 27.89270
#
# Velocity S-wave (km/s) = 3.12369 3.72521 3.43763
# Velocity P-wave (km/s) = 5.35085 6.47955 5.94206
#
# Compressibility (1/GPa) = 0.02712054
#
# Stress axis : x y z
#
# Youngs Moduli (GPa) = 28.87637 75.64233 62.88226
#
# Poissons Ratio (x) = 0.62678 0.37763
# Poissons Ratio (y) = 0.23927 0.25310
# Poissons Ratio (z) = 0.17341 0.30446
#
# Static dielectric constant tensor:
#      x y z
#    x 1.888530 -0.012270 -0.011520 
#    y -0.012270 1.894830 0.005130 
#    z -0.011520 0.005130 1.918900 
# 
# From -- ./inp_files/14719.got.cif
#   From: 2010.05.17/outbox.cif.g08.bks.cpg/sg2_8_cif.got.tgz:14719.got - 2010.06.03 11:33:40.
