data_PCOD9043419
_publ_section_title
;
Structure prediction by ZEFSAII (Michael W. Deem and Ramdas Pophale) SiO2 
 PCOD9043419
Probable space group: P -1
;
_chemical_formula_sum "Si O2"
_cell_formula_units_Z 16
_cell_length_a 21.646651
_cell_length_b 8.664963
_cell_length_c 20.068166
_cell_angle_alpha 143.205623
_cell_angle_beta 18.376777
_cell_angle_gamma 143.428579
_cell_volume 691.949198
_symmetry_space_group_name_H-M "P -1"
_symmetry_group_IT_number 2
_symmetry_cell_setting 'triclinic'
loop_
_space_group_symop_operation_xyz
x,y,z
-x,-y,-z
loop_
_atom_site_type_symbol
_atom_site_label
_atom_site_fract_x
_atom_site_fract_y
_atom_site_fract_z
Si Si1 0.990702 0.657392 0.934764
Si Si2 0.682412 0.967570 0.350545
Si Si3 0.472807 0.193937 0.403556
Si Si4 0.352901 0.626311 0.005377
Si Si5 0.775032 0.892915 0.722981
Si Si6 0.833569 0.963798 0.990495
Si Si7 0.950465 0.298828 0.540814
Si Si8 0.871509 0.883767 0.371332
O O1 0.043175 0.379509 0.800266
O O2 0.133354 0.793817 0.775883
O O3 0.062073 0.838942 0.990083
O O4 0.768378 0.700738 0.161672
O O5 0.629412 0.967209 0.482359
O O6 0.500000 0.000000 0.500000
O O7 0.500000 0.500000 0.500000
O O8 0.346484 0.160551 0.454075
O O9 0.679354 0.103042 0.158097
O O10 0.222598 0.661473 0.217516
O O11 0.290626 0.840981 0.094249
O O12 0.589653 0.732170 0.813559
O O13 0.280681 0.316204 0.958327
O O14 0.830730 0.692987 0.649246
O O15 0.000000 0.000000 0.500000
O O16 0.992617 0.934116 0.761004
O O17 0.000000 0.500000 0.500000
O O18 0.878025 0.015367 0.481599
#
# Coordination Sequence:
#
# PCOD9043419 Si02
#       8
#     2   2   2   2   2   2   2   2
#     4  11  24  42  67  99 137 178 227 279 346 415
#     4  11  22  42  64  97 138 173 226 283 336 409
#     4  12  24  42  66  98 138 180 231 280 346 414
#     4  10  23  45  71 101 133 179 234 281 351 409
#     4   9  22  46  70  98 134 177 228 291 344 409
#     4  12  23  40  71 100 131 181 228 284 343 416
#     4  11  24  44  67  99 140 177 231 283 344 408
#     4  12  25  45  66  98 139 186 225 286 343 409
#
# _framework density 23.123085
#
# number of rings (size 3 to 8) (size 9 to 14) (size 15 to 20)
#    0.000    1.000    5.000    1.125    1.750    3.500 
#    6.750    0.000    0.000    0.000    0.000    0.000 
#    0.000    0.000    0.000    0.000    0.000    0.000 
#
# Total GULP energy -89365.803477 kJ/mol
# GULP energy per Si atom -5585.362717 kJ/mol
# Density = 2.307046 g / cm^3
# Si number density = 23.123085 Si / 1000 Ang^3
#
#
#
# Elastic Constant Matrix: (Units=GPa)
#
#
# Indices 1 2 3 4 5 6 
#
# 1 70.3717 3.8517 47.3066 5.4019 -16.5791 -8.8449
# 2 3.8517 71.4668 23.4456 10.8360 -6.4746 -4.8859
# 3 47.3066 23.4456 111.7956 3.9753 -37.4354 7.2866
# 4 5.4019 10.8360 3.9753 29.9199 -9.8634 2.0389
# 5 -16.5791 -6.4746 -37.4354 -9.8634 57.4228 6.1503
# 6 -8.8449 -4.8859 7.2866 2.0389 6.1503 41.3696
#
#
#
# Elastic Compliance Matrix: (Units=1/GPa)
#
#
# Indices 1 2 3 4 5 6 
#
# 1 0.022494 0.003621 -0.011346 -0.005127 -0.002212 0.007817
# 2 0.003621 0.016936 -0.006034 -0.007191 -0.002706 0.004594
# 3 -0.011346 -0.006034 0.018729 0.005635 0.010102 -0.008217
# 4 -0.005127 -0.007191 0.005635 0.039540 0.008839 -0.006201
# 5 -0.002212 -0.002706 0.010102 0.008839 0.025300 -0.006769
# 6 0.007817 0.004594 -0.008217 -0.006201 -0.006769 0.029145
#
#
# Mechanical properties :
#
#
# Convention : Reuss Voigt Hill
#
# Bulk Modulus (GPa) = 32.63427 44.76021 38.69724
# Shear Modulus (GPa) = 26.33310 37.67780 32.00545
#
# Velocity S-wave (km/s) = 3.37831 4.04102 3.72443
# Velocity P-wave (km/s) = 5.41860 6.41658 5.93859
#
# Compressibility (1/GPa) = 0.03064263
#
# Stress axis : x y z
#
# Youngs Moduli (GPa) = 44.45636 59.04564 53.39293
#
# Poissons Ratio (x) = -0.21381 0.60577
# Poissons Ratio (y) = -0.16098 0.32216
# Poissons Ratio (z) = 0.50438 0.35627
#
# Static dielectric constant tensor:
#      x y z
#    x 1.920090 -0.042260 0.006010 
#    y -0.042260 1.936550 0.003530 
#    z 0.006010 0.003530 1.890300 
# 
# From -- ./inp_files/601291.got.cif
#   From: 2010.05.17/outbox.cif.g08.bks.cpg/sg2_301_cif.got.tgz:601291.got - 2010.06.03 11:33:40.
