data_PCOD9043619
_publ_section_title
;
Structure prediction by ZEFSAII (Michael W. Deem and Ramdas Pophale) SiO2 
 PCOD9043619
Probable space group: P -1
;
_chemical_formula_sum "Si O2"
_cell_formula_units_Z 16
_cell_length_a 17.556882
_cell_length_b 18.228251
_cell_length_c 5.521400
_cell_angle_alpha 60.461756
_cell_angle_beta 49.335653
_cell_angle_gamma 28.963666
_cell_volume 634.606951
_symmetry_space_group_name_H-M "P -1"
_symmetry_group_IT_number 2
_symmetry_cell_setting 'triclinic'
loop_
_space_group_symop_operation_xyz
x,y,z
-x,-y,-z
loop_
_atom_site_type_symbol
_atom_site_label
_atom_site_fract_x
_atom_site_fract_y
_atom_site_fract_z
Si Si1 0.427526 0.237718 0.794828
Si Si2 0.154620 0.688915 0.672856
Si Si3 0.693741 0.903830 0.332868
Si Si4 0.796859 0.169580 0.570792
Si Si5 0.190800 0.507531 0.209694
Si Si6 0.542103 0.606856 0.782282
Si Si7 0.769119 0.004525 0.760075
Si Si8 0.177688 0.263680 0.150836
O O1 0.456709 0.302088 0.484008
O O2 0.627833 0.068124 0.750819
O O3 0.299964 0.356982 0.092071
O O4 0.305895 0.255487 0.878579
O O5 0.184309 0.747921 0.694704
O O6 0.345871 0.533362 0.396386
O O7 0.102302 0.639014 0.997079
O O8 0.989313 0.832135 0.596493
O O9 0.741844 0.836514 0.608198
O O10 0.500000 0.000000 0.500000
O O11 0.813775 0.788673 0.038745
O O12 0.701292 0.000526 0.144482
O O13 0.732120 0.131309 0.626929
O O14 0.661990 0.272781 0.911633
O O15 0.000000 0.000000 0.500000
O O16 0.335532 0.464894 0.116854
O O17 0.036941 0.576735 0.591078
#
# Coordination Sequence:
#
# PCOD9043619 Si02
#       8
#     2   2   2   2   2   2   2   2
#     4  11  26  43  72 106 146 191 245 302 366 441
#     4  10  23  46  71 104 141 187 244 296 375 440
#     4  12  26  45  73 107 147 198 249 307 370 436
#     4  10  23  45  73 103 139 184 243 310 364 445
#     4  11  24  46  71 105 149 193 235 306 366 448
#     4  11  24  45  71 102 145 190 238 301 374 439
#     4  11  22  46  71 100 143 182 245 301 369 424
#     4  12  27  45  75 109 149 201 251 300 367 446
#
# _framework density 25.212458999999999
#
# number of rings (size 3 to 8) (size 9 to 14) (size 15 to 20)
#    0.000    1.000    3.750    1.875    5.250    1.000 
#    6.750    1.250    0.000    0.000    0.000    0.000 
#    0.000    0.000    0.000    0.000    0.000    0.000 
#
# Total GULP energy -89439.120278 kJ/mol
# GULP energy per Si atom -5589.945017 kJ/mol
# Density = 2.515507 g / cm^3
# Si number density = 25.212459 Si / 1000 Ang^3
#
#
#
# Elastic Constant Matrix: (Units=GPa)
#
#
# Indices 1 2 3 4 5 6 
#
# 1 98.9859 38.5199 35.6282 -5.6728 -10.2696 7.4409
# 2 38.5199 108.5296 35.7190 -6.2599 -0.6098 -17.5951
# 3 35.6282 35.7190 82.0265 12.6252 -10.1162 -22.2583
# 4 -5.6728 -6.2599 12.6252 32.6776 -7.3649 -7.8693
# 5 -10.2696 -0.6098 -10.1162 -7.3649 45.4328 -0.2263
# 6 7.4409 -17.5951 -22.2583 -7.8693 -0.2263 24.9763
#
#
#
# Elastic Compliance Matrix: (Units=1/GPa)
#
#
# Indices 1 2 3 4 5 6 
#
# 1 0.017490 -0.005623 -0.009941 0.002048 0.001910 -0.017368
# 2 -0.005623 0.013793 -0.001144 0.004863 -0.000493 0.011900
# 3 -0.009941 -0.001144 0.024080 -0.005446 0.002326 0.021921
# 4 0.002048 0.004863 -0.005446 0.037597 0.005459 0.009858
# 5 0.001910 -0.000493 0.002326 0.005459 0.023854 0.003093
# 6 -0.017368 0.011900 0.021921 0.009858 0.003093 0.076265
#
#
# Mechanical properties :
#
#
# Convention : Reuss Voigt Hill
#
# Bulk Modulus (GPa) = 45.56225 56.58626 51.07425
# Shear Modulus (GPa) = 21.38483 32.59566 26.99024
#
# Velocity S-wave (km/s) = 2.91552 3.59951 3.27542
# Velocity P-wave (km/s) = 5.42625 6.30617 5.88269
#
# Compressibility (1/GPa) = 0.02194799
#
# Stress axis : x y z
#
# Youngs Moduli (GPa) = 57.17714 72.49882 41.52743
#
# Poissons Ratio (x) = 0.40764 0.41281
# Poissons Ratio (y) = 0.32149 0.04752
# Poissons Ratio (z) = 0.56837 0.08296
#
# Static dielectric constant tensor:
#      x y z
#    x 2.033200 0.002920 -0.008020 
#    y 0.002920 2.060820 -0.010870 
#    z -0.008020 -0.010870 1.976030 
# 
# From -- ./inp_files/111626.got.cif
#   From: 2010.05.17/outbox.cif.g08.bks.cpg/sg2_56_cif.got.tgz:111626.got - 2010.06.03 11:33:40.
