data_PCOD9043253
_publ_section_title
;
Structure prediction by ZEFSAII (Michael W. Deem and Ramdas Pophale) SiO2 
 PCOD9043253
Probable space group: P -1
;
_chemical_formula_sum "Si O2"
_cell_formula_units_Z 12
_cell_length_a 11.474966
_cell_length_b 5.400343
_cell_length_c 20.732261
_cell_angle_alpha 117.046083
_cell_angle_beta 31.821120
_cell_angle_gamma 129.729643
_cell_volume 508.447669
_symmetry_space_group_name_H-M "P -1"
_symmetry_group_IT_number 2
_symmetry_cell_setting 'triclinic'
loop_
_space_group_symop_operation_xyz
x,y,z
-x,-y,-z
loop_
_atom_site_type_symbol
_atom_site_label
_atom_site_fract_x
_atom_site_fract_y
_atom_site_fract_z
Si Si1 0.058042 0.210355 0.333954
Si Si2 0.271922 0.540132 0.548038
Si Si3 0.324995 0.631156 0.679627
Si Si4 0.768903 0.035098 0.894347
Si Si5 0.073937 0.863758 0.028172
Si Si6 0.430184 0.207585 0.777906
O O1 0.297361 0.461270 0.296819
O O2 0.173608 0.170802 0.207468
O O3 0.876716 0.350086 0.416258
O O4 0.906787 0.850138 0.395416
O O5 0.334083 0.715789 0.609648
O O6 0.539859 0.579008 0.403181
O O7 0.528918 0.064796 0.304774
O O8 0.019442 0.409714 0.814763
O O9 0.766762 0.966053 0.962188
O O10 0.500000 0.000000 0.000000
O O11 0.786692 0.799560 0.166467
O O12 0.000000 0.500000 0.000000
O O13 0.261921 0.091593 0.909327
#
# Coordination Sequence:
#
# PCOD9043253 Si02
#       6
#     2   2   2   2   2   2
#     4  11  26  44  71 104 136 180 230 288 336 408
#     4  10  25  47  71  98 138 183 235 279 338 408
#     4  10  23  45  69  99 134 185 227 280 345 405
#     4  11  24  42  73 102 136 181 229 285 343 410
#     4  11  23  41  64  97 142 178 226 273 353 415
#     4  11  25  40  67 101 136 183 221 286 345 410
#
# _framework density 23.601251000000001
#
# number of rings (size 3 to 8) (size 9 to 14) (size 15 to 20)
#    0.000    1.333    1.667    2.000    9.333    9.333 
#    0.000    0.000    0.000    0.000    0.000    0.000 
#    0.000    0.000    0.000    0.000    0.000    0.000 
#
# Total GULP energy -67157.866928 kJ/mol
# GULP energy per Si atom -5596.488911 kJ/mol
# Density = 2.354753 g / cm^3
# Si number density = 23.601251 Si / 1000 Ang^3
#
#
#
# Elastic Constant Matrix: (Units=GPa)
#
#
# Indices 1 2 3 4 5 6 
#
# 1 124.8723 42.1568 44.4769 -4.2612 -26.8356 15.1471
# 2 42.1568 118.3479 33.5220 -13.4111 -12.8072 19.0862
# 3 44.4769 33.5220 101.1573 -6.4567 -15.1125 4.5303
# 4 -4.2612 -13.4111 -6.4567 35.1635 5.9209 -5.0764
# 5 -26.8356 -12.8072 -15.1125 5.9209 44.4255 7.1280
# 6 15.1471 19.0862 4.5303 -5.0764 7.1280 44.3237
#
#
#
# Elastic Compliance Matrix: (Units=1/GPa)
#
#
# Indices 1 2 3 4 5 6 
#
# 1 0.011674 -0.002066 -0.003461 -0.001604 0.006120 -0.003914
# 2 -0.002066 0.010839 -0.002141 0.002733 0.001370 -0.003649
# 3 -0.003461 -0.002141 0.012328 0.000927 0.001242 0.000751
# 4 -0.001604 0.002733 0.000927 0.030728 -0.004527 0.003524
# 5 0.006120 0.001370 0.001242 -0.004527 0.028907 -0.007975
# 6 -0.003914 -0.003649 0.000751 0.003524 -0.007975 0.027080
#
#
# Mechanical properties :
#
#
# Convention : Reuss Voigt Hill
#
# Bulk Modulus (GPa) = 51.27051 64.96544 58.11798
# Shear Modulus (GPa) = 34.86964 39.73067 37.30015
#
# Velocity S-wave (km/s) = 3.84793 4.10739 3.97978
# Velocity P-wave (km/s) = 6.44305 7.07674 6.76732
#
# Compressibility (1/GPa) = 0.01950439
#
# Stress axis : x y z
#
# Youngs Moduli (GPa) = 85.66235 92.26349 81.11817
#
# Poissons Ratio (x) = 0.19065 0.28073
# Poissons Ratio (y) = 0.17701 0.17365
# Poissons Ratio (z) = 0.29645 0.19751
#
# Static dielectric constant tensor:
#      x y z
#    x 1.981700 -0.057260 0.034630 
#    y -0.057260 1.958050 0.008950 
#    z 0.034630 0.008950 1.901140 
# 
# From -- ./inp_files/592601.got.cif
#   From: 2010.05.17/outbox.cif.g08.bks.cpg/sg2_297_cif.got.tgz:592601.got - 2010.06.03 11:33:40.
