data_PCOD9043058
_publ_section_title
;
Structure prediction by ZEFSAII (Michael W. Deem and Ramdas Pophale) SiO2 
 PCOD9043058
Probable space group: P -1
;
_chemical_formula_sum "Si O2"
_cell_formula_units_Z 10
_cell_length_a 14.023821
_cell_length_b 13.842426
_cell_length_c 5.004440
_cell_angle_alpha 126.055944
_cell_angle_beta 113.149169
_cell_angle_gamma 29.171514
_cell_volume 364.386886
_symmetry_space_group_name_H-M "P -1"
_symmetry_group_IT_number 2
_symmetry_cell_setting 'triclinic'
loop_
_space_group_symop_operation_xyz
x,y,z
-x,-y,-z
loop_
_atom_site_type_symbol
_atom_site_label
_atom_site_fract_x
_atom_site_fract_y
_atom_site_fract_z
Si Si1 0.047906 0.561704 0.455985
Si Si2 0.426457 0.317764 0.457193
Si Si3 0.777809 0.316141 0.561703
Si Si4 0.666522 0.886430 0.297041
Si Si5 0.239925 0.834309 0.202981
O O1 0.201936 0.509318 0.650771
O O2 0.000000 0.500000 0.500000
O O3 0.825272 0.815924 0.512366
O O4 0.189530 0.362775 0.056979
O O5 0.368465 0.432238 0.293374
O O6 0.576557 0.262147 0.672771
O O7 0.558598 0.065722 0.231196
O O8 0.759571 0.275251 0.762684
O O9 0.740988 0.243603 0.193269
O O10 0.015196 0.115842 0.450421
O O11 0.500000 0.000000 0.500000
#
# Coordination Sequence:
#
# PCOD9043058 Si02
#       5
#     2   2   2   2   2
#     4  11  25  47  65 102 146 187 238 298 355 435
#     4  12  23  42  72 103 134 194 237 294 366 422
#     4  10  23  45  68 103 142 181 240 299 356 438
#     4  11  25  45  70 101 142 190 244 299 356 426
#     4  10  23  45  68 103 143 183 235 300 362 430
#
# _framework density 27.443358
#
# number of rings (size 3 to 8) (size 9 to 14) (size 15 to 20)
#    0.000    1.200    2.000    3.000    0.000    3.200 
#   10.800    0.000    0.000    0.000    0.000    0.000 
#    0.000    0.000    0.000    0.000    0.000    0.000 
#
# Total GULP energy -56073.713191 kJ/mol
# GULP energy per Si atom -5607.371319 kJ/mol
# Density = 2.738090 g / cm^3
# Si number density = 27.443358 Si / 1000 Ang^3
#
#
#
# Elastic Constant Matrix: (Units=GPa)
#
#
# Indices 1 2 3 4 5 6 
#
# 1 190.8009 66.3489 30.8351 -2.3833 2.9636 -43.0228
# 2 66.3489 232.2916 16.6391 -0.1469 1.4004 -17.2569
# 3 30.8351 16.6391 80.7978 6.9586 -19.8885 -6.4413
# 4 -2.3833 -0.1469 6.9586 39.7436 -3.6837 6.4251
# 5 2.9636 1.4004 -19.8885 -3.6837 31.4058 -8.4635
# 6 -43.0228 -17.2569 -6.4413 6.4251 -8.4635 76.7881
#
#
#
# Elastic Compliance Matrix: (Units=1/GPa)
#
#
# Indices 1 2 3 4 5 6 
#
# 1 0.006903 -0.001559 -0.002376 0.000200 -0.001209 0.003168
# 2 -0.001559 0.004795 -0.000458 -0.000047 -0.000326 0.000134
# 3 -0.002376 -0.000458 0.016293 -0.002219 0.010651 0.001292
# 4 0.000200 -0.000047 -0.002219 0.026006 0.001050 -0.002145
# 5 -0.001209 -0.000326 0.010651 0.001050 0.040042 0.004468
# 6 0.003168 0.000134 0.001292 -0.002145 0.004468 0.015608
#
#
# Mechanical properties :
#
#
# Convention : Reuss Voigt Hill
#
# Bulk Modulus (GPa) = 52.06716 81.28184 66.67450
# Shear Modulus (GPa) = 40.05337 55.59198 47.82267
#
# Velocity S-wave (km/s) = 3.82447 4.50566 4.17897
# Velocity P-wave (km/s) = 6.20612 7.53328 6.90167
#
# Compressibility (1/GPa) = 0.01920596
#
# Stress axis : x y z
#
# Youngs Moduli (GPa) = 144.87406 208.55819 61.37479
#
# Poissons Ratio (x) = 0.32507 0.14580
# Poissons Ratio (y) = 0.22581 0.02812
# Poissons Ratio (z) = 0.34416 0.09556
#
# Static dielectric constant tensor:
#      x y z
#    x 2.175910 -0.044050 0.126900 
#    y -0.044050 2.149920 -0.013070 
#    z 0.126900 -0.013070 2.244830 
# 
# From -- ./inp_files/96108.got.cif
#   From: 2010.05.17/outbox.cif.g08.bks.cpg/sg2_49_cif.got.tgz:96108.got - 2010.06.03 11:33:40.
