data_PCOD9043130
_publ_section_title
;
Structure prediction by ZEFSAII (Michael W. Deem and Ramdas Pophale) SiO2 
 PCOD9043130
Probable space group: P -1
;
_chemical_formula_sum "Si O2"
_cell_formula_units_Z 14
_cell_length_a 5.910536
_cell_length_b 15.046448
_cell_length_c 21.050355
_cell_angle_alpha 18.507923
_cell_angle_beta 107.834372
_cell_angle_gamma 107.770034
_cell_volume 565.026659
_symmetry_space_group_name_H-M "P -1"
_symmetry_group_IT_number 2
_symmetry_cell_setting 'triclinic'
loop_
_space_group_symop_operation_xyz
x,y,z
-x,-y,-z
loop_
_atom_site_type_symbol
_atom_site_label
_atom_site_fract_x
_atom_site_fract_y
_atom_site_fract_z
Si Si1 0.113611 0.538806 0.181204
Si Si2 0.715739 0.823302 0.660678
Si Si3 0.817212 0.434772 0.451726
Si Si4 0.288397 0.609018 0.952078
Si Si5 0.849075 0.064592 0.812941
Si Si6 0.933803 0.834428 0.451093
Si Si7 0.581208 0.808302 0.080118
O O1 0.111299 0.271935 0.316129
O O2 0.103963 0.430852 0.326191
O O3 0.366120 0.702635 0.089331
O O4 0.921915 0.764324 0.996687
O O5 0.500000 0.000000 0.500000
O O6 0.634812 0.521862 0.886489
O O7 0.841749 0.002450 0.606186
O O8 0.704927 0.235869 0.632126
O O9 0.675527 0.540598 0.306888
O O10 0.926482 0.717575 0.302168
O O11 0.016491 0.256412 0.554796
O O12 0.269032 0.939997 0.717024
O O13 0.500000 0.500000 0.000000
O O14 0.000000 0.500000 0.000000
O O15 0.750847 0.991411 0.923974
O O16 0.500000 0.000000 0.000000
#
# Coordination Sequence:
#
# PCOD9043130 Si02
#       7
#     2   2   2   2   2   2   2
#     4  12  24  44  69 101 142 183 239 298 361 433
#     4  11  24  43  69 107 138 188 248 296 369 439
#     4  11  23  46  73 102 143 186 236 296 368 430
#     4  10  23  45  68  99 143 190 248 300 365 441
#     4  11  25  46  70 104 141 181 239 300 354 439
#     4  11  23  45  72 101 144 194 239 302 371 443
#     4  12  24  45  69 103 140 186 235 295 366 430
#
# _framework density 24.777594000000001
#
# number of rings (size 3 to 8) (size 9 to 14) (size 15 to 20)
#    0.000    0.857    2.857    4.286    0.000    2.857 
#   10.286    0.000    0.000    0.000    0.000    0.000 
#    0.000    0.000    0.000    0.000    0.000    0.000 
#
# Total GULP energy -78166.323084 kJ/mol
# GULP energy per Si atom -5583.308792 kJ/mol
# Density = 2.472120 g / cm^3
# Si number density = 24.777594 Si / 1000 Ang^3
#
#
#
# Elastic Constant Matrix: (Units=GPa)
#
#
# Indices 1 2 3 4 5 6 
#
# 1 71.8029 32.6394 56.1375 1.3709 16.5991 -11.8273
# 2 32.6394 105.1421 40.9736 -6.4198 1.5124 -24.4137
# 3 56.1375 40.9736 182.4176 25.7507 15.4509 -12.6884
# 4 1.3709 -6.4198 25.7507 53.9560 -9.4346 -1.2560
# 5 16.5991 1.5124 15.4509 -9.4346 32.2078 -9.9470
# 6 -11.8273 -24.4137 -12.6884 -1.2560 -9.9470 38.8525
#
#
#
# Elastic Compliance Matrix: (Units=1/GPa)
#
#
# Indices 1 2 3 4 5 6 
#
# 1 0.021995 -0.004886 -0.004877 -0.000387 -0.008965 -0.000275
# 2 -0.004886 0.014026 -0.002231 0.004242 0.006789 0.008473
# 3 -0.004877 -0.002231 0.008330 -0.004684 -0.003093 -0.001109
# 4 -0.000387 0.004242 -0.004684 0.023208 0.010415 0.004435
# 5 -0.008965 0.006789 -0.003093 0.010415 0.043599 0.012026
# 6 -0.000275 0.008473 -0.001109 0.004435 0.012026 0.033839
#
#
# Mechanical properties :
#
#
# Convention : Reuss Voigt Hill
#
# Bulk Modulus (GPa) = 49.10859 68.76261 58.93560
# Shear Modulus (GPa) = 28.44593 40.31075 34.37834
#
# Velocity S-wave (km/s) = 3.39197 4.03786 3.72893
# Velocity P-wave (km/s) = 5.93324 7.03927 6.50979
#
# Compressibility (1/GPa) = 0.02036304
#
# Stress axis : x y z
#
# Youngs Moduli (GPa) = 45.46405 71.29591 120.05146
#
# Poissons Ratio (x) = 0.34837 0.58543
# Poissons Ratio (y) = 0.22215 0.26788
# Poissons Ratio (z) = 0.22171 0.15909
#
# Static dielectric constant tensor:
#      x y z
#    x 2.169880 -0.049860 -0.015050 
#    y -0.049860 2.034880 -0.019810 
#    z -0.015050 -0.019810 2.058500 
# 
# From -- ./inp_files/340587.got.cif
#   From: 2010.05.17/outbox.cif.g08.bks.cpg/sg2_171_cif.got.tgz:340587.got - 2010.06.03 11:33:40.
