data_PCOD9043009
_publ_section_title
;
Structure prediction by ZEFSAII (Michael W. Deem and Ramdas Pophale) SiO2 
 PCOD9043009
Probable space group: P -1
;
_chemical_formula_sum "Si O2"
_cell_formula_units_Z 12
_cell_length_a 21.590057
_cell_length_b 15.110737
_cell_length_c 18.728260
_cell_angle_alpha 18.738737
_cell_angle_beta 161.560398
_cell_angle_gamma 160.443419
_cell_volume 559.810596
_symmetry_space_group_name_H-M "P -1"
_symmetry_group_IT_number 2
_symmetry_cell_setting 'triclinic'
loop_
_space_group_symop_operation_xyz
x,y,z
-x,-y,-z
loop_
_atom_site_type_symbol
_atom_site_label
_atom_site_fract_x
_atom_site_fract_y
_atom_site_fract_z
Si Si1 0.562058 0.808382 0.047420
Si Si2 0.958034 0.890004 0.620243
Si Si3 0.487829 0.304005 0.231883
Si Si4 0.866296 0.661313 0.265791
Si Si5 0.493129 0.661578 0.244349
Si Si6 0.197870 0.045674 0.452770
O O1 0.556781 0.572501 0.160919
O O2 0.488587 0.620961 0.185018
O O3 0.805330 0.080119 0.119872
O O4 0.390103 0.939516 0.739366
O O5 0.708827 0.641887 0.525887
O O6 0.909583 0.054461 0.510240
O O7 0.000000 0.000000 0.500000
O O8 0.657796 0.425996 0.259955
O O9 0.500000 0.000000 0.500000
O O10 0.241562 0.213960 0.007152
O O11 0.000000 0.500000 0.500000
O O12 0.021002 0.897744 0.311400
O O13 0.298690 0.408445 0.269777
O O14 0.500000 0.000000 0.000000
#
# Coordination Sequence:
#
# PCOD9043009 Si02
#       6
#     2   2   2   2   2   2
#     4  11  24  44  67  99 138 183 234 281 353 416
#     4  10  23  45  67  98 138 181 231 284 339 412
#     4  11  26  45  71 104 141 180 236 292 347 420
#     4  11  25  45  70 104 140 181 235 286 358 418
#     4  11  25  43  68 102 137 180 237 281 346 412
#     4  12  24  45  73  97 142 185 228 291 347 413
#
# _framework density 21.435821000000001
#
# number of rings (size 3 to 8) (size 9 to 14) (size 15 to 20)
#    0.000    1.000    5.000    0.500    2.333    4.000 
#    6.000    0.000    0.000    0.000    0.000    0.000 
#    0.000    0.000    0.000    0.000    0.000    0.000 
#
# Total GULP energy -66848.431414 kJ/mol
# GULP energy per Si atom -5570.702618 kJ/mol
# Density = 2.138703 g / cm^3
# Si number density = 21.435821 Si / 1000 Ang^3
#
#
#
# Elastic Constant Matrix: (Units=GPa)
#
#
# Indices 1 2 3 4 5 6 
#
# 1 123.6088 19.2989 42.1926 1.2283 14.4068 -12.2233
# 2 19.2989 85.8679 63.7302 25.2948 -5.6867 -1.6988
# 3 42.1926 63.7302 166.7452 17.9783 1.8318 -6.1917
# 4 1.2283 25.2948 17.9783 42.3079 -6.4369 -2.9184
# 5 14.4068 -5.6867 1.8318 -6.4369 29.3385 14.5988
# 6 -12.2233 -1.6988 -6.1917 -2.9184 14.5988 25.2845
#
#
#
# Elastic Compliance Matrix: (Units=1/GPa)
#
#
# Indices 1 2 3 4 5 6 
#
# 1 0.011502 -0.002136 -0.001595 0.000656 -0.011727 0.011873
# 2 -0.002136 0.019609 -0.006335 -0.008413 0.006333 -0.005894
# 3 -0.001595 -0.006335 0.008942 -0.000138 -0.002132 0.002208
# 4 0.000656 -0.008413 -0.000138 0.029386 0.004147 0.000715
# 5 -0.011727 0.006333 -0.002132 0.004147 0.062783 -0.041537
# 6 0.011873 -0.005894 0.002208 0.000715 -0.041537 0.069500
#
#
# Mechanical properties :
#
#
# Convention : Reuss Voigt Hill
#
# Bulk Modulus (GPa) = 50.19998 69.62947 59.91473
# Shear Modulus (GPa) = 21.88229 36.11954 29.00091
#
# Velocity S-wave (km/s) = 3.19851 4.10934 3.68219
# Velocity P-wave (km/s) = 6.09181 7.42084 6.78892
#
# Compressibility (1/GPa) = 0.01992033
#
# Stress axis : x y z
#
# Youngs Moduli (GPa) = 86.93836 50.99724 111.82594
#
# Poissons Ratio (x) = 0.10895 0.17837
# Poissons Ratio (y) = 0.18573 0.70846
# Poissons Ratio (z) = 0.13867 0.32309
#
# Static dielectric constant tensor:
#      x y z
#    x 1.795170 -0.004190 -0.016410 
#    y -0.004190 1.792430 0.014350 
#    z -0.016410 0.014350 1.772090 
# 
# From -- ./inp_files/110532.got.cif
#   From: 2010.05.17/outbox.cif.g08.bks.cpg/sg2_56_cif.got.tgz:110532.got - 2010.06.03 11:33:40.
