data_PCOD9043829
_publ_section_title
;
Structure prediction by ZEFSAII (Michael W. Deem and Ramdas Pophale) SiO2 
 PCOD9043829
Probable space group: P -1
;
_chemical_formula_sum "Si O2"
_cell_formula_units_Z 16
_cell_length_a 9.223228
_cell_length_b 5.177333
_cell_length_c 19.934926
_cell_angle_alpha 96.490011
_cell_angle_beta 140.242757
_cell_angle_gamma 83.153303
_cell_volume 604.107467
_symmetry_space_group_name_H-M "P -1"
_symmetry_group_IT_number 2
_symmetry_cell_setting 'triclinic'
loop_
_space_group_symop_operation_xyz
x,y,z
-x,-y,-z
loop_
_atom_site_type_symbol
_atom_site_label
_atom_site_fract_x
_atom_site_fract_y
_atom_site_fract_z
Si Si1 0.197866 0.778864 0.083328
Si Si2 0.322756 0.678411 0.779644
Si Si3 0.081203 0.518962 0.912409
Si Si4 0.706931 0.190693 0.586991
Si Si5 0.025594 0.224846 0.462936
Si Si6 0.190377 0.195016 0.810269
Si Si7 0.390363 0.532869 0.564466
Si Si8 0.375674 0.222019 0.225412
O O1 0.058120 0.632832 0.085736
O O2 0.388318 0.927668 0.195528
O O3 0.255414 0.662389 0.026390
O O4 0.000000 0.000000 0.000000
O O5 0.245053 0.424217 0.783518
O O6 0.550790 0.633606 0.813478
O O7 0.136444 0.768707 0.659162
O O8 0.340605 0.927131 0.842960
O O9 0.870363 0.721378 0.825186
O O10 0.183014 0.339940 0.884319
O O11 0.618446 0.447747 0.603723
O O12 0.763536 0.298431 0.536785
O O13 0.934863 0.100223 0.703205
O O14 0.500000 0.000000 0.500000
O O15 0.283448 0.259521 0.533374
O O16 0.000000 0.500000 0.500000
O O17 0.000000 0.000000 0.500000
O O18 0.449709 0.692810 0.655016
#
# Coordination Sequence:
#
# PCOD9043829 Si02
#       8
#     2   2   2   2   2   2   2   2
#     4   9  22  44  75 104 132 170 239 299 348 425
#     4  12  28  45  66 105 151 186 234 289 354 419
#     4  10  23  45  77 102 133 181 237 290 360 418
#     4  11  25  40  64  97 140 188 238 300 338 413
#     4  12  25  43  65  92 142 196 239 283 343 405
#     4  12  27  47  70 103 147 192 230 291 358 419
#     4  11  24  41  63 101 134 186 248 289 345 406
#     4  11  24  42  72 101 137 183 239 289 346 422
#
# _framework density 26.485354000000001
#
# number of rings (size 3 to 8) (size 9 to 14) (size 15 to 20)
#    0.000    1.000    3.750    1.500   10.500    0.000 
#    0.000    1.250    0.000    0.000    0.000    0.000 
#    0.000    0.000    0.000    0.000    0.000    0.000 
#
# Total GULP energy -89425.636243 kJ/mol
# GULP energy per Si atom -5589.102265 kJ/mol
# Density = 2.642507 g / cm^3
# Si number density = 26.485354 Si / 1000 Ang^3
#
#
#
# Elastic Constant Matrix: (Units=GPa)
#
#
# Indices 1 2 3 4 5 6 
#
# 1 113.6418 37.4009 54.1572 22.1568 -38.4183 -14.4154
# 2 37.4009 107.9570 26.6101 30.7537 -17.5228 14.4137
# 3 54.1572 26.6101 120.3019 31.1587 -17.4804 -3.3376
# 4 22.1568 30.7537 31.1587 43.3931 -9.3370 -5.7292
# 5 -38.4183 -17.5228 -17.4804 -9.3370 45.4529 16.3732
# 6 -14.4154 14.4137 -3.3376 -5.7292 16.3732 57.2057
#
#
#
# Elastic Compliance Matrix: (Units=1/GPa)
#
#
# Indices 1 2 3 4 5 6 
#
# 1 0.015507 -0.002775 -0.004889 -0.000177 0.009555 0.001569
# 2 -0.002775 0.014060 0.000896 -0.009200 0.003758 -0.006187
# 3 -0.004889 0.000896 0.012084 -0.007019 -0.000064 -0.001438
# 4 -0.000177 -0.009200 -0.007019 0.035188 -0.001236 0.005742
# 5 0.009555 0.003758 -0.000064 -0.001236 0.034304 -0.008485
# 6 0.001569 -0.006187 -0.001438 0.005742 -0.008485 0.022355
#
#
# Mechanical properties :
#
#
# Convention : Reuss Voigt Hill
#
# Bulk Modulus (GPa) = 35.56785 64.24856 49.90820
# Shear Modulus (GPa) = 31.96832 44.12585 38.04709
#
# Velocity S-wave (km/s) = 3.47799 4.08615 3.79427
# Velocity P-wave (km/s) = 5.43939 6.82444 6.17090
#
# Compressibility (1/GPa) = 0.02811528
#
# Stress axis : x y z
#
# Youngs Moduli (GPa) = 64.48847 71.12315 82.75391
#
# Poissons Ratio (x) = 0.19738 0.40459
# Poissons Ratio (y) = 0.17897 -0.07419
# Poissons Ratio (z) = 0.31529 -0.06376
#
# Static dielectric constant tensor:
#      x y z
#    x 2.378350 0.014510 0.066890 
#    y 0.014510 2.438350 0.029250 
#    z 0.066890 0.029250 2.082920 
# 
# From -- ./inp_files/135703.got.cif
#   From: 2010.05.17/outbox.cif.g08.bks.cpg/sg2_68_cif.got.tgz:135703.got - 2010.06.03 11:33:40.
