data_PCOD9043066
_publ_section_title
;
Structure prediction by ZEFSAII (Michael W. Deem and Ramdas Pophale) SiO2 
 PCOD9043066
Probable space group: P -1
;
_chemical_formula_sum "Si O2"
_cell_formula_units_Z 16
_cell_length_a 6.487652
_cell_length_b 7.950340
_cell_length_c 19.423598
_cell_angle_alpha 127.554130
_cell_angle_beta 61.395003
_cell_angle_gamma 110.620122
_cell_volume 694.673629
_symmetry_space_group_name_H-M "P -1"
_symmetry_group_IT_number 2
_symmetry_cell_setting 'triclinic'
loop_
_space_group_symop_operation_xyz
x,y,z
-x,-y,-z
loop_
_atom_site_type_symbol
_atom_site_label
_atom_site_fract_x
_atom_site_fract_y
_atom_site_fract_z
Si Si1 0.560293 0.075429 0.431459
Si Si2 0.010691 0.314311 0.394454
Si Si3 0.906336 0.088190 0.108513
Si Si4 0.503375 0.623658 0.733530
Si Si5 0.739029 0.261899 0.688279
Si Si6 0.218594 0.378133 0.953540
Si Si7 0.774510 0.600134 0.400493
Si Si8 0.283412 0.457787 0.126088
O O1 0.840784 0.113922 0.394499
O O2 0.426501 0.289665 0.499806
O O3 0.500000 0.000000 0.500000
O O4 0.447382 0.924893 0.352496
O O5 0.873225 0.400598 0.372491
O O6 0.000000 0.500000 0.500000
O O7 0.275888 0.277448 0.322782
O O8 0.669820 0.210368 0.168205
O O9 0.122811 0.261479 0.138265
O O10 0.834452 0.876728 0.112250
O O11 0.000000 0.000000 0.000000
O O12 0.624952 0.472605 0.729755
O O13 0.339118 0.473105 0.671759
O O14 0.793587 0.324198 0.773906
O O15 0.988510 0.243224 0.606864
O O16 0.434609 0.493211 0.904778
O O17 0.249362 0.419137 0.040617
O O18 0.000000 0.500000 0.000000
#
# Coordination Sequence:
#
# PCOD9043066 Si02
#       8
#     2   2   2   2   2   2   2   2
#     4  12  23  44  67 102 136 191 232 282 354 411
#     4  11  24  43  68  97 135 186 229 292 348 411
#     4  10  23  47  73  98 136 186 229 284 360 420
#     4  11  23  45  69 101 136 179 240 287 347 423
#     4  11  24  41  69 101 137 181 235 289 345 419
#     4  10  24  47  72 104 141 175 234 295 355 433
#     4  11  22  44  68  94 140 177 235 282 338 420
#     4  10  23  45  68 105 138 180 232 288 356 415
#
# _framework density 23.032398000000001
#
# number of rings (size 3 to 8) (size 9 to 14) (size 15 to 20)
#    0.000    1.250    3.750    1.500    3.500    1.500 
#    9.000    0.000    0.000    0.000    0.000    0.000 
#    0.000    0.000    0.000    0.000    0.000    0.000 
#
# Total GULP energy -89307.117105 kJ/mol
# GULP energy per Si atom -5581.694819 kJ/mol
# Density = 2.297998 g / cm^3
# Si number density = 23.032398 Si / 1000 Ang^3
#
#
#
# Elastic Constant Matrix: (Units=GPa)
#
#
# Indices 1 2 3 4 5 6 
#
# 1 88.2822 57.1453 28.5063 -1.1298 -25.0659 33.1737
# 2 57.1453 90.3816 33.3265 -1.5567 -15.4100 28.5326
# 3 28.5063 33.3265 115.4691 5.8647 -19.2020 24.9818
# 4 -1.1298 -1.5567 5.8647 31.6207 6.5703 -9.5818
# 5 -25.0659 -15.4100 -19.2020 6.5703 54.9607 1.4986
# 6 33.1737 28.5326 24.9818 -9.5818 1.4986 46.1538
#
#
#
# Elastic Compliance Matrix: (Units=1/GPa)
#
#
# Indices 1 2 3 4 5 6 
#
# 1 0.026473 -0.010973 0.002078 -0.006845 0.010954 -0.015146
# 2 -0.010973 0.019803 -0.002400 0.000162 -0.000228 -0.003015
# 3 0.002078 -0.002400 0.011648 -0.005607 0.005223 -0.007648
# 4 -0.006845 0.000162 -0.005607 0.039516 -0.010206 0.016390
# 5 0.010954 -0.000228 0.005223 -0.010206 0.026541 -0.013540
# 6 -0.015146 -0.003015 -0.007648 0.016390 -0.013540 0.042399
#
#
# Mechanical properties :
#
#
# Convention : Reuss Voigt Hill
#
# Bulk Modulus (GPa) = 28.30244 59.12102 43.71173
# Shear Modulus (GPa) = 24.90672 38.22402 31.56537
#
# Velocity S-wave (km/s) = 3.29200 4.07821 3.70601
# Velocity P-wave (km/s) = 5.17344 6.92099 6.11001
#
# Compressibility (1/GPa) = 0.03533264
#
# Stress axis : x y z
#
# Youngs Moduli (GPa) = 37.77385 50.49738 85.85043
#
# Poissons Ratio (x) = 0.55412 -0.17836
# Poissons Ratio (y) = 0.41450 0.20607
# Poissons Ratio (z) = -0.07848 0.12121
#
# Static dielectric constant tensor:
#      x y z
#    x 1.863310 0.008830 -0.027360 
#    y 0.008830 1.977740 -0.063550 
#    z -0.027360 -0.063550 2.043200 
# 
# From -- ./inp_files/112836.got.cif
#   From: 2010.05.17/outbox.cif.g08.bks.cpg/sg2_57_cif.got.tgz:112836.got - 2010.06.03 11:33:40.
