data_PCOD9043036
_publ_section_title
;
Structure prediction by ZEFSAII (Michael W. Deem and Ramdas Pophale) SiO2 
 PCOD9043036
Probable space group: P -1
;
_chemical_formula_sum "Si O2"
_cell_formula_units_Z 15
_cell_length_a 12.075911
_cell_length_b 15.715089
_cell_length_c 22.244902
_cell_angle_alpha 20.180754
_cell_angle_beta 150.311954
_cell_angle_gamma 140.532737
_cell_volume 697.623226
_symmetry_space_group_name_H-M "P -1"
_symmetry_group_IT_number 2
_symmetry_cell_setting 'triclinic'
loop_
_space_group_symop_operation_xyz
x,y,z
-x,-y,-z
loop_
_atom_site_type_symbol
_atom_site_label
_atom_site_fract_x
_atom_site_fract_y
_atom_site_fract_z
Si Si1 0.933106 0.928451 0.852957
Si Si2 0.000000 0.500000 0.500000
Si Si3 0.112935 0.145400 0.408840
Si Si4 0.530314 0.849259 0.330595
Si Si5 0.721281 0.576420 0.191697
Si Si6 0.098877 0.357563 0.080063
Si Si7 0.862792 0.406495 0.712968
Si Si8 0.589394 0.082004 0.411496
O O1 0.968182 0.208495 0.690822
O O2 0.027679 0.811544 0.909412
O O3 0.664041 0.920860 0.729260
O O4 0.049705 0.747040 0.082699
O O5 0.170775 0.473903 0.657756
O O6 0.331065 0.204222 0.506470
O O7 0.222204 0.982077 0.511180
O O8 0.000000 0.000000 0.500000
O O9 0.920612 0.399349 0.132538
O O10 0.700026 0.681639 0.472205
O O11 0.301920 0.747104 0.294516
O O12 0.455428 0.145919 0.081787
O O13 0.607885 0.350308 0.268766
O O14 0.928807 0.574696 0.243851
O O15 0.320935 0.152229 0.344925
O O16 0.000000 0.500000 0.000000
#
# Coordination Sequence:
#
# PCOD9043036 Si02
#       8
#     2   1   2   2   2   2   2   2
#     4  12  24  49  72 105 140 193 240 300 354 434
#     4  12  28  44  74  98 148 190 242 290 362 434
#     4  11  24  42  71 104 141 185 242 295 353 429
#     4  11  24  42  73 102 143 191 234 293 362 424
#     4  12  26  47  70 110 142 190 238 303 353 435
#     4  10  23  45  68 100 147 185 229 301 356 418
#     4  11  25  46  73 103 149 182 243 299 356 428
#     4  11  26  43  74 103 144 188 237 295 369 420
#
# _framework density 21.501577999999999
#
# number of rings (size 3 to 8) (size 9 to 14) (size 15 to 20)
#    0.000    0.800    4.000    2.400    3.733    1.067 
#    0.000    0.667    0.000    0.000    0.000    0.000 
#    0.000    0.000    0.000    0.000    0.000    0.000 
#
# Total GULP energy -83562.627739 kJ/mol
# GULP energy per Si atom -5570.841849 kJ/mol
# Density = 2.145264 g / cm^3
# Si number density = 21.501578 Si / 1000 Ang^3
#
#
#
# Elastic Constant Matrix: (Units=GPa)
#
#
# Indices 1 2 3 4 5 6 
#
# 1 68.4861 44.8314 57.0592 -2.9033 -8.2779 4.2399
# 2 44.8314 161.9664 70.4960 -13.2725 8.8680 5.9780
# 3 57.0592 70.4960 179.3715 -18.0459 0.3259 10.8317
# 4 -2.9033 -13.2725 -18.0459 42.5118 -7.6412 -3.9438
# 5 -8.2779 8.8680 0.3259 -7.6412 26.7745 -0.0719
# 6 4.2399 5.9780 10.8317 -3.9438 -0.0719 20.6738
#
#
#
# Elastic Compliance Matrix: (Units=1/GPa)
#
#
# Indices 1 2 3 4 5 6 
#
# 1 0.023336 -0.004478 -0.005718 -0.000751 0.008552 -0.000609
# 2 -0.004478 0.008496 -0.001796 0.000834 -0.003940 -0.000452
# 3 -0.005718 -0.001796 0.008474 0.002320 -0.000620 -0.002307
# 4 -0.000751 0.000834 0.002320 0.026320 0.006985 0.003742
# 5 0.008552 -0.003940 -0.000620 0.006985 0.043302 0.001193
# 6 -0.000609 -0.000452 -0.002307 0.003742 0.001193 0.050553
#
#
# Mechanical properties :
#
#
# Convention : Reuss Voigt Hill
#
# Bulk Modulus (GPa) = 61.26713 83.84414 72.55563
# Shear Modulus (GPa) = 26.32900 33.82119 30.07510
#
# Velocity S-wave (km/s) = 3.50310 3.97036 3.74403
# Velocity P-wave (km/s) = 6.70212 7.75225 7.24624
#
# Compressibility (1/GPa) = 0.01632197
#
# Stress axis : x y z
#
# Youngs Moduli (GPa) = 42.85224 117.70008 118.01167
#
# Poissons Ratio (x) = 0.52705 0.67476
# Poissons Ratio (y) = 0.19189 0.21199
# Poissons Ratio (z) = 0.24502 0.21143
#
# Static dielectric constant tensor:
#      x y z
#    x 1.888900 -0.015750 0.062880 
#    y -0.015750 1.807990 0.015610 
#    z 0.062880 0.015610 1.780610 
# 
# From -- ./inp_files/595592.got.cif
#   From: 2010.05.17/outbox.cif.g08.bks.cpg/sg2_298_cif.got.tgz:595592.got - 2010.06.03 11:33:40.
