data_PCOD9043368
_publ_section_title
;
Structure prediction by ZEFSAII (Michael W. Deem and Ramdas Pophale) SiO2 
 PCOD9043368
Probable space group: P -1
;
_chemical_formula_sum "Si O2"
_cell_formula_units_Z 14
_cell_length_a 6.060398
_cell_length_b 17.139100
_cell_length_c 7.052880
_cell_angle_alpha 115.378140
_cell_angle_beta 105.986951
_cell_angle_gamma 51.888688
_cell_volume 520.719544
_symmetry_space_group_name_H-M "P -1"
_symmetry_group_IT_number 2
_symmetry_cell_setting 'triclinic'
loop_
_space_group_symop_operation_xyz
x,y,z
-x,-y,-z
loop_
_atom_site_type_symbol
_atom_site_label
_atom_site_fract_x
_atom_site_fract_y
_atom_site_fract_z
Si Si1 0.861770 0.316938 0.706628
Si Si2 0.744983 0.974935 0.682570
Si Si3 0.558402 0.799691 0.124602
Si Si4 0.331036 0.822019 0.517427
Si Si5 0.114116 0.234670 0.310364
Si Si6 0.835607 0.559199 0.828490
Si Si7 0.303293 0.578376 0.835516
O O1 0.681482 0.276900 0.551147
O O2 0.687125 0.402545 0.915442
O O3 0.139481 0.222900 0.780566
O O4 0.003414 0.318650 0.547764
O O5 0.836958 0.874174 0.729162
O O6 0.035412 0.929506 0.597517
O O7 0.500000 0.000000 0.500000
O O8 0.634650 0.082560 0.879236
O O9 0.415315 0.814333 0.310863
O O10 0.651719 0.686584 0.948570
O O11 0.572895 0.803025 0.690459
O O12 0.897148 0.302095 0.168337
O O13 0.592556 0.536417 0.743587
O O14 0.096577 0.537480 0.733059
O O15 0.000000 0.500000 0.000000
#
# Coordination Sequence:
#
# PCOD9043368 Si02
#       7
#     2   2   2   2   2   2   2
#     4   9  19  37  62  91 131 175 222 262 340 393
#     4  11  19  32  57  98 133 179 218 264 334 409
#     4  10  19  35  61  90 126 174 223 270 328 397
#     4  10  17  33  60  90 132 173 220 262 332 401
#     4  10  23  36  63 100 139 177 221 273 335 412
#     4  11  25  46  73  97 129 179 233 286 344 398
#     4  11  24  45  72 100 135 176 224 286 344 401
#
# _framework density 26.885876
#
# number of rings (size 3 to 8) (size 9 to 14) (size 15 to 20)
#    0.000    1.714    5.714    0.857    4.000    0.000 
#    0.000    3.571    0.000   22.286    0.000    0.000 
#    0.000    0.000    0.000    0.000    0.000    0.000 
#
# Total GULP energy -78066.474753 kJ/mol
# GULP energy per Si atom -5576.176768 kJ/mol
# Density = 2.682468 g / cm^3
# Si number density = 26.885876 Si / 1000 Ang^3
#
#
#
# Elastic Constant Matrix: (Units=GPa)
#
#
# Indices 1 2 3 4 5 6 
#
# 1 192.4597 56.2311 23.5365 -4.4820 -1.5023 -31.7905
# 2 56.2311 125.4319 31.5874 31.1654 -29.2389 -3.9643
# 3 23.5365 31.5874 67.1123 22.6121 -12.4704 -9.8923
# 4 -4.4820 31.1654 22.6121 31.4931 0.0733 -26.2183
# 5 -1.5023 -29.2389 -12.4704 0.0733 22.9211 6.7017
# 6 -31.7905 -3.9643 -9.8923 -26.2183 6.7017 39.8778
#
#
#
# Elastic Compliance Matrix: (Units=1/GPa)
#
#
# Indices 1 2 3 4 5 6 
#
# 1 0.000938 0.005574 0.003577 -0.017469 0.012507 -0.011398
# 2 0.005574 -0.000994 -0.009649 0.026770 -0.012572 0.021664
# 3 0.003577 -0.009649 0.014967 0.011364 -0.008194 0.014454
# 4 -0.017469 0.026770 0.011364 -0.044036 0.052859 -0.046281
# 5 0.012507 -0.012572 -0.008194 0.052859 0.012270 0.039378
# 6 -0.011398 0.021664 0.014454 -0.046281 0.039378 -0.015317
#
#
# Mechanical properties :
#
#
# Convention : Reuss Voigt Hill
#
# Bulk Modulus (GPa) = 71.86783 67.52379 69.69581
# Shear Modulus (GPa) = -188.40950 37.10166 -75.65392
#
# Velocity S-wave (km/s) = -8.38031 3.71882 -5.31037
# Velocity P-wave (km/s) = 8.17623 6.60371 3.40894
#
# Compressibility (1/GPa) = 0.01391443
#
# Stress axis : x y z
#
# Youngs Moduli (GPa) = 1066.14402 -1006.33059 66.81551
#
# Poissons Ratio (x) = 5.60948 -0.23901
# Poissons Ratio (y) = -5.94290 0.64474
# Poissons Ratio (z) = -3.81370 -9.71058
#
# Static dielectric constant tensor:
#      x y z
#    x 2.224420 0.065890 -0.039590 
#    y 0.065890 2.128350 -0.022050 
#    z -0.039590 -0.022050 2.189880 
# 
# From -- ./inp_files/139161.got.cif
#   From: 2010.05.17/outbox.cif.g08.bks.cpg/sg2_70_cif.got.tgz:139161.got - 2010.06.03 11:33:40.
