data_PCOD9043698
_publ_section_title
;
Structure prediction by ZEFSAII (Michael W. Deem and Ramdas Pophale) SiO2 
 PCOD9043698
Probable space group: P -1
;
_chemical_formula_sum "Si O2"
_cell_formula_units_Z 11
_cell_length_a 7.422628
_cell_length_b 8.558478
_cell_length_c 7.766533
_cell_angle_alpha 83.628515
_cell_angle_beta 95.492167
_cell_angle_gamma 110.625799
_cell_volume 458.051613
_symmetry_space_group_name_H-M "P -1"
_symmetry_group_IT_number 2
_symmetry_cell_setting 'triclinic'
loop_
_space_group_symop_operation_xyz
x,y,z
-x,-y,-z
loop_
_atom_site_type_symbol
_atom_site_label
_atom_site_fract_x
_atom_site_fract_y
_atom_site_fract_z
Si Si1 0.148756 0.681840 0.957262
Si Si2 0.432027 0.155268 0.426995
Si Si3 0.811269 0.424974 0.377398
Si Si4 0.085868 0.214103 0.806766
Si Si5 0.000000 0.000000 0.500000
Si Si6 0.438494 0.158168 0.018453
O O1 0.155690 0.704140 0.747536
O O2 0.362588 0.693102 0.028316
O O3 0.000000 0.500000 0.000000
O O4 0.064001 0.795483 0.050326
O O5 0.614148 0.322990 0.467927
O O6 0.408794 0.168788 0.217641
O O7 0.500000 0.000000 0.500000
O O8 0.228707 0.126735 0.500329
O O9 0.810149 0.590858 0.259209
O O10 0.000000 0.500000 0.500000
O O11 0.254482 0.154785 0.898096
O O12 0.967210 0.102436 0.654151
O O13 0.500000 0.000000 0.000000
#
# Coordination Sequence:
#
# PCOD9043698 Si02
#       6
#     2   2   2   2   1   2
#     4   9  22  44  69  98 133 173 229 289 348 416
#     4  11  25  44  66  99 142 182 228 286 345 414
#     4  10  23  45  74 103 139 184 233 292 352 417
#     4  11  25  45  70 100 137 185 234 288 352 414
#     4  12  26  42  66 100 138 182 236 282 342 414
#     4  11  24  43  68  98 136 183 233 286 345 413
#
# _framework density 24.014762000000001
#
# number of rings (size 3 to 8) (size 9 to 14) (size 15 to 20)
#    0.000    1.455    0.000    3.273    0.000   20.364 
#    0.000    1.818    0.000    0.000    0.000    0.000 
#    0.000    0.000    0.000    0.000    0.000    0.000 
#
# Total GULP energy -61318.932426 kJ/mol
# GULP energy per Si atom -5574.448402 kJ/mol
# Density = 2.396010 g / cm^3
# Si number density = 24.014762 Si / 1000 Ang^3
#
#
#
# Elastic Constant Matrix: (Units=GPa)
#
#
# Indices 1 2 3 4 5 6 
#
# 1 152.7076 47.6399 36.1545 -8.4472 -23.8382 31.3123
# 2 47.6399 112.9644 29.9079 -2.0934 -1.6133 31.8742
# 3 36.1545 29.9079 76.8978 21.3958 -5.1516 -5.0335
# 4 -8.4472 -2.0934 21.3958 47.2645 -8.7693 -8.1141
# 5 -23.8382 -1.6133 -5.1516 -8.7693 29.9403 -3.6934
# 6 31.3123 31.8742 -5.0335 -8.1141 -3.6934 55.9940
#
#
#
# Elastic Compliance Matrix: (Units=1/GPa)
#
#
# Indices 1 2 3 4 5 6 
#
# 1 0.010954 -0.001666 -0.005686 0.005322 0.008676 -0.004345
# 2 -0.001666 0.012803 -0.005060 0.001013 -0.002049 -0.006800
# 3 -0.005686 -0.005060 0.020649 -0.010162 -0.003457 0.006216
# 4 0.005322 0.001013 -0.010162 0.028882 0.011058 0.000449
# 5 0.008676 -0.002049 -0.003457 0.011058 0.042895 0.000436
# 6 -0.004345 -0.006800 0.006216 0.000449 0.000436 0.024812
#
#
# Mechanical properties :
#
#
# Convention : Reuss Voigt Hill
#
# Bulk Modulus (GPa) = 51.07032 63.33047 57.20040
# Shear Modulus (GPa) = 29.01135 41.89760 35.45448
#
# Velocity S-wave (km/s) = 3.47949 4.18144 3.84651
# Velocity P-wave (km/s) = 6.12004 7.05276 6.60289
#
# Compressibility (1/GPa) = 0.01958084
#
# Stress axis : x y z
#
# Youngs Moduli (GPa) = 91.29041 78.10898 48.42937
#
# Poissons Ratio (x) = 0.13009 0.27539
# Poissons Ratio (y) = 0.15205 0.24507
# Poissons Ratio (z) = 0.51911 0.39526
#
# Static dielectric constant tensor:
#      x y z
#    x 1.917220 -0.005910 0.000330 
#    y -0.005910 1.995550 0.049560 
#    z 0.000330 0.049560 2.038990 
# 
# From -- ./inp_files/129381.got.cif
#   From: 2010.05.17/outbox.cif.g08.bks.cpg/sg2_65_cif.got.tgz:129381.got - 2010.06.03 11:33:40.
