data_PCOD9043448
_publ_section_title
;
Structure prediction by ZEFSAII (Michael W. Deem and Ramdas Pophale) SiO2 
 PCOD9043448
Probable space group: P -1
;
_chemical_formula_sum "Si O2"
_cell_formula_units_Z 16
_cell_length_a 15.604286
_cell_length_b 14.480361
_cell_length_c 5.231472
_cell_angle_alpha 85.169222
_cell_angle_beta 109.256948
_cell_angle_gamma 143.729854
_cell_volume 624.272921
_symmetry_space_group_name_H-M "P -1"
_symmetry_group_IT_number 2
_symmetry_cell_setting 'triclinic'
loop_
_space_group_symop_operation_xyz
x,y,z
-x,-y,-z
loop_
_atom_site_type_symbol
_atom_site_label
_atom_site_fract_x
_atom_site_fract_y
_atom_site_fract_z
Si Si1 0.573157 0.110961 0.291834
Si Si2 0.175114 0.424070 0.972247
Si Si3 0.137848 0.264737 0.486933
Si Si4 0.651391 0.694395 0.597388
Si Si5 0.202498 0.080526 0.898681
Si Si6 0.465800 0.224898 0.757162
Si Si7 0.686355 0.001883 0.749499
Si Si8 0.096398 0.657360 0.219055
O O1 0.480941 0.132194 0.222035
O O2 0.767547 0.272799 0.475614
O O3 0.500000 0.000000 0.500000
O O4 0.500000 0.000000 0.000000
O O5 0.184456 0.360407 0.761948
O O6 0.031940 0.377036 0.790629
O O7 0.157555 0.351178 0.238908
O O8 0.343151 0.623334 0.085771
O O9 0.244470 0.263624 0.534540
O O10 0.957379 0.071656 0.384550
O O11 0.500000 0.500000 0.500000
O O12 0.565387 0.721539 0.500509
O O13 0.774837 0.811148 0.927500
O O14 0.365439 0.194180 0.880318
O O15 0.195695 0.984015 0.097120
O O16 0.370026 0.056095 0.587090
O O17 0.792003 0.180606 0.880515
O O18 0.000000 0.500000 0.000000
#
# Coordination Sequence:
#
# PCOD9043448 Si02
#       8
#     2   2   2   2   2   2   2   2
#     4  10  24  43  74 102 139 191 243 300 364 442
#     4  12  27  47  75 108 150 193 246 310 376 434
#     4  12  27  47  75 107 153 193 244 312 366 441
#     4  11  24  45  72 107 148 191 251 298 367 435
#     4  11  25  43  75 104 148 195 243 301 364 442
#     4  11  25  44  75 106 146 203 242 302 366 451
#     4  10  23  45  71 103 145 191 245 296 372 443
#     4  11  24  49  76 109 148 194 250 318 376 444
#
# _framework density 25.629814
#
# number of rings (size 3 to 8) (size 9 to 14) (size 15 to 20)
#    0.000    1.000    2.500    2.625   10.500    1.500 
#    0.000    3.125    0.000    0.000    0.000    0.000 
#    0.000    0.000    0.000    0.000    0.000    0.000 
#
# Total GULP energy -89324.372053 kJ/mol
# GULP energy per Si atom -5582.773253 kJ/mol
# Density = 2.557148 g / cm^3
# Si number density = 25.629814 Si / 1000 Ang^3
#
#
#
# Elastic Constant Matrix: (Units=GPa)
#
#
# Indices 1 2 3 4 5 6 
#
# 1 137.5428 0.6578 30.9921 14.1614 1.9079 14.4077
# 2 0.6578 92.2495 23.8343 27.4338 -1.7778 4.6090
# 3 30.9921 23.8343 117.9073 19.2980 -21.3001 0.8321
# 4 14.1614 27.4338 19.2980 44.5852 9.2615 -4.1449
# 5 1.9079 -1.7778 -21.3001 9.2615 54.6974 13.5820
# 6 14.4077 4.6090 0.8321 -4.1449 13.5820 42.7723
#
#
#
# Elastic Compliance Matrix: (Units=1/GPa)
#
#
# Indices 1 2 3 4 5 6 
#
# 1 0.008368 0.001557 -0.001895 -0.003194 0.000403 -0.003387
# 2 0.001557 0.014234 -0.001245 -0.009576 0.002475 -0.003748
# 3 -0.001895 -0.001245 0.011008 -0.004696 0.005517 -0.001648
# 4 -0.003194 -0.009576 -0.004696 0.034250 -0.009985 0.008689
# 5 0.000403 0.002475 0.005517 -0.009985 0.024485 -0.009252
# 6 -0.003387 -0.003748 -0.001648 0.008689 -0.009252 0.028737
#
#
# Mechanical properties :
#
#
# Convention : Reuss Voigt Hill
#
# Bulk Modulus (GPa) = 32.84879 50.96312 41.90596
# Shear Modulus (GPa) = 37.20349 47.89201 42.54775
#
# Velocity S-wave (km/s) = 3.81408 4.32743 4.07884
# Velocity P-wave (km/s) = 5.67809 6.70047 6.21036
#
# Compressibility (1/GPa) = 0.03044252
#
# Stress axis : x y z
#
# Youngs Moduli (GPa) = 119.50214 70.25608 90.84468
#
# Poissons Ratio (x) = -0.10937 0.17213
# Poissons Ratio (y) = -0.18604 0.11315
# Poissons Ratio (z) = 0.22643 0.08750
#
# Static dielectric constant tensor:
#      x y z
#    x 2.125520 -0.156610 0.146730 
#    y -0.156610 2.246500 -0.320330 
#    z 0.146730 -0.320330 2.234210 
# 
# From -- ./inp_files/98340.got.cif
#   From: 2010.05.17/outbox.cif.g08.bks.cpg/sg2_50_cif.got.tgz:98340.got - 2010.06.03 11:33:40.
