data_PCOD9043576
_publ_section_title
;
Structure prediction by ZEFSAII (Michael W. Deem and Ramdas Pophale) SiO2 
 PCOD9043576
Probable space group: P -1
;
_chemical_formula_sum "Si O2"
_cell_formula_units_Z 16
_cell_length_a 13.371721
_cell_length_b 7.881355
_cell_length_c 15.097467
_cell_angle_alpha 48.341870
_cell_angle_beta 46.615977
_cell_angle_gamma 86.239370
_cell_volume 599.506074
_symmetry_space_group_name_H-M "P -1"
_symmetry_group_IT_number 2
_symmetry_cell_setting 'triclinic'
loop_
_space_group_symop_operation_xyz
x,y,z
-x,-y,-z
loop_
_atom_site_type_symbol
_atom_site_label
_atom_site_fract_x
_atom_site_fract_y
_atom_site_fract_z
Si Si1 0.798007 0.876259 0.995471
Si Si2 0.758888 0.731745 0.683824
Si Si3 0.229164 0.682992 0.798176
Si Si4 0.781064 0.238640 0.407572
Si Si5 0.280259 0.131200 0.160443
Si Si6 0.266887 0.429788 0.556145
Si Si7 0.771363 0.053750 0.130459
Si Si8 0.301206 0.668099 0.279505
O O1 0.761363 0.878668 0.913880
O O2 0.748215 0.554222 0.153194
O O3 0.033944 0.170378 0.763914
O O4 0.709529 0.926326 0.111429
O O5 0.804480 0.799119 0.737179
O O6 0.823561 0.597172 0.630361
O O7 0.817791 0.039638 0.497388
O O8 0.518278 0.435142 0.923859
O O9 0.313186 0.904732 0.582672
O O10 0.299362 0.828382 0.803349
O O11 0.000000 0.500000 0.000000
O O12 0.668188 0.272941 0.530622
O O13 0.991691 0.618978 0.134510
O O14 0.215913 0.792780 0.334013
O O15 0.352032 0.542139 0.366315
O O16 0.281110 0.228662 0.680041
O O17 0.500000 0.000000 0.000000
#
# Coordination Sequence:
#
# PCOD9043576 Si02
#       8
#     2   2   2   2   2   2   2   2
#     4  11  21  36  57  90 124 145 189 240 291 341
#     4  10  21  40  62  78 110 159 203 235 282 340
#     4  10  18  32  58  86 118 150 184 226 285 351
#     4  10  17  33  61  88 109 150 196 230 285 345
#     4  10  23  41  57  81 118 156 196 242 281 338
#     4  11  18  36  63  85 116 154 186 239 289 343
#     4  10  20  34  59  89 118 150 185 232 291 351
#     4  10  22  39  61  83 109 156 204 233 279 345
#
# _framework density 26.688637
#
# number of rings (size 3 to 8) (size 9 to 14) (size 15 to 20)
#    0.000    1.750    5.000    1.500    1.750    1.500 
#    0.000    1.250    0.000    3.750    0.000    0.000 
#    0.000    0.000    0.000    0.000    0.000    0.000 
#
# Total GULP energy -89494.617639 kJ/mol
# GULP energy per Si atom -5593.413602 kJ/mol
# Density = 2.662789 g / cm^3
# Si number density = 26.688637 Si / 1000 Ang^3
#
#
#
# Elastic Constant Matrix: (Units=GPa)
#
#
# Indices 1 2 3 4 5 6 
#
# 1 19.1921 33.7046 29.3043 -12.7973 -19.1619 50.9762
# 2 33.7046 220.8599 47.2054 23.4189 7.5988 44.8377
# 3 29.3043 47.2054 101.5224 5.5991 21.0637 9.9879
# 4 -12.7973 23.4189 5.5991 45.6741 -1.3067 10.1985
# 5 -19.1619 7.5988 21.0637 -1.3067 31.1559 6.1364
# 6 50.9762 44.8377 9.9879 10.1985 6.1364 52.4654
#
#
#
# Elastic Compliance Matrix: (Units=1/GPa)
#
#
# Indices 1 2 3 4 5 6 
#
# 1 -0.011851 -0.001126 0.005844 -0.007076 -0.014096 0.014389
# 2 -0.001126 0.006037 -0.001969 -0.002470 -0.000313 -0.003174
# 3 0.005844 -0.001969 0.009787 0.002812 -0.001190 -0.006266
# 4 -0.007076 -0.002470 0.002812 0.019469 -0.005889 0.005355
# 5 -0.014096 -0.000313 -0.001190 -0.005889 0.021537 0.012816
# 6 0.014389 -0.003174 -0.006266 0.005355 0.012816 0.006445
#
#
# Mechanical properties :
#
#
# Convention : Reuss Voigt Hill
#
# Bulk Modulus (GPa) = 105.59251 62.44478 84.01865
# Shear Modulus (GPa) = 101.86739 41.28310 71.57525
#
# Velocity S-wave (km/s) = 6.18479 3.93726 5.18429
# Velocity P-wave (km/s) = 9.52117 6.64211 8.20885
#
# Compressibility (1/GPa) = 0.00947037
#
# Stress axis : x y z
#
# Youngs Moduli (GPa) = -84.37777 165.63318 102.17677
#
# Poissons Ratio (x) = 0.18657 -0.59711
# Poissons Ratio (y) = -0.09504 0.20116
# Poissons Ratio (z) = 0.49309 0.32609
#
# Static dielectric constant tensor:
#      x y z
#    x 2.283800 -0.079450 -0.187100 
#    y -0.079450 2.156590 0.125290 
#    z -0.187100 0.125290 2.233830 
# 
# From -- ./inp_files/227258.got.cif
#   From: 2010.05.17/outbox.cif.g08.bks.cpg/sg2_114_cif.got.tgz:227258.got - 2010.06.03 11:33:40.
