data_PCOD9043275
_publ_section_title
;
Structure prediction by ZEFSAII (Michael W. Deem and Ramdas Pophale) SiO2 
 PCOD9043275
Probable space group: P -1
;
_chemical_formula_sum "Si O2"
_cell_formula_units_Z 10
_cell_length_a 12.683624
_cell_length_b 16.572523
_cell_length_c 9.655674
_cell_angle_alpha 30.063131
_cell_angle_beta 32.521129
_cell_angle_gamma 20.318663
_cell_volume 347.191870
_symmetry_space_group_name_H-M "P -1"
_symmetry_group_IT_number 2
_symmetry_cell_setting 'triclinic'
loop_
_space_group_symop_operation_xyz
x,y,z
-x,-y,-z
loop_
_atom_site_type_symbol
_atom_site_label
_atom_site_fract_x
_atom_site_fract_y
_atom_site_fract_z
Si Si1 0.299995 0.213971 0.644907
Si Si2 0.161748 0.683277 0.889368
Si Si3 0.694525 0.511428 0.408361
Si Si4 0.712998 0.703058 0.823086
Si Si5 0.902645 0.040212 0.209650
O O1 0.587111 0.148897 0.440040
O O2 0.000000 0.500000 0.500000
O O3 0.437435 0.003605 0.693036
O O4 0.182610 0.173383 0.962012
O O5 0.356497 0.692852 0.576492
O O6 0.135725 0.770545 0.943155
O O7 0.341741 0.404332 0.066171
O O8 0.952928 0.418989 0.366482
O O9 0.702693 0.619783 0.106376
O O10 0.838479 0.248361 0.593538
O O11 0.000000 0.000000 0.000000
#
# Coordination Sequence:
#
# PCOD9043275 Si02
#       5
#     2   2   2   2   2
#     4  11  26  45  67  98 137 181 230 285 342 405
#     4  12  24  43  73 102 136 181 230 285 342 409
#     4  10  23  45  70 100 142 180 223 284 343 412
#     4  10  24  45  69 102 139 180 230 279 342 413
#     4  11  26  46  68 100 140 181 229 283 346 410
#
# _framework density 28.802520000000001
#
# number of rings (size 3 to 8) (size 9 to 14) (size 15 to 20)
#    0.000    1.200    0.000    4.200    0.000   11.200 
#    0.000    7.000    0.000    0.000    0.000    0.000 
#    0.000    0.000    0.000    0.000    0.000    0.000 
#
# Total GULP energy -55910.063986 kJ/mol
# GULP energy per Si atom -5591.006399 kJ/mol
# Density = 2.873696 g / cm^3
# Si number density = 28.802520 Si / 1000 Ang^3
#
#
#
# Elastic Constant Matrix: (Units=GPa)
#
#
# Indices 1 2 3 4 5 6 
#
# 1 108.4667 72.6888 58.3804 17.2123 -28.1832 31.6631
# 2 72.6888 159.4892 89.4458 17.1171 -23.4843 13.8081
# 3 58.3804 89.4458 180.0226 52.6881 -29.3691 2.8366
# 4 17.2123 17.1171 52.6881 104.3935 -7.6877 -35.7365
# 5 -28.1832 -23.4843 -29.3691 -7.6877 54.0785 -12.6876
# 6 31.6631 13.8081 2.8366 -35.7365 -12.6876 54.1363
#
#
#
# Elastic Compliance Matrix: (Units=1/GPa)
#
#
# Indices 1 2 3 4 5 6 
#
# 1 0.019239 -0.006150 -0.000728 -0.005971 0.003094 -0.012863
# 2 -0.006150 0.010945 -0.004074 0.002143 0.000223 0.002485
# 3 -0.000728 -0.004074 0.009426 -0.004294 0.002035 -0.001386
# 4 -0.005971 0.002143 -0.004294 0.017710 0.001578 0.015231
# 5 0.003094 0.000223 0.002035 0.001578 0.022552 0.004354
# 6 -0.012863 0.002485 -0.001386 0.015231 0.004354 0.036509
#
#
# Mechanical properties :
#
#
# Convention : Reuss Voigt Hill
#
# Bulk Modulus (GPa) = 56.47817 98.77873 77.62845
# Shear Modulus (GPa) = 34.67752 57.68589 46.18170
#
# Velocity S-wave (km/s) = 3.47360 4.48013 4.00858
# Velocity P-wave (km/s) = 5.97823 7.81868 6.95956
#
# Compressibility (1/GPa) = 0.01770596
#
# Stress axis : x y z
#
# Youngs Moduli (GPa) = 51.97779 91.36361 106.09385
#
# Poissons Ratio (x) = 0.56187 0.07728
# Poissons Ratio (y) = 0.31965 0.43219
# Poissons Ratio (z) = 0.03786 0.37219
#
# Static dielectric constant tensor:
#      x y z
#    x 2.297690 -0.003960 0.049630 
#    y -0.003960 2.245640 0.032350 
#    z 0.049630 0.032350 2.335350 
# 
# From -- ./inp_files/129957.got.cif
#   From: 2010.05.17/outbox.cif.g08.bks.cpg/sg2_65_cif.got.tgz:129957.got - 2010.06.03 11:33:40.
