data_PCOD9043148
_publ_section_title
;
Structure prediction by ZEFSAII (Michael W. Deem and Ramdas Pophale) SiO2 
 PCOD9043148
Probable space group: P -1
;
_chemical_formula_sum "Si O2"
_cell_formula_units_Z 14
_cell_length_a 8.236604
_cell_length_b 11.150321
_cell_length_c 8.555868
_cell_angle_alpha 88.544615
_cell_angle_beta 50.571218
_cell_angle_gamma 99.724521
_cell_volume 589.070585
_symmetry_space_group_name_H-M "P -1"
_symmetry_group_IT_number 2
_symmetry_cell_setting 'triclinic'
loop_
_space_group_symop_operation_xyz
x,y,z
-x,-y,-z
loop_
_atom_site_type_symbol
_atom_site_label
_atom_site_fract_x
_atom_site_fract_y
_atom_site_fract_z
Si Si1 0.765917 0.902977 0.180840
Si Si2 0.970069 0.508007 0.827871
Si Si3 0.643463 0.050576 0.760342
Si Si4 0.318003 0.324877 0.973400
Si Si5 0.329725 0.754886 0.044876
Si Si6 0.628224 0.534901 0.583013
Si Si7 0.348729 0.176788 0.394632
O O1 0.538666 0.927356 0.251013
O O2 0.773922 0.772567 0.102166
O O3 0.716492 0.875816 0.392668
O O4 0.000000 0.000000 0.000000
O O5 0.807583 0.380137 0.892940
O O6 0.161223 0.509272 0.591093
O O7 0.875927 0.624722 0.843090
O O8 0.000000 0.500000 0.000000
O O9 0.778980 0.174798 0.758866
O O10 0.758568 0.945062 0.639037
O O11 0.500000 0.000000 0.000000
O O12 0.443767 0.257521 0.017538
O O13 0.487473 0.446299 0.800493
O O14 0.403295 0.808085 0.825022
O O15 0.500000 0.500000 0.500000
O O16 0.671292 0.680452 0.592730
#
# Coordination Sequence:
#
# PCOD9043148 Si02
#       7
#     2   2   2   2   2   2   2
#     4  11  24  43  69  99 132 181 236 278 334 417
#     4  12  23  40  72 101 133 186 223 275 348 416
#     4   9  22  43  66  93 134 180 219 283 344 391
#     4  11  24  47  66 103 147 173 226 295 342 402
#     4  10  23  45  69 100 143 178 224 289 348 405
#     4  12  23  41  68 107 138 177 230 284 344 409
#     4  11  21  42  71  94 137 181 225 284 335 401
#
# _framework density 23.766251
#
# number of rings (size 3 to 8) (size 9 to 14) (size 15 to 20)
#    0.000    1.143    4.286    0.857    0.000    6.286 
#    5.143   10.000    0.000    0.000    0.000    0.000 
#    0.000    0.000    0.000    0.000    0.000    0.000 
#
# Total GULP energy -78036.120357 kJ/mol
# GULP energy per Si atom -5574.008597 kJ/mol
# Density = 2.371216 g / cm^3
# Si number density = 23.766251 Si / 1000 Ang^3
#
#
#
# Elastic Constant Matrix: (Units=GPa)
#
#
# Indices 1 2 3 4 5 6 
#
# 1 36.8235 39.2194 31.6702 4.3506 7.5307 6.5670
# 2 39.2194 198.2605 68.4423 48.6054 0.7411 1.3694
# 3 31.6702 68.4423 124.4282 20.0057 2.8430 -1.0072
# 4 4.3506 48.6054 20.0057 51.3461 -3.4026 5.0557
# 5 7.5307 0.7411 2.8430 -3.4026 32.7762 1.5752
# 6 6.5670 1.3694 -1.0072 5.0557 1.5752 33.6489
#
#
#
# Elastic Compliance Matrix: (Units=1/GPa)
#
#
# Indices 1 2 3 4 5 6 
#
# 1 0.044949 -0.007680 -0.008236 0.007047 -0.008257 -0.009379
# 2 -0.007680 0.008950 -0.001801 -0.007273 0.000861 0.002133
# 3 -0.008236 -0.001801 0.011494 -0.002266 0.000589 0.002338
# 4 0.007047 -0.007273 -0.002266 0.027293 0.001831 -0.005334
# 5 -0.008257 0.000861 0.000589 0.001831 0.032537 -0.000204
# 6 -0.009379 0.002133 0.002338 -0.005334 -0.000204 0.032343
#
#
# Mechanical properties :
#
#
# Convention : Reuss Voigt Hill
#
# Bulk Modulus (GPa) = 33.38135 70.90845 52.14490
# Shear Modulus (GPa) = 24.63209 38.23292 31.43251
#
# Velocity S-wave (km/s) = 3.22286 4.01522 3.64066
# Velocity P-wave (km/s) = 5.28444 7.16914 6.29769
#
# Compressibility (1/GPa) = 0.02995685
#
# Stress axis : x y z
#
# Youngs Moduli (GPa) = 22.24732 111.73142 87.00348
#
# Poissons Ratio (x) = 0.85815 0.71659
# Poissons Ratio (y) = 0.17087 0.15671
# Poissons Ratio (z) = 0.18324 0.20125
#
# Static dielectric constant tensor:
#      x y z
#    x 1.977460 0.005130 0.011590 
#    y 0.005130 2.096180 0.019170 
#    z 0.011590 0.019170 1.890230 
# 
# From -- ./inp_files/179811.got.cif
#   From: 2010.05.17/outbox.cif.g08.bks.cpg/sg2_90_cif.got.tgz:179811.got - 2010.06.03 11:33:40.
