data_PCOD9043346
_publ_section_title
;
Structure prediction by ZEFSAII (Michael W. Deem and Ramdas Pophale) SiO2 
 PCOD9043346
Probable space group: P -1
;
_chemical_formula_sum "Si O2"
_cell_formula_units_Z 14
_cell_length_a 9.756692
_cell_length_b 5.126053
_cell_length_c 11.595031
_cell_angle_alpha 77.351142
_cell_angle_beta 102.207661
_cell_angle_gamma 97.608689
_cell_volume 550.778414
_symmetry_space_group_name_H-M "P -1"
_symmetry_group_IT_number 2
_symmetry_cell_setting 'triclinic'
loop_
_space_group_symop_operation_xyz
x,y,z
-x,-y,-z
loop_
_atom_site_type_symbol
_atom_site_label
_atom_site_fract_x
_atom_site_fract_y
_atom_site_fract_z
Si Si1 0.868653 0.397119 0.702942
Si Si2 0.474963 0.412852 0.199607
Si Si3 0.704876 0.920549 0.616660
Si Si4 0.375769 0.781379 0.955868
Si Si5 0.902310 0.234213 0.976575
Si Si6 0.400639 0.310125 0.591016
Si Si7 0.067346 0.237749 0.579435
O O1 0.826290 0.704667 0.656342
O O2 0.837395 0.304089 0.835760
O O3 0.011153 0.264882 0.699648
O O4 0.759836 0.221747 0.621625
O O5 0.389073 0.189620 0.282382
O O6 0.389974 0.524524 0.066838
O O7 0.521972 0.643418 0.278025
O O8 0.601863 0.292526 0.165734
O O9 0.628609 0.934482 0.479145
O O10 0.220098 0.854600 0.946619
O O11 0.500000 0.000000 0.000000
O O12 0.000000 0.500000 0.000000
O O13 0.000000 0.000000 0.000000
O O14 0.500000 0.500000 0.500000
O O15 0.234902 0.307419 0.598286
O O16 0.000000 0.500000 0.500000
O O17 0.000000 0.000000 0.500000
#
# Coordination Sequence:
#
# PCOD9043346 Si02
#       7
#     2   2   2   2   2   2   2
#     4  12  23  44  73  97 146 186 235 284 370 420
#     4  10  24  45  73 101 148 184 249 297 359 421
#     4  11  22  45  71 107 138 192 228 295 357 434
#     4  11  25  47  76 101 143 196 246 295 367 423
#     4  12  29  47  73 108 145 187 245 302 361 424
#     4  10  23  45  70 107 142 184 240 292 354 429
#     4  12  24  45  70 103 144 187 233 287 357 429
#
# _framework density 25.418568
#
# number of rings (size 3 to 8) (size 9 to 14) (size 15 to 20)
#    0.000    0.857    4.286    1.714    6.000    0.000 
#    5.143    4.286    0.000    0.000    0.000    0.000 
#    0.000    0.000    0.000    0.000    0.000    0.000 
#
# Total GULP energy -78066.662818 kJ/mol
# GULP energy per Si atom -5576.190201 kJ/mol
# Density = 2.536071 g / cm^3
# Si number density = 25.418568 Si / 1000 Ang^3
#
#
#
# Elastic Constant Matrix: (Units=GPa)
#
#
# Indices 1 2 3 4 5 6 
#
# 1 200.8631 51.2547 31.7605 12.9276 -42.4389 -19.4932
# 2 51.2547 125.1205 18.5294 17.2748 -4.6107 -11.3402
# 3 31.7605 18.5294 109.6818 23.1504 -33.4446 -0.9685
# 4 12.9276 17.2748 23.1504 40.3587 -0.1384 -0.5894
# 5 -42.4389 -4.6107 -33.4446 -0.1384 51.1565 9.7057
# 6 -19.4932 -11.3402 -0.9685 -0.5894 9.7057 47.7880
#
#
#
# Elastic Compliance Matrix: (Units=1/GPa)
#
#
# Indices 1 2 3 4 5 6 
#
# 1 0.006894 -0.002388 0.000401 -0.001381 0.005552 0.001109
# 2 -0.002388 0.009568 -0.000957 -0.002764 -0.002067 0.001663
# 3 0.000401 -0.000957 0.013626 -0.007529 0.009477 -0.001805
# 4 -0.001381 -0.002764 -0.007529 0.030705 -0.006288 0.000284
# 5 0.005552 -0.002067 0.009477 -0.006288 0.030982 -0.004404
# 6 0.001109 0.001663 -0.001805 0.000284 -0.004404 0.022634
#
#
# Mechanical properties :
#
#
# Convention : Reuss Voigt Hill
#
# Bulk Modulus (GPa) = 41.32067 70.97273 56.14670
# Shear Modulus (GPa) = 38.95228 50.13535 44.54382
#
# Velocity S-wave (km/s) = 3.91888 4.44598 4.19072
# Velocity P-wave (km/s) = 6.06368 7.37142 6.74930
#
# Compressibility (1/GPa) = 0.02420097
#
# Stress axis : x y z
#
# Youngs Moduli (GPa) = 145.05525 104.51089 73.39150
#
# Poissons Ratio (x) = 0.24954 -0.02946
# Poissons Ratio (y) = 0.34635 0.07025
# Poissons Ratio (z) = -0.05823 0.10004
#
# Static dielectric constant tensor:
#      x y z
#    x 2.042030 0.050220 -0.224650 
#    y 0.050220 2.034820 -0.074110 
#    z -0.224650 -0.074110 2.331820 
# 
# From -- ./inp_files/373081.got.cif
#   From: 2010.05.17/outbox.cif.g08.bks.cpg/sg2_187_cif.got.tgz:373081.got - 2010.06.03 11:33:40.
