data_PCOD9043274
_publ_section_title
;
Structure prediction by ZEFSAII (Michael W. Deem and Ramdas Pophale) SiO2 
 PCOD9043274
Probable space group: P -1
;
_chemical_formula_sum "Si O2"
_cell_formula_units_Z 16
_cell_length_a 18.409938
_cell_length_b 11.647432
_cell_length_c 24.994172
_cell_angle_alpha 27.671801
_cell_angle_beta 159.725048
_cell_angle_gamma 152.929965
_cell_volume 800.944435
_symmetry_space_group_name_H-M "P -1"
_symmetry_group_IT_number 2
_symmetry_cell_setting 'triclinic'
loop_
_space_group_symop_operation_xyz
x,y,z
-x,-y,-z
loop_
_atom_site_type_symbol
_atom_site_label
_atom_site_fract_x
_atom_site_fract_y
_atom_site_fract_z
Si Si1 0.896662 0.646667 0.411354
Si Si2 0.292947 0.454004 0.336579
Si Si3 0.371189 0.581471 0.946652
Si Si4 0.180486 0.485835 0.740784
Si Si5 0.988718 0.970320 0.756865
Si Si6 0.662210 0.207468 0.873406
Si Si7 0.817601 0.292291 0.131761
Si Si8 0.537786 0.683642 0.210309
O O1 0.664579 0.515006 0.337768
O O2 0.000000 0.500000 0.500000
O O3 0.087318 0.706689 0.564214
O O4 0.861736 0.866214 0.257666
O O5 0.500000 0.500000 0.500000
O O6 0.235295 0.206548 0.356581
O O7 0.322219 0.695324 0.216433
O O8 0.072295 0.393069 0.245994
O O9 0.210705 0.473206 0.829810
O O10 0.236521 0.550458 0.921103
O O11 0.504192 0.896239 0.897145
O O12 0.573052 0.468944 0.132194
O O13 0.006169 0.200320 0.716404
O O14 0.105203 0.789604 0.940670
O O15 0.555701 0.367761 0.773049
O O16 0.725473 0.984729 0.214406
O O17 0.665102 0.314770 0.967736
#
# Coordination Sequence:
#
# PCOD9043274 Si02
#       8
#     2   2   2   2   2   2   2   2
#     4  10  18  30  57  90 112 141 192 247 286 327
#     4  12  25  37  56  90 126 156 184 243 300 352
#     4   9  19  36  61  91 115 148 198 245 297 333
#     4   9  19  34  59  90 115 152 193 250 285 345
#     4  10  19  38  58  82 114 158 197 229 289 349
#     4  10  21  36  61  88 116 154 192 236 299 355
#     4  10  19  35  59  85 118 145 197 246 291 339
#     4  10  17  33  60  88 109 149 199 249 280 341
#
# _framework density 19.976417000000001
#
# number of rings (size 3 to 8) (size 9 to 14) (size 15 to 20)
#    0.000    2.000    2.500    3.375    1.750    1.000 
#    0.000    2.500    0.000   13.500    3.250    0.000 
#    0.000    0.000    0.000    0.000    0.000    0.000 
#
# Total GULP energy -89071.029047 kJ/mol
# GULP energy per Si atom -5566.939315 kJ/mol
# Density = 1.993095 g / cm^3
# Si number density = 19.976417 Si / 1000 Ang^3
#
#
#
# Elastic Constant Matrix: (Units=GPa)
#
#
# Indices 1 2 3 4 5 6 
#
# 1 119.0393 31.4440 60.7492 13.0358 -1.8961 5.2866
# 2 31.4440 41.7670 31.1254 18.1643 -10.3527 -3.9224
# 3 60.7492 31.1254 133.2568 21.9193 -14.3753 5.2391
# 4 13.0358 18.1643 21.9193 24.5834 -1.8800 -2.5840
# 5 -1.8961 -10.3527 -14.3753 -1.8800 35.4545 0.5831
# 6 5.2866 -3.9224 5.2391 -2.5840 0.5831 29.2857
#
#
#
# Elastic Compliance Matrix: (Units=1/GPa)
#
#
# Indices 1 2 3 4 5 6 
#
# 1 0.012721 -0.008633 -0.004602 0.003230 -0.003498 -0.002275
# 2 -0.008633 0.046589 -0.001521 -0.027075 0.011000 0.005462
# 3 -0.004602 -0.001521 0.011530 -0.006656 0.003666 -0.002096
# 4 0.003230 -0.027075 -0.006656 0.064663 -0.007050 0.002827
# 5 -0.003498 0.011000 0.003666 -0.007050 0.032340 0.000183
# 6 -0.002275 0.005462 -0.002096 0.002827 0.000183 0.035909
#
#
# Mechanical properties :
#
#
# Convention : Reuss Voigt Hill
#
# Bulk Modulus (GPa) = 24.19617 60.07784 42.13700
# Shear Modulus (GPa) = 20.23954 29.24770 24.74362
#
# Velocity S-wave (km/s) = 3.18649 3.83052 3.52325
# Velocity P-wave (km/s) = 5.06724 7.05007 6.13924
#
# Compressibility (1/GPa) = 0.04132886
#
# Stress axis : x y z
#
# Youngs Moduli (GPa) = 78.60985 21.46426 86.72678
#
# Poissons Ratio (x) = 0.18529 0.39912
# Poissons Ratio (y) = 0.67860 0.13193
# Poissons Ratio (z) = 0.36177 0.03265
#
# Static dielectric constant tensor:
#      x y z
#    x 1.744320 -0.039510 0.029960 
#    y -0.039510 1.806620 -0.053380 
#    z 0.029960 -0.053380 1.766250 
# 
# From -- ./inp_files/389082.got.cif
#   From: 2010.05.17/outbox.cif.g08.bks.cpg/sg2_195_cif.got.tgz:389082.got - 2010.06.03 11:33:40.
