data_PCOD9043731
_publ_section_title
;
Structure prediction by ZEFSAII (Michael W. Deem and Ramdas Pophale) SiO2 
 PCOD9043731
Probable space group: P -1
;
_chemical_formula_sum "Si O2"
_cell_formula_units_Z 16
_cell_length_a 9.417760
_cell_length_b 5.450429
_cell_length_c 16.408234
_cell_angle_alpha 76.196725
_cell_angle_beta 118.915889
_cell_angle_gamma 76.189775
_cell_volume 650.890450
_symmetry_space_group_name_H-M "P -1"
_symmetry_group_IT_number 2
_symmetry_cell_setting 'triclinic'
loop_
_space_group_symop_operation_xyz
x,y,z
-x,-y,-z
loop_
_atom_site_type_symbol
_atom_site_label
_atom_site_fract_x
_atom_site_fract_y
_atom_site_fract_z
Si Si1 0.744691 0.222773 0.127918
Si Si2 0.381366 0.236968 0.010815
Si Si3 0.201632 0.901263 0.039116
Si Si4 0.182968 0.232201 0.375904
Si Si5 0.818595 0.959829 0.433712
Si Si6 0.641832 0.341548 0.622095
Si Si7 0.482001 0.443352 0.743714
Si Si8 0.170539 0.303890 0.708000
O O1 0.536203 0.309656 0.086425
O O2 0.845110 0.955632 0.231276
O O3 0.755007 0.517321 0.102892
O O4 0.785116 0.140089 0.051032
O O5 0.273062 0.140395 0.051410
O O6 0.500000 0.000000 0.000000
O O7 0.337645 0.639365 0.148151
O O8 0.000000 0.000000 0.000000
O O9 0.256911 0.457431 0.351788
O O10 0.973816 0.410544 0.319404
O O11 0.250130 0.115876 0.494854
O O12 0.237676 0.968196 0.352889
O O13 0.659324 0.238207 0.332242
O O14 0.862390 0.730836 0.393662
O O15 0.000000 0.000000 0.500000
O O16 0.500000 0.500000 0.500000
O O17 0.544217 0.329152 0.679256
O O18 0.365780 0.299395 0.765648
#
# Coordination Sequence:
#
# PCOD9043731 Si02
#       8
#     2   2   2   2   2   2   2   2
#     4  10  23  45  74 107 144 200 255 319 383 470
#     4   9  20  43  71  97 145 187 250 313 380 443
#     4  11  26  48  70 112 156 196 256 322 395 467
#     4  12  27  51  76 112 161 212 259 331 395 481
#     4  12  26  47  77 119 158 194 268 332 392 470
#     4  12  27  51  75 113 161 211 265 325 405 480
#     4  12  28  46  79 113 153 212 258 328 400 475
#     4  12  27  45  81 113 153 208 266 320 399 478
#
# _framework density 24.581709
#
# number of rings (size 3 to 8) (size 9 to 14) (size 15 to 20)
#    0.000    0.750    3.750    2.250    8.750    0.500 
#    0.000    0.000    0.000    0.000    0.000    0.000 
#    0.000    0.000    0.000    0.000    0.000    0.000 
#
# Total GULP energy -89533.950673 kJ/mol
# GULP energy per Si atom -5595.871917 kJ/mol
# Density = 2.452576 g / cm^3
# Si number density = 24.581709 Si / 1000 Ang^3
#
#
#
# Elastic Constant Matrix: (Units=GPa)
#
#
# Indices 1 2 3 4 5 6 
#
# 1 149.3810 50.6214 40.3753 -13.2598 10.8360 -20.6749
# 2 50.6214 139.2682 35.1725 -25.9380 0.0349 -26.3555
# 3 40.3753 35.1725 120.4457 -23.3171 -3.0570 -17.8313
# 4 -13.2598 -25.9380 -23.3171 45.8096 0.8236 -8.1100
# 5 10.8360 0.0349 -3.0570 0.8236 43.6574 2.4849
# 6 -20.6749 -26.3555 -17.8313 -8.1100 2.4849 41.2874
#
#
#
# Elastic Compliance Matrix: (Units=1/GPa)
#
#
# Indices 1 2 3 4 5 6 
#
# 1 0.008444 -0.001973 -0.001761 0.000922 -0.002379 0.002532
# 2 -0.001973 0.010447 -0.000105 0.006516 -0.000043 0.006918
# 3 -0.001761 -0.000105 0.010763 0.005740 0.000811 0.004778
# 4 0.000922 0.006516 0.005740 0.031079 -0.001174 0.013276
# 5 -0.002379 -0.000043 0.000811 -0.001174 0.023719 -0.002527
# 6 0.002532 0.006918 0.004778 0.013276 -0.002527 0.034728
#
#
# Mechanical properties :
#
#
# Convention : Reuss Voigt Hill
#
# Bulk Modulus (GPa) = 45.50579 73.49259 59.49919
# Shear Modulus (GPa) = 37.26268 45.01259 41.13764
#
# Velocity S-wave (km/s) = 3.89764 4.28383 4.09529
# Velocity P-wave (km/s) = 6.22958 7.37770 6.82782
#
# Compressibility (1/GPa) = 0.02197522
#
# Stress axis : x y z
#
# Youngs Moduli (GPa) = 118.43002 95.72359 92.91273
#
# Poissons Ratio (x) = 0.18885 0.16366
# Poissons Ratio (y) = 0.23364 0.00973
# Poissons Ratio (z) = 0.20861 0.01003
#
# Static dielectric constant tensor:
#      x y z
#    x 1.942690 0.096270 0.042220 
#    y 0.096270 2.074730 0.030380 
#    z 0.042220 0.030380 2.032590 
# 
# From -- ./inp_files/553366.got.cif
#   From: 2010.05.17/outbox.cif.g08.bks.cpg/sg2_277_cif.got.tgz:553366.got - 2010.06.03 11:33:40.
