data_PCOD9043872
_publ_section_title
;
Structure prediction by ZEFSAII (Michael W. Deem and Ramdas Pophale) SiO2 
 PCOD9043872
Probable space group: P -1
;
_chemical_formula_sum "Si O2"
_cell_formula_units_Z 14
_cell_length_a 10.111135
_cell_length_b 12.718107
_cell_length_c 12.228275
_cell_angle_alpha 56.989621
_cell_angle_beta 137.114577
_cell_angle_gamma 142.530066
_cell_volume 648.440637
_symmetry_space_group_name_H-M "P -1"
_symmetry_group_IT_number 2
_symmetry_cell_setting 'triclinic'
loop_
_space_group_symop_operation_xyz
x,y,z
-x,-y,-z
loop_
_atom_site_type_symbol
_atom_site_label
_atom_site_fract_x
_atom_site_fract_y
_atom_site_fract_z
Si Si1 0.407929 0.118537 0.184843
Si Si2 0.373990 0.902779 0.095187
Si Si3 0.030075 0.646097 0.491216
Si Si4 0.877634 0.582708 0.880320
Si Si5 0.668608 0.791750 0.278024
Si Si6 0.188196 0.356861 0.423567
Si Si7 0.125475 0.170329 0.836046
O O1 0.660735 0.209926 0.364806
O O2 0.431699 0.023718 0.158591
O O3 0.364234 0.232181 0.029077
O O4 0.144215 0.980827 0.176210
O O5 0.513864 0.828495 0.230594
O O6 0.050321 0.737396 0.984204
O O7 0.500000 0.000000 0.000000
O O8 0.000000 0.500000 0.500000
O O9 0.874081 0.579813 0.550269
O O10 0.922879 0.711984 0.311570
O O11 0.560348 0.410141 0.791483
O O12 0.952242 0.675020 0.756047
O O13 0.000000 0.500000 0.000000
O O14 0.865205 0.803778 0.469658
O O15 0.826690 0.895952 0.204771
O O16 0.500000 0.500000 0.500000
#
# Coordination Sequence:
#
# PCOD9043872 Si02
#       7
#     2   2   2   2   2   2   2
#     4  11  24  45  65  93 134 172 217 261 331 392
#     4  11  20  37  62  93 124 169 209 253 325 379
#     4  11  25  45  69  92 128 172 219 271 323 385
#     4   9  19  34  60  89 125 162 206 256 305 380
#     4   9  19  39  61  90 130 160 212 263 311 378
#     4   9  19  39  59  94 125 157 206 264 316 367
#     4  10  23  46  63  95 132 168 216 270 320 388
#
# _framework density 21.590257999999999
#
# number of rings (size 3 to 8) (size 9 to 14) (size 15 to 20)
#    0.000    2.000    1.429    1.286    2.000    4.000 
#   18.000    2.143    0.000    0.000    0.000    0.000 
#    0.000    0.000    0.000    0.000    0.000    0.000 
#
# Total GULP energy -77994.374487 kJ/mol
# GULP energy per Si atom -5571.026749 kJ/mol
# Density = 2.154112 g / cm^3
# Si number density = 21.590258 Si / 1000 Ang^3
#
#
#
# Elastic Constant Matrix: (Units=GPa)
#
#
# Indices 1 2 3 4 5 6 
#
# 1 119.6339 32.2580 29.2528 5.4919 6.4801 3.2248
# 2 32.2580 57.7942 25.4082 14.6779 3.2924 -16.1005
# 3 29.2528 25.4082 120.3322 -13.6189 13.0450 -19.1547
# 4 5.4919 14.6779 -13.6189 25.7830 3.1933 -3.6047
# 5 6.4801 3.2924 13.0450 3.1933 27.0589 -2.5678
# 6 3.2248 -16.1005 -19.1547 -3.6047 -2.5678 35.0899
#
#
#
# Elastic Compliance Matrix: (Units=1/GPa)
#
#
# Indices 1 2 3 4 5 6 
#
# 1 0.010804 -0.006477 -0.001959 -0.000206 -0.001319 -0.005152
# 2 -0.006477 0.030617 -0.005772 -0.018173 0.003692 0.009896
# 3 -0.001959 -0.005772 0.012855 0.011975 -0.005932 0.005345
# 4 -0.000206 -0.018173 0.011975 0.057202 -0.009944 0.003366
# 5 -0.001319 0.003692 -0.005932 -0.009944 0.040908 0.000550
# 6 -0.005152 0.009896 0.005345 0.003366 0.000550 0.036816
#
#
# Mechanical properties :
#
#
# Convention : Reuss Voigt Hill
#
# Bulk Modulus (GPa) = 38.67035 52.39980 45.53508
# Shear Modulus (GPa) = 22.10055 31.64244 26.87150
#
# Velocity S-wave (km/s) = 3.20290 3.83245 3.53173
# Velocity P-wave (km/s) = 5.62388 6.62619 6.14550
#
# Compressibility (1/GPa) = 0.02585960
#
# Stress axis : x y z
#
# Youngs Moduli (GPa) = 92.55741 32.66131 77.79352
#
# Poissons Ratio (x) = 0.21154 0.15242
# Poissons Ratio (y) = 0.59947 0.44903
# Poissons Ratio (z) = 0.18135 0.18853
#
# Static dielectric constant tensor:
#      x y z
#    x 1.783310 0.061640 0.045320 
#    y 0.061640 1.966350 0.030590 
#    z 0.045320 0.030590 1.919850 
# 
# From -- ./inp_files/239798.got.cif
#   From: 2010.05.17/outbox.cif.g08.bks.cpg/sg2_120_cif.got.tgz:239798.got - 2010.06.03 11:33:40.
