data_PCOD9043442
_publ_section_title
;
Structure prediction by ZEFSAII (Michael W. Deem and Ramdas Pophale) SiO2 
 PCOD9043442
Probable space group: P -1
;
_chemical_formula_sum "Si O2"
_cell_formula_units_Z 16
_cell_length_a 7.084161
_cell_length_b 9.377155
_cell_length_c 12.576657
_cell_angle_alpha 100.333540
_cell_angle_beta 54.461241
_cell_angle_gamma 107.005071
_cell_volume 650.060865
_symmetry_space_group_name_H-M "P -1"
_symmetry_group_IT_number 2
_symmetry_cell_setting 'triclinic'
loop_
_space_group_symop_operation_xyz
x,y,z
-x,-y,-z
loop_
_atom_site_type_symbol
_atom_site_label
_atom_site_fract_x
_atom_site_fract_y
_atom_site_fract_z
Si Si1 0.891000 0.063072 0.442904
Si Si2 0.816894 0.103797 0.106994
Si Si3 0.588140 0.830370 0.390542
Si Si4 0.592115 0.177917 0.998312
Si Si5 0.039516 0.557721 0.372666
Si Si6 0.335290 0.668431 0.660562
Si Si7 0.416878 0.810496 0.237947
Si Si8 0.303335 0.328364 0.266009
O O1 0.622994 0.082317 0.552049
O O2 0.062477 0.213687 0.367330
O O3 0.840104 0.939506 0.348814
O O4 0.000000 0.000000 0.500000
O O5 0.806254 0.198674 0.015843
O O6 0.819446 0.221198 0.220274
O O7 0.564039 0.983546 0.197676
O O8 0.000000 0.000000 0.000000
O O9 0.144738 0.733391 0.354569
O O10 0.490258 0.740850 0.516847
O O11 0.576452 0.753408 0.269125
O O12 0.401581 0.245929 0.129638
O O13 0.613334 0.238910 0.881375
O O14 0.500000 0.000000 0.000000
O O15 0.249084 0.478661 0.261731
O O16 0.000000 0.500000 0.500000
O O17 0.824790 0.484061 0.355830
O O18 0.516320 0.646313 0.690188
#
# Coordination Sequence:
#
# PCOD9043442 Si02
#       8
#     2   2   2   2   2   2   2   2
#     4  11  21  34  66  98 130 173 228 289 352 397
#     4  10  23  45  71 103 136 181 235 299 347 405
#     4  11  22  38  61 101 134 171 232 283 348 411
#     4   9  23  42  68  98 137 176 232 288 344 411
#     4  12  26  47  70 100 145 191 225 285 352 424
#     4  11  23  45  71  99 141 176 237 293 347 412
#     4  11  24  44  65 100 141 181 234 281 347 427
#     4  11  24  44  68 100 140 185 230 292 349 407
#
# _framework density 24.61308
#
# number of rings (size 3 to 8) (size 9 to 14) (size 15 to 20)
#    0.000    1.250    3.750    1.500    7.000    1.000 
#    2.250    1.250    0.000    0.000    0.000    0.000 
#    0.000    0.000    0.000    0.000    0.000    0.000 
#
# Total GULP energy -89236.183305 kJ/mol
# GULP energy per Si atom -5577.261457 kJ/mol
# Density = 2.455706 g / cm^3
# Si number density = 24.613080 Si / 1000 Ang^3
#
#
#
# Elastic Constant Matrix: (Units=GPa)
#
#
# Indices 1 2 3 4 5 6 
#
# 1 110.9129 45.6474 36.9923 0.9555 20.2873 12.4979
# 2 45.6474 118.3954 26.3154 1.6935 5.8148 30.8712
# 3 36.9923 26.3154 126.2801 0.3500 30.9228 -1.3180
# 4 0.9555 1.6935 0.3500 31.5176 -5.8956 -2.1170
# 5 20.2873 5.8148 30.9228 -5.8956 46.7203 12.5612
# 6 12.4979 30.8712 -1.3180 -2.1170 12.5612 55.2257
#
#
#
# Elastic Compliance Matrix: (Units=1/GPa)
#
#
# Indices 1 2 3 4 5 6 
#
# 1 0.011933 -0.004125 -0.001715 -0.000794 -0.003737 0.000384
# 2 -0.004125 0.012117 -0.002253 -0.000289 0.003542 -0.006711
# 3 -0.001715 -0.002253 0.010669 -0.001040 -0.007103 0.003478
# 4 -0.000794 -0.000289 -0.001040 0.032760 0.005092 0.000414
# 5 -0.003737 0.003542 -0.007103 0.005092 0.030066 -0.007947
# 6 0.000384 -0.006711 0.003478 0.000414 -0.007947 0.023678
#
#
# Mechanical properties :
#
#
# Convention : Reuss Voigt Hill
#
# Bulk Modulus (GPa) = 53.95633 63.72205 58.83919
# Shear Modulus (GPa) = 34.82190 43.13494 38.97842
#
# Velocity S-wave (km/s) = 3.76543 4.19085 3.98382
# Velocity P-wave (km/s) = 6.39328 7.02591 6.71704
#
# Compressibility (1/GPa) = 0.01853351
#
# Stress axis : x y z
#
# Youngs Moduli (GPa) = 83.80382 82.52606 93.72604
#
# Poissons Ratio (x) = 0.34039 0.16072
# Poissons Ratio (y) = 0.34566 0.21121
# Poissons Ratio (z) = 0.14371 0.18597
#
# Static dielectric constant tensor:
#      x y z
#    x 2.081640 -0.312670 0.001830 
#    y -0.312670 3.830930 0.352130 
#    z 0.001830 0.352130 2.181100 
# 
# From -- ./inp_files/390625.got.cif
#   From: 2010.05.17/outbox.cif.g08.bks.cpg/sg2_196_cif.got.tgz:390625.got - 2010.06.03 11:33:40.
