data_PCOD9043664
_publ_section_title
;
Structure prediction by ZEFSAII (Michael W. Deem and Ramdas Pophale) SiO2 
 PCOD9043664
Probable space group: P -1
;
_chemical_formula_sum "Si O2"
_cell_formula_units_Z 12
_cell_length_a 11.477551
_cell_length_b 5.141514
_cell_length_c 9.205350
_cell_angle_alpha 74.483236
_cell_angle_beta 114.421066
_cell_angle_gamma 106.207306
_cell_volume 467.723062
_symmetry_space_group_name_H-M "P -1"
_symmetry_group_IT_number 2
_symmetry_cell_setting 'triclinic'
loop_
_space_group_symop_operation_xyz
x,y,z
-x,-y,-z
loop_
_atom_site_type_symbol
_atom_site_label
_atom_site_fract_x
_atom_site_fract_y
_atom_site_fract_z
Si Si1 0.793184 0.900523 0.111033
Si Si2 0.035927 0.307163 0.174397
Si Si3 0.550811 0.651496 0.855193
Si Si4 0.344261 0.927304 0.535043
Si Si5 0.661476 0.493379 0.660346
Si Si6 0.836704 0.329049 0.299087
O O1 0.758808 0.137375 0.161014
O O2 0.585252 0.448959 0.778993
O O3 0.689418 0.842156 0.939192
O O4 0.944426 0.013974 0.132785
O O5 0.980606 0.364925 0.298395
O O6 0.189348 0.365846 0.248944
O O7 0.000000 0.500000 0.000000
O O8 0.445233 0.810937 0.708533
O O9 0.793616 0.620246 0.240026
O O10 0.340008 0.763413 0.406575
O O11 0.202382 0.839881 0.550397
O O12 0.383976 0.251727 0.483342
O O13 0.500000 0.500000 0.000000
#
# Coordination Sequence:
#
# PCOD9043664 Si02
#       6
#     2   2   2   2   2   2
#     4  10  24  45  77 115 140 194 260 308 373 425
#     4  10  26  47  80 112 153 191 264 309 382 446
#     4  12  27  51  84 108 156 200 264 312 365 461
#     4  12  28  51  73 115 157 201 249 302 398 447
#     4  12  30  50  76 112 157 201 244 323 379 452
#     4  10  23  45  73 112 148 194 246 310 372 450
#
# _framework density 25.656205
#
# number of rings (size 3 to 8) (size 9 to 14) (size 15 to 20)
#    1.000    0.000    1.667    3.000    4.667    4.667 
#    0.000    0.000    0.000    0.000    0.000    0.000 
#    0.000    0.000    0.000    0.000    0.000    0.000 
#
# Total GULP energy -67178.523211 kJ/mol
# GULP energy per Si atom -5598.210268 kJ/mol
# Density = 2.559781 g / cm^3
# Si number density = 25.656205 Si / 1000 Ang^3
#
#
#
# Elastic Constant Matrix: (Units=GPa)
#
#
# Indices 1 2 3 4 5 6 
#
# 1 153.9554 1.2449 31.1528 3.9903 -27.2235 0.2160
# 2 1.2449 115.5330 16.0910 6.8106 -15.2087 7.8092
# 3 31.1528 16.0910 91.5716 12.4378 -3.3856 3.6574
# 4 3.9903 6.8106 12.4378 45.3312 14.7517 -2.3605
# 5 -27.2235 -15.2087 -3.3856 14.7517 49.1256 1.3642
# 6 0.2160 7.8092 3.6574 -2.3605 1.3642 25.8217
#
#
#
# Elastic Compliance Matrix: (Units=1/GPa)
#
#
# Indices 1 2 3 4 5 6 
#
# 1 0.007937 0.001074 -0.002421 -0.001896 0.005147 -0.000494
# 2 0.001074 0.009816 -0.001413 -0.002807 0.004470 -0.003270
# 3 -0.002421 -0.001413 0.012480 -0.003101 0.000057 -0.001606
# 4 -0.001896 -0.002807 -0.003101 0.027107 -0.010394 0.004331
# 5 0.005147 0.004470 0.000057 -0.010394 0.027823 -0.003823
# 6 -0.000494 -0.003270 -0.001606 0.004331 -0.003823 0.040546
#
#
# Mechanical properties :
#
#
# Convention : Reuss Voigt Hill
#
# Bulk Modulus (GPa) = 40.46596 50.89303 45.67950
# Shear Modulus (GPa) = 35.85103 44.89377 40.37240
#
# Velocity S-wave (km/s) = 3.74219 4.18762 3.97116
# Velocity P-wave (km/s) = 5.87185 6.57732 6.23457
#
# Compressibility (1/GPa) = 0.02471213
#
# Stress axis : x y z
#
# Youngs Moduli (GPa) = 125.99800 101.87694 80.12891
#
# Poissons Ratio (x) = -0.10946 0.19401
# Poissons Ratio (y) = -0.13538 0.11324
# Poissons Ratio (z) = 0.30507 0.14398
#
# Static dielectric constant tensor:
#      x y z
#    x 2.115790 0.037640 0.037730 
#    y 0.037640 1.974580 0.006740 
#    z 0.037730 0.006740 2.005540 
# 
# From -- ./inp_files/410151.got.cif
#   From: 2010.05.17/outbox.cif.g08.bks.cpg/sg2_206_cif.got.tgz:410151.got - 2010.06.03 11:33:40.
