data_PCOD9043193
_publ_section_title
;
Structure prediction by ZEFSAII (Michael W. Deem and Ramdas Pophale) SiO2 
 PCOD9043193
Probable space group: P -1
;
_chemical_formula_sum "Si O2"
_cell_formula_units_Z 16
_cell_length_a 12.133074
_cell_length_b 13.608219
_cell_length_c 13.936168
_cell_angle_alpha 30.763277
_cell_angle_beta 44.696546
_cell_angle_gamma 66.807516
_cell_volume 660.265283
_symmetry_space_group_name_H-M "P -1"
_symmetry_group_IT_number 2
_symmetry_cell_setting 'triclinic'
loop_
_space_group_symop_operation_xyz
x,y,z
-x,-y,-z
loop_
_atom_site_type_symbol
_atom_site_label
_atom_site_fract_x
_atom_site_fract_y
_atom_site_fract_z
Si Si1 0.796728 0.911858 0.249573
Si Si2 0.557445 0.101051 0.271817
Si Si3 0.473529 0.219781 0.918200
Si Si4 0.779072 0.146985 0.772690
Si Si5 0.215565 0.344374 0.335922
Si Si6 0.795417 0.778770 0.766049
Si Si7 0.772515 0.374344 0.227740
Si Si8 0.458653 0.340105 0.559036
O O1 0.742695 0.097878 0.134178
O O2 0.778392 0.794188 0.461774
O O3 0.628515 0.710771 0.452538
O O4 0.000000 0.000000 0.000000
O O5 0.372928 0.900945 0.487268
O O6 0.500000 0.000000 0.500000
O O7 0.619174 0.368781 0.004249
O O8 0.674647 0.259842 0.781920
O O9 0.513903 0.412549 0.649317
O O10 0.367408 0.224807 0.071869
O O11 0.317860 0.960592 0.181599
O O12 0.010007 0.308287 0.494118
O O13 0.700903 0.912103 0.081453
O O14 0.210144 0.218782 0.346582
O O15 0.772036 0.537785 0.009618
O O16 0.000000 0.000000 0.500000
O O17 0.667732 0.390607 0.372515
O O18 0.000000 0.500000 0.000000
#
# Coordination Sequence:
#
# PCOD9043193 Si02
#       8
#     2   2   2   2   2   2   2   2
#     4  11  26  49  73 107 149 196 249 308 379 448
#     4  11  26  52  73 113 152 193 257 306 375 462
#     4  10  24  43  69 104 147 190 244 312 374 442
#     4  11  23  43  73 108 144 192 245 310 374 447
#     4  12  26  47  77 108 150 203 248 309 384 445
#     4  11  23  46  72 109 147 193 252 305 378 447
#     4  10  24  46  73 107 147 197 244 314 373 443
#     4  10  23  45  69 105 146 187 252 304 372 443
#
# _framework density 24.232683999999999
#
# number of rings (size 3 to 8) (size 9 to 14) (size 15 to 20)
#    0.000    1.250    3.750    0.375    3.500    4.000 
#    6.750    0.000    0.000    0.000    0.000    0.000 
#    0.000    0.000    0.000    0.000    0.000    0.000 
#
# Total GULP energy -89560.495797 kJ/mol
# GULP energy per Si atom -5597.530987 kJ/mol
# Density = 2.417753 g / cm^3
# Si number density = 24.232684 Si / 1000 Ang^3
#
#
#
# Elastic Constant Matrix: (Units=GPa)
#
#
# Indices 1 2 3 4 5 6 
#
# 1 77.4768 24.4337 52.9541 7.1998 -7.6324 -29.8338
# 2 24.4337 106.5769 54.2611 7.5293 -15.6900 -17.4482
# 3 52.9541 54.2611 134.1435 4.2531 -9.0333 -1.2895
# 4 7.1998 7.5293 4.2531 45.8925 -11.4109 -3.5010
# 5 -7.6324 -15.6900 -9.0333 -11.4109 51.0015 9.3419
# 6 -29.8338 -17.4482 -1.2895 -3.5010 9.3419 15.7067
#
#
#
# Elastic Compliance Matrix: (Units=1/GPa)
#
#
# Indices 1 2 3 4 5 6 
#
# 1 -0.070988 -0.030099 0.039746 0.004004 0.020328 -0.176208
# 2 -0.030099 0.002340 0.010953 0.001116 0.009192 -0.058891
# 3 0.039746 0.010953 -0.012397 -0.002411 -0.010313 0.092241
# 4 0.004004 0.001116 -0.002411 0.022967 0.003516 0.011675
# 5 0.020328 0.009192 -0.010313 0.003516 0.017402 0.038410
# 6 -0.176208 -0.058891 0.092241 0.011675 0.038410 -0.349117
#
#
# Mechanical properties :
#
#
# Convention : Reuss Voigt Hill
#
# Bulk Modulus (GPa) = -25.09705 64.61057 19.75676
# Shear Modulus (GPa) = -11.25431 34.95668 11.85119
#
# Velocity S-wave (km/s) = -2.15739 3.80220 2.21386
# Velocity P-wave (km/s) = 4.07247 6.78204 3.83478
#
# Compressibility (1/GPa) = -0.03984532
#
# Stress axis : x y z
#
# Youngs Moduli (GPa) = -14.08694 427.33940 -80.66331
#
# Poissons Ratio (x) = 12.86263 3.20606
# Poissons Ratio (y) = -0.42401 0.88350
# Poissons Ratio (z) = 0.55990 -4.68060
#
# Static dielectric constant tensor:
#      x y z
#    x 1.801390 -0.091430 -0.019960 
#    y -0.091430 2.019070 -0.056150 
#    z -0.019960 -0.056150 1.942820 
# 
# From -- ./inp_files/226275.got.cif
#   From: 2010.05.17/outbox.cif.g08.bks.cpg/sg2_114_cif.got.tgz:226275.got - 2010.06.03 11:33:40.
