data_PCOD9043250
_publ_section_title
;
Structure prediction by ZEFSAII (Michael W. Deem and Ramdas Pophale) SiO2 
 PCOD9043250
Probable space group: P -1
;
_chemical_formula_sum "Si O2"
_cell_formula_units_Z 14
_cell_length_a 20.510566
_cell_length_b 9.314250
_cell_length_c 12.115328
_cell_angle_alpha 37.252513
_cell_angle_beta 152.052635
_cell_angle_gamma 141.568179
_cell_volume 629.829390
_symmetry_space_group_name_H-M "P -1"
_symmetry_group_IT_number 2
_symmetry_cell_setting 'triclinic'
loop_
_space_group_symop_operation_xyz
x,y,z
-x,-y,-z
loop_
_atom_site_type_symbol
_atom_site_label
_atom_site_fract_x
_atom_site_fract_y
_atom_site_fract_z
Si Si1 0.077264 0.184109 0.099571
Si Si2 0.655991 0.685413 0.925471
Si Si3 0.621278 0.722111 0.600223
Si Si4 0.986365 0.656478 0.694392
Si Si5 0.252691 0.084881 0.856194
Si Si6 0.995478 0.752640 0.394945
Si Si7 0.511861 0.102143 0.079163
O O1 0.228926 0.326547 0.183822
O O2 0.990519 0.377044 0.888236
O O3 0.091894 0.003940 0.331053
O O4 0.000000 0.000000 0.000000
O O5 0.644743 0.816852 0.944490
O O6 0.829442 0.751126 0.133883
O O7 0.582135 0.394731 0.006798
O O8 0.603639 0.746331 0.690110
O O9 0.500000 0.500000 0.500000
O O10 0.612653 0.973540 0.377351
O O11 0.832679 0.719468 0.435070
O O12 0.027680 0.725603 0.586687
O O13 0.119612 0.848757 0.837965
O O14 0.355702 0.034151 0.946433
O O15 0.000000 0.500000 0.500000
O O16 0.500000 0.000000 0.000000
#
# Coordination Sequence:
#
# PCOD9043250 Si02
#       7
#     2   2   2   2   2   2   2
#     4  12  23  40  72 109 134 183 241 290 349 415
#     4  11  24  44  64 101 138 185 232 283 355 414
#     4  12  25  42  68 107 141 177 236 295 349 409
#     4  10  23  45  69  98 147 180 234 291 348 419
#     4  10  25  47  69 101 144 194 226 288 362 419
#     4  11  21  37  69 103 137 177 232 291 345 409
#     4  12  26  44  73  99 137 185 239 288 349 424
#
# _framework density 22.228241000000001
#
# number of rings (size 3 to 8) (size 9 to 14) (size 15 to 20)
#    0.000    0.857    4.286    2.143    6.000    0.571 
#    0.000   10.714    0.000    0.000    0.000    0.000 
#    0.000    0.000    0.000    0.000    0.000    0.000 
#
# Total GULP energy -78262.088042 kJ/mol
# GULP energy per Si atom -5590.149146 kJ/mol
# Density = 2.217765 g / cm^3
# Si number density = 22.228241 Si / 1000 Ang^3
#
#
#
# Elastic Constant Matrix: (Units=GPa)
#
#
# Indices 1 2 3 4 5 6 
#
# 1 94.7618 3.0427 25.2818 3.9190 -2.0599 -13.9104
# 2 3.0427 73.2580 14.8670 10.0662 -11.5431 -9.6088
# 3 25.2818 14.8670 74.6828 -9.8014 -12.7402 -8.3702
# 4 3.9190 10.0662 -9.8014 49.3024 0.1235 -1.1168
# 5 -2.0599 -11.5431 -12.7402 0.1235 50.9996 2.0081
# 6 -13.9104 -9.6088 -8.3702 -1.1168 2.0081 34.4352
#
#
#
# Elastic Compliance Matrix: (Units=1/GPa)
#
#
# Indices 1 2 3 4 5 6 
#
# 1 0.012345 0.001100 -0.004263 -0.001957 -0.000479 0.004222
# 2 0.001100 0.015681 -0.003116 -0.003830 0.002676 0.003782
# 3 -0.004263 -0.003116 0.016733 0.004326 0.003236 0.001427
# 4 -0.001957 -0.003830 0.004326 0.022078 0.000085 -0.000096
# 5 -0.000479 0.002676 0.003236 0.000085 0.020998 0.000118
# 6 0.004222 0.003782 0.001427 -0.000096 0.000118 0.032138
#
#
# Mechanical properties :
#
#
# Convention : Reuss Voigt Hill
#
# Bulk Modulus (GPa) = 31.05619 36.56507 33.81063
# Shear Modulus (GPa) = 34.90015 40.24818 37.57416
#
# Velocity S-wave (km/s) = 3.96672 4.25982 4.11588
# Velocity P-wave (km/s) = 5.91453 6.37811 6.15069
#
# Compressibility (1/GPa) = 0.03219970
#
# Stress axis : x y z
#
# Youngs Moduli (GPa) = 81.00352 63.77149 59.76132
#
# Poissons Ratio (x) = -0.07012 0.25478
# Poissons Ratio (y) = -0.08907 0.18622
# Poissons Ratio (z) = 0.34534 0.19872
#
# Static dielectric constant tensor:
#      x y z
#    x 1.853480 -0.020850 -0.029730 
#    y -0.020850 1.873860 0.049550 
#    z -0.029730 0.049550 1.775350 
# 
# From -- ./inp_files/469178.got.cif
#   From: 2010.05.17/outbox.cif.g08.bks.cpg/sg2_235_cif.got.tgz:469178.got - 2010.06.03 11:33:40.
