data_PCOD9043494
_publ_section_title
;
Structure prediction by ZEFSAII (Michael W. Deem and Ramdas Pophale) SiO2 
 PCOD9043494
Probable space group: P -1
;
_chemical_formula_sum "Si O2"
_cell_formula_units_Z 14
_cell_length_a 26.452106
_cell_length_b 13.552473
_cell_length_c 10.921725
_cell_angle_alpha 36.139042
_cell_angle_beta 157.230013
_cell_angle_gamma 155.227094
_cell_volume 624.288565
_symmetry_space_group_name_H-M "P -1"
_symmetry_group_IT_number 2
_symmetry_cell_setting 'triclinic'
loop_
_space_group_symop_operation_xyz
x,y,z
-x,-y,-z
loop_
_atom_site_type_symbol
_atom_site_label
_atom_site_fract_x
_atom_site_fract_y
_atom_site_fract_z
Si Si1 0.652743 0.573748 0.359852
Si Si2 0.714311 0.228777 0.223045
Si Si3 0.710140 0.263439 0.683957
Si Si4 0.109342 0.486653 0.419774
Si Si5 0.845530 0.995342 0.783797
Si Si6 0.268956 0.399125 0.235364
Si Si7 0.037788 0.047646 0.681474
O O1 0.716228 0.449377 0.578183
O O2 0.595868 0.509350 0.439225
O O3 0.500000 0.500000 0.000000
O O4 0.827815 0.857502 0.455049
O O5 0.825513 0.373999 0.448795
O O6 0.787079 0.111889 0.468452
O O7 0.724855 0.401780 0.988891
O O8 0.500000 0.000000 0.000000
O O9 0.765043 0.334574 0.592373
O O10 0.500000 0.000000 0.500000
O O11 0.888656 0.322237 0.072234
O O12 0.135289 0.312121 0.658266
O O13 0.721572 0.728048 0.724268
O O14 0.853835 0.992622 0.954349
O O15 0.061310 0.177105 0.046254
O O16 0.000000 0.000000 0.500000
#
# Coordination Sequence:
#
# PCOD9043494 Si02
#       7
#     2   2   2   2   2   2   2
#     4  11  24  42  67 103 135 181 238 297 355 429
#     4  12  27  44  68 102 142 190 235 292 361 428
#     4  11  25  44  71 106 142 189 235 298 361 427
#     4  11  24  46  71 103 146 184 242 299 355 425
#     4  10  23  45  71  95 135 185 239 290 353 422
#     4  10  23  46  68  97 133 186 238 290 355 423
#     4  11  21  42  69  95 135 185 232 294 360 412
#
# _framework density 22.425528
#
# number of rings (size 3 to 8) (size 9 to 14) (size 15 to 20)
#    0.000    1.143    2.857    3.000    4.000    2.857 
#    0.000    0.000    0.000    0.000    0.000    0.000 
#    0.000    0.000    0.000    0.000    0.000    0.000 
#
# Total GULP energy -78149.115531 kJ/mol
# GULP energy per Si atom -5582.079681 kJ/mol
# Density = 2.237449 g / cm^3
# Si number density = 22.425528 Si / 1000 Ang^3
#
#
#
# Elastic Constant Matrix: (Units=GPa)
#
#
# Indices 1 2 3 4 5 6 
#
# 1 63.4720 12.7601 50.0557 -11.5614 -19.4948 12.4592
# 2 12.7601 36.9143 109.5879 -31.5454 18.7796 47.9015
# 3 50.0557 109.5879 53.7064 5.8602 -57.0166 -15.4536
# 4 -11.5614 -31.5454 5.8602 35.4579 18.5877 22.1762
# 5 -19.4948 18.7796 -57.0166 18.5877 24.8298 -17.3011
# 6 12.4592 47.9015 -15.4536 22.1762 -17.3011 17.4230
#
#
#
# Elastic Compliance Matrix: (Units=1/GPa)
#
#
# Indices 1 2 3 4 5 6 
#
# 1 0.022690 -0.002686 -0.003577 -0.000167 0.011479 -0.000401
# 2 -0.002686 0.004797 0.003060 -0.004357 0.007967 0.004903
# 3 -0.003577 0.003060 0.008325 0.009661 -0.002399 -0.013149
# 4 -0.000167 -0.004357 0.009661 0.023489 0.004330 -0.004930
# 5 0.011479 0.007967 -0.002399 0.004330 0.026637 -0.011300
# 6 -0.000401 0.004903 -0.013149 -0.004930 -0.011300 0.027594
#
#
# Mechanical properties :
#
#
# Convention : Reuss Voigt Hill
#
# Bulk Modulus (GPa) = 34.00807 55.43335 44.72071
# Shear Modulus (GPa) = 38.53858 14.32140 26.42999
#
# Velocity S-wave (km/s) = 4.14999 2.52984 3.43675
# Velocity P-wave (km/s) = 6.17746 5.77113 5.97775
#
# Compressibility (1/GPa) = 0.02940478
#
# Stress axis : x y z
#
# Youngs Moduli (GPa) = 44.07301 208.47201 120.11295
#
# Poissons Ratio (x) = 0.56005 0.42962
# Poissons Ratio (y) = 0.11840 -0.36751
# Poissons Ratio (z) = 0.15764 -0.63786
#
# Static dielectric constant tensor:
#      x y z
#    x 1.881490 -0.003780 -0.028080 
#    y -0.003780 1.823670 -0.027630 
#    z -0.028080 -0.027630 1.868680 
# 
# From -- ./inp_files/458417.got.cif
#   From: 2010.05.17/outbox.cif.g08.bks.cpg/sg2_230_cif.got.tgz:458417.got - 2010.06.03 11:33:40.
