data_PCOD9043906
_publ_section_title
;
Structure prediction by ZEFSAII (Michael W. Deem and Ramdas Pophale) SiO2 
 PCOD9043906
Probable space group: P -1
;
_chemical_formula_sum "Si O2"
_cell_formula_units_Z 14
_cell_length_a 5.681694
_cell_length_b 11.364467
_cell_length_c 12.329394
_cell_angle_alpha 118.197305
_cell_angle_beta 129.009018
_cell_angle_gamma 71.786049
_cell_volume 545.062146
_symmetry_space_group_name_H-M "P -1"
_symmetry_group_IT_number 2
_symmetry_cell_setting 'triclinic'
loop_
_space_group_symop_operation_xyz
x,y,z
-x,-y,-z
loop_
_atom_site_type_symbol
_atom_site_label
_atom_site_fract_x
_atom_site_fract_y
_atom_site_fract_z
Si Si1 0.462857 0.454246 0.845391
Si Si2 0.267654 0.842205 0.948377
Si Si3 0.598274 0.453506 0.658479
Si Si4 0.098705 0.369212 0.333870
Si Si5 0.139153 0.003111 0.381223
Si Si6 0.043800 0.222317 0.605163
Si Si7 0.121474 0.125580 0.959077
O O1 0.697373 0.460425 0.815740
O O2 0.196198 0.546945 0.754974
O O3 0.349986 0.302820 0.742077
O O4 0.500000 0.500000 0.000000
O O5 0.018581 0.779886 0.769250
O O6 0.274767 0.004044 0.021390
O O7 0.602871 0.798745 0.985978
O O8 0.121993 0.800053 0.002576
O O9 0.258615 0.411722 0.509556
O O10 0.663445 0.590395 0.673891
O O11 0.789572 0.333613 0.605831
O O12 0.021191 0.146910 0.451752
O O13 0.500000 0.000000 0.500000
O O14 0.986559 0.893969 0.366898
O O15 0.058311 0.951655 0.218004
#
# Coordination Sequence:
#
# PCOD9043906 Si02
#       7
#     2   2   2   2   2   2   2
#     4  11  25  43  69 103 140 181 232 296 362 427
#     4  10  24  43  68 102 134 193 225 299 349 428
#     4  10  23  46  66 104 135 182 243 293 348 433
#     4  10  24  41  72  99 139 187 238 288 361 416
#     4  11  25  42  70 100 139 184 227 293 351 432
#     4  10  25  42  67 103 131 185 233 285 359 421
#     4  10  25  44  66 101 144 176 244 283 359 420
#
# _framework density 25.685146
#
# number of rings (size 3 to 8) (size 9 to 14) (size 15 to 20)
#    0.000    1.714    0.000    1.286   12.000    5.714 
#    0.000    0.000    0.000    0.000    0.000    0.000 
#    0.000    0.000    0.000    0.000    0.000    0.000 
#
# Total GULP energy -78210.776777 kJ/mol
# GULP energy per Si atom -5586.484056 kJ/mol
# Density = 2.562669 g / cm^3
# Si number density = 25.685146 Si / 1000 Ang^3
#
#
#
# Elastic Constant Matrix: (Units=GPa)
#
#
# Indices 1 2 3 4 5 6 
#
# 1 140.2889 23.1945 64.5431 2.9175 -26.6671 13.6134
# 2 23.1945 66.4184 24.8381 14.9658 -5.5139 13.3269
# 3 64.5431 24.8381 178.4298 -1.2128 -28.7140 22.3590
# 4 2.9175 14.9658 -1.2128 37.2374 10.8882 6.7835
# 5 -26.6671 -5.5139 -28.7140 10.8882 46.7284 1.2585
# 6 13.6134 13.3269 22.3590 6.7835 1.2585 39.1075
#
#
#
# Elastic Compliance Matrix: (Units=1/GPa)
#
#
# Indices 1 2 3 4 5 6 
#
# 1 0.009392 -0.001538 -0.002380 -0.001129 0.004015 -0.001318
# 2 -0.001538 0.018713 -0.001217 -0.007431 0.002420 -0.003935
# 3 -0.002380 -0.001217 0.007545 0.000618 0.003079 -0.003277
# 4 -0.001129 -0.007431 0.000618 0.033036 -0.008762 -0.002876
# 5 0.004015 0.002420 0.003079 -0.008762 0.028001 -0.003364
# 6 -0.001318 -0.003935 -0.003277 -0.002876 -0.003364 0.029851
#
#
# Mechanical properties :
#
#
# Convention : Reuss Voigt Hill
#
# Bulk Modulus (GPa) = 39.39854 67.80981 53.60418
# Shear Modulus (GPa) = 34.41973 42.78542 38.60257
#
# Velocity S-wave (km/s) = 3.66466 4.08581 3.88095
# Velocity P-wave (km/s) = 5.76876 6.97969 6.40292
#
# Compressibility (1/GPa) = 0.02538165
#
# Stress axis : x y z
#
# Youngs Moduli (GPa) = 106.47718 53.43916 132.53979
#
# Poissons Ratio (x) = 0.08217 0.31540
# Poissons Ratio (y) = 0.16373 0.16125
# Poissons Ratio (z) = 0.25338 0.06501
#
# Static dielectric constant tensor:
#      x y z
#    x 2.214020 -0.023750 -0.011020 
#    y -0.023750 2.053280 -0.015330 
#    z -0.011020 -0.015330 1.989600 
# 
# From -- ./inp_files/365338.got.cif
#   From: 2010.05.17/outbox.cif.g08.bks.cpg/sg2_183_cif.got.tgz:365338.got - 2010.06.03 11:33:40.
