data_PCOD9043048
_publ_section_title
;
Structure prediction by ZEFSAII (Michael W. Deem and Ramdas Pophale) SiO2 
 PCOD9043048
Probable space group: P -1
;
_chemical_formula_sum "Si O2"
_cell_formula_units_Z 14
_cell_length_a 19.138795
_cell_length_b 14.663393
_cell_length_c 8.029014
_cell_angle_alpha 53.135438
_cell_angle_beta 35.325666
_cell_angle_gamma 29.960736
_cell_volume 604.420279
_symmetry_space_group_name_H-M "P -1"
_symmetry_group_IT_number 2
_symmetry_cell_setting 'triclinic'
loop_
_space_group_symop_operation_xyz
x,y,z
-x,-y,-z
loop_
_atom_site_type_symbol
_atom_site_label
_atom_site_fract_x
_atom_site_fract_y
_atom_site_fract_z
Si Si1 0.651077 0.324869 0.529902
Si Si2 0.283893 0.051671 0.670807
Si Si3 0.064404 0.455359 0.728774
Si Si4 0.749547 0.444713 0.769329
Si Si5 0.650912 0.875374 0.001287
Si Si6 0.966251 0.158433 0.350111
Si Si7 0.155293 0.054864 0.560709
O O1 0.500000 0.500000 0.500000
O O2 0.819677 0.275347 0.344459
O O3 0.775248 0.123967 0.428387
O O4 0.487304 0.405296 0.898644
O O5 0.238018 0.023161 0.617098
O O6 0.157104 0.266180 0.696354
O O7 0.521713 0.912427 0.357129
O O8 0.188688 0.044086 0.004389
O O9 0.216172 0.446049 0.417814
O O10 0.854993 0.644076 0.826992
O O11 0.000000 0.500000 0.000000
O O12 0.841130 0.320460 0.558585
O O13 0.909429 0.267391 0.788423
O O14 0.737855 0.936233 0.784299
O O15 0.500000 0.000000 0.000000
O O16 0.000000 0.000000 0.500000
#
# Coordination Sequence:
#
# PCOD9043048 Si02
#       7
#     2   2   2   2   2   2   2
#     4  12  27  44  70  99 131 182 234 269 327 399
#     4  11  24  43  71 100 138 173 222 282 329 401
#     4  11  23  43  68 104 133 170 223 274 342 393
#     4  11  24  47  70  96 140 175 221 284 331 395
#     4   9  22  41  68  97 132 171 216 269 338 391
#     4  12  26  45  68  98 138 183 221 271 338 394
#     4  10  23  45  68 102 134 176 222 279 337 392
#
# _framework density 23.162690000000001
#
# number of rings (size 3 to 8) (size 9 to 14) (size 15 to 20)
#    0.000    1.143    2.857    2.143    2.000   12.571 
#    0.000    0.000    0.000    0.000    0.000    0.000 
#    0.000    0.000    0.000    0.000    0.000    0.000 
#
# Total GULP energy -78347.750758 kJ/mol
# GULP energy per Si atom -5596.267911 kJ/mol
# Density = 2.310997 g / cm^3
# Si number density = 23.162690 Si / 1000 Ang^3
#
#
#
# Elastic Constant Matrix: (Units=GPa)
#
#
# Indices 1 2 3 4 5 6 
#
# 1 78.8289 4.9878 -7.3057 4.4050 12.0695 5.3578
# 2 4.9878 75.7723 6.7731 -12.9097 -5.9233 12.5824
# 3 -7.3057 6.7731 130.3141 -6.2623 -1.8743 5.8113
# 4 4.4050 -12.9097 -6.2623 25.2620 -0.8601 -2.5318
# 5 12.0695 -5.9233 -1.8743 -0.8601 28.2369 8.8395
# 6 5.3578 12.5824 5.8113 -2.5318 8.8395 37.6278
#
#
#
# Elastic Compliance Matrix: (Units=1/GPa)
#
#
# Indices 1 2 3 4 5 6 
#
# 1 0.014078 -0.002082 0.000637 -0.003594 -0.006482 -0.000126
# 2 -0.002082 0.016267 -0.000203 0.008237 0.006440 -0.006071
# 3 0.000637 -0.000203 0.007865 0.001629 0.000658 -0.001283
# 4 -0.003594 0.008237 0.001629 0.044930 0.004938 -0.000631
# 5 -0.006482 0.006440 0.000658 0.004938 0.043222 -0.011154
# 6 -0.000126 -0.006071 -0.001283 -0.000631 -0.011154 0.031400
#
#
# Mechanical properties :
#
#
# Convention : Reuss Voigt Hill
#
# Bulk Modulus (GPa) = 28.64077 32.64731 30.64404
# Shear Modulus (GPa) = 28.95255 36.92269 32.93762
#
# Velocity S-wave (km/s) = 3.53932 3.99690 3.77505
# Velocity P-wave (km/s) = 5.39391 5.95194 5.67978
#
# Compressibility (1/GPa) = 0.03491526
#
# Stress axis : x y z
#
# Youngs Moduli (GPa) = 71.03107 61.47233 127.14605
#
# Poissons Ratio (x) = 0.12798 -0.08101
# Poissons Ratio (y) = 0.14788 0.02582
# Poissons Ratio (z) = -0.04526 0.01248
#
# Static dielectric constant tensor:
#      x y z
#    x 1.845060 -0.048230 0.022910 
#    y -0.048230 1.809320 -0.032430 
#    z 0.022910 -0.032430 1.923270 
# 
# From -- ./inp_files/60729.got.cif
#   From: 2010.05.17/outbox.cif.g08.bks.cpg/sg2_31_cif.got.tgz:60729.got - 2010.06.03 11:33:40.
