data_PCOD9043162
_publ_section_title
;
Structure prediction by ZEFSAII (Michael W. Deem and Ramdas Pophale) SiO2 
 PCOD9043162
Probable space group: P -1
;
_chemical_formula_sum "Si O2"
_cell_formula_units_Z 16
_cell_length_a 14.014286
_cell_length_b 4.967798
_cell_length_c 9.920583
_cell_angle_alpha 90.476046
_cell_angle_beta 72.946734
_cell_angle_gamma 73.226291
_cell_volume 628.943295
_symmetry_space_group_name_H-M "P -1"
_symmetry_group_IT_number 2
_symmetry_cell_setting 'triclinic'
loop_
_space_group_symop_operation_xyz
x,y,z
-x,-y,-z
loop_
_atom_site_type_symbol
_atom_site_label
_atom_site_fract_x
_atom_site_fract_y
_atom_site_fract_z
Si Si1 0.659135 0.012996 0.232049
Si Si2 0.019365 0.176299 0.619256
Si Si3 0.529851 0.077999 0.837357
Si Si4 0.145971 0.532084 0.836611
Si Si5 0.242644 0.833289 0.567727
Si Si6 0.940309 0.725061 0.788218
Si Si7 0.667187 0.471492 0.746679
Si Si8 0.771669 0.189382 0.966917
O O1 0.770739 0.771152 0.179073
O O2 0.564538 0.903289 0.226425
O O3 0.661462 0.125157 0.383436
O O4 0.672684 0.216915 0.106185
O O5 0.953922 0.505531 0.658553
O O6 0.144516 0.113249 0.580498
O O7 0.977255 0.001335 0.747661
O O8 0.000000 0.000000 0.500000
O O9 0.626030 0.807096 0.752513
O O10 0.569751 0.349416 0.814351
O O11 0.500000 0.000000 0.000000
O O12 0.191983 0.659400 0.690539
O O13 0.029289 0.539825 0.849590
O O14 0.150902 0.717184 0.965451
O O15 0.277849 0.673384 0.413057
O O16 0.825018 0.870647 0.890807
O O17 0.738368 0.374040 0.848346
#
# Coordination Sequence:
#
# PCOD9043162 Si02
#       8
#     2   2   2   2   2   2   2   2
#     4  11  24  45  73  94 147 185 229 294 353 412
#     4  11  23  43  66  99 148 188 224 286 347 411
#     4  12  27  48  73 103 139 179 231 296 360 406
#     4  10  23  45  69 101 148 187 228 288 350 416
#     4  10  25  45  68 104 140 186 230 286 351 413
#     4  11  24  41  68 104 138 185 238 280 339 419
#     4  12  28  46  74 105 137 177 243 289 343 428
#     4  11  25  42  71 106 137 190 235 290 347 415
#
# _framework density 25.439495000000001
#
# number of rings (size 3 to 8) (size 9 to 14) (size 15 to 20)
#    0.000    1.000    2.500    2.625    7.000    2.500 
#    0.000    0.000    0.000    0.000    0.000    0.000 
#    0.000    0.000    0.000    0.000    0.000    0.000 
#
# Total GULP energy -89581.577436 kJ/mol
# GULP energy per Si atom -5598.848590 kJ/mol
# Density = 2.538159 g / cm^3
# Si number density = 25.439495 Si / 1000 Ang^3
#
#
#
# Elastic Constant Matrix: (Units=GPa)
#
#
# Indices 1 2 3 4 5 6 
#
# 1 98.1719 8.2784 20.3949 -3.7772 28.7800 1.6119
# 2 8.2784 90.5483 20.9104 21.8920 5.2949 -7.3617
# 3 20.3949 20.9104 140.6981 11.0878 21.5300 -1.7616
# 4 -3.7772 21.8920 11.0878 39.2340 -0.0441 0.6671
# 5 28.7800 5.2949 21.5300 -0.0441 35.5458 1.9326
# 6 1.6119 -7.3617 -1.7616 0.6671 1.9326 39.3302
#
#
#
# Elastic Compliance Matrix: (Units=1/GPa)
#
#
# Indices 1 2 3 4 5 6 
#
# 1 0.013524 -0.001038 -0.000348 0.001972 -0.010567 -0.000278
# 2 -0.001038 0.013423 -0.001140 -0.007313 -0.000623 0.002659
# 3 -0.000348 -0.001140 0.008159 -0.001715 -0.004515 0.000417
# 4 0.001972 -0.007313 -0.001715 0.030280 0.000682 -0.002074
# 5 -0.010567 -0.000623 -0.004515 0.000682 0.039617 -0.001844
# 6 -0.000278 0.002659 0.000417 -0.002074 -0.001844 0.026079
#
#
# Mechanical properties :
#
#
# Convention : Reuss Voigt Hill
#
# Bulk Modulus (GPa) = 33.27241 47.62061 40.44651
# Shear Modulus (GPa) = 34.21143 41.47765 37.84454
#
# Velocity S-wave (km/s) = 3.67115 4.04225 3.86116
# Velocity P-wave (km/s) = 5.57470 6.36759 5.98429
#
# Compressibility (1/GPa) = 0.03005493
#
# Stress axis : x y z
#
# Youngs Moduli (GPa) = 73.94078 74.50134 122.57138
#
# Poissons Ratio (x) = 0.07730 0.04267
# Poissons Ratio (y) = 0.07672 0.13967
# Poissons Ratio (z) = 0.02574 0.08490
#
# Static dielectric constant tensor:
#      x y z
#    x 2.040530 0.018660 0.001460 
#    y 0.018660 2.037150 -0.023730 
#    z 0.001460 -0.023730 2.080940 
# 
# From -- ./inp_files/126961.got.cif
#   From: 2010.05.17/outbox.cif.g08.bks.cpg/sg2_64_cif.got.tgz:126961.got - 2010.06.03 11:33:40.
