data_PCOD9043395
_publ_section_title
;
Structure prediction by ZEFSAII (Michael W. Deem and Ramdas Pophale) SiO2 
 PCOD9043395
Probable space group: P -1
;
_chemical_formula_sum "Si O2"
_cell_formula_units_Z 13
_cell_length_a 6.779000
_cell_length_b 9.253380
_cell_length_c 11.879286
_cell_angle_alpha 112.839776
_cell_angle_beta 120.624259
_cell_angle_gamma 74.357997
_cell_volume 588.529285
_symmetry_space_group_name_H-M "P -1"
_symmetry_group_IT_number 2
_symmetry_cell_setting 'triclinic'
loop_
_space_group_symop_operation_xyz
x,y,z
-x,-y,-z
loop_
_atom_site_type_symbol
_atom_site_label
_atom_site_fract_x
_atom_site_fract_y
_atom_site_fract_z
Si Si1 0.300054 0.538986 0.287857
Si Si2 0.500000 0.500000 0.000000
Si Si3 0.011769 0.726139 0.924071
Si Si4 0.847384 0.006666 0.803468
Si Si5 0.468132 0.242266 0.738824
Si Si6 0.805295 0.405704 0.470858
Si Si7 0.931479 0.896747 0.551266
O O1 0.338605 0.676070 0.252804
O O2 0.556686 0.471423 0.376084
O O3 0.184519 0.586777 0.388033
O O4 0.165861 0.404726 0.149830
O O5 0.736133 0.369425 0.040631
O O6 0.614545 0.627349 0.153987
O O7 0.006616 0.860699 0.059533
O O8 0.928078 0.835203 0.825736
O O9 0.586688 0.079571 0.775975
O O10 0.860359 0.992933 0.669777
O O11 0.273589 0.200110 0.583061
O O12 0.000000 0.500000 0.500000
O O13 0.855034 0.226545 0.394646
O O14 0.000000 0.000000 0.500000
#
# Coordination Sequence:
#
# PCOD9043395 Si02
#       7
#     2   1   2   2   2   2   2
#     4  11  24  40  73  99 134 180 230 286 342 395
#     4  10  24  44  72  98 136 178 236 288 336 408
#     4  10  23  45  70  99 134 183 230 287 345 402
#     4  10  24  43  66  97 140 178 224 283 343 414
#     4  11  24  43  67 102 137 182 229 286 339 411
#     4  11  23  42  65 106 136 174 230 284 336 409
#     4  12  25  40  67  98 142 185 224 278 348 413
#
# _framework density 22.08896
#
# number of rings (size 3 to 8) (size 9 to 14) (size 15 to 20)
#    0.000    1.231    1.538    3.231    6.462    3.692 
#    0.000    0.769    0.000    0.000    0.000    0.000 
#    0.000    0.000    0.000    0.000    0.000    0.000 
#
# Total GULP energy -72380.989496 kJ/mol
# GULP energy per Si atom -5567.768423 kJ/mol
# Density = 2.203868 g / cm^3
# Si number density = 22.088960 Si / 1000 Ang^3
#
#
#
# Elastic Constant Matrix: (Units=GPa)
#
#
# Indices 1 2 3 4 5 6 
#
# 1 63.8131 44.2845 18.6315 10.3284 6.3833 -2.7078
# 2 44.2845 137.0817 22.0026 4.7291 -1.6441 -15.2531
# 3 18.6315 22.0026 97.0896 13.1844 -3.8823 -1.6420
# 4 10.3284 4.7291 13.1844 34.5880 -11.0080 0.5426
# 5 6.3833 -1.6441 -3.8823 -11.0080 30.9588 7.8165
# 6 -2.7078 -15.2531 -1.6420 0.5426 7.8165 42.4297
#
#
#
# Elastic Compliance Matrix: (Units=1/GPa)
#
#
# Indices 1 2 3 4 5 6 
#
# 1 0.023235 -0.006930 -0.002149 -0.007839 -0.008354 0.000548
# 2 -0.006930 0.009973 -0.001032 0.001596 0.001697 0.002770
# 3 -0.002149 -0.001032 0.011426 -0.003359 0.000663 -0.000145
# 4 -0.007839 0.001596 -0.003359 0.037262 0.015379 -0.003366
# 5 -0.008354 0.001697 0.000663 0.015379 0.041625 -0.007762
# 6 0.000548 0.002770 -0.000145 -0.003366 -0.007762 0.026067
#
#
# Mechanical properties :
#
#
# Convention : Reuss Voigt Hill
#
# Bulk Modulus (GPa) = 40.96276 51.98017 46.47147
# Shear Modulus (GPa) = 28.09826 35.79969 31.94898
#
# Velocity S-wave (km/s) = 3.57045 4.03017 3.80725
# Velocity P-wave (km/s) = 5.96508 6.72604 6.35696
#
# Compressibility (1/GPa) = 0.02441242
#
# Stress axis : x y z
#
# Youngs Moduli (GPa) = 43.03855 100.27203 87.51777
#
# Poissons Ratio (x) = 0.69489 0.18804
# Poissons Ratio (y) = 0.29826 0.09034
# Poissons Ratio (z) = 0.09247 0.10350
#
# Static dielectric constant tensor:
#      x y z
#    x 1.876520 0.064740 -0.026470 
#    y 0.064740 1.962300 -0.090770 
#    z -0.026470 -0.090770 1.875720 
# 
# From -- ./inp_files/360459.got.cif
#   From: 2010.05.17/outbox.cif.g08.bks.cpg/sg2_181_cif.got.tgz:360459.got - 2010.06.03 11:33:40.
