data_PCOD9043692
_publ_section_title
;
Structure prediction by ZEFSAII (Michael W. Deem and Ramdas Pophale) SiO2 
 PCOD9043692
Probable space group: P -1
;
_chemical_formula_sum "Si O2"
_cell_formula_units_Z 16
_cell_length_a 16.845044
_cell_length_b 5.404945
_cell_length_c 8.930311
_cell_angle_alpha 120.079433
_cell_angle_beta 106.573602
_cell_angle_gamma 69.203738
_cell_volume 651.928020
_symmetry_space_group_name_H-M "P -1"
_symmetry_group_IT_number 2
_symmetry_cell_setting 'triclinic'
loop_
_space_group_symop_operation_xyz
x,y,z
-x,-y,-z
loop_
_atom_site_type_symbol
_atom_site_label
_atom_site_fract_x
_atom_site_fract_y
_atom_site_fract_z
Si Si1 0.216782 0.154282 0.395318
Si Si2 0.243585 0.583153 0.053332
Si Si3 0.125698 0.402260 0.708544
Si Si4 0.597528 0.785588 0.491509
Si Si5 0.560736 0.331227 0.112354
Si Si6 0.874926 0.557585 0.822096
Si Si7 0.596877 0.737761 0.823248
Si Si8 0.039852 0.075645 0.817412
O O1 0.166401 0.184735 0.531225
O O2 0.318480 0.098187 0.457163
O O3 0.165169 0.442091 0.363099
O O4 0.210092 0.909799 0.196590
O O5 0.205725 0.393413 0.096066
O O6 0.344482 0.497661 0.106548
O O7 0.204613 0.512277 0.857077
O O8 0.084473 0.220777 0.751413
O O9 0.061674 0.719348 0.723444
O O10 0.603607 0.543138 0.292691
O O11 0.609140 0.670636 0.634606
O O12 0.500000 0.000000 0.500000
O O13 0.501136 0.232039 0.176184
O O14 0.500000 0.500000 0.000000
O O15 0.617514 0.042874 0.975916
O O16 0.940726 0.243184 0.797227
O O17 0.928036 0.792799 0.973410
#
# Coordination Sequence:
#
# PCOD9043692 Si02
#       8
#     2   2   2   2   2   2   2   2
#     4  12  27  43  71 106 138 188 239 296 357 434
#     4  11  25  45  68 102 142 185 231 299 360 424
#     4  11  27  45  74 106 148 189 241 299 363 429
#     4  12  25  45  70  99 140 183 234 290 357 425
#     4  11  25  44  70  99 133 180 238 289 356 427
#     4  10  23  45  74 102 144 187 241 288 364 433
#     4  11  25  44  71  99 135 184 230 298 355 423
#     4  10  24  47  75 107 144 195 237 298 365 434
#
# _framework density 24.542587000000001
#
# number of rings (size 3 to 8) (size 9 to 14) (size 15 to 20)
#    0.000    1.000    3.750    1.125    5.250    5.500 
#    0.000    0.000    0.000    0.000    0.000    0.000 
#    0.000    0.000    0.000    0.000    0.000    0.000 
#
# Total GULP energy -89428.433677 kJ/mol
# GULP energy per Si atom -5589.277105 kJ/mol
# Density = 2.448673 g / cm^3
# Si number density = 24.542587 Si / 1000 Ang^3
#
#
#
# Elastic Constant Matrix: (Units=GPa)
#
#
# Indices 1 2 3 4 5 6 
#
# 1 88.1185 22.8088 15.7669 -9.9306 -0.1362 -15.3327
# 2 22.8088 102.3519 32.2891 3.2699 -1.8014 -16.5221
# 3 15.7669 32.2891 112.6553 6.5968 3.4314 -4.8943
# 4 -9.9306 3.2699 6.5968 16.0775 6.5503 9.3463
# 5 -0.1362 -1.8014 3.4314 6.5503 33.7427 -5.2693
# 6 -15.3327 -16.5221 -4.8943 9.3463 -5.2693 36.1482
#
#
#
# Elastic Compliance Matrix: (Units=1/GPa)
#
#
# Indices 1 2 3 4 5 6 
#
# 1 0.013637 -0.002555 -0.001586 0.009087 -0.001396 0.001849
# 2 -0.002555 0.012652 -0.002556 -0.008805 0.003755 0.007177
# 3 -0.001586 -0.002556 0.010168 -0.005102 -0.000054 0.000848
# 4 0.009087 -0.008805 -0.005102 0.098717 -0.023738 -0.029845
# 5 -0.001396 0.003755 -0.000054 -0.023738 0.036406 0.012562
# 6 0.001849 0.007177 0.000848 -0.029845 0.012562 0.041391
#
#
# Mechanical properties :
#
#
# Convention : Reuss Voigt Hill
#
# Bulk Modulus (GPa) = 43.35695 49.42836 46.39265
# Shear Modulus (GPa) = 21.36277 32.67775 27.02026
#
# Velocity S-wave (km/s) = 2.95352 3.65289 3.32166
# Velocity P-wave (km/s) = 5.41621 6.16239 5.80131
#
# Compressibility (1/GPa) = 0.02306435
#
# Stress axis : x y z
#
# Youngs Moduli (GPa) = 73.32949 79.04048 98.34516
#
# Poissons Ratio (x) = 0.20197 0.15593
# Poissons Ratio (y) = 0.18737 0.25133
# Poissons Ratio (z) = 0.11627 0.20200
#
# Static dielectric constant tensor:
#      x y z
#    x 1.989470 0.057650 0.032740 
#    y 0.057650 2.204510 0.041120 
#    z 0.032740 0.041120 1.918260 
# 
# From -- ./inp_files/112401.got.cif
#   From: 2010.05.17/outbox.cif.g08.bks.cpg/sg2_57_cif.got.tgz:112401.got - 2010.06.03 11:33:40.
