data_PCOD9043079
_publ_section_title
;
Structure prediction by ZEFSAII (Michael W. Deem and Ramdas Pophale) SiO2 
 PCOD9043079
Probable space group: P -1
;
_chemical_formula_sum "Si O2"
_cell_formula_units_Z 14
_cell_length_a 11.060196
_cell_length_b 7.132827
_cell_length_c 9.396535
_cell_angle_alpha 77.526469
_cell_angle_beta 45.571971
_cell_angle_gamma 96.325394
_cell_volume 479.199551
_symmetry_space_group_name_H-M "P -1"
_symmetry_group_IT_number 2
_symmetry_cell_setting 'triclinic'
loop_
_space_group_symop_operation_xyz
x,y,z
-x,-y,-z
loop_
_atom_site_type_symbol
_atom_site_label
_atom_site_fract_x
_atom_site_fract_y
_atom_site_fract_z
Si Si1 0.025935 0.371602 0.640994
Si Si2 0.763059 0.236906 0.225302
Si Si3 0.773386 0.644498 0.276183
Si Si4 0.976741 0.199405 0.300898
Si Si5 0.260586 0.221809 0.271740
Si Si6 0.376828 0.834686 0.971653
Si Si7 0.495682 0.232746 0.679791
O O1 0.049294 0.594006 0.651868
O O2 0.063664 0.255001 0.766140
O O3 0.172829 0.363610 0.406730
O O4 0.819544 0.255630 0.776076
O O5 0.690817 0.199765 0.131646
O O6 0.605386 0.153179 0.487867
O O7 0.916724 0.175986 0.189246
O O8 0.191331 0.517467 0.831549
O O9 0.611367 0.481637 0.540159
O O10 0.691406 0.786910 0.238443
O O11 0.179335 0.221348 0.180242
O O12 0.844101 0.000420 0.529660
O O13 0.474204 0.266894 0.106254
O O14 0.472818 0.085812 0.858316
#
# Coordination Sequence:
#
# PCOD9043079 Si02
#       7
#     2   2   2   2   2   2   2
#     4  11  24  42  63 102 128 164 217 269 314 387
#     4   9  18  36  63  89 125 167 203 264 312 378
#     4   8  18  33  57  86 130 164 206 249 323 372
#     4  10  23  45  68  89 132 173 217 254 327 380
#     4  11  24  46  69  89 127 182 207 266 316 382
#     4  12  23  37  68 100 128 160 218 265 322 376
#     4   9  17  35  57  90 128 167 207 255 313 390
#
# _framework density 29.215385999999999
#
# number of rings (size 3 to 8) (size 9 to 14) (size 15 to 20)
#    0.857    1.143    1.429    1.714    2.000    3.429 
#    2.571    2.857    0.000    0.000    0.000    0.000 
#    0.000    0.000    0.000    0.000    0.000    0.000 
#
# Total GULP energy -78336.665575 kJ/mol
# GULP energy per Si atom -5595.476112 kJ/mol
# Density = 2.914889 g / cm^3
# Si number density = 29.215386 Si / 1000 Ang^3
#
#
#
# Elastic Constant Matrix: (Units=GPa)
#
#
# Indices 1 2 3 4 5 6 
#
# 1 236.2739 34.3456 57.5707 29.1209 -25.3177 -27.7762
# 2 34.3456 110.6183 38.6687 -3.1567 -1.6843 -27.2777
# 3 57.5707 38.6687 103.1942 14.9275 -26.7924 -6.9829
# 4 29.1209 -3.1567 14.9275 34.3590 -8.3155 5.2800
# 5 -25.3177 -1.6843 -26.7924 -8.3155 63.3699 11.6610
# 6 -27.7762 -27.2777 -6.9829 5.2800 11.6610 59.3803
#
#
#
# Elastic Compliance Matrix: (Units=1/GPa)
#
#
# Indices 1 2 3 4 5 6 
#
# 1 0.005670 -0.000538 -0.002089 -0.004240 0.000358 0.002467
# 2 -0.000538 0.012217 -0.004947 0.002313 -0.002614 0.005087
# 3 -0.002089 -0.004947 0.014360 -0.003345 0.005082 -0.002262
# 4 -0.004240 0.002313 -0.003345 0.035753 0.002564 -0.004997
# 5 0.000358 -0.002614 0.005082 0.002564 0.019153 -0.004425
# 6 0.002467 0.005087 -0.002262 -0.004997 -0.004425 0.021378
#
#
# Mechanical properties :
#
#
# Convention : Reuss Voigt Hill
#
# Bulk Modulus (GPa) = 58.47889 79.02849 68.75369
# Shear Modulus (GPa) = 38.64622 52.72195 45.68408
#
# Velocity S-wave (km/s) = 3.64098 4.25266 3.95865
# Velocity P-wave (km/s) = 6.14293 7.15699 6.66926
#
# Compressibility (1/GPa) = 0.01710019
#
# Stress axis : x y z
#
# Youngs Moduli (GPa) = 176.35361 81.85400 69.63815
#
# Poissons Ratio (x) = 0.04402 0.14546
# Poissons Ratio (y) = 0.09483 0.34450
# Poissons Ratio (z) = 0.36837 0.40493
#
# Static dielectric constant tensor:
#      x y z
#    x 2.300770 0.067590 -0.060370 
#    y 0.067590 2.270560 -0.067530 
#    z -0.060370 -0.067530 2.463300 
# 
# From -- ./inp_files/416772.got.cif
#   From: 2010.05.17/outbox.cif.g08.bks.cpg/sg2_209_cif.got.tgz:416772.got - 2010.06.03 11:33:40.
