data_PCOD9043208
_publ_section_title
;
Structure prediction by ZEFSAII (Michael W. Deem and Ramdas Pophale) SiO2 
 PCOD9043208
Probable space group: P -1
;
_chemical_formula_sum "Si O2"
_cell_formula_units_Z 16
_cell_length_a 5.667068
_cell_length_b 15.621367
_cell_length_c 8.652675
_cell_angle_alpha 96.015288
_cell_angle_beta 70.131991
_cell_angle_gamma 71.798253
_cell_volume 665.006832
_symmetry_space_group_name_H-M "P -1"
_symmetry_group_IT_number 2
_symmetry_cell_setting 'triclinic'
loop_
_space_group_symop_operation_xyz
x,y,z
-x,-y,-z
loop_
_atom_site_type_symbol
_atom_site_label
_atom_site_fract_x
_atom_site_fract_y
_atom_site_fract_z
Si Si1 0.201684 0.883579 0.764074
Si Si2 0.330379 0.937312 0.065788
Si Si3 0.325609 0.351281 0.601310
Si Si4 0.841311 0.275558 0.694683
Si Si5 0.211363 0.896738 0.413371
Si Si6 0.774136 0.309107 0.275826
Si Si7 0.019661 0.550622 0.663731
Si Si8 0.453146 0.598895 0.951887
O O1 0.330214 0.872508 0.558981
O O2 0.083735 0.800852 0.783366
O O3 0.354504 0.875300 0.893779
O O4 0.976659 0.987100 0.838042
O O5 0.390931 0.892658 0.217296
O O6 0.500000 0.000000 0.000000
O O7 0.581700 0.303900 0.644236
O O8 0.468010 0.327734 0.398188
O O9 0.074591 0.318240 0.657070
O O10 0.233033 0.460094 0.681911
O O11 0.956819 0.166916 0.611605
O O12 0.680498 0.312795 0.894330
O O13 0.000000 0.000000 0.500000
O O14 0.750708 0.370402 0.141120
O O15 0.890501 0.364389 0.377263
O O16 0.748524 0.586652 0.827373
O O17 0.000000 0.500000 0.500000
O O18 0.500000 0.500000 0.000000
#
# Coordination Sequence:
#
# PCOD9043208 Si02
#       8
#     2   2   2   2   2   2   2   2
#     4  10  23  45  69 108 142 194 252 309 390 466
#     4  10  23  46  72 105 151 187 250 319 387 464
#     4  12  26  48  76 102 151 195 255 308 379 456
#     4  12  27  49  73 115 149 196 254 321 381 465
#     4  10  23  47  74 107 148 196 253 309 395 460
#     4  12  26  43  73 104 144 200 255 314 377 460
#     4  12  26  46  71 104 146 200 256 310 381 455
#     4  12  27  44  70 103 148 194 252 317 386 445
#
# _framework density 24.059905000000001
#
# number of rings (size 3 to 8) (size 9 to 14) (size 15 to 20)
#    0.000    0.750    3.750    2.625    1.750    5.500 
#    6.750    0.000    0.000    0.000    0.000    0.000 
#    0.000    0.000    0.000    0.000    0.000    0.000 
#
# Total GULP energy -89165.602306 kJ/mol
# GULP energy per Si atom -5572.850144 kJ/mol
# Density = 2.400514 g / cm^3
# Si number density = 24.059905 Si / 1000 Ang^3
#
#
#
# Elastic Constant Matrix: (Units=GPa)
#
#
# Indices 1 2 3 4 5 6 
#
# 1 70.7867 26.5590 39.9933 -2.9468 5.9264 15.4000
# 2 26.5590 115.0071 32.7430 12.3926 25.2729 22.8438
# 3 39.9933 32.7430 158.0884 -6.5351 22.4182 17.7645
# 4 -2.9468 12.3926 -6.5351 50.0130 -0.5037 7.4521
# 5 5.9264 25.2729 22.4182 -0.5037 33.8882 2.9122
# 6 15.4000 22.8438 17.7645 7.4521 2.9122 35.2032
#
#
#
# Elastic Compliance Matrix: (Units=1/GPa)
#
#
# Indices 1 2 3 4 5 6 
#
# 1 0.018246 -0.002811 -0.003650 0.002042 0.001772 -0.004894
# 2 -0.002811 0.012631 -0.000193 -0.002565 -0.008354 -0.005635
# 3 -0.003650 -0.000193 0.008230 0.001209 -0.004445 -0.002319
# 4 0.002042 -0.002565 0.001209 0.021599 0.001467 -0.004532
# 5 0.001772 -0.008354 -0.004445 0.001467 0.038097 0.003427
# 6 -0.004894 -0.005635 -0.002319 -0.004532 0.003427 0.036050
#
#
# Mechanical properties :
#
#
# Convention : Reuss Voigt Hill
#
# Bulk Modulus (GPa) = 38.76463 60.27475 49.51969
# Shear Modulus (GPa) = 31.89573 40.12669 36.01121
#
# Velocity S-wave (km/s) = 3.64494 4.08828 3.87296
# Velocity P-wave (km/s) = 5.81900 6.88416 6.37387
#
# Compressibility (1/GPa) = 0.02579671
#
# Stress axis : x y z
#
# Youngs Moduli (GPa) = 54.80782 79.17135 121.50819
#
# Poissons Ratio (x) = 0.22259 0.44355
# Poissons Ratio (y) = 0.15409 0.02345
# Poissons Ratio (z) = 0.20007 0.01528
#
# Static dielectric constant tensor:
#      x y z
#    x 2.049740 -0.049080 0.194170 
#    y -0.049080 2.078590 -0.098260 
#    z 0.194170 -0.098260 2.146510 
# 
# From -- ./inp_files/135464.got.cif
#   From: 2010.05.17/outbox.cif.g08.bks.cpg/sg2_68_cif.got.tgz:135464.got - 2010.06.03 11:33:40.
