data_PCOD9043122
_publ_section_title
;
Structure prediction by ZEFSAII (Michael W. Deem and Ramdas Pophale) SiO2 
 PCOD9043122
Probable space group: P -1
;
_chemical_formula_sum "Si O2"
_cell_formula_units_Z 8
_cell_length_a 4.932192
_cell_length_b 8.895422
_cell_length_c 9.590716
_cell_angle_alpha 93.630352
_cell_angle_beta 56.370399
_cell_angle_gamma 119.524314
_cell_volume 291.826889
_symmetry_space_group_name_H-M "P -1"
_symmetry_group_IT_number 2
_symmetry_cell_setting 'triclinic'
loop_
_space_group_symop_operation_xyz
x,y,z
-x,-y,-z
loop_
_atom_site_type_symbol
_atom_site_label
_atom_site_fract_x
_atom_site_fract_y
_atom_site_fract_z
Si Si1 0.860859 0.032295 0.257076
Si Si2 0.385750 0.645048 0.019261
Si Si3 0.930386 0.339434 0.608344
Si Si4 0.445134 0.219495 0.324029
O O1 0.698447 0.161335 0.327867
O O2 0.086181 0.045964 0.334597
O O3 0.499294 0.837702 0.311609
O O4 0.221776 0.151457 0.056612
O O5 0.088499 0.622134 0.221155
O O6 0.500000 0.500000 0.000000
O O7 0.321472 0.661964 0.873869
O O8 0.000000 0.500000 0.500000
O O9 0.264207 0.306854 0.469427
#
# Coordination Sequence:
#
# PCOD9043122 Si02
#       4
#     2   2   2   2
#     4  10  24  47  69  96 138 173 220 276 328 393
#     4  10  23  45  68  99 134 176 221 275 326 395
#     4  12  22  44  70 102 132 179 220 274 334 392
#     4  10  24  46  69  97 136 172 224 272 329 392
#
# _framework density 27.413515
#
# number of rings (size 3 to 8) (size 9 to 14) (size 15 to 20)
#    1.500    0.000    2.500    2.250    0.000    2.000 
#    4.500    6.250    0.000    0.000    0.000    0.000 
#    0.000    0.000    0.000    0.000    0.000    0.000 
#
# Total GULP energy -44848.522691 kJ/mol
# GULP energy per Si atom -5606.065336 kJ/mol
# Density = 2.735112 g / cm^3
# Si number density = 27.413515 Si / 1000 Ang^3
#
#
#
# Elastic Constant Matrix: (Units=GPa)
#
#
# Indices 1 2 3 4 5 6 
#
# 1 104.7784 32.2863 37.3955 -3.8901 9.9901 0.6540
# 2 32.2863 133.6845 79.0309 -20.6037 15.0696 6.5094
# 3 37.3955 79.0309 253.1042 3.6928 5.4990 8.8874
# 4 -3.8901 -20.6037 3.6928 55.1510 6.8739 4.6552
# 5 9.9901 15.0696 5.4990 6.8739 43.5535 -6.3873
# 6 0.6540 6.5094 8.8874 4.6552 -6.3873 54.6499
#
#
#
# Elastic Compliance Matrix: (Units=1/GPa)
#
#
# Indices 1 2 3 4 5 6 
#
# 1 0.010612 -0.001709 -0.001002 0.000399 -0.001780 -0.000003
# 2 -0.001709 0.011016 -0.003112 0.004847 -0.004037 -0.001670
# 3 -0.001002 -0.003112 0.005082 -0.001669 0.000899 -0.000197
# 4 0.000399 0.004847 -0.001669 0.020968 -0.005265 -0.002712
# 5 -0.001780 -0.004037 0.000899 -0.005265 0.026047 0.003849
# 6 -0.000003 -0.001670 -0.000197 -0.002712 0.003849 0.019210
#
#
# Mechanical properties :
#
#
# Convention : Reuss Voigt Hill
#
# Bulk Modulus (GPa) = 66.36977 87.66583 77.01780
# Shear Modulus (GPa) = 45.61972 53.52783 49.57378
#
# Velocity S-wave (km/s) = 4.08380 4.42363 4.25711
# Velocity P-wave (km/s) = 6.81907 7.62494 7.23324
#
# Compressibility (1/GPa) = 0.01506710
#
# Stress axis : x y z
#
# Youngs Moduli (GPa) = 94.22902 90.77783 196.76458
#
# Poissons Ratio (x) = 0.15510 0.19706
# Poissons Ratio (y) = 0.16100 0.61225
# Poissons Ratio (z) = 0.09437 0.28246
#
# Static dielectric constant tensor:
#      x y z
#    x 2.088320 0.139830 -0.036520 
#    y 0.139830 2.151760 -0.090180 
#    z -0.036520 -0.090180 2.224230 
# 
# From -- ./inp_files/15374.got.cif
#   From: 2010.05.17/outbox.cif.g08.bks.cpg/sg2_8_cif.got.tgz:15374.got - 2010.06.03 11:33:40.
