data_PCOD9043187
_publ_section_title
;
Structure prediction by ZEFSAII (Michael W. Deem and Ramdas Pophale) SiO2 
 PCOD9043187
Probable space group: P -1
;
_chemical_formula_sum "Si O2"
_cell_formula_units_Z 15
_cell_length_a 7.752606
_cell_length_b 11.653119
_cell_length_c 15.236340
_cell_angle_alpha 151.287764
_cell_angle_beta 109.806211
_cell_angle_gamma 63.742663
_cell_volume 589.169386
_symmetry_space_group_name_H-M "P -1"
_symmetry_group_IT_number 2
_symmetry_cell_setting 'triclinic'
loop_
_space_group_symop_operation_xyz
x,y,z
-x,-y,-z
loop_
_atom_site_type_symbol
_atom_site_label
_atom_site_fract_x
_atom_site_fract_y
_atom_site_fract_z
Si Si1 0.492752 0.699594 0.557469
Si Si2 0.294142 0.956111 0.380937
Si Si3 0.147694 0.475697 0.764136
Si Si4 0.500000 0.500000 0.000000
Si Si5 0.353064 0.237757 0.954817
Si Si6 0.768988 0.346642 0.665619
Si Si7 0.116281 0.630329 0.670761
Si Si8 0.022113 0.888372 0.145386
O O1 0.500000 0.500000 0.500000
O O2 0.303197 0.747604 0.497947
O O3 0.668470 0.557047 0.430219
O O4 0.497365 0.958071 0.775263
O O5 0.459084 0.776318 0.228121
O O6 0.236900 0.833944 0.376111
O O7 0.115766 0.010320 0.317635
O O8 0.311849 0.223868 0.592192
O O9 0.071455 0.634423 0.768885
O O10 0.975595 0.383800 0.710552
O O11 0.189075 0.657634 0.969196
O O12 0.624262 0.584300 0.999467
O O13 0.138725 0.214089 0.908708
O O14 0.373212 0.377677 0.142444
O O15 0.000000 0.500000 0.500000
O O16 0.079664 0.905212 0.806814
#
# Coordination Sequence:
#
# PCOD9043187 Si02
#       8
#     2   2   2   1   2   2   2   2
#     4  12  24  45  72  98 138 184 225 283 345 407
#     4  11  23  45  69 100 142 178 227 282 343 409
#     4  11  23  42  69 102 137 183 228 284 335 412
#     4  10  24  42  66  98 140 172 218 282 332 398
#     4  10  23  45  69 105 137 179 228 277 345 406
#     4  10  25  44  68 105 134 179 230 280 345 409
#     4  12  24  45  70 101 139 181 238 284 336 402
#     4  11  24  44  70 102 138 186 228 278 349 404
#
# _framework density 25.459572000000001
#
# number of rings (size 3 to 8) (size 9 to 14) (size 15 to 20)
#    0.000    1.067    2.667    3.200    0.000    9.600 
#    2.400    4.000    0.000    0.000    0.000    0.000 
#    0.000    0.000    0.000    0.000    0.000    0.000 
#
# Total GULP energy -83834.972809 kJ/mol
# GULP energy per Si atom -5588.998187 kJ/mol
# Density = 2.540162 g / cm^3
# Si number density = 25.459572 Si / 1000 Ang^3
#
#
#
# Elastic Constant Matrix: (Units=GPa)
#
#
# Indices 1 2 3 4 5 6 
#
# 1 58.5895 7.5567 21.4410 -9.0159 -4.7788 20.3643
# 2 7.5567 102.2337 35.6124 -13.0284 -1.4157 28.0832
# 3 21.4410 35.6124 171.6208 -4.5193 -21.1156 -5.2714
# 4 -9.0159 -13.0284 -4.5193 47.9372 -9.0286 0.9239
# 5 -4.7788 -1.4157 -21.1156 -9.0286 43.3470 -1.8882
# 6 20.3643 28.0832 -5.2714 0.9239 -1.8882 41.7777
#
#
#
# Elastic Compliance Matrix: (Units=1/GPa)
#
#
# Indices 1 2 3 4 5 6 
#
# 1 0.024521 0.004779 -0.004208 0.006079 0.001389 -0.015767
# 2 0.004779 0.015032 -0.004059 0.004752 -0.000539 -0.013076
# 3 -0.004208 -0.004059 0.007767 -0.000653 0.003309 0.005924
# 4 0.006079 0.004752 -0.000653 0.024357 0.005296 -0.006539
# 5 0.001389 -0.000539 0.003309 0.005296 0.025970 0.001160
# 6 -0.015767 -0.013076 0.005924 -0.006539 0.001160 0.041356
#
#
# Mechanical properties :
#
#
# Convention : Reuss Voigt Hill
#
# Bulk Modulus (GPa) = 24.78804 51.29603 38.04203
# Shear Modulus (GPa) = 31.36202 44.46800 37.91501
#
# Velocity S-wave (km/s) = 3.51356 4.18378 3.86323
# Velocity P-wave (km/s) = 5.12030 6.59776 5.90542
#
# Compressibility (1/GPa) = 0.04034203
#
# Stress axis : x y z
#
# Youngs Moduli (GPa) = 40.78172 66.52374 128.75460
#
# Poissons Ratio (x) = -0.31790 0.54185
# Poissons Ratio (y) = -0.19488 0.52263
# Poissons Ratio (z) = 0.17163 0.27003
#
# Static dielectric constant tensor:
#      x y z
#    x 2.049460 -0.100310 -0.019780 
#    y -0.100310 2.022650 0.029950 
#    z -0.019780 0.029950 2.017460 
# 
# From -- ./inp_files/285876.got.cif
#   From: 2010.05.17/outbox.cif.g08.bks.cpg/sg2_143_cif.got.tgz:285876.got - 2010.06.03 11:33:40.
