data_PCOD9043182
_publ_section_title
;
Structure prediction by ZEFSAII (Michael W. Deem and Ramdas Pophale) SiO2 
 PCOD9043182
Probable space group: P -1
;
_chemical_formula_sum "Si O2"
_cell_formula_units_Z 13
_cell_length_a 9.635786
_cell_length_b 5.491473
_cell_length_c 11.771832
_cell_angle_alpha 57.701242
_cell_angle_beta 101.031562
_cell_angle_gamma 82.018331
_cell_volume 494.490707
_symmetry_space_group_name_H-M "P -1"
_symmetry_group_IT_number 2
_symmetry_cell_setting 'triclinic'
loop_
_space_group_symop_operation_xyz
x,y,z
-x,-y,-z
loop_
_atom_site_type_symbol
_atom_site_label
_atom_site_fract_x
_atom_site_fract_y
_atom_site_fract_z
Si Si1 0.020528 0.564267 0.118297
Si Si2 0.500000 0.500000 0.000000
Si Si3 0.705295 0.345448 0.491480
Si Si4 0.262887 0.873726 0.051609
Si Si5 0.444692 0.936597 0.287408
Si Si6 0.679503 0.249526 0.244789
Si Si7 0.010193 0.036380 0.626902
O O1 0.014588 0.267690 0.254947
O O2 0.178447 0.625681 0.135298
O O3 0.000000 0.500000 0.000000
O O4 0.883133 0.845150 0.064538
O O5 0.371294 0.764860 0.989977
O O6 0.644318 0.546127 0.090492
O O7 0.591698 0.670749 0.410621
O O8 0.655412 0.086720 0.615090
O O9 0.691441 0.297102 0.367390
O O10 0.870923 0.314314 0.566858
O O11 0.358066 0.890123 0.174774
O O12 0.516028 0.206645 0.201625
O O13 0.825079 0.985762 0.303431
O O14 0.000000 0.000000 0.500000
#
# Coordination Sequence:
#
# PCOD9043182 Si02
#       7
#     2   1   2   2   2   2   2
#     4  11  25  50  78 107 151 202 256 310 374 458
#     4  12  26  44  68 108 152 184 248 306 378 438
#     4  10  23  45  69 104 145 189 249 295 374 445
#     4  11  27  46  75 114 147 199 256 312 380 445
#     4  11  24  42  74 106 139 191 243 314 367 440
#     4  11  25  43  66 107 146 190 234 304 376 438
#     4  10  24  44  72 103 149 195 237 302 370 453
#
# _framework density 26.289674000000002
#
# number of rings (size 3 to 8) (size 9 to 14) (size 15 to 20)
#    0.000    1.231    1.538    2.308    6.462    9.846 
#    0.000    0.000    0.000    0.000    0.000    0.000 
#    0.000    0.000    0.000    0.000    0.000    0.000 
#
# Total GULP energy -72575.819229 kJ/mol
# GULP energy per Si atom -5582.755325 kJ/mol
# Density = 2.622984 g / cm^3
# Si number density = 26.289674 Si / 1000 Ang^3
#
#
#
# Elastic Constant Matrix: (Units=GPa)
#
#
# Indices 1 2 3 4 5 6 
#
# 1 111.9088 1.4814 34.6173 -4.2262 44.8285 -15.7106
# 2 1.4814 40.6292 18.1528 -6.6157 9.5275 -24.1660
# 3 34.6173 18.1528 163.9864 -2.6640 6.3699 -21.1108
# 4 -4.2262 -6.6157 -2.6640 47.7663 -2.1914 4.1566
# 5 44.8285 9.5275 6.3699 -2.1914 55.4885 -8.1117
# 6 -15.7106 -24.1660 -21.1108 4.1566 -8.1117 59.4930
#
#
#
# Elastic Compliance Matrix: (Units=1/GPa)
#
#
# Indices 1 2 3 4 5 6 
#
# 1 0.015332 0.006060 -0.002929 0.001138 -0.012507 0.003687
# 2 0.006060 0.036762 -0.003152 0.003840 -0.008653 0.013966
# 3 -0.002929 -0.003152 0.007075 -0.000268 0.002198 0.000775
# 4 0.001138 0.003840 -0.000268 0.021507 -0.000674 0.000171
# 5 -0.012507 -0.008653 0.002198 -0.000674 0.029036 -0.002032
# 6 0.003687 0.013966 0.000775 0.000171 -0.002032 0.023441
#
#
# Mechanical properties :
#
#
# Convention : Reuss Voigt Hill
#
# Bulk Modulus (GPa) = 16.91237 47.22525 32.06881
# Shear Modulus (GPa) = 32.70025 50.03444 41.36734
#
# Velocity S-wave (km/s) = 3.53064 4.36730 3.97107
# Velocity P-wave (km/s) = 4.80288 6.59041 5.76633
#
# Compressibility (1/GPa) = 0.05912832
#
# Stress axis : x y z
#
# Youngs Moduli (GPa) = 65.22209 27.20224 141.33665
#
# Poissons Ratio (x) = -0.16486 0.41391
# Poissons Ratio (y) = -0.39527 0.44553
# Poissons Ratio (z) = 0.19101 0.08575
#
# Static dielectric constant tensor:
#      x y z
#    x 2.232410 0.053960 -0.191340 
#    y 0.053960 2.135390 -0.158070 
#    z -0.191340 -0.158070 2.486790 
# 
# From -- ./inp_files/48637.got.cif
#   From: 2010.05.17/outbox.cif.g08.bks.cpg/sg2_25_cif.got.tgz:48637.got - 2010.06.03 11:33:40.
