data_PCOD9043481
_publ_section_title
;
Structure prediction by ZEFSAII (Michael W. Deem and Ramdas Pophale) SiO2 
 PCOD9043481
Probable space group: P -1
;
_chemical_formula_sum "Si O2"
_cell_formula_units_Z 14
_cell_length_a 15.195338
_cell_length_b 10.342000
_cell_length_c 12.247683
_cell_angle_alpha 26.640945
_cell_angle_beta 133.813897
_cell_angle_gamma 140.487507
_cell_volume 549.082796
_symmetry_space_group_name_H-M "P -1"
_symmetry_group_IT_number 2
_symmetry_cell_setting 'triclinic'
loop_
_space_group_symop_operation_xyz
x,y,z
-x,-y,-z
loop_
_atom_site_type_symbol
_atom_site_label
_atom_site_fract_x
_atom_site_fract_y
_atom_site_fract_z
Si Si1 0.984244 0.322947 0.735690
Si Si2 0.912869 0.156938 0.392227
Si Si3 0.642644 0.424227 0.048810
Si Si4 0.452905 0.773103 0.269941
Si Si5 0.232692 0.519651 0.099997
Si Si6 0.398107 0.608276 0.719711
Si Si7 0.783290 0.467652 0.572037
O O1 0.836510 0.239198 0.728403
O O2 0.000000 0.500000 0.500000
O O3 0.090822 0.609260 0.689669
O O4 0.000000 0.000000 0.000000
O O5 0.833818 0.789123 0.643675
O O6 0.923562 0.738998 0.543481
O O7 0.857133 0.292979 0.142905
O O8 0.680177 0.448077 0.189669
O O9 0.586246 0.067485 0.216967
O O10 0.740689 0.626360 0.880630
O O11 0.506267 0.470811 0.904674
O O12 0.500000 0.500000 0.500000
O O13 0.372658 0.772445 0.090871
O O14 0.335214 0.690920 0.322120
O O15 0.285253 0.436547 0.658241
O O16 0.500000 0.000000 0.500000
#
# Coordination Sequence:
#
# PCOD9043481 Si02
#       7
#     2   2   2   2   2   2   2
#     4  10  23  45  71 109 155 198 247 309 395 463
#     4  10  27  46  71 115 148 202 253 309 390 462
#     4  11  27  46  76 113 148 200 269 322 402 456
#     4  12  26  52  79 111 155 210 269 328 380 454
#     4  12  26  48  77 107 155 207 261 311 378 472
#     4  11  24  47  77 112 149 197 252 336 402 460
#     4  10  26  47  77 112 157 193 260 321 394 466
#
# _framework density 25.497064999999999
#
# number of rings (size 3 to 8) (size 9 to 14) (size 15 to 20)
#    0.857    0.286    1.429    3.000    4.000    5.714 
#    0.000    0.714    0.000    0.000    0.000    0.000 
#    0.000    0.000    0.000    0.000    0.000    0.000 
#
# Total GULP energy -78269.389155 kJ/mol
# GULP energy per Si atom -5590.670654 kJ/mol
# Density = 2.543903 g / cm^3
# Si number density = 25.497065 Si / 1000 Ang^3
#
#
#
# Elastic Constant Matrix: (Units=GPa)
#
#
# Indices 1 2 3 4 5 6 
#
# 1 133.1364 1.6403 31.2711 11.3705 -4.7964 -21.9734
# 2 1.6403 127.3676 43.6024 32.0846 -18.7606 6.7530
# 3 31.2711 43.6024 142.2719 -1.9636 5.6997 0.5629
# 4 11.3705 32.0846 -1.9636 52.0445 1.7253 -3.5304
# 5 -4.7964 -18.7606 5.6997 1.7253 38.7771 3.8711
# 6 -21.9734 6.7530 0.5629 -3.5304 3.8711 50.4281
#
#
#
# Elastic Compliance Matrix: (Units=1/GPa)
#
#
# Indices 1 2 3 4 5 6 
#
# 1 0.008984 0.001643 -0.002615 -0.002915 0.002085 0.003360
# 2 0.001643 0.012982 -0.004767 -0.008950 0.007802 -0.002195
# 3 -0.002615 -0.004767 0.009287 0.003999 -0.004172 -0.000005
# 4 -0.002915 -0.008950 0.003999 0.025890 -0.006650 0.002206
# 5 0.002085 0.007802 -0.004172 -0.006650 0.031023 -0.002937
# 6 0.003360 -0.002195 -0.000005 0.002206 -0.002937 0.021968
#
#
# Mechanical properties :
#
#
# Convention : Reuss Voigt Hill
#
# Bulk Modulus (GPa) = 50.57148 61.75594 56.16371
# Shear Modulus (GPa) = 39.00039 50.00077 44.50058
#
# Velocity S-wave (km/s) = 3.91526 4.43317 4.18224
# Velocity P-wave (km/s) = 6.34951 7.10474 6.73772
#
# Compressibility (1/GPa) = 0.01977399
#
# Stress axis : x y z
#
# Youngs Moduli (GPa) = 111.31299 77.02883 107.67763
#
# Poissons Ratio (x) = -0.12656 0.28160
# Poissons Ratio (y) = -0.18288 0.51332
# Poissons Ratio (z) = 0.29110 0.36721
#
# Static dielectric constant tensor:
#      x y z
#    x 2.067370 0.046440 0.047970 
#    y 0.046440 2.071090 0.019790 
#    z 0.047970 0.019790 1.957800 
# 
# From -- ./inp_files/446555.got.cif
#   From: 2010.05.17/outbox.cif.g08.bks.cpg/sg2_224_cif.got.tgz:446555.got - 2010.06.03 11:33:40.
