data_PCOD9043838
_publ_section_title
;
Structure prediction by ZEFSAII (Michael W. Deem and Ramdas Pophale) SiO2 
 PCOD9043838
Probable space group: P -1
;
_chemical_formula_sum "Si O2"
_cell_formula_units_Z 14
_cell_length_a 12.005086
_cell_length_b 11.086247
_cell_length_c 6.997082
_cell_angle_alpha 55.816619
_cell_angle_beta 84.072880
_cell_angle_gamma 50.048897
_cell_volume 539.678628
_symmetry_space_group_name_H-M "P -1"
_symmetry_group_IT_number 2
_symmetry_cell_setting 'triclinic'
loop_
_space_group_symop_operation_xyz
x,y,z
-x,-y,-z
loop_
_atom_site_type_symbol
_atom_site_label
_atom_site_fract_x
_atom_site_fract_y
_atom_site_fract_z
Si Si1 0.887036 0.672411 0.631452
Si Si2 0.532431 0.634089 0.136827
Si Si3 0.017462 0.844055 0.999802
Si Si4 0.623676 0.515040 0.660934
Si Si5 0.129703 0.602322 0.863628
Si Si6 0.599403 0.011657 0.612340
Si Si7 0.275023 0.096873 0.907799
O O1 0.811721 0.721014 0.393007
O O2 0.762028 0.885618 0.582999
O O3 0.048414 0.616091 0.672217
O O4 0.504111 0.750477 0.541952
O O5 0.427926 0.589980 0.140777
O O6 0.685706 0.531699 0.076290
O O7 0.413515 0.878261 0.973631
O O8 0.104239 0.486675 0.112889
O O9 0.039163 0.820814 0.785960
O O10 0.863061 0.889069 0.024744
O O11 0.192502 0.624337 0.216324
O O12 0.000000 0.000000 0.000000
O O13 0.602100 0.527321 0.426360
O O14 0.500000 0.000000 0.500000
O O15 0.652706 0.904957 0.908259
#
# Coordination Sequence:
#
# PCOD9043838 Si02
#       7
#     2   2   2   2   2   2   2
#     4  11  26  49  75 110 154 203 257 317 387 454
#     4  10  23  46  76 111 147 201 255 318 383 453
#     4  12  24  46  74 112 152 198 248 321 384 460
#     4  10  23  45  77 108 155 196 251 317 389 456
#     4  11  26  48  75 110 155 201 261 315 386 458
#     4  11  25  49  74 113 153 199 254 315 384 463
#     4  11  25  47  78 111 155 201 257 319 382 456
#
# _framework density 25.941364
#
# number of rings (size 3 to 8) (size 9 to 14) (size 15 to 20)
#    0.000    1.143    2.857    1.714    4.000    2.857 
#    5.143    2.143    0.000    0.000    0.000    0.000 
#    0.000    0.000    0.000    0.143    0.000    0.000 
#
# Total GULP energy -78405.814850 kJ/mol
# GULP energy per Si atom -5600.415346 kJ/mol
# Density = 2.588232 g / cm^3
# Si number density = 25.941364 Si / 1000 Ang^3
#
#
#
# Elastic Constant Matrix: (Units=GPa)
#
#
# Indices 1 2 3 4 5 6 
#
# 1 147.8564 64.3844 46.4998 -0.0084 30.6652 -7.0860
# 2 64.3844 160.9668 30.2621 -0.3422 15.2485 -6.2977
# 3 46.4998 30.2621 128.1004 26.4643 19.0088 14.9222
# 4 -0.0084 -0.3422 26.4643 44.3499 -8.0588 18.4275
# 5 30.6652 15.2485 19.0088 -8.0588 35.1946 2.6239
# 6 -7.0860 -6.2977 14.9222 18.4275 2.6239 36.9106
#
#
#
# Elastic Compliance Matrix: (Units=1/GPa)
#
#
# Indices 1 2 3 4 5 6 
#
# 1 0.010384 -0.002930 -0.002086 -0.001626 -0.007298 0.003667
# 2 -0.002930 0.007615 -0.000809 0.000022 -0.000385 0.001080
# 3 -0.002086 -0.000809 0.011179 -0.007225 -0.005445 -0.001064
# 4 -0.001626 0.000022 -0.007225 0.036493 0.014908 -0.016666
# 5 -0.007298 -0.000385 -0.005445 0.014908 0.042016 -0.009695
# 6 0.003667 0.001080 -0.001064 -0.016666 -0.009695 0.037421
#
#
# Mechanical properties :
#
#
# Convention : Reuss Voigt Hill
#
# Bulk Modulus (GPa) = 57.04559 79.91291 68.47925
# Shear Modulus (GPa) = 30.75030 43.00953 36.87991
#
# Velocity S-wave (km/s) = 3.44667 4.07621 3.77459
# Velocity P-wave (km/s) = 6.15445 7.28190 6.74179
#
# Compressibility (1/GPa) = 0.01752984
#
# Stress axis : x y z
#
# Youngs Moduli (GPa) = 96.29861 131.31488 89.45350
#
# Poissons Ratio (x) = 0.38477 0.18657
# Poissons Ratio (y) = 0.28217 0.07233
# Poissons Ratio (z) = 0.20085 0.10618
#
# Static dielectric constant tensor:
#      x y z
#    x 2.035830 0.028240 -0.014150 
#    y 0.028240 2.063720 0.065280 
#    z -0.014150 0.065280 2.089160 
# 
# From -- ./inp_files/421140.got.cif
#   From: 2010.05.17/outbox.cif.g08.bks.cpg/sg2_211_cif.got.tgz:421140.got - 2010.06.03 11:33:40.
