data_PCOD9043389
_publ_section_title
;
Structure prediction by ZEFSAII (Michael W. Deem and Ramdas Pophale) SiO2 
 PCOD9043389
Probable space group: P -1
;
_chemical_formula_sum "Si O2"
_cell_formula_units_Z 16
_cell_length_a 5.379869
_cell_length_b 8.487609
_cell_length_c 30.252104
_cell_angle_alpha 32.772322
_cell_angle_beta 113.299512
_cell_angle_gamma 119.545535
_cell_volume 649.974966
_symmetry_space_group_name_H-M "P -1"
_symmetry_group_IT_number 2
_symmetry_cell_setting 'triclinic'
loop_
_space_group_symop_operation_xyz
x,y,z
-x,-y,-z
loop_
_atom_site_type_symbol
_atom_site_label
_atom_site_fract_x
_atom_site_fract_y
_atom_site_fract_z
Si Si1 0.736575 0.059738 0.912578
Si Si2 0.861249 0.304145 0.224394
Si Si3 0.076197 0.747066 0.535541
Si Si4 0.233434 0.919228 0.346918
Si Si5 0.161735 0.695834 0.007562
Si Si6 0.572334 0.789445 0.621005
Si Si7 0.111162 0.696092 0.222515
Si Si8 0.272656 0.157869 0.193734
O O1 0.684101 0.062833 0.854916
O O2 0.119722 0.575282 0.156433
O O3 0.462300 0.914438 0.957415
O O4 0.971224 0.882860 0.972469
O O5 0.839260 0.506899 0.218372
O O6 0.605550 0.205193 0.195679
O O7 0.952275 0.018326 0.315381
O O8 0.287491 0.644443 0.607033
O O9 0.827696 0.442937 0.575259
O O10 0.242322 0.920870 0.463427
O O11 0.000000 0.000000 0.500000
O O12 0.281242 0.053822 0.269293
O O13 0.455154 0.081468 0.362602
O O14 0.219309 0.460472 0.101566
O O15 0.000000 0.500000 0.000000
O O16 0.735349 0.542795 0.695217
O O17 0.059224 0.881348 0.216323
#
# Coordination Sequence:
#
# PCOD9043389 Si02
#       8
#     2   2   2   2   2   2   2   2
#     4  10  25  46  72  99 147 197 242 315 362 429
#     4   9  24  44  66  99 138 186 243 291 368 426
#     4  11  24  43  72 105 134 181 232 289 365 438
#     4  11  25  43  67 104 139 185 233 293 363 439
#     4  12  25  44  72 107 147 193 256 307 373 424
#     4  10  23  45  70  97 143 177 230 295 359 436
#     4   9  21  46  67  99 136 191 237 300 366 435
#     4  12  25  40  71 101 140 190 243 298 366 436
#
# _framework density 24.616333999999998
#
# number of rings (size 3 to 8) (size 9 to 14) (size 15 to 20)
#    0.750    0.750    1.250    2.250    3.500    6.500 
#    2.250    0.000    0.000    0.000    0.000    0.000 
#    0.000    0.000    0.000    0.000    0.000    0.000 
#
# Total GULP energy -89371.270926 kJ/mol
# GULP energy per Si atom -5585.704433 kJ/mol
# Density = 2.456031 g / cm^3
# Si number density = 24.616334 Si / 1000 Ang^3
#
#
#
# Elastic Constant Matrix: (Units=GPa)
#
#
# Indices 1 2 3 4 5 6 
#
# 1 60.6549 13.7870 21.6953 -4.8578 -11.3468 -4.0245
# 2 13.7870 84.7815 23.1761 8.3143 -20.7819 -18.1691
# 3 21.6953 23.1761 112.5079 5.5024 -8.0677 -10.6947
# 4 -4.8578 8.3143 5.5024 47.8042 -7.0364 -2.1124
# 5 -11.3468 -20.7819 -8.0677 -7.0364 44.2031 7.0668
# 6 -4.0245 -18.1691 -10.6947 -2.1124 7.0668 20.4275
#
#
#
# Elastic Compliance Matrix: (Units=1/GPa)
#
#
# Indices 1 2 3 4 5 6 
#
# 1 0.019002 -0.001611 -0.003238 0.003168 0.004110 -0.000478
# 2 -0.001611 0.016295 -0.001523 -0.001596 0.004872 0.011528
# 3 -0.003238 -0.001523 0.010172 -0.001147 -0.000410 0.003356
# 4 0.003168 -0.001596 -0.001147 0.022141 0.003425 -0.000291
# 5 0.004110 0.004872 -0.000410 0.003425 0.027093 -0.004089
# 6 -0.000478 0.011528 0.003356 -0.000291 -0.004089 0.062255
#
#
# Mechanical properties :
#
#
# Convention : Reuss Voigt Hill
#
# Bulk Modulus (GPa) = 30.55698 41.69566 36.12632
# Shear Modulus (GPa) = 27.68416 35.77270 31.72843
#
# Velocity S-wave (km/s) = 3.35718 3.81623 3.59404
# Velocity P-wave (km/s) = 5.24097 6.03268 5.65071
#
# Compressibility (1/GPa) = 0.03272574
#
# Stress axis : x y z
#
# Youngs Moduli (GPa) = 52.62645 61.37022 98.30794
#
# Poissons Ratio (x) = 0.09884 0.31833
# Poissons Ratio (y) = 0.08476 0.14970
# Poissons Ratio (z) = 0.17041 0.09345
#
# Static dielectric constant tensor:
#      x y z
#    x 2.160550 -0.084120 -0.023300 
#    y -0.084120 1.975390 0.024220 
#    z -0.023300 0.024220 1.905760 
# 
# From -- ./inp_files/621727.got.cif
#   From: 2010.05.17/outbox.cif.g08.bks.cpg/sg2_311_cif.got.tgz:621727.got - 2010.06.03 11:33:40.
