data_PCOD9043161
_publ_section_title
;
Structure prediction by ZEFSAII (Michael W. Deem and Ramdas Pophale) SiO2 
 PCOD9043161
Probable space group: P -1
;
_chemical_formula_sum "Si O2"
_cell_formula_units_Z 15
_cell_length_a 6.527237
_cell_length_b 13.741826
_cell_length_c 13.796504
_cell_angle_alpha 33.052255
_cell_angle_beta 93.284017
_cell_angle_gamma 76.908428
_cell_volume 581.919334
_symmetry_space_group_name_H-M "P -1"
_symmetry_group_IT_number 2
_symmetry_cell_setting 'triclinic'
loop_
_space_group_symop_operation_xyz
x,y,z
-x,-y,-z
loop_
_atom_site_type_symbol
_atom_site_label
_atom_site_fract_x
_atom_site_fract_y
_atom_site_fract_z
Si Si1 0.171462 0.804251 0.236057
Si Si2 0.158599 0.140183 0.638871
Si Si3 0.500000 0.000000 0.500000
Si Si4 0.266489 0.430425 0.039874
Si Si5 0.852291 0.435612 0.730842
Si Si6 0.327569 0.069397 0.116169
Si Si7 0.832563 0.042633 0.598920
Si Si8 0.476195 0.516446 0.152841
O O1 0.238098 0.605805 0.338554
O O2 0.356737 0.869905 0.224615
O O3 0.029364 0.797010 0.331800
O O4 0.000000 0.000000 0.000000
O O5 0.183480 0.337273 0.446403
O O6 0.414017 0.965017 0.830107
O O7 0.060060 0.059828 0.617583
O O8 0.554333 0.803660 0.730129
O O9 0.224152 0.044679 0.425089
O O10 0.326977 0.555274 0.017455
O O11 0.311450 0.456679 0.906896
O O12 0.000000 0.500000 0.000000
O O13 0.712849 0.379025 0.854403
O O14 0.133300 0.272537 0.885978
O O15 0.217568 0.061863 0.222882
O O16 0.612599 0.279126 0.390452
#
# Coordination Sequence:
#
# PCOD9043161 Si02
#       8
#     2   2   1   2   2   2   2   2
#     4   9  22  45  64 105 144 186 237 287 339 417
#     4  11  23  45  69 100 147 183 233 291 345 419
#     4  10  24  48  72  98 134 180 232 292 356 418
#     4  10  24  47  70  98 136 177 231 289 356 414
#     4  11  23  44  73 103 140 189 237 281 358 410
#     4  10  23  45  69 101 146 182 232 288 345 413
#     4  10  23  46  67 103 138 179 232 293 347 416
#     4  10  23  46  68 101 139 176 230 296 338 423
#
# _framework density 25.776769000000002
#
# number of rings (size 3 to 8) (size 9 to 14) (size 15 to 20)
#    0.000    1.867    1.333    0.400    3.733    2.667 
#   19.200    4.000    0.000    0.000    0.000    0.000 
#    0.000    0.000    0.000    0.000    0.000    0.000 
#
# Total GULP energy -83618.750111 kJ/mol
# GULP energy per Si atom -5574.583341 kJ/mol
# Density = 2.571810 g / cm^3
# Si number density = 25.776769 Si / 1000 Ang^3
#
#
#
# Elastic Constant Matrix: (Units=GPa)
#
#
# Indices 1 2 3 4 5 6 
#
# 1 153.5401 63.3314 8.7434 4.8581 1.7285 26.6623
# 2 63.3314 116.7935 -1.5455 20.0800 -8.5504 9.0584
# 3 8.7434 -1.5455 88.6226 -1.0243 -14.7457 -5.6255
# 4 4.8581 20.0800 -1.0243 30.1904 -1.2058 3.3047
# 5 1.7285 -8.5504 -14.7457 -1.2058 49.0500 7.9924
# 6 26.6623 9.0584 -5.6255 3.3047 7.9924 39.1988
#
#
#
# Elastic Compliance Matrix: (Units=1/GPa)
#
#
# Indices 1 2 3 4 5 6 
#
# 1 0.009708 -0.005334 -0.001504 0.002523 -0.000742 -0.005648
# 2 -0.005334 0.012894 0.001128 -0.007688 0.002429 0.000963
# 3 -0.001504 0.001128 0.012164 -0.000146 0.003612 0.001784
# 4 0.002523 -0.007688 -0.000146 0.038172 -0.000017 -0.003175
# 5 -0.000742 0.002429 0.003612 -0.000017 0.022598 -0.004144
# 6 -0.005648 0.000963 0.001784 -0.003175 -0.004144 0.030499
#
#
# Mechanical properties :
#
#
# Convention : Reuss Voigt Hill
#
# Bulk Modulus (GPa) = 42.83313 55.55721 49.19517
# Shear Modulus (GPa) = 34.42620 42.91629 38.67124
#
# Velocity S-wave (km/s) = 3.65848 4.08477 3.87749
# Velocity P-wave (km/s) = 5.87359 6.62172 6.25884
#
# Compressibility (1/GPa) = 0.02334641
#
# Stress axis : x y z
#
# Youngs Moduli (GPa) = 103.00721 77.55306 82.20731
#
# Poissons Ratio (x) = 0.41368 0.12360
# Poissons Ratio (y) = 0.54946 -0.09269
# Poissons Ratio (z) = 0.15488 -0.08744
#
# Static dielectric constant tensor:
#      x y z
#    x 2.179890 0.134320 -0.044340 
#    y 0.134320 2.179770 -0.076580 
#    z -0.044340 -0.076580 1.997520 
# 
# From -- ./inp_files/359072.got.cif
#   From: 2010.05.17/outbox.cif.g08.bks.cpg/sg2_180_cif.got.tgz:359072.got - 2010.06.03 11:33:40.
