data_PCOD9043764
_publ_section_title
;
Structure prediction by ZEFSAII (Michael W. Deem and Ramdas Pophale) SiO2 
 PCOD9043764
Probable space group: P -1
;
_chemical_formula_sum "Si O2"
_cell_formula_units_Z 15
_cell_length_a 21.211542
_cell_length_b 8.813774
_cell_length_c 13.208892
_cell_angle_alpha 135.707595
_cell_angle_beta 159.239489
_cell_angle_gamma 46.398055
_cell_volume 609.193471
_symmetry_space_group_name_H-M "P -1"
_symmetry_group_IT_number 2
_symmetry_cell_setting 'triclinic'
loop_
_space_group_symop_operation_xyz
x,y,z
-x,-y,-z
loop_
_atom_site_type_symbol
_atom_site_label
_atom_site_fract_x
_atom_site_fract_y
_atom_site_fract_z
Si Si1 0.077362 0.532707 0.742932
Si Si2 0.801435 0.404439 0.751429
Si Si3 0.337779 0.897174 0.353768
Si Si4 0.887019 0.850421 0.003713
Si Si5 0.881063 0.944877 0.390120
Si Si6 0.267537 0.304712 0.578882
Si Si7 0.500000 0.500000 0.500000
Si Si8 0.390849 0.661387 0.778640
O O1 0.921871 0.598003 0.620001
O O2 0.000000 0.500000 0.500000
O O3 0.175326 0.300346 0.811267
O O4 0.206223 0.722064 0.032784
O O5 0.678836 0.395649 0.660347
O O6 0.673826 0.365489 0.445162
O O7 0.974268 0.231051 0.916683
O O8 0.875825 0.638793 0.956028
O O9 0.508987 0.737043 0.562865
O O10 0.283307 0.061472 0.442653
O O11 0.304388 0.065111 0.288463
O O12 0.989457 0.020828 0.303770
O O13 0.713886 0.119816 0.231480
O O14 0.000000 0.000000 0.500000
O O15 0.333317 0.462157 0.665225
O O16 0.401471 0.319926 0.882227
#
# Coordination Sequence:
#
# PCOD9043764 Si02
#       8
#     2   2   2   2   2   2   1   2
#     4  12  27  45  71 106 146 190 241 299 365 428
#     4  10  24  47  72 111 141 195 242 308 361 444
#     4  12  28  48  68 107 147 198 239 303 364 444
#     4  10  23  46  78  98 147 201 246 285 367 451
#     4  11  23  43  73 110 139 186 246 304 350 443
#     4  11  25  46  72 104 142 197 237 297 361 442
#     4  12  32  42  70 112 150 180 244 318 368 414
#     4  10  23  45  75 102 143 187 248 293 364 432
#
# _framework density 24.622720999999999
#
# number of rings (size 3 to 8) (size 9 to 14) (size 15 to 20)
#    0.000    1.067    4.000    0.400    9.333    0.533 
#    0.000    1.333    0.000    0.000    0.000    0.000 
#    0.000    0.000    0.000    0.000    0.000    0.000 
#
# Total GULP energy -83739.739996 kJ/mol
# GULP energy per Si atom -5582.649333 kJ/mol
# Density = 2.456668 g / cm^3
# Si number density = 24.622721 Si / 1000 Ang^3
#
#
#
# Elastic Constant Matrix: (Units=GPa)
#
#
# Indices 1 2 3 4 5 6 
#
# 1 72.2614 11.5449 4.3728 -1.7401 0.4415 -12.4284
# 2 11.5449 166.6625 27.6586 2.5711 -8.2868 -5.8377
# 3 4.3728 27.6586 55.2863 1.6509 -21.2192 -12.3131
# 4 -1.7401 2.5711 1.6509 50.1011 1.1028 -6.3479
# 5 0.4415 -8.2868 -21.2192 1.1028 34.9608 -7.0979
# 6 -12.4284 -5.8377 -12.3131 -6.3479 -7.0979 27.9765
#
#
#
# Elastic Compliance Matrix: (Units=1/GPa)
#
#
# Indices 1 2 3 4 5 6 
#
# 1 0.015363 -0.001015 0.002124 0.001542 0.002540 0.008542
# 2 -0.001015 0.006626 -0.003826 -0.000365 -0.000945 -0.001075
# 3 0.002124 -0.003826 0.033664 0.001336 0.023780 0.021298
# 4 0.001542 -0.000365 0.001336 0.020749 0.001317 0.006239
# 5 0.002540 -0.000945 0.023780 0.001317 0.047564 0.023764
# 6 0.008542 -0.001075 0.021298 0.006239 0.023764 0.056134
#
#
# Mechanical properties :
#
#
# Convention : Reuss Voigt Hill
#
# Bulk Modulus (GPa) = 19.91247 42.37366 31.14306
# Shear Modulus (GPa) = 24.71890 39.31659 32.01775
#
# Velocity S-wave (km/s) = 3.17189 4.00028 3.60993
# Velocity P-wave (km/s) = 4.63886 6.21151 5.48188
#
# Compressibility (1/GPa) = 0.05021979
#
# Stress axis : x y z
#
# Youngs Moduli (GPa) = 65.09088 150.91158 29.70508
#
# Poissons Ratio (x) = 0.15317 -0.06310
# Poissons Ratio (y) = 0.06607 0.11366
# Poissons Ratio (z) = -0.13826 0.57741
#
# Static dielectric constant tensor:
#      x y z
#    x 1.974400 0.077560 -0.071150 
#    y 0.077560 1.988630 -0.029610 
#    z -0.071150 -0.029610 2.025040 
# 
# From -- ./inp_files/542625.got.cif
#   From: 2010.05.17/outbox.cif.g08.bks.cpg/sg2_272_cif.got.tgz:542625.got - 2010.06.03 11:33:40.
