data_PCOD9043597
_publ_section_title
;
Structure prediction by ZEFSAII (Michael W. Deem and Ramdas Pophale) SiO2 
 PCOD9043597
Probable space group: P -1
;
_chemical_formula_sum "Si O2"
_cell_formula_units_Z 16
_cell_length_a 21.235865
_cell_length_b 18.124150
_cell_length_c 7.765706
_cell_angle_alpha 36.278319
_cell_angle_beta 149.275180
_cell_angle_gamma 154.657670
_cell_volume 647.751333
_symmetry_space_group_name_H-M "P -1"
_symmetry_group_IT_number 2
_symmetry_cell_setting 'triclinic'
loop_
_space_group_symop_operation_xyz
x,y,z
-x,-y,-z
loop_
_atom_site_type_symbol
_atom_site_label
_atom_site_fract_x
_atom_site_fract_y
_atom_site_fract_z
Si Si1 0.807998 0.774335 0.273643
Si Si2 0.425063 0.231544 0.004997
Si Si3 0.573149 0.924258 0.385471
Si Si4 0.233280 0.447060 0.952766
Si Si5 0.078337 0.906710 0.230224
Si Si6 0.853251 0.108509 0.190679
Si Si7 0.029409 0.545381 0.281444
Si Si8 0.311200 0.561507 0.319221
O O1 0.701757 0.576093 0.346562
O O2 0.990604 0.847811 0.627674
O O3 0.701919 0.774545 0.166183
O O4 0.858810 0.907090 0.994558
O O5 0.483961 0.159235 0.403035
O O6 0.583709 0.422858 0.952457
O O7 0.318471 0.089035 0.873685
O O8 0.491223 0.757372 0.389540
O O9 0.779279 0.069252 0.590347
O O10 0.500000 0.000000 0.000000
O O11 0.110328 0.244566 0.006171
O O12 0.122159 0.486584 0.546341
O O13 0.269232 0.495001 0.149102
O O14 0.094447 0.865534 0.536726
O O15 0.852498 0.250625 0.859971
O O16 0.000000 0.500000 0.500000
O O17 0.840338 0.452593 0.945860
#
# Coordination Sequence:
#
# PCOD9043597 Si02
#       8
#     2   2   2   2   2   2   2   2
#     4  10  25  47  72  94 139 180 237 271 345 401
#     4  11  27  42  69 101 136 182 223 287 336 407
#     4  11  26  45  71 102 140 178 228 276 347 407
#     4  11  25  43  67 106 136 174 233 278 346 399
#     4  11  26  44  69 102 135 185 227 283 333 408
#     4  11  24  45  70  97 135 184 230 281 342 396
#     4   9  22  39  71  97 134 175 225 283 342 403
#     4  10  23  45  72  98 134 185 222 285 335 400
#
# _framework density 24.700835999999999
#
# number of rings (size 3 to 8) (size 9 to 14) (size 15 to 20)
#    0.000    1.500    0.000    2.250   21.000    3.500 
#    2.250    0.000    0.000    0.000    0.000    0.000 
#    0.000    0.000    0.000    0.000    0.000    0.000 
#
# Total GULP energy -89594.847982 kJ/mol
# GULP energy per Si atom -5599.677999 kJ/mol
# Density = 2.464462 g / cm^3
# Si number density = 24.700836 Si / 1000 Ang^3
#
#
#
# Elastic Constant Matrix: (Units=GPa)
#
#
# Indices 1 2 3 4 5 6 
#
# 1 61.0233 42.1650 12.6479 -3.4568 -18.7553 7.6451
# 2 42.1650 168.6252 31.5039 -8.7769 -18.1573 3.1070
# 3 12.6479 31.5039 87.7938 -29.8731 -1.6734 -4.4018
# 4 -3.4568 -8.7769 -29.8731 41.4549 -4.2528 -4.4077
# 5 -18.7553 -18.1573 -1.6734 -4.2528 33.6379 4.2131
# 6 7.6451 3.1070 -4.4018 -4.4077 4.2131 38.4479
#
#
#
# Elastic Compliance Matrix: (Units=1/GPa)
#
#
# Indices 1 2 3 4 5 6 
#
# 1 0.024138 -0.004279 -0.001906 0.000317 0.011837 -0.005933
# 2 -0.004279 0.007566 -0.002127 -0.000145 0.001598 -0.000196
# 3 -0.001906 -0.002127 0.016602 0.011723 -0.000383 0.003838
# 4 0.000317 -0.000145 0.011723 0.033506 0.004335 0.004657
# 5 0.011837 0.001598 -0.000383 0.004335 0.038503 -0.006249
# 6 -0.005933 -0.000196 0.003838 0.004657 -0.006249 0.028863
#
#
# Mechanical properties :
#
#
# Convention : Reuss Voigt Hill
#
# Bulk Modulus (GPa) = 31.56344 54.45287 43.00815
# Shear Modulus (GPa) = 28.35051 38.11651 33.23351
#
# Velocity S-wave (km/s) = 3.39153 3.93253 3.67200
# Velocity P-wave (km/s) = 5.30496 6.53548 5.95211
#
# Compressibility (1/GPa) = 0.03168223
#
# Stress axis : x y z
#
# Youngs Moduli (GPa) = 41.42767 132.17103 60.23269
#
# Poissons Ratio (x) = 0.56561 0.11480
# Poissons Ratio (y) = 0.17728 0.12811
# Poissons Ratio (z) = 0.07896 0.28113
#
# Static dielectric constant tensor:
#      x y z
#    x 1.979060 0.008470 0.018580 
#    y 0.008470 1.955620 -0.004130 
#    z 0.018580 -0.004130 1.985690 
# 
# From -- ./inp_files/225860.got.cif
#   From: 2010.05.17/outbox.cif.g08.bks.cpg/sg2_113_cif.got.tgz:225860.got - 2010.06.03 11:33:40.
