data_PCOD9043038
_publ_section_title
;
Structure prediction by ZEFSAII (Michael W. Deem and Ramdas Pophale) SiO2 
 PCOD9043038
Probable space group: P -1
;
_chemical_formula_sum "Si O2"
_cell_formula_units_Z 14
_cell_length_a 9.693382
_cell_length_b 11.304981
_cell_length_c 11.183385
_cell_angle_alpha 132.007127
_cell_angle_beta 135.444018
_cell_angle_gamma 57.591062
_cell_volume 634.787565
_symmetry_space_group_name_H-M "P -1"
_symmetry_group_IT_number 2
_symmetry_cell_setting 'triclinic'
loop_
_space_group_symop_operation_xyz
x,y,z
-x,-y,-z
loop_
_atom_site_type_symbol
_atom_site_label
_atom_site_fract_x
_atom_site_fract_y
_atom_site_fract_z
Si Si1 0.156780 0.129185 0.173154
Si Si2 0.510491 0.389321 0.191590
Si Si3 0.463173 0.129922 0.167610
Si Si4 0.183689 0.982201 0.509817
Si Si5 0.458531 0.771174 0.378497
Si Si6 0.134468 0.597180 0.728390
Si Si7 0.344937 0.295275 0.781549
O O1 0.259788 0.115422 0.099276
O O2 0.345812 0.150136 0.395251
O O3 0.011173 0.290281 0.205631
O O4 0.000000 0.000000 0.000000
O O5 0.472691 0.304415 0.234561
O O6 0.482925 0.583467 0.307972
O O7 0.726868 0.326921 0.229855
O O8 0.380435 0.321832 0.960807
O O9 0.634066 0.081440 0.335191
O O10 0.500000 0.000000 0.000000
O O11 0.249982 0.862316 0.358193
O O12 0.197579 0.160659 0.590410
O O13 0.000000 0.000000 0.500000
O O14 0.477806 0.768817 0.243764
O O15 0.270953 0.468795 0.802597
O O16 0.000000 0.500000 0.500000
#
# Coordination Sequence:
#
# PCOD9043038 Si02
#       7
#     2   2   2   2   2   2   2
#     4  11  24  42  71 104 131 177 227 276 334 402
#     4  11  23  45  70  97 140 176 218 280 337 401
#     4  11  24  46  67  96 139 177 222 276 342 393
#     4  11  26  42  66  97 134 179 224 280 334 392
#     4  10  23  45  68 101 131 179 224 278 335 393
#     4  11  22  42  69 101 128 172 228 277 330 394
#     4  11  23  45  67  96 139 174 221 276 336 398
#
# _framework density 22.054621000000001
#
# number of rings (size 3 to 8) (size 9 to 14) (size 15 to 20)
#    0.000    1.143    4.286    3.000    4.000    4.571 
#    7.714    1.429    0.000    0.000    0.000    0.000 
#    0.000    0.000    0.000    0.000    0.000    0.000 
#
# Total GULP energy -78086.177106 kJ/mol
# GULP energy per Si atom -5577.584079 kJ/mol
# Density = 2.200442 g / cm^3
# Si number density = 22.054621 Si / 1000 Ang^3
#
#
#
# Elastic Constant Matrix: (Units=GPa)
#
#
# Indices 1 2 3 4 5 6 
#
# 1 194.4347 54.4760 19.8199 19.0444 22.4205 -24.7526
# 2 54.4760 72.8061 23.9990 24.1524 9.0628 -11.8946
# 3 19.8199 23.9990 33.8223 13.6362 -0.6083 -7.6346
# 4 19.0444 24.1524 13.6362 32.7994 -0.1101 -0.7691
# 5 22.4205 9.0628 -0.6083 -0.1101 35.9530 3.2947
# 6 -24.7526 -11.8946 -7.6346 -0.7691 3.2947 51.6047
#
#
#
# Elastic Compliance Matrix: (Units=1/GPa)
#
#
# Indices 1 2 3 4 5 6 
#
# 1 0.007174 -0.003995 -0.000431 -0.000994 -0.003723 0.002679
# 2 -0.003995 0.024870 -0.010097 -0.011753 -0.004206 0.002416
# 3 -0.000431 -0.010097 0.041624 -0.009532 0.003188 0.003278
# 4 -0.000994 -0.011753 -0.009532 0.043598 0.003940 -0.004198
# 5 -0.003723 -0.004206 0.003188 0.003940 0.031651 -0.004245
# 6 0.002679 0.002416 0.003278 -0.004198 -0.004245 0.021914
#
#
# Mechanical properties :
#
#
# Convention : Reuss Voigt Hill
#
# Bulk Modulus (GPa) = 22.41058 55.29475 38.85267
# Shear Modulus (GPa) = 23.28291 37.58929 30.43610
#
# Velocity S-wave (km/s) = 3.25267 4.13288 3.71891
# Velocity P-wave (km/s) = 4.92848 6.92102 6.00793
#
# Compressibility (1/GPa) = 0.04462177
#
# Stress axis : x y z
#
# Youngs Moduli (GPa) = 139.39112 40.20933 24.02482
#
# Poissons Ratio (x) = 0.16063 0.01034
# Poissons Ratio (y) = 0.55686 0.24259
# Poissons Ratio (z) = 0.06002 0.40601
#
# Static dielectric constant tensor:
#      x y z
#    x 1.860890 0.001220 -0.052060 
#    y 0.001220 1.781570 -0.001930 
#    z -0.052060 -0.001930 1.912760 
# 
# From -- ./inp_files/153864.got.cif
#   From: 2010.05.17/outbox.cif.g08.bks.cpg/sg2_77_cif.got.tgz:153864.got - 2010.06.03 11:33:40.
