data_PCOD9043100
_publ_section_title
;
Structure prediction by ZEFSAII (Michael W. Deem and Ramdas Pophale) SiO2 
 PCOD9043100
Probable space group: P -1
;
_chemical_formula_sum "Si O2"
_cell_formula_units_Z 16
_cell_length_a 17.124463
_cell_length_b 11.278871
_cell_length_c 20.445069
_cell_angle_alpha 149.893152
_cell_angle_beta 158.528752
_cell_angle_gamma 30.437553
_cell_volume 689.054790
_symmetry_space_group_name_H-M "P -1"
_symmetry_group_IT_number 2
_symmetry_cell_setting 'triclinic'
loop_
_space_group_symop_operation_xyz
x,y,z
-x,-y,-z
loop_
_atom_site_type_symbol
_atom_site_label
_atom_site_fract_x
_atom_site_fract_y
_atom_site_fract_z
Si Si1 0.566825 0.277241 0.997016
Si Si2 0.750897 0.005327 0.331874
Si Si3 0.532785 0.035187 0.463403
Si Si4 0.160022 0.007924 0.462626
Si Si5 0.223153 0.522030 0.623459
Si Si6 0.662975 0.872598 0.768252
Si Si7 0.007116 0.572686 0.116107
Si Si8 0.455593 0.452682 0.232865
O O1 0.358727 0.216375 0.843581
O O2 0.683126 0.048746 0.928745
O O3 0.500000 0.500000 0.000000
O O4 0.710629 0.363864 0.204568
O O5 0.758575 0.104668 0.457299
O O6 0.574675 0.199332 0.242579
O O7 0.000000 0.000000 0.500000
O O8 0.732532 0.773381 0.480040
O O9 0.500000 0.000000 0.500000
O O10 0.307875 0.061997 0.254693
O O11 0.563195 0.309115 0.622632
O O12 0.397005 0.931624 0.575928
O O13 0.000368 0.856919 0.242394
O O14 0.025075 0.298643 0.501385
O O15 0.392832 0.549270 0.712538
O O16 0.785674 0.603537 0.764976
O O17 0.000000 0.500000 0.000000
O O18 0.794027 0.544890 0.975145
#
# Coordination Sequence:
#
# PCOD9043100 Si02
#       8
#     2   2   2   2   2   2   2   2
#     4  11  24  45  70 103 143 184 234 298 354 427
#     4  11  23  43  70 108 139 181 233 294 359 421
#     4  10  23  45  68  96 141 188 234 285 353 427
#     4  11  23  40  70 101 137 181 228 299 354 419
#     4  11  23  44  69 103 140 183 238 287 365 419
#     4  11  23  45  66  99 137 185 236 286 359 425
#     4  12  24  42  68 101 139 180 232 292 363 424
#     4  11  24  44  70 102 142 182 236 299 351 426
#
# _framework density 23.220215
#
# number of rings (size 3 to 8) (size 9 to 14) (size 15 to 20)
#    0.000    1.000    2.500    4.875    1.750    1.500 
#    4.500    2.500    0.000    0.000    0.000    0.000 
#    0.000    0.000    0.000    0.000    0.000    0.000 
#
# Total GULP energy -89125.817716 kJ/mol
# GULP energy per Si atom -5570.363607 kJ/mol
# Density = 2.316736 g / cm^3
# Si number density = 23.220215 Si / 1000 Ang^3
#
#
#
# Elastic Constant Matrix: (Units=GPa)
#
#
# Indices 1 2 3 4 5 6 
#
# 1 70.0858 36.2547 15.0962 -6.9438 -1.8980 17.0221
# 2 36.2547 159.1729 33.9825 -7.5122 7.2829 16.6456
# 3 15.0962 33.9825 56.7160 2.4353 1.0640 -6.8782
# 4 -6.9438 -7.5122 2.4353 35.3692 -1.5006 -6.4770
# 5 -1.8980 7.2829 1.0640 -1.5006 47.0322 0.7613
# 6 17.0221 16.6456 -6.8782 -6.4770 0.7613 35.8288
#
#
#
# Elastic Compliance Matrix: (Units=1/GPa)
#
#
# Indices 1 2 3 4 5 6 
#
# 1 0.018786 -0.002363 -0.004717 0.002034 0.001432 -0.008395
# 2 -0.002363 0.008302 -0.004783 0.000945 -0.001187 -0.003456
# 3 -0.004717 -0.004783 0.022872 -0.001967 -0.000167 0.008502
# 4 0.002034 0.000945 -0.001967 0.029699 0.000870 0.003567
# 5 0.001432 -0.001187 -0.000167 0.000870 0.021543 -0.000461
# 6 -0.008395 -0.003456 0.008502 0.003567 -0.000461 0.035792
#
#
# Mechanical properties :
#
#
# Convention : Reuss Voigt Hill
#
# Bulk Modulus (GPa) = 38.11841 50.73796 44.42819
# Shear Modulus (GPa) = 29.50487 37.02212 33.26350
#
# Velocity S-wave (km/s) = 3.56849 3.99732 3.78897
# Velocity P-wave (km/s) = 5.78191 6.57289 6.19005
#
# Compressibility (1/GPa) = 0.02623404
#
# Stress axis : x y z
#
# Youngs Moduli (GPa) = 53.23089 120.44866 43.72251
#
# Poissons Ratio (x) = 0.28468 0.20622
# Poissons Ratio (y) = 0.12581 0.20912
# Poissons Ratio (z) = 0.25107 0.57609
#
# Static dielectric constant tensor:
#      x y z
#    x 1.100360 -0.169030 -0.200470 
#    y -0.169030 1.837340 -0.122950 
#    z -0.200470 -0.122950 1.543790 
# 
# From -- ./inp_files/600136.got.cif
#   From: 2010.05.17/outbox.cif.g08.bks.cpg/sg2_301_cif.got.tgz:600136.got - 2010.06.03 11:33:40.
