data_PCOD9043835
_publ_section_title
;
Structure prediction by ZEFSAII (Michael W. Deem and Ramdas Pophale) SiO2 
 PCOD9043835
Probable space group: P -1
;
_chemical_formula_sum "Si O2"
_cell_formula_units_Z 16
_cell_length_a 5.911459
_cell_length_b 21.158157
_cell_length_c 9.523317
_cell_angle_alpha 128.311782
_cell_angle_beta 117.017249
_cell_angle_gamma 44.512933
_cell_volume 655.075130
_symmetry_space_group_name_H-M "P -1"
_symmetry_group_IT_number 2
_symmetry_cell_setting 'triclinic'
loop_
_space_group_symop_operation_xyz
x,y,z
-x,-y,-z
loop_
_atom_site_type_symbol
_atom_site_label
_atom_site_fract_x
_atom_site_fract_y
_atom_site_fract_z
Si Si1 0.683567 0.078178 0.112374
Si Si2 0.353125 0.595395 0.987011
Si Si3 0.726740 0.460799 0.651247
Si Si4 0.736189 0.223921 0.183411
Si Si5 0.892837 0.560680 0.698664
Si Si6 0.106602 0.081396 0.841140
Si Si7 0.128736 0.229333 0.514619
Si Si8 0.801446 0.200749 0.646924
O O1 0.601762 0.186261 0.207160
O O2 0.796541 0.026220 0.225545
O O3 0.403614 0.078807 0.969218
O O4 0.000000 0.000000 0.000000
O O5 0.565420 0.546845 0.841936
O O6 0.028483 0.618367 0.868285
O O7 0.500000 0.500000 0.000000
O O8 0.298219 0.694100 0.166501
O O9 0.500000 0.500000 0.500000
O O10 0.017276 0.463095 0.695521
O O11 0.858300 0.353235 0.604471
O O12 0.483470 0.344820 0.272182
O O13 0.065553 0.192537 0.302121
O O14 0.811543 0.169560 0.979461
O O15 0.000000 0.500000 0.500000
O O16 0.031650 0.109459 0.697090
O O17 0.471485 0.209710 0.571354
O O18 0.014967 0.190747 0.556775
#
# Coordination Sequence:
#
# PCOD9043835 Si02
#       8
#     2   2   2   2   2   2   2   2
#     4   9  21  43  79 111 137 173 248 304 361 433
#     4  12  25  42  63  96 138 192 238 304 362 424
#     4  12  24  42  64  95 136 190 248 304 352 422
#     4  11  24  43  74 104 140 194 244 302 360 427
#     4  12  25  41  70 102 142 189 252 295 357 427
#     4  10  23  45  77 107 140 186 242 301 364 446
#     4  12  29  46  66 104 150 191 241 301 366 432
#     4  12  29  46  68 104 149 192 237 299 372 438
#
# _framework density 24.424678
#
# number of rings (size 3 to 8) (size 9 to 14) (size 15 to 20)
#    0.000    0.750    3.750    2.250   10.500    1.000 
#    0.000    1.250    0.000    0.000    0.000    0.000 
#    0.000    0.000    0.000    0.000    0.000    0.000 
#
# Total GULP energy -89204.330834 kJ/mol
# GULP energy per Si atom -5575.270677 kJ/mol
# Density = 2.436909 g / cm^3
# Si number density = 24.424678 Si / 1000 Ang^3
#
#
#
# Elastic Constant Matrix: (Units=GPa)
#
#
# Indices 1 2 3 4 5 6 
#
# 1 126.5078 37.4523 27.2852 -21.0243 3.0123 20.9845
# 2 37.4523 103.7939 10.7457 -11.7074 -17.5809 24.2090
# 3 27.2852 10.7457 77.4648 -8.3228 -10.0512 0.8815
# 4 -21.0243 -11.7074 -8.3228 32.4694 0.0556 -2.3664
# 5 3.0123 -17.5809 -10.0512 0.0556 37.4122 -2.6050
# 6 20.9845 24.2090 0.8815 -2.3664 -2.6050 47.3613
#
#
#
# Elastic Compliance Matrix: (Units=1/GPa)
#
#
# Indices 1 2 3 4 5 6 
#
# 1 0.010901 -0.002838 -0.003309 0.004956 -0.003334 -0.003254
# 2 -0.002838 0.013121 0.000310 0.002599 0.006126 -0.004988
# 3 -0.003309 0.000310 0.014797 0.001854 0.004480 0.001371
# 4 0.004956 0.002599 0.001854 0.035291 0.001147 -0.001732
# 5 -0.003334 0.006126 0.004480 0.001147 0.031081 0.000029
# 6 -0.003254 -0.004988 0.001371 -0.001732 0.000029 0.024995
#
#
# Mechanical properties :
#
#
# Convention : Reuss Voigt Hill
#
# Bulk Modulus (GPa) = 36.83894 50.97030 43.90462
# Shear Modulus (GPa) = 33.13297 38.93415 36.03356
#
# Velocity S-wave (km/s) = 3.68711 3.99689 3.84512
# Velocity P-wave (km/s) = 5.76557 6.49721 6.14230
#
# Compressibility (1/GPa) = 0.02714519
#
# Stress axis : x y z
#
# Youngs Moduli (GPa) = 91.73311 76.21580 67.58334
#
# Poissons Ratio (x) = 0.21629 0.22365
# Poissons Ratio (y) = 0.26032 -0.02098
# Poissons Ratio (z) = 0.30356 -0.02366
#
# Static dielectric constant tensor:
#      x y z
#    x 2.252830 0.028170 -0.024250 
#    y 0.028170 1.942510 -0.037460 
#    z -0.024250 -0.037460 1.968100 
# 
# From -- ./inp_files/141522.got.cif
#   From: 2010.05.17/outbox.cif.g08.bks.cpg/sg2_71_cif.got.tgz:141522.got - 2010.06.03 11:33:40.
