data_PCOD9043108
_publ_section_title
;
Structure prediction by ZEFSAII (Michael W. Deem and Ramdas Pophale) SiO2 
 PCOD9043108
Probable space group: P -1
;
_chemical_formula_sum "Si O2"
_cell_formula_units_Z 16
_cell_length_a 15.298256
_cell_length_b 6.935228
_cell_length_c 14.770356
_cell_angle_alpha 61.982522
_cell_angle_beta 141.286584
_cell_angle_gamma 131.447325
_cell_volume 730.983516
_symmetry_space_group_name_H-M "P -1"
_symmetry_group_IT_number 2
_symmetry_cell_setting 'triclinic'
loop_
_space_group_symop_operation_xyz
x,y,z
-x,-y,-z
loop_
_atom_site_type_symbol
_atom_site_label
_atom_site_fract_x
_atom_site_fract_y
_atom_site_fract_z
Si Si1 0.958524 0.101402 0.032587
Si Si2 0.887252 0.589428 0.165379
Si Si3 0.116000 0.139711 0.743233
Si Si4 0.558699 0.772436 0.942657
Si Si5 0.668279 0.562062 0.319461
Si Si6 0.438056 0.758463 0.143379
Si Si7 0.843816 0.550534 0.636478
Si Si8 0.744106 0.333474 0.795720
O O1 0.801400 0.128137 0.888424
O O2 0.102900 0.387218 0.111110
O O3 0.950412 0.890923 0.139049
O O4 0.000000 0.000000 0.000000
O O5 0.869806 0.604626 0.256061
O O6 0.016500 0.520821 0.248585
O O7 0.720291 0.431056 0.006279
O O8 0.191693 0.242071 0.681285
O O9 0.246227 0.082055 0.911328
O O10 0.943798 0.863317 0.658650
O O11 0.474626 0.684477 0.796611
O O12 0.502789 0.951541 0.900968
O O13 0.500000 0.500000 0.000000
O O14 0.577564 0.697888 0.256037
O O15 0.740508 0.481135 0.476729
O O16 0.384104 0.733485 0.211171
O O17 0.729875 0.395407 0.665604
#
# Coordination Sequence:
#
# PCOD9043108 Si02
#       8
#     2   2   2   2   2   2   2   2
#     4  11  19  37  65 104 134 169 221 287 328 382
#     4  12  22  38  75 102 130 175 227 282 337 391
#     4  11  23  44  71  98 130 173 236 277 323 405
#     4  10  23  45  68  98 132 176 231 273 320 404
#     4  11  28  45  64  98 143 179 221 277 339 400
#     4  12  24  42  71 102 135 180 223 280 332 400
#     4  12  25  44  67 103 136 176 222 281 342 397
#     4  11  23  37  67 102 136 171 224 276 333 406
#
# _framework density 21.888318999999999
#
# number of rings (size 3 to 8) (size 9 to 14) (size 15 to 20)
#    0.000    0.750    6.250    1.875    0.000    6.000 
#    0.000    0.625    0.000    0.000    0.000    0.000 
#    0.000    0.000    0.000    0.000    0.000    0.000 
#
# Total GULP energy -89246.074614 kJ/mol
# GULP energy per Si atom -5577.879663 kJ/mol
# Density = 2.183850 g / cm^3
# Si number density = 21.888319 Si / 1000 Ang^3
#
#
#
# Elastic Constant Matrix: (Units=GPa)
#
#
# Indices 1 2 3 4 5 6 
#
# 1 122.5579 20.5070 19.8932 -8.3377 -19.7125 -15.4597
# 2 20.5070 100.5865 7.2032 -3.3236 -2.7779 -5.1229
# 3 19.8932 7.2032 83.1667 4.4511 -31.2528 5.9936
# 4 -8.3377 -3.3236 4.4511 19.6989 -5.5696 3.0314
# 5 -19.7125 -2.7779 -31.2528 -5.5696 29.8949 -2.6636
# 6 -15.4597 -5.1229 5.9936 3.0314 -2.6636 32.4037
#
#
#
# Elastic Compliance Matrix: (Units=1/GPa)
#
#
# Indices 1 2 3 4 5 6 
#
# 1 0.010839 -0.001523 0.000124 0.005984 0.008701 0.005063
# 2 -0.001523 0.010378 -0.000939 0.000960 -0.000759 0.000936
# 3 0.000124 -0.000939 0.020072 0.001664 0.021091 -0.002224
# 4 0.005984 0.000960 0.001664 0.057944 0.016448 -0.001370
# 5 0.008701 -0.000759 0.021091 0.016448 0.064578 0.003900
# 6 0.005063 0.000936 -0.002224 -0.001370 0.003900 0.034284
#
#
# Mechanical properties :
#
#
# Convention : Reuss Voigt Hill
#
# Bulk Modulus (GPa) = 27.31150 44.61312 35.96231
# Shear Modulus (GPa) = 23.25837 33.64667 28.45252
#
# Velocity S-wave (km/s) = 3.26328 3.92496 3.60932
# Velocity P-wave (km/s) = 5.16753 6.40054 5.81680
#
# Compressibility (1/GPa) = 0.03661462
#
# Stress axis : x y z
#
# Youngs Moduli (GPa) = 92.25554 96.35974 49.81952
#
# Poissons Ratio (x) = 0.14674 -0.00617
# Poissons Ratio (y) = 0.14049 0.04676
# Poissons Ratio (z) = -0.01142 0.09044
#
# Static dielectric constant tensor:
#      x y z
#    x 1.693250 -0.066180 0.108650 
#    y -0.066180 1.797830 0.066970 
#    z 0.108650 0.066970 1.708400 
# 
# From -- ./inp_files/525628.got.cif
#   From: 2010.05.17/outbox.cif.g08.bks.cpg/sg2_263_cif.got.tgz:525628.got - 2010.06.03 11:33:40.
