data_PCOD9043740
_publ_section_title
;
Structure prediction by ZEFSAII (Michael W. Deem and Ramdas Pophale) SiO2 
 PCOD9043740
Probable space group: P -1
;
_chemical_formula_sum "Si O2"
_cell_formula_units_Z 10
_cell_length_a 8.039363
_cell_length_b 4.808022
_cell_length_c 13.017888
_cell_angle_alpha 94.562123
_cell_angle_beta 135.523717
_cell_angle_gamma 95.587748
_cell_volume 342.757972
_symmetry_space_group_name_H-M "P -1"
_symmetry_group_IT_number 2
_symmetry_cell_setting 'triclinic'
loop_
_space_group_symop_operation_xyz
x,y,z
-x,-y,-z
loop_
_atom_site_type_symbol
_atom_site_label
_atom_site_fract_x
_atom_site_fract_y
_atom_site_fract_z
Si Si1 0.729961 0.364773 0.078956
Si Si2 0.464456 0.028208 0.783520
Si Si3 0.969033 0.649440 0.383497
Si Si4 0.099309 0.845244 0.134480
Si Si5 0.504838 0.720935 0.601999
O O1 0.857430 0.396195 0.246483
O O2 0.917695 0.580207 0.095449
O O3 0.500000 0.500000 0.000000
O O4 0.614170 0.075449 0.957653
O O5 0.216711 0.138988 0.684211
O O6 0.653098 0.241772 0.796668
O O7 0.477701 0.742436 0.717655
O O8 0.000000 0.500000 0.500000
O O9 0.241281 0.804181 0.471273
O O10 0.219831 0.087878 0.275992
O O11 0.000000 0.000000 0.000000
O O12 0.500000 0.500000 0.500000
#
# Coordination Sequence:
#
# PCOD9043740 Si02
#       5
#     2   2   2   2   2
#     4  10  23  45  74 110 149 194 253 312 374 452
#     4   9  23  45  77 107 150 198 251 310 378 455
#     4  11  25  47  72 107 155 199 249 314 381 445
#     4  10  24  44  77 108 153 195 254 308 385 451
#     4  10  25  45  71 108 155 195 252 308 383 448
#
# _framework density 29.175107000000001
#
# number of rings (size 3 to 8) (size 9 to 14) (size 15 to 20)
#    1.200    0.800    0.000    1.200    8.400    2.400 
#   10.800    5.000    0.000    0.000    0.000    0.000 
#    0.000    0.000    0.000    0.000    0.000    0.000 
#
# Total GULP energy -55767.414399 kJ/mol
# GULP energy per Si atom -5576.741440 kJ/mol
# Density = 2.910870 g / cm^3
# Si number density = 29.175107 Si / 1000 Ang^3
#
#
#
# Elastic Constant Matrix: (Units=GPa)
#
#
# Indices 1 2 3 4 5 6 
#
# 1 171.1197 71.8220 66.2732 -21.1366 -1.9522 -31.7778
# 2 71.8220 151.5413 91.5728 -6.6532 -16.7963 -19.9628
# 3 66.2732 91.5728 270.0155 34.3980 -37.1123 -6.8955
# 4 -21.1366 -6.6532 34.3980 51.8158 -15.4414 -10.5991
# 5 -1.9522 -16.7963 -37.1123 -15.4414 91.2389 4.0528
# 6 -31.7778 -19.9628 -6.8955 -10.5991 4.0528 57.1318
#
#
#
# Elastic Compliance Matrix: (Units=1/GPa)
#
#
# Indices 1 2 3 4 5 6 
#
# 1 0.009336 -0.002144 -0.002239 0.006008 -0.000325 0.005311
# 2 -0.002144 0.010077 -0.003111 0.003289 0.000990 0.002493
# 3 -0.002239 -0.003111 0.006094 -0.005606 0.001030 -0.002709
# 4 0.006008 0.003289 -0.005606 0.028579 0.002895 0.008911
# 5 -0.000325 0.000990 0.001030 0.002895 0.012046 -0.000028
# 6 0.005311 0.002493 -0.002709 0.008911 -0.000028 0.022657
#
#
# Mechanical properties :
#
#
# Convention : Reuss Voigt Hill
#
# Bulk Modulus (GPa) = 95.05480 116.89028 105.97254
# Shear Modulus (GPa) = 46.60584 64.23786 55.42185
#
# Velocity S-wave (km/s) = 4.00115 4.69743 4.36320
# Velocity P-wave (km/s) = 7.34827 8.34105 7.86035
#
# Compressibility (1/GPa) = 0.01052025
#
# Stress axis : x y z
#
# Youngs Moduli (GPa) = 107.11693 99.23213 164.08712
#
# Poissons Ratio (x) = 0.21280 0.36731
# Poissons Ratio (y) = 0.22970 0.51041
# Poissons Ratio (z) = 0.23978 0.30867
#
# Static dielectric constant tensor:
#      x y z
#    x 2.437570 0.084340 0.024940 
#    y 0.084340 2.351370 0.103850 
#    z 0.024940 0.103850 2.343650 
# 
# From -- ./inp_files/488607.got.cif
#   From: 2010.05.17/outbox.cif.g08.bks.cpg/sg2_245_cif.got.tgz:488607.got - 2010.06.03 11:33:40.
