data_PCOD9043663
_publ_section_title
;
Structure prediction by ZEFSAII (Michael W. Deem and Ramdas Pophale) SiO2 
 PCOD9043663
Probable space group: P -1
;
_chemical_formula_sum "Si O2"
_cell_formula_units_Z 15
_cell_length_a 5.095362
_cell_length_b 18.039210
_cell_length_c 9.618704
_cell_angle_alpha 134.275413
_cell_angle_beta 70.507523
_cell_angle_gamma 117.308683
_cell_volume 562.343764
_symmetry_space_group_name_H-M "P -1"
_symmetry_group_IT_number 2
_symmetry_cell_setting 'triclinic'
loop_
_space_group_symop_operation_xyz
x,y,z
-x,-y,-z
loop_
_atom_site_type_symbol
_atom_site_label
_atom_site_fract_x
_atom_site_fract_y
_atom_site_fract_z
Si Si1 0.647493 0.303773 0.236003
Si Si2 0.281848 0.436499 0.613270
Si Si3 0.718353 0.166912 0.813308
Si Si4 0.650230 0.433867 0.979652
Si Si5 0.449746 0.103920 0.220596
Si Si6 0.186734 0.758326 0.408461
Si Si7 0.000000 0.500000 0.500000
Si Si8 0.062609 0.034585 0.695134
O O1 0.536630 0.405789 0.441422
O O2 0.498396 0.199892 0.224405
O O3 0.983793 0.369777 0.298798
O O4 0.632339 0.262711 0.029227
O O5 0.436701 0.539392 0.817559
O O6 0.110543 0.327253 0.587525
O O7 0.036198 0.471112 0.621120
O O8 0.858140 0.194891 0.672789
O O9 0.924018 0.133061 0.843304
O O10 0.404148 0.072563 0.721697
O O11 0.500000 0.500000 0.000000
O O12 0.607495 0.314064 0.769704
O O13 0.000000 0.500000 0.000000
O O14 0.656422 0.157160 0.386558
O O15 0.125583 0.054460 0.279285
O O16 0.500000 0.000000 0.000000
O O17 0.000000 0.000000 0.500000
#
# Coordination Sequence:
#
# PCOD9043663 Si02
#       8
#     2   2   2   2   2   2   1   2
#     4  12  28  50  80 119 161 215 269 340 412 492
#     4  11  26  47  83 114 160 216 272 339 415 496
#     4  12  29  50  80 117 163 209 270 337 404 481
#     4  10  23  45  73 110 151 202 263 328 394 477
#     4  12  26  49  81 115 162 212 272 329 402 486
#     4  11  25  49  78 116 156 212 268 333 400 488
#     4  12  26  50  74 116 164 200 272 340 420 476
#     4  12  28  51  79 115 159 214 271 338 398 475
#
# _framework density 26.674075999999999
#
# number of rings (size 3 to 8) (size 9 to 14) (size 15 to 20)
#    0.000    0.533    4.000    2.400    7.467    2.667 
#    0.000    0.000    0.000    0.000    0.000    0.000 
#    0.000    0.000    0.000    0.000    0.000    0.000 
#
# Total GULP energy -83783.191534 kJ/mol
# GULP energy per Si atom -5585.546102 kJ/mol
# Density = 2.661336 g / cm^3
# Si number density = 26.674076 Si / 1000 Ang^3
#
#
#
# Elastic Constant Matrix: (Units=GPa)
#
#
# Indices 1 2 3 4 5 6 
#
# 1 87.3360 13.3202 15.6076 -3.0440 -13.6583 -8.8576
# 2 13.3202 159.4785 24.7523 -3.3226 -11.2951 9.3493
# 3 15.6076 24.7523 226.7243 7.1374 -10.7254 -4.7258
# 4 -3.0440 -3.3226 7.1374 49.0356 -1.8275 -6.6696
# 5 -13.6583 -11.2951 -10.7254 -1.8275 45.6942 -3.2961
# 6 -8.8576 9.3493 -4.7258 -6.6696 -3.2961 52.8441
#
#
#
# Elastic Compliance Matrix: (Units=1/GPa)
#
#
# Indices 1 2 3 4 5 6 
#
# 1 0.012560 -0.000824 -0.000589 0.001298 0.003651 0.002590
# 2 -0.000824 0.006602 -0.000647 0.000364 0.001159 -0.001246
# 3 -0.000589 -0.000647 0.004586 -0.000667 0.000742 0.000388
# 4 0.001298 0.000364 -0.000667 0.021032 0.001367 0.002833
# 5 0.003651 0.001159 0.000742 0.001367 0.023644 0.002121
# 6 0.002590 -0.001246 0.000388 0.002833 0.002121 0.020103
#
#
# Mechanical properties :
#
#
# Convention : Reuss Voigt Hill
#
# Bulk Modulus (GPa) = 50.94419 64.54432 57.74426
# Shear Modulus (GPa) = 50.40895 57.50536 53.95716
#
# Velocity S-wave (km/s) = 4.35191 4.64815 4.50247
# Velocity P-wave (km/s) = 6.66276 7.28403 6.98031
#
# Compressibility (1/GPa) = 0.01962932
#
# Stress axis : x y z
#
# Youngs Moduli (GPa) = 79.61913 151.46229 218.05633
#
# Poissons Ratio (x) = 0.12478 0.12840
# Poissons Ratio (y) = 0.06559 0.14102
# Poissons Ratio (z) = 0.04688 0.09795
#
# Static dielectric constant tensor:
#      x y z
#    x 1.661250 -0.283690 -0.141710 
#    y -0.283690 2.057050 -0.007130 
#    z -0.141710 -0.007130 2.215690 
# 
# From -- ./inp_files/138200.got.cif
#   From: 2010.05.17/outbox.cif.g08.bks.cpg/sg2_70_cif.got.tgz:138200.got - 2010.06.03 11:33:40.
