data_PCOD9043724
_publ_section_title
;
Structure prediction by ZEFSAII (Michael W. Deem and Ramdas Pophale) SiO2 
 PCOD9043724
Probable space group: P -1
;
_chemical_formula_sum "Si O2"
_cell_formula_units_Z 12
_cell_length_a 8.491021
_cell_length_b 19.582405
_cell_length_c 5.387569
_cell_angle_alpha 97.542757
_cell_angle_beta 94.374467
_cell_angle_gamma 146.507232
_cell_volume 460.949379
_symmetry_space_group_name_H-M "P -1"
_symmetry_group_IT_number 2
_symmetry_cell_setting 'triclinic'
loop_
_space_group_symop_operation_xyz
x,y,z
-x,-y,-z
loop_
_atom_site_type_symbol
_atom_site_label
_atom_site_fract_x
_atom_site_fract_y
_atom_site_fract_z
Si Si1 0.734750 0.432043 0.666052
Si Si2 0.139994 0.228420 0.764846
Si Si3 0.822250 0.156326 0.186093
Si Si4 0.803537 0.319605 0.844508
Si Si5 0.196127 0.418239 0.547167
Si Si6 0.172879 0.082130 0.809212
O O1 0.469985 0.368747 0.765555
O O2 0.692439 0.334222 0.627279
O O3 0.739175 0.475811 0.433510
O O4 0.049242 0.574812 0.888163
O O5 0.186906 0.169039 0.841049
O O6 0.932357 0.159464 0.458178
O O7 0.014416 0.217310 0.988193
O O8 0.914629 0.270496 0.318442
O O9 0.500000 0.000000 0.000000
O O10 0.506199 0.174568 0.852340
O O11 0.065298 0.369011 0.787628
O O12 0.500000 0.500000 0.500000
O O13 0.000000 0.000000 0.500000
O O14 0.000000 0.000000 0.000000
#
# Coordination Sequence:
#
# PCOD9043724 Si02
#       6
#     2   2   2   2   2   2
#     4  10  23  45  74 106 147 191 260 317 385 438
#     4  11  25  49  70 106 151 197 254 321 375 446
#     4  12  28  46  73 106 158 203 252 312 383 456
#     4  10  25  44  74 109 147 195 256 325 374 451
#     4  12  25  44  76 108 151 200 254 308 380 460
#     4  11  26  47  76 106 146 199 256 313 378 455
#
# _framework density 26.033228999999999
#
# number of rings (size 3 to 8) (size 9 to 14) (size 15 to 20)
#    0.000    1.000    1.667    3.000    7.000    2.667 
#    0.000    0.000    0.000    0.000    0.000    0.000 
#    0.000    0.000    0.000    0.000    0.000    0.000 
#
# Total GULP energy -66921.926422 kJ/mol
# GULP energy per Si atom -5576.827202 kJ/mol
# Density = 2.597398 g / cm^3
# Si number density = 26.033229 Si / 1000 Ang^3
#
#
#
# Elastic Constant Matrix: (Units=GPa)
#
#
# Indices 1 2 3 4 5 6 
#
# 1 54.4964 34.6062 19.2640 -16.6048 -3.3603 7.1592
# 2 34.6062 180.2887 60.8047 -21.6979 -4.0865 13.1279
# 3 19.2640 60.8047 118.9894 -11.6468 -3.1902 24.7621
# 4 -16.6048 -21.6979 -11.6468 68.9925 7.0754 -2.7769
# 5 -3.3603 -4.0865 -3.1902 7.0754 44.4885 -6.7863
# 6 7.1592 13.1279 24.7621 -2.7769 -6.7863 46.0509
#
#
#
# Elastic Compliance Matrix: (Units=1/GPa)
#
#
# Indices 1 2 3 4 5 6 
#
# 1 0.022313 -0.003265 -0.001208 0.004033 0.000416 -0.001584
# 2 -0.003265 0.007349 -0.003166 0.000991 0.000072 0.000186
# 3 -0.001208 -0.003166 0.011296 0.000460 -0.000410 -0.005016
# 4 0.004033 0.000991 0.000460 0.016060 -0.002204 -0.000513
# 5 0.000416 0.000072 -0.000410 -0.002204 0.023362 0.003445
# 6 -0.001584 0.000186 -0.005016 -0.000513 0.003445 0.025082
#
#
# Mechanical properties :
#
#
# Convention : Reuss Voigt Hill
#
# Bulk Modulus (GPa) = 38.94464 64.79156 51.86810
# Shear Modulus (GPa) = 38.66954 47.84636 43.25795
#
# Velocity S-wave (km/s) = 3.85826 4.29172 4.08075
# Velocity P-wave (km/s) = 5.90257 7.03566 6.49387
#
# Compressibility (1/GPa) = 0.02567748
#
# Stress axis : x y z
#
# Youngs Moduli (GPa) = 44.81691 136.07896 88.52948
#
# Poissons Ratio (x) = 0.44434 0.10697
# Poissons Ratio (y) = 0.14634 0.28031
# Poissons Ratio (z) = 0.05415 0.43087
#
# Static dielectric constant tensor:
#      x y z
#    x 4.283150 -1.499110 -1.726440 
#    y -1.499110 3.159630 1.304850 
#    z -1.726440 1.304850 3.672540 
# 
# From -- ./inp_files/53450.got.cif
#   From: 2010.05.17/outbox.cif.g08.bks.cpg/sg2_27_cif.got.tgz:53450.got - 2010.06.03 11:33:40.
