data_PCOD9043760
_publ_section_title
;
Structure prediction by ZEFSAII (Michael W. Deem and Ramdas Pophale) SiO2 
 PCOD9043760
Probable space group: P -1
;
_chemical_formula_sum "Si O2"
_cell_formula_units_Z 16
_cell_length_a 9.383266
_cell_length_b 16.151409
_cell_length_c 7.598391
_cell_angle_alpha 75.506455
_cell_angle_beta 77.248234
_cell_angle_gamma 135.758119
_cell_volume 626.794301
_symmetry_space_group_name_H-M "P -1"
_symmetry_group_IT_number 2
_symmetry_cell_setting 'triclinic'
loop_
_space_group_symop_operation_xyz
x,y,z
-x,-y,-z
loop_
_atom_site_type_symbol
_atom_site_label
_atom_site_fract_x
_atom_site_fract_y
_atom_site_fract_z
Si Si1 0.796104 0.946807 0.963405
Si Si2 0.532895 0.070762 0.777346
Si Si3 0.968701 0.375859 0.324959
Si Si4 0.558499 0.318535 0.444085
Si Si5 0.461500 0.334378 0.858780
Si Si6 0.690879 0.564010 0.255937
Si Si7 0.281077 0.098156 0.313712
Si Si8 0.784140 0.222657 0.090424
O O1 0.864046 0.036722 0.731256
O O2 0.609422 0.908611 0.156425
O O3 0.682426 0.814940 0.929819
O O4 0.000000 0.000000 0.000000
O O5 0.808500 0.231412 0.558689
O O6 0.368575 0.938456 0.753803
O O7 0.500000 0.000000 0.000000
O O8 0.827956 0.400401 0.358722
O O9 0.936129 0.326297 0.163811
O O10 0.255680 0.521344 0.229834
O O11 0.461959 0.299616 0.676099
O O12 0.585101 0.423851 0.288024
O O13 0.404659 0.183990 0.428574
O O14 0.318201 0.355049 0.903329
O O15 0.500000 0.500000 0.500000
O O16 0.984561 0.685628 0.157186
O O17 0.568712 0.188704 0.129037
O O18 0.000000 0.000000 0.500000
#
# Coordination Sequence:
#
# PCOD9043760 Si02
#       8
#     2   2   2   2   2   2   2   2
#     4  12  26  46  73 104 146 196 257 306 377 442
#     4  12  26  47  74 104 150 198 250 308 376 450
#     4  11  26  44  76 109 150 195 251 314 377 448
#     4  10  23  45  75 101 153 188 246 305 379 440
#     4  11  24  46  73 107 146 194 250 311 376 445
#     4  10  25  45  75 106 148 192 247 307 375 444
#     4  11  26  45  73 108 148 198 251 309 376 448
#     4  11  26  48  73 110 151 199 252 308 378 447
#
# _framework density 25.526717000000001
#
# number of rings (size 3 to 8) (size 9 to 14) (size 15 to 20)
#    0.000    1.000    2.500    2.250    8.750    3.500 
#    4.500    0.000    0.000    0.000    0.000    0.000 
#    0.000    0.000    0.000    0.000    0.000    0.000 
#
# Total GULP energy -89077.180562 kJ/mol
# GULP energy per Si atom -5567.323785 kJ/mol
# Density = 2.546862 g / cm^3
# Si number density = 25.526717 Si / 1000 Ang^3
#
#
#
# Elastic Constant Matrix: (Units=GPa)
#
#
# Indices 1 2 3 4 5 6 
#
# 1 139.7312 43.5175 61.1995 -13.0330 -18.1085 10.3857
# 2 43.5175 105.2659 49.5532 0.2140 -1.4295 21.1013
# 3 61.1995 49.5532 148.6269 2.0877 -20.7620 11.3942
# 4 -13.0330 0.2140 2.0877 44.5536 7.0650 7.2819
# 5 -18.1085 -1.4295 -20.7620 7.0650 45.1031 -12.6914
# 6 10.3857 21.1013 11.3942 7.2819 -12.6914 51.9810
#
#
#
# Elastic Compliance Matrix: (Units=1/GPa)
#
#
# Indices 1 2 3 4 5 6 
#
# 1 0.009767 -0.002631 -0.002886 0.002701 0.002050 -0.000129
# 2 -0.002631 0.013186 -0.003462 0.000763 -0.003786 -0.005100
# 3 -0.002886 -0.003462 0.009540 -0.002048 0.003751 0.001094
# 4 0.002701 0.000763 -0.002048 0.024998 -0.005206 -0.005173
# 5 0.002050 -0.003786 0.003751 -0.005206 0.027604 0.007774
# 6 -0.000129 -0.005100 0.001094 -0.005173 0.007774 0.023717
#
#
# Mechanical properties :
#
#
# Convention : Reuss Voigt Hill
#
# Bulk Modulus (GPa) = 68.79773 78.01827 73.40800
# Shear Modulus (GPa) = 37.98915 44.28446 41.13680
#
# Velocity S-wave (km/s) = 3.86192 4.16965 4.01873
# Velocity P-wave (km/s) = 6.84804 7.33560 7.09601
#
# Compressibility (1/GPa) = 0.01453536
#
# Stress axis : x y z
#
# Youngs Moduli (GPa) = 102.38212 75.83608 104.82293
#
# Poissons Ratio (x) = 0.19953 0.30255
# Poissons Ratio (y) = 0.26937 0.36287
# Poissons Ratio (z) = 0.29551 0.26253
#
# Static dielectric constant tensor:
#      x y z
#    x 2.092920 -0.087180 0.127560 
#    y -0.087180 2.121580 -0.079890 
#    z 0.127560 -0.079890 2.221330 
# 
# From -- ./inp_files/206871.got.cif
#   From: 2010.05.17/outbox.cif.g08.bks.cpg/sg2_104_cif.got.tgz:206871.got - 2010.06.03 11:33:40.
