data_PCOD9043165
_publ_section_title
;
Structure prediction by ZEFSAII (Michael W. Deem and Ramdas Pophale) SiO2 
 PCOD9043165
Probable space group: P -1
;
_chemical_formula_sum "Si O2"
_cell_formula_units_Z 16
_cell_length_a 13.921537
_cell_length_b 14.435126
_cell_length_c 5.289190
_cell_angle_alpha 110.553361
_cell_angle_beta 61.463761
_cell_angle_gamma 134.296638
_cell_volume 668.082701
_symmetry_space_group_name_H-M "P -1"
_symmetry_group_IT_number 2
_symmetry_cell_setting 'triclinic'
loop_
_space_group_symop_operation_xyz
x,y,z
-x,-y,-z
loop_
_atom_site_type_symbol
_atom_site_label
_atom_site_fract_x
_atom_site_fract_y
_atom_site_fract_z
Si Si1 0.805142 0.790803 0.518567
Si Si2 0.119885 0.962975 0.103809
Si Si3 0.268618 0.569090 0.077603
Si Si4 0.366148 0.482273 0.260584
Si Si5 0.984756 0.608395 0.104840
Si Si6 0.464311 0.255582 0.396906
Si Si7 0.274312 0.975269 0.428868
Si Si8 0.847678 0.283128 0.510231
O O1 0.725478 0.650136 0.596392
O O2 0.685279 0.775988 0.488861
O O3 0.951619 0.847886 0.250042
O O4 0.849893 0.901791 0.770792
O O5 0.208026 0.961427 0.221810
O O6 0.170963 0.958189 0.761384
O O7 0.268823 0.475134 0.165405
O O8 0.194888 0.625934 0.330860
O O9 0.177685 0.479558 0.864676
O O10 0.433028 0.689988 0.923498
O O11 0.443218 0.620996 0.423766
O O12 0.500000 0.500000 0.000000
O O13 0.086707 0.699937 0.831293
O O14 0.036743 0.674970 0.374965
O O15 0.000000 0.500000 0.000000
O O16 0.422017 0.121490 0.407028
O O17 0.281015 0.863710 0.384447
#
# Coordination Sequence:
#
# PCOD9043165 Si02
#       8
#     2   2   2   2   2   2   2   2
#     4  10  23  45  69 102 139 186 238 290 350 416
#     4  10  24  46  73 102 139 185 231 298 351 403
#     4  11  26  43  71 101 142 184 229 288 356 412
#     4  12  25  43  68 102 142 188 231 286 349 424
#     4  10  23  45  71 102 138 175 232 295 345 409
#     4  11  26  44  67  98 144 185 236 289 342 421
#     4  11  25  46  70 103 141 182 239 288 345 417
#     4  11  25  47  72 105 138 183 232 293 350 414
#
# _framework density 23.949131999999999
#
# number of rings (size 3 to 8) (size 9 to 14) (size 15 to 20)
#    0.000    1.250    1.250    3.375    8.750    7.000 
#    0.000    0.625    0.000    0.000    0.000    0.000 
#    0.000    0.000    0.000    0.000    0.000    0.000 
#
# Total GULP energy -89505.424500 kJ/mol
# GULP energy per Si atom -5594.089031 kJ/mol
# Density = 2.389462 g / cm^3
# Si number density = 23.949132 Si / 1000 Ang^3
#
#
#
# Elastic Constant Matrix: (Units=GPa)
#
#
# Indices 1 2 3 4 5 6 
#
# 1 76.4711 17.0250 15.7570 5.8847 16.0668 -10.9542
# 2 17.0250 126.2207 8.5918 -14.7641 20.7784 -24.6238
# 3 15.7570 8.5918 89.8255 -1.5235 10.5532 -0.4519
# 4 5.8847 -14.7641 -1.5235 32.5661 -3.3001 3.4949
# 5 16.0668 20.7784 10.5532 -3.3001 28.2994 -0.2599
# 6 -10.9542 -24.6238 -0.4519 3.4949 -0.2599 37.9921
#
#
#
# Elastic Compliance Matrix: (Units=1/GPa)
#
#
# Indices 1 2 3 4 5 6 
#
# 1 0.016458 -0.000177 -0.001865 -0.004588 -0.009008 0.004968
# 2 -0.000177 0.010867 -0.000047 0.003497 -0.007392 0.006619
# 3 -0.001865 -0.000047 0.011855 0.000594 -0.003263 -0.000504
# 4 -0.004588 0.003497 0.000594 0.033756 0.003732 -0.002129
# 5 -0.009008 -0.007392 -0.003263 0.003732 0.047462 -0.007446
# 6 0.004968 0.006619 -0.000504 -0.002129 -0.007446 0.032183
#
#
# Mechanical properties :
#
#
# Convention : Reuss Voigt Hill
#
# Bulk Modulus (GPa) = 28.57024 41.69611 35.13318
# Shear Modulus (GPa) = 29.68666 36.51441 33.10054
#
# Velocity S-wave (km/s) = 3.52457 3.90893 3.72172
# Velocity P-wave (km/s) = 5.34031 6.14988 5.75934
#
# Compressibility (1/GPa) = 0.03500145
#
# Stress axis : x y z
#
# Youngs Moduli (GPa) = 60.76153 92.02142 84.35118
#
# Poissons Ratio (x) = 0.01633 0.15728
# Poissons Ratio (y) = 0.01078 0.00398
# Poissons Ratio (z) = 0.11329 0.00435
#
# Static dielectric constant tensor:
#      x y z
#    x 2.177650 0.056180 0.085370 
#    y 0.056180 1.966210 0.038910 
#    z 0.085370 0.038910 1.991110 
# 
# From -- ./inp_files/98397.got.cif
#   From: 2010.05.17/outbox.cif.g08.bks.cpg/sg2_50_cif.got.tgz:98397.got - 2010.06.03 11:33:40.
