data_PCOD9043704
_publ_section_title
;
Structure prediction by ZEFSAII (Michael W. Deem and Ramdas Pophale) SiO2 
 PCOD9043704
Probable space group: P -1
;
_chemical_formula_sum "Si O2"
_cell_formula_units_Z 16
_cell_length_a 8.037490
_cell_length_b 6.453066
_cell_length_c 24.942798
_cell_angle_alpha 88.234308
_cell_angle_beta 33.155569
_cell_angle_gamma 88.541336
_cell_volume 707.203761
_symmetry_space_group_name_H-M "P -1"
_symmetry_group_IT_number 2
_symmetry_cell_setting 'triclinic'
loop_
_space_group_symop_operation_xyz
x,y,z
-x,-y,-z
loop_
_atom_site_type_symbol
_atom_site_label
_atom_site_fract_x
_atom_site_fract_y
_atom_site_fract_z
Si Si1 0.703141 0.993987 0.496693
Si Si2 0.351818 0.860326 0.307249
Si Si3 0.781808 0.561741 0.129749
Si Si4 0.132281 0.237425 0.107770
Si Si5 0.698849 0.362601 0.568404
Si Si6 0.282158 0.876989 0.986136
Si Si7 0.395931 0.187137 0.202253
Si Si8 0.233882 0.729547 0.685713
O O1 0.783421 0.220297 0.495842
O O2 0.500000 0.000000 0.500000
O O3 0.505644 0.879859 0.595331
O O4 0.989752 0.860341 0.403113
O O5 0.526945 0.682064 0.230553
O O6 0.393711 0.797991 0.358226
O O7 0.427640 0.071386 0.251836
O O8 0.594879 0.396211 0.147145
O O9 0.008144 0.434372 0.108168
O O10 0.000290 0.736035 0.044966
O O11 0.899741 0.212928 0.220385
O O12 0.159381 0.053089 0.058205
O O13 0.462478 0.246432 0.047085
O O14 0.401371 0.506874 0.640009
O O15 0.000000 0.500000 0.500000
O O16 0.464279 0.948714 0.883327
O O17 0.049416 0.241430 0.279089
#
# Coordination Sequence:
#
# PCOD9043704 Si02
#       8
#     2   2   2   2   2   2   2   2
#     4  12  28  48  76 107 153 190 239 303 373 434
#     4  12  27  45  71 111 144 191 239 300 360 435
#     4  12  25  41  74 103 148 184 247 293 362 428
#     4  10  23  45  74 104 142 187 247 293 358 430
#     4  12  28  46  78 106 145 194 252 297 364 436
#     4  10  24  47  71 104 144 193 238 300 361 428
#     4  11  27  45  71 107 150 185 241 299 367 425
#     4  11  25  47  74 106 142 193 239 301 360 442
#
# _framework density 22.624313999999998
#
# number of rings (size 3 to 8) (size 9 to 14) (size 15 to 20)
#    0.000    0.750    3.750    1.875    7.000    3.500 
#    0.000    2.500    0.000    0.000    0.000    0.000 
#    0.000    0.000    0.000    0.000    0.000    0.000 
#
# Total GULP energy -89347.681747 kJ/mol
# GULP energy per Si atom -5584.230109 kJ/mol
# Density = 2.257282 g / cm^3
# Si number density = 22.624314 Si / 1000 Ang^3
#
#
#
# Elastic Constant Matrix: (Units=GPa)
#
#
# Indices 1 2 3 4 5 6 
#
# 1 73.7304 44.0682 21.4898 7.9450 -19.9441 -17.6182
# 2 44.0682 -10.5602 -14.3109 -19.9613 -53.8005 -56.2961
# 3 21.4898 -14.3109 105.9192 3.0026 -41.6858 -32.9376
# 4 7.9450 -19.9613 3.0026 22.6752 -19.0952 -31.6601
# 5 -19.9441 -53.8005 -41.6858 -19.0952 21.9717 -11.4868
# 6 -17.6182 -56.2961 -32.9376 -31.6601 -11.4868 15.6945
#
#
#
# Elastic Compliance Matrix: (Units=1/GPa)
#
#
# Indices 1 2 3 4 5 6 
#
# 1 0.023044 -0.009110 0.000373 0.004739 0.008557 0.009795
# 2 -0.009110 0.010315 -0.003827 -0.012841 -0.008381 -0.013294
# 3 0.000373 -0.003827 0.009457 -0.005458 0.002968 -0.002296
# 4 0.004739 -0.012841 -0.005458 0.031031 -0.008238 0.004376
# 5 0.008557 -0.008381 0.002968 -0.008238 0.024464 -0.012942
# 6 0.009795 -0.013294 -0.002296 0.004376 -0.012942 0.021562
#
#
# Mechanical properties :
#
#
# Convention : Reuss Voigt Hill
#
# Bulk Modulus (GPa) = 56.53225 30.17593 43.35409
# Shear Modulus (GPa) = 33.13519 19.92444 26.52981
#
# Velocity S-wave (km/s) = 3.83114 2.97082 3.42807
# Velocity P-wave (km/s) = 6.67921 5.01343 5.90535
#
# Compressibility (1/GPa) = 0.01768902
#
# Stress axis : x y z
#
# Youngs Moduli (GPa) = 43.39561 96.94494 105.73684
#
# Poissons Ratio (x) = 0.88318 -0.03944
# Poissons Ratio (y) = 0.39534 0.40461
# Poissons Ratio (z) = -0.01619 0.37096
#
# Static dielectric constant tensor:
#      x y z
#    x 1.783440 0.083500 0.052300 
#    y 0.083500 1.712490 -0.055470 
#    z 0.052300 -0.055470 1.821330 
# 
# From -- ./inp_files/616340.got.cif
#   From: 2010.05.17/outbox.cif.g08.bks.cpg/sg2_309_cif.got.tgz:616340.got - 2010.06.03 11:33:40.
