data_PCOD9043964
_publ_section_title
;
Structure prediction by ZEFSAII (Michael W. Deem and Ramdas Pophale) SiO2 
 PCOD9043964
Probable space group: P -1
;
_chemical_formula_sum "Si O2"
_cell_formula_units_Z 14
_cell_length_a 9.100027
_cell_length_b 4.852396
_cell_length_c 23.567727
_cell_angle_alpha 68.964649
_cell_angle_beta 35.347042
_cell_angle_gamma 60.834852
_cell_volume 524.197987
_symmetry_space_group_name_H-M "P -1"
_symmetry_group_IT_number 2
_symmetry_cell_setting 'triclinic'
loop_
_space_group_symop_operation_xyz
x,y,z
-x,-y,-z
loop_
_atom_site_type_symbol
_atom_site_label
_atom_site_fract_x
_atom_site_fract_y
_atom_site_fract_z
Si Si1 0.126255 0.854671 0.738384
Si Si2 0.776944 0.996558 0.940904
Si Si3 0.600800 0.542222 0.764266
Si Si4 0.916272 0.259413 0.359565
Si Si5 0.515029 0.785366 0.284965
Si Si6 0.587358 0.132800 0.566619
Si Si7 0.802664 0.350124 0.016045
O O1 0.972031 0.910575 0.722749
O O2 0.218170 0.497014 0.757791
O O3 0.947539 0.054933 0.830429
O O4 0.410163 0.909921 0.637060
O O5 0.913333 0.637751 0.950953
O O6 0.717064 0.255608 0.989342
O O7 0.500000 0.000000 0.000000
O O8 0.598651 0.320421 0.728187
O O9 0.886356 0.581368 0.687021
O O10 0.430659 0.899314 0.769451
O O11 0.443211 0.509541 0.872376
O O12 0.819960 0.066362 0.451376
O O13 0.640480 0.532147 0.404275
O O14 0.329391 0.855975 0.395069
O O15 0.000000 0.000000 0.000000
#
# Coordination Sequence:
#
# PCOD9043964 Si02
#       7
#     2   2   2   2   2   2   2
#     4  11  23  45  72  94 143 176 230 271 351 400
#     4  12  27  43  72 104 136 179 235 286 340 404
#     4  12  25  45  70 101 140 174 229 283 337 392
#     4  10  25  41  71 102 133 178 228 281 337 405
#     4  11  24  44  70  98 136 184 220 275 341 407
#     4  10  23  46  68 100 134 184 223 275 342 411
#     4  12  26  46  69 102 141 183 228 279 348 412
#
# _framework density 26.707467000000001
#
# number of rings (size 3 to 8) (size 9 to 14) (size 15 to 20)
#    0.000    0.857    1.429    4.714    8.000    1.143 
#    0.000    0.000    0.000    0.000    0.000    0.000 
#    0.000    0.000    0.000    0.000    0.000    0.000 
#
# Total GULP energy -78473.685110 kJ/mol
# GULP energy per Si atom -5605.263222 kJ/mol
# Density = 2.664668 g / cm^3
# Si number density = 26.707467 Si / 1000 Ang^3
#
#
#
# Elastic Constant Matrix: (Units=GPa)
#
#
# Indices 1 2 3 4 5 6 
#
# 1 198.1077 27.9084 69.2166 0.5829 33.6321 22.7716
# 2 27.9084 96.1027 24.0794 -13.8383 11.7728 20.0275
# 3 69.2166 24.0794 174.7447 -18.8665 25.9662 12.5341
# 4 0.5829 -13.8383 -18.8665 35.0622 -1.5230 1.1010
# 5 33.6321 11.7728 25.9662 -1.5230 42.9234 0.5460
# 6 22.7716 20.0275 12.5341 1.1010 0.5460 51.4061
#
#
#
# Elastic Compliance Matrix: (Units=1/GPa)
#
#
# Indices 1 2 3 4 5 6 
#
# 1 0.006774 -0.000770 -0.002017 -0.001604 -0.003906 -0.002133
# 2 -0.000770 0.012662 -0.000202 0.004937 -0.002514 -0.004622
# 3 -0.002017 -0.000202 0.007434 0.003864 -0.002713 -0.000894
# 4 -0.001604 0.004937 0.003864 0.032611 -0.001242 -0.002840
# 5 -0.003906 -0.002514 -0.002713 -0.001242 0.028605 0.003094
# 6 -0.002133 -0.004622 -0.000894 -0.002840 0.003094 0.022445
#
#
# Mechanical properties :
#
#
# Convention : Reuss Voigt Hill
#
# Bulk Modulus (GPa) = 47.86367 79.04044 63.45206
# Shear Modulus (GPa) = 40.49541 49.06172 44.77856
#
# Velocity S-wave (km/s) = 3.89814 4.29068 4.09911
# Velocity P-wave (km/s) = 6.18232 7.36245 6.79804
#
# Compressibility (1/GPa) = 0.02089267
#
# Stress axis : x y z
#
# Youngs Moduli (GPa) = 147.62470 78.97849 134.52066
#
# Poissons Ratio (x) = 0.06080 0.27131
# Poissons Ratio (y) = 0.11364 0.02714
# Poissons Ratio (z) = 0.29774 0.01593
#
# Static dielectric constant tensor:
#      x y z
#    x 2.093570 -0.063090 0.022940 
#    y -0.063090 2.151230 0.036640 
#    z 0.022940 0.036640 2.125920 
# 
# From -- ./inp_files/585594.got.cif
#   From: 2010.05.17/outbox.cif.g08.bks.cpg/sg2_293_cif.got.tgz:585594.got - 2010.06.03 11:33:40.
