data_PCOD9043201
_publ_section_title
;
Structure prediction by ZEFSAII (Michael W. Deem and Ramdas Pophale) SiO2 
 PCOD9043201
Probable space group: P -1
;
_chemical_formula_sum "Si O2"
_cell_formula_units_Z 16
_cell_length_a 6.270619
_cell_length_b 20.925221
_cell_length_c 6.185590
_cell_angle_alpha 63.939765
_cell_angle_beta 77.108814
_cell_angle_gamma 74.665793
_cell_volume 697.786918
_symmetry_space_group_name_H-M "P -1"
_symmetry_group_IT_number 2
_symmetry_cell_setting 'triclinic'
loop_
_space_group_symop_operation_xyz
x,y,z
-x,-y,-z
loop_
_atom_site_type_symbol
_atom_site_label
_atom_site_fract_x
_atom_site_fract_y
_atom_site_fract_z
Si Si1 0.595194 0.447142 0.750325
Si Si2 0.654656 0.774734 0.029020
Si Si3 0.175833 0.793634 0.343221
Si Si4 0.585002 0.017147 0.708614
Si Si5 0.010080 0.335960 0.639002
Si Si6 0.053467 0.107485 0.072007
Si Si7 0.792474 0.553379 0.864522
Si Si8 0.633548 0.169243 0.352614
O O1 0.500000 0.500000 0.500000
O O2 0.791587 0.384490 0.718947
O O3 0.691505 0.500416 0.808706
O O4 0.395981 0.418459 0.957774
O O5 0.781295 0.840303 0.960736
O O6 0.573162 0.782245 0.790067
O O7 0.425424 0.783671 0.203316
O O8 0.816012 0.700995 0.165692
O O9 0.064258 0.729950 0.372783
O O10 0.222084 0.788820 0.592310
O O11 0.014105 0.869150 0.195237
O O12 0.559323 0.103311 0.590896
O O13 0.500000 0.000000 0.500000
O O14 0.833159 0.970994 0.753296
O O15 0.500000 0.000000 0.000000
O O16 0.125692 0.384461 0.381255
O O17 0.811634 0.129738 0.199257
O O18 0.000000 0.500000 0.000000
#
# Coordination Sequence:
#
# PCOD9043201 Si02
#       8
#     2   2   2   2   2   2   2   2
#     4  11  25  47  75 107 144 181 241 307 356 446
#     4  10  23  47  66  99 149 187 243 298 371 445
#     4  10  25  45  68 104 145 192 247 303 363 460
#     4  12  26  44  81 108 146 203 256 317 393 446
#     4  11  25  48  72 104 148 195 237 301 381 438
#     4  10  23  45  69 106 143 191 247 310 376 434
#     4  11  25  47  74 108 143 185 241 301 371 438
#     4  11  24  46  74 104 147 189 253 308 369 453
#
# _framework density 22.929635000000001
#
# number of rings (size 3 to 8) (size 9 to 14) (size 15 to 20)
#    0.000    1.250    2.500    1.500    5.250    2.500 
#   18.000    0.000    0.000    0.000    0.000    0.000 
#    0.000    0.000    0.000    0.000    0.000    0.000 
#
# Total GULP energy -89366.221848 kJ/mol
# GULP energy per Si atom -5585.388865 kJ/mol
# Density = 2.287745 g / cm^3
# Si number density = 22.929635 Si / 1000 Ang^3
#
#
#
# Elastic Constant Matrix: (Units=GPa)
#
#
# Indices 1 2 3 4 5 6 
#
# 1 133.5021 42.6854 81.7786 -13.6095 29.7319 -19.2262
# 2 42.6854 73.6821 55.7867 -10.8806 19.0803 -15.9927
# 3 81.7786 55.7867 141.9286 -17.3033 17.7700 -17.9127
# 4 -13.6095 -10.8806 -17.3033 34.4334 -2.5464 7.1133
# 5 29.7319 19.0803 17.7700 -2.5464 64.9154 -5.6161
# 6 -19.2262 -15.9927 -17.9127 7.1133 -5.6161 46.9155
#
#
#
# Elastic Compliance Matrix: (Units=1/GPa)
#
#
# Indices 1 2 3 4 5 6 
#
# 1 0.012792 -0.001360 -0.006030 0.000936 -0.003607 0.001903
# 2 -0.001360 0.021166 -0.006424 0.001944 -0.003461 0.003496
# 3 -0.006030 -0.006424 0.013201 0.002269 0.001140 0.000172
# 4 0.000936 0.001944 0.002269 0.031734 -0.000634 -0.002975
# 5 -0.003607 -0.003461 0.001140 -0.000634 0.017737 -0.000003
# 6 0.001903 0.003496 0.000172 -0.002975 -0.000003 0.023802
#
#
# Mechanical properties :
#
#
# Convention : Reuss Voigt Hill
#
# Bulk Modulus (GPa) = 51.20321 78.84604 65.02462
# Shear Modulus (GPa) = 32.34761 40.51034 36.42897
#
# Velocity S-wave (km/s) = 3.76005 4.20780 3.99021
# Velocity P-wave (km/s) = 6.42103 7.62025 7.04620
#
# Compressibility (1/GPa) = 0.01953003
#
# Stress axis : x y z
#
# Youngs Moduli (GPa) = 78.17376 47.24616 75.75047
#
# Poissons Ratio (x) = 0.06423 0.45681
# Poissons Ratio (y) = 0.10628 0.48666
# Poissons Ratio (z) = 0.47142 0.30353
#
# Static dielectric constant tensor:
#      x y z
#    x 1.834150 -0.004120 -0.009960 
#    y -0.004120 1.862930 0.039080 
#    z -0.009960 0.039080 1.934930 
# 
# From -- ./inp_files/12721.got.cif
#   From: 2010.05.17/outbox.cif.g08.bks.cpg/sg2_7_cif.got.tgz:12721.got - 2010.06.03 11:33:40.
