data_PCOD9043718
_publ_section_title
;
Structure prediction by ZEFSAII (Michael W. Deem and Ramdas Pophale) SiO2 
 PCOD9043718
Probable space group: P -1
;
_chemical_formula_sum "Si O2"
_cell_formula_units_Z 16
_cell_length_a 24.168551
_cell_length_b 5.375432
_cell_length_c 5.550269
_cell_angle_alpha 79.569578
_cell_angle_beta 63.040595
_cell_angle_gamma 78.446964
_cell_volume 626.317847
_symmetry_space_group_name_H-M "P -1"
_symmetry_group_IT_number 2
_symmetry_cell_setting 'triclinic'
loop_
_space_group_symop_operation_xyz
x,y,z
-x,-y,-z
loop_
_atom_site_type_symbol
_atom_site_label
_atom_site_fract_x
_atom_site_fract_y
_atom_site_fract_z
Si Si1 0.759512 0.366823 0.811154
Si Si2 0.558479 0.508535 0.565332
Si Si3 0.647984 0.093009 0.196161
Si Si4 0.467384 0.851769 0.898374
Si Si5 0.882352 0.353046 0.355677
Si Si6 0.858355 0.900738 0.145099
Si Si7 0.012676 0.269009 0.327792
Si Si8 0.737399 0.687029 0.298094
O O1 0.833835 0.261909 0.661923
O O2 0.743471 0.525322 0.563239
O O3 0.711098 0.161147 0.935912
O O4 0.749148 0.523184 0.056091
O O5 0.500000 0.500000 0.500000
O O6 0.616768 0.351730 0.345455
O O7 0.555843 0.377409 0.856331
O O8 0.531783 0.795756 0.626198
O O9 0.670784 0.860857 0.370443
O O10 0.596523 0.028110 0.120335
O O11 0.500000 0.000000 0.000000
O O12 0.865421 0.660705 0.360580
O O13 0.957285 0.314144 0.232430
O O14 0.867258 0.175498 0.189462
O O15 0.790270 0.877083 0.180070
O O16 0.915659 0.785777 0.882655
O O17 0.000000 0.500000 0.500000
O O18 0.000000 0.000000 0.500000
#
# Coordination Sequence:
#
# PCOD9043718 Si02
#       8
#     2   2   2   2   2   2   2   2
#     4  11  29  49  75 112 156 207 262 328 393 480
#     4   9  22  44  66 104 137 189 232 309 373 462
#     4  11  27  45  78 102 157 191 262 313 395 476
#     4  10  23  45  74 105 145 188 248 309 395 454
#     4  11  25  46  74 105 158 208 269 333 402 471
#     4  11  25  46  73 107 155 209 270 332 403 474
#     4  12  24  40  72 111 152 210 272 333 403 472
#     4  11  29  48  77 113 153 211 262 324 401 473
#
# _framework density 25.546137999999999
#
# number of rings (size 3 to 8) (size 9 to 14) (size 15 to 20)
#    0.000    1.250    0.000    3.000   12.250    6.000 
#    0.000    0.000    0.000    0.000    0.000    0.000 
#    0.000    0.000    0.000    0.000    0.000    0.000 
#
# Total GULP energy -89148.733683 kJ/mol
# GULP energy per Si atom -5571.795855 kJ/mol
# Density = 2.548799 g / cm^3
# Si number density = 25.546138 Si / 1000 Ang^3
#
#
#
# Elastic Constant Matrix: (Units=GPa)
#
#
# Indices 1 2 3 4 5 6 
#
# 1 177.4558 31.1863 27.6365 8.0407 4.1537 -11.4013
# 2 31.1863 71.4543 8.7298 14.1204 16.3162 1.5874
# 3 27.6365 8.7298 80.0012 5.7145 1.9645 3.9003
# 4 8.0407 14.1204 5.7145 57.8738 2.4237 8.3219
# 5 4.1537 16.3162 1.9645 2.4237 45.5370 4.7492
# 6 -11.4013 1.5874 3.9003 8.3219 4.7492 54.5169
#
#
#
# Elastic Compliance Matrix: (Units=1/GPa)
#
#
# Indices 1 2 3 4 5 6 
#
# 1 0.006526 -0.002641 -0.002030 -0.000305 0.000287 0.001608
# 2 -0.002641 0.017224 -0.000575 -0.003543 -0.005720 0.000026
# 3 -0.002030 -0.000575 0.013377 -0.000718 -0.000017 -0.001254
# 4 -0.000305 -0.003543 -0.000718 0.018634 0.000629 -0.002809
# 5 0.000287 -0.005720 -0.000017 0.000629 0.024156 -0.001973
# 6 0.001608 0.000026 -0.001254 -0.002809 -0.001973 0.019369
#
#
# Mechanical properties :
#
#
# Convention : Reuss Voigt Hill
#
# Bulk Modulus (GPa) = 37.54563 51.55738 44.55150
# Shear Modulus (GPa) = 42.13887 49.00945 45.57416
#
# Velocity S-wave (km/s) = 4.06583 4.38478 4.22832
# Velocity P-wave (km/s) = 6.06386 6.77207 6.42773
#
# Compressibility (1/GPa) = 0.02663426
#
# Stress axis : x y z
#
# Youngs Moduli (GPa) = 153.23416 58.06000 74.75769
#
# Poissons Ratio (x) = 0.15335 0.15175
# Poissons Ratio (y) = 0.40473 0.04297
# Poissons Ratio (z) = 0.31104 0.03337
#
# Static dielectric constant tensor:
#      x y z
#    x 2.218670 -0.009220 -0.123990 
#    y -0.009220 1.960570 -0.143150 
#    z -0.123990 -0.143150 2.026000 
# 
# From -- ./inp_files/121617.got.cif
#   From: 2010.05.17/outbox.cif.g08.bks.cpg/sg2_61_cif.got.tgz:121617.got - 2010.06.03 11:33:40.
