data_PCOD9043129
_publ_section_title
;
Structure prediction by ZEFSAII (Michael W. Deem and Ramdas Pophale) SiO2 
 PCOD9043129
Probable space group: P -1
;
_chemical_formula_sum "Si O2"
_cell_formula_units_Z 16
_cell_length_a 7.893487
_cell_length_b 5.161927
_cell_length_c 29.918048
_cell_angle_alpha 84.730842
_cell_angle_beta 36.838538
_cell_angle_gamma 105.095504
_cell_volume 603.309767
_symmetry_space_group_name_H-M "P -1"
_symmetry_group_IT_number 2
_symmetry_cell_setting 'triclinic'
loop_
_space_group_symop_operation_xyz
x,y,z
-x,-y,-z
loop_
_atom_site_type_symbol
_atom_site_label
_atom_site_fract_x
_atom_site_fract_y
_atom_site_fract_z
Si Si1 0.175805 0.798826 0.925101
Si Si2 0.273185 0.448380 0.592621
Si Si3 0.773492 0.052471 0.851881
Si Si4 0.490756 0.203513 0.234608
Si Si5 0.507150 0.371922 0.952084
Si Si6 0.627772 0.771585 0.601611
Si Si7 0.156724 0.383485 0.356046
Si Si8 0.619885 0.950103 0.295249
O O1 0.298809 0.722320 0.855489
O O2 0.528043 0.070697 0.868540
O O3 0.000000 0.500000 0.000000
O O4 0.890032 0.865417 0.973896
O O5 0.500000 0.500000 0.500000
O O6 0.455097 0.522467 0.601028
O O7 0.173810 0.698894 0.598811
O O8 0.901847 0.110932 0.679711
O O9 0.709326 0.205239 0.905586
O O10 0.152554 0.196136 0.752045
O O11 0.651736 0.690310 0.887785
O O12 0.436935 0.473546 0.256987
O O13 0.688199 0.143611 0.232237
O O14 0.500000 0.500000 0.000000
O O15 0.763082 0.807411 0.624483
O O16 0.370077 0.878124 0.665075
O O17 0.000000 0.000000 0.500000
O O18 0.241959 0.646389 0.370742
#
# Coordination Sequence:
#
# PCOD9043129 Si02
#       8
#     2   2   2   2   2   2   2   2
#     4  10  24  45  67 100 141 184 242 301 374 443
#     4  11  25  44  71 108 141 187 243 298 373 449
#     4  11  25  42  68 101 140 181 243 304 370 445
#     4  10  23  45  68  99 138 189 235 300 368 442
#     4  11  24  44  68  99 136 189 235 304 373 445
#     4  11  25  44  70 103 146 190 239 301 374 451
#     4  10  24  44  68  99 146 183 237 304 361 447
#     4  10  24  42  67 102 134 189 243 298 369 445
#
# _framework density 26.520372999999999
#
# number of rings (size 3 to 8) (size 9 to 14) (size 15 to 20)
#    0.000    1.500    0.000    3.750    8.750    4.000 
#   13.500    0.000    0.000    0.000    0.000    0.000 
#    0.000    0.000    0.000    0.000    0.000    0.000 
#
# Total GULP energy -89138.053988 kJ/mol
# GULP energy per Si atom -5571.128374 kJ/mol
# Density = 2.646001 g / cm^3
# Si number density = 26.520373 Si / 1000 Ang^3
#
#
#
# Elastic Constant Matrix: (Units=GPa)
#
#
# Indices 1 2 3 4 5 6 
#
# 1 104.2175 10.7058 51.5241 7.9275 -10.6295 14.6898
# 2 10.7058 90.0633 30.4539 24.2239 -1.2800 2.8591
# 3 51.5241 30.4539 161.0873 41.2449 10.7065 -2.8046
# 4 7.9275 24.2239 41.2449 50.8158 8.3771 -10.8055
# 5 -10.6295 -1.2800 10.7065 8.3771 44.6510 9.0430
# 6 14.6898 2.8591 -2.8046 -10.8055 9.0430 28.7055
#
#
#
# Elastic Compliance Matrix: (Units=1/GPa)
#
#
# Indices 1 2 3 4 5 6 
#
# 1 0.014397 0.001029 -0.004878 -0.002354 0.007324 -0.011140
# 2 0.001029 0.013676 -0.001351 -0.007433 0.003558 -0.005939
# 3 -0.004878 -0.001351 0.009650 -0.005404 -0.003003 0.002486
# 4 -0.002354 -0.007433 -0.005404 0.033018 -0.009054 0.016698
# 5 0.007324 0.003558 -0.003003 -0.009054 0.030165 -0.017307
# 6 -0.011140 -0.005939 0.002486 0.016698 -0.017307 0.053110
#
#
# Mechanical properties :
#
#
# Convention : Reuss Voigt Hill
#
# Bulk Modulus (GPa) = 36.59940 60.08174 48.34057
# Shear Modulus (GPa) = 28.81428 42.34675 35.58052
#
# Velocity S-wave (km/s) = 3.29978 4.00029 3.66680
# Velocity P-wave (km/s) = 5.32433 6.63630 6.01619
#
# Compressibility (1/GPa) = 0.02732285
#
# Stress axis : x y z
#
# Youngs Moduli (GPa) = 69.45714 73.11956 103.62876
#
# Poissons Ratio (x) = -0.07522 0.50546
# Poissons Ratio (y) = -0.07145 0.14004
# Poissons Ratio (z) = 0.33878 0.09881
#
# Static dielectric constant tensor:
#      x y z
#    x 2.157210 0.012010 -0.101900 
#    y 0.012010 2.138060 -0.232440 
#    z -0.101900 -0.232440 2.480420 
# 
# From -- ./inp_files/89889.got.cif
#   From: 2010.05.17/outbox.cif.g08.bks.cpg/sg2_45_cif.got.tgz:89889.got - 2010.06.03 11:33:40.
