data_PCOD9043575
_publ_section_title
;
Structure prediction by ZEFSAII (Michael W. Deem and Ramdas Pophale) SiO2 
 PCOD9043575
Probable space group: P -1
;
_chemical_formula_sum "Si O2"
_cell_formula_units_Z 16
_cell_length_a 12.579110
_cell_length_b 5.343805
_cell_length_c 15.994906
_cell_angle_alpha 60.346318
_cell_angle_beta 125.523770
_cell_angle_gamma 90.651994
_cell_volume 700.125418
_symmetry_space_group_name_H-M "P -1"
_symmetry_group_IT_number 2
_symmetry_cell_setting 'triclinic'
loop_
_space_group_symop_operation_xyz
x,y,z
-x,-y,-z
loop_
_atom_site_type_symbol
_atom_site_label
_atom_site_fract_x
_atom_site_fract_y
_atom_site_fract_z
Si Si1 0.643011 0.075046 0.954703
Si Si2 0.977502 0.361850 0.424244
Si Si3 0.253099 0.557042 0.814905
Si Si4 0.570438 0.264670 0.244827
Si Si5 0.217162 0.884072 0.323105
Si Si6 0.109720 0.785738 0.877151
Si Si7 0.282321 0.150665 0.141217
Si Si8 0.757087 0.787909 0.545694
O O1 0.492985 0.358671 0.839908
O O2 0.708173 0.081849 0.891726
O O3 0.762336 0.107579 0.063140
O O4 0.641202 0.745122 0.036717
O O5 0.821747 0.521163 0.286843
O O6 0.000000 0.500000 0.500000
O O7 0.095629 0.363836 0.412652
O O8 0.000000 0.000000 0.500000
O O9 0.327353 0.785147 0.779846
O O10 0.127503 0.711240 0.799095
O O11 0.429159 0.196440 0.186992
O O12 0.657226 0.066149 0.394706
O O13 0.289608 0.506340 0.419372
O O14 0.273158 0.022721 0.248391
O O15 0.231819 0.054614 0.387156
O O16 0.048650 0.984754 0.213626
O O17 0.152598 0.469549 0.003681
#
# Coordination Sequence:
#
# PCOD9043575 Si02
#       8
#     2   2   2   2   2   2   2   2
#     4  10  24  43  71 102 140 186 243 292 363 420
#     4  12  25  44  73 107 148 186 229 291 362 424
#     4  11  23  43  72 106 143 186 229 301 361 434
#     4  11  26  45  67 102 147 185 245 286 360 425
#     4  12  27  48  75 104 146 187 246 295 356 419
#     4  10  23  45  72 108 138 179 239 302 367 421
#     4  10  26  46  70 101 139 193 241 300 348 419
#     4  12  28  45  73 109 142 194 236 293 357 429
#
# _framework density 22.853048999999999
#
# number of rings (size 3 to 8) (size 9 to 14) (size 15 to 20)
#    0.000    1.000    2.500    2.250    8.750    7.000 
#    0.000    0.000    0.000    0.000    0.000    0.000 
#    0.000    0.000    0.000    0.000    0.000    0.000 
#
# Total GULP energy -89406.851276 kJ/mol
# GULP energy per Si atom -5587.928205 kJ/mol
# Density = 2.280103 g / cm^3
# Si number density = 22.853049 Si / 1000 Ang^3
#
#
#
# Elastic Constant Matrix: (Units=GPa)
#
#
# Indices 1 2 3 4 5 6 
#
# 1 81.8154 34.2950 78.2019 -4.2930 -26.2005 7.8924
# 2 34.2950 87.0653 46.1089 16.3404 -20.4568 -3.4635
# 3 78.2019 46.1089 129.4417 14.1343 -15.7607 -0.5179
# 4 -4.2930 16.3404 14.1343 31.9340 -0.9874 -6.3045
# 5 -26.2005 -20.4568 -15.7607 -0.9874 48.1670 -2.3689
# 6 7.8924 -3.4635 -0.5179 -6.3045 -2.3689 17.5745
#
#
#
# Elastic Compliance Matrix: (Units=1/GPa)
#
#
# Indices 1 2 3 4 5 6 
#
# 1 0.046958 -0.004871 -0.026951 0.018348 0.014327 -0.014329
# 2 -0.004871 0.016815 -0.001709 -0.007749 0.003931 0.003201
# 3 -0.026951 -0.001709 0.025174 -0.012729 -0.007066 0.006989
# 4 0.018348 -0.007749 -0.012729 0.044765 0.003758 0.006423
# 5 0.014327 0.003931 -0.007066 0.003758 0.027952 -0.000752
# 6 -0.014329 0.003201 0.006989 0.006423 -0.000752 0.066375
#
#
# Mechanical properties :
#
#
# Convention : Reuss Voigt Hill
#
# Bulk Modulus (GPa) = 45.69399 68.39265 57.04332
# Shear Modulus (GPa) = 16.53463 28.84955 22.69209
#
# Velocity S-wave (km/s) = 2.69275 3.55687 3.15454
# Velocity P-wave (km/s) = 5.45032 6.84548 6.18735
#
# Compressibility (1/GPa) = 0.02188471
#
# Stress axis : x y z
#
# Youngs Moduli (GPa) = 21.29559 59.47131 39.72326
#
# Poissons Ratio (x) = 0.28970 1.07057
# Poissons Ratio (y) = 0.10374 0.06789
# Poissons Ratio (z) = 0.57393 0.10165
#
# Static dielectric constant tensor:
#      x y z
#    x 1.857370 0.014250 0.012530 
#    y 0.014250 1.976050 -0.019690 
#    z 0.012530 -0.019690 1.842530 
# 
# From -- ./inp_files/410128.got.cif
#   From: 2010.05.17/outbox.cif.g08.bks.cpg/sg2_206_cif.got.tgz:410128.got - 2010.06.03 11:33:40.
