data_PCOD9043857
_publ_section_title
;
Structure prediction by ZEFSAII (Michael W. Deem and Ramdas Pophale) SiO2 
 PCOD9043857
Probable space group: P -1
;
_chemical_formula_sum "Si O2"
_cell_formula_units_Z 15
_cell_length_a 8.873125
_cell_length_b 5.208050
_cell_length_c 21.449131
_cell_angle_alpha 96.283351
_cell_angle_beta 47.077627
_cell_angle_gamma 68.987333
_cell_volume 579.851741
_symmetry_space_group_name_H-M "P -1"
_symmetry_group_IT_number 2
_symmetry_cell_setting 'triclinic'
loop_
_space_group_symop_operation_xyz
x,y,z
-x,-y,-z
loop_
_atom_site_type_symbol
_atom_site_label
_atom_site_fract_x
_atom_site_fract_y
_atom_site_fract_z
Si Si1 0.030830 0.487841 0.165450
Si Si2 0.514516 0.121924 0.309980
Si Si3 0.235959 0.802679 0.337455
Si Si4 0.439254 0.235860 0.884740
Si Si5 0.910998 0.509665 0.710615
Si Si6 0.848460 0.471346 0.484960
Si Si7 0.500000 0.500000 0.000000
Si Si8 0.964555 0.253803 0.065753
O O1 0.305947 0.406374 0.074027
O O2 0.011698 0.228673 0.126359
O O3 0.969621 0.523350 0.256567
O O4 0.812369 0.838343 0.207852
O O5 0.393552 0.452370 0.315454
O O6 0.440789 0.252816 0.405362
O O7 0.375451 0.961779 0.323554
O O8 0.168137 0.728495 0.286919
O O9 0.945573 0.102614 0.449184
O O10 0.324529 0.454071 0.861232
O O11 0.652010 0.871603 0.797314
O O12 0.516848 0.367796 0.921115
O O13 0.186421 0.282325 0.982981
O O14 0.073383 0.480890 0.603909
O O15 0.000000 0.500000 0.500000
O O16 0.000000 0.000000 0.000000
#
# Coordination Sequence:
#
# PCOD9043857 Si02
#       8
#     2   2   2   2   2   2   1   2
#     4  11  28  47  72 117 153 209 254 333 391 470
#     4  11  25  47  80 112 158 204 267 318 389 467
#     4  11  23  46  77 115 150 206 261 318 380 469
#     4  10  25  44  70 104 140 193 254 315 384 462
#     4  12  26  43  76 114 156 205 261 317 400 460
#     4  10  23  45  78 114 154 203 264 319 385 473
#     4  10  26  50  74 102 158 192 266 316 400 456
#     4  10  24  45  71 102 138 193 255 318 382 458
#
# _framework density 25.868680000000001
#
# number of rings (size 3 to 8) (size 9 to 14) (size 15 to 20)
#    0.000    1.333    2.667    1.200    9.333    2.667 
#    0.000    0.667    0.000    0.000    0.000    0.000 
#    0.000    0.000    0.000    0.000    0.000    0.000 
#
# Total GULP energy -83539.781839 kJ/mol
# GULP energy per Si atom -5569.318789 kJ/mol
# Density = 2.580980 g / cm^3
# Si number density = 25.868680 Si / 1000 Ang^3
#
#
#
# Elastic Constant Matrix: (Units=GPa)
#
#
# Indices 1 2 3 4 5 6 
#
# 1 111.0038 46.3156 59.7320 21.1720 60.7252 24.0524
# 2 46.3156 101.4477 42.7276 14.0570 23.6784 17.4883
# 3 59.7320 42.7276 173.2833 13.1814 54.1156 4.2821
# 4 21.1720 14.0570 13.1814 59.5027 -3.9956 11.9030
# 5 60.7252 23.6784 54.1156 -3.9956 60.9842 5.8280
# 6 24.0524 17.4883 4.2821 11.9030 5.8280 33.7936
#
#
#
# Elastic Compliance Matrix: (Units=1/GPa)
#
#
# Indices 1 2 3 4 5 6 
#
# 1 0.030454 -0.004136 0.000504 -0.009650 -0.028724 -0.011246
# 2 -0.004136 0.012993 -0.002039 -0.000343 0.001206 -0.003609
# 3 0.000504 -0.002039 0.008660 -0.002498 -0.007732 0.001812
# 4 -0.009650 -0.000343 -0.002498 0.022370 0.013699 -0.002880
# 5 -0.028724 0.001206 -0.007732 0.013699 0.051614 0.007073
# 6 -0.011246 -0.003609 0.001812 -0.002880 0.007073 0.039028
#
#
# Mechanical properties :
#
#
# Convention : Reuss Voigt Hill
#
# Bulk Modulus (GPa) = 24.53112 75.92059 50.22586
# Shear Modulus (GPa) = 26.30919 46.65338 36.48128
#
# Velocity S-wave (km/s) = 3.19255 4.25133 3.75940
# Velocity P-wave (km/s) = 4.80555 7.31510 6.18886
#
# Compressibility (1/GPa) = 0.04076454
#
# Stress axis : x y z
#
# Youngs Moduli (GPa) = 32.83661 76.96642 115.47850
#
# Poissons Ratio (x) = 0.31833 -0.05825
# Poissons Ratio (y) = 0.13581 0.23549
# Poissons Ratio (z) = -0.01656 0.15695
#
# Static dielectric constant tensor:
#      x y z
#    x 2.094620 -0.041570 -0.076920 
#    y -0.041570 2.171300 -0.089280 
#    z -0.076920 -0.089280 2.322210 
# 
# From -- ./inp_files/605526.got.cif
#   From: 2010.05.17/outbox.cif.g08.bks.cpg/sg2_303_cif.got.tgz:605526.got - 2010.06.03 11:33:40.
