data_PCOD9043808
_publ_section_title
;
Structure prediction by ZEFSAII (Michael W. Deem and Ramdas Pophale) SiO2 
 PCOD9043808
Probable space group: P -1
;
_chemical_formula_sum "Si O2"
_cell_formula_units_Z 15
_cell_length_a 8.994973
_cell_length_b 14.204114
_cell_length_c 4.779212
_cell_angle_alpha 73.228152
_cell_angle_beta 97.612744
_cell_angle_gamma 70.154164
_cell_volume 531.614770
_symmetry_space_group_name_H-M "P -1"
_symmetry_group_IT_number 2
_symmetry_cell_setting 'triclinic'
loop_
_space_group_symop_operation_xyz
x,y,z
-x,-y,-z
loop_
_atom_site_type_symbol
_atom_site_label
_atom_site_fract_x
_atom_site_fract_y
_atom_site_fract_z
Si Si1 0.000000 0.000000 0.500000
Si Si2 0.739345 0.034842 0.941008
Si Si3 0.677744 0.584433 0.400311
Si Si4 0.154491 0.802561 0.820953
Si Si5 0.139350 0.318296 0.225978
Si Si6 0.923847 0.346512 0.652732
Si Si7 0.406176 0.096326 0.606912
Si Si8 0.477750 0.621343 0.822256
O O1 0.018012 0.879197 0.514383
O O2 0.858115 0.001945 0.735371
O O3 0.556698 0.122357 0.743349
O O4 0.684612 0.945675 0.144917
O O5 0.819201 0.088372 0.148351
O O6 0.789810 0.618434 0.603826
O O7 0.767208 0.456953 0.511583
O O8 0.619975 0.633408 0.039607
O O9 0.511714 0.621810 0.504612
O O10 0.108894 0.745461 0.113607
O O11 0.311176 0.716155 0.787874
O O12 0.275158 0.199157 0.338042
O O13 0.987067 0.321038 0.376628
O O14 0.057918 0.364738 0.871137
O O15 0.500000 0.000000 0.500000
O O16 0.500000 0.500000 0.000000
#
# Coordination Sequence:
#
# PCOD9043808 Si02
#       8
#     1   2   2   2   2   2   2   2
#     4   8  20  46  74 106 144 194 248 308 380 448
#     4   9  22  47  70 102 145 192 250 313 373 454
#     4  12  26  48  75 109 151 198 252 316 378 457
#     4  10  23  45  76 108 150 197 251 314 388 449
#     4  12  28  46  76 107 149 206 251 311 383 460
#     4  12  26  48  75 110 153 194 255 317 380 457
#     4  11  25  45  71 105 146 197 255 311 376 453
#     4  12  25  45  77 112 147 197 251 317 384 455
#
# _framework density 28.215921999999999
#
# number of rings (size 3 to 8) (size 9 to 14) (size 15 to 20)
#    0.800    0.267    1.333    4.400    5.600    0.000 
#    2.400    1.333    0.000    0.000    0.000    0.000 
#    0.000    0.000    0.000    0.000    0.000    0.000 
#
# Total GULP energy -83994.377270 kJ/mol
# GULP energy per Si atom -5599.625151 kJ/mol
# Density = 2.815170 g / cm^3
# Si number density = 28.215922 Si / 1000 Ang^3
#
#
#
# Elastic Constant Matrix: (Units=GPa)
#
#
# Indices 1 2 3 4 5 6 
#
# 1 144.7726 40.1009 39.3876 9.2525 13.3695 -19.1869
# 2 40.1009 178.0984 47.2665 -11.2893 -13.4426 -37.8741
# 3 39.3876 47.2665 134.0606 28.8376 -12.8333 -32.8637
# 4 9.2525 -11.2893 28.8376 48.2551 -5.9299 4.7100
# 5 13.3695 -13.4426 -12.8333 -5.9299 65.8279 2.9411
# 6 -19.1869 -37.8741 -32.8637 4.7100 2.9411 54.6043
#
#
#
# Elastic Compliance Matrix: (Units=1/GPa)
#
#
# Indices 1 2 3 4 5 6 
#
# 1 0.008204 -0.001460 -0.001529 -0.001418 -0.002444 0.001204
# 2 -0.001460 0.007436 -0.001933 0.003062 0.001574 0.003132
# 3 -0.001529 -0.001933 0.011766 -0.007600 0.001266 0.005790
# 4 -0.001418 0.003062 -0.007600 0.027039 0.002108 -0.005394
# 5 -0.002444 0.001574 0.001266 0.002108 0.016449 -0.000073
# 6 0.001204 0.003132 0.005790 -0.005394 -0.000073 0.024863
#
#
# Mechanical properties :
#
#
# Convention : Reuss Voigt Hill
#
# Bulk Modulus (GPa) = 56.94518 78.93795 67.94157
# Shear Modulus (GPa) = 44.86176 55.74922 50.30549
#
# Velocity S-wave (km/s) = 3.99174 4.44983 4.22699
# Velocity P-wave (km/s) = 6.43980 7.37824 6.92493
#
# Compressibility (1/GPa) = 0.01756075
#
# Stress axis : x y z
#
# Youngs Moduli (GPa) = 121.89683 134.48961 84.99328
#
# Poissons Ratio (x) = 0.19631 0.12999
# Poissons Ratio (y) = 0.17792 0.16429
# Poissons Ratio (z) = 0.18643 0.25996
#
# Static dielectric constant tensor:
#      x y z
#    x 2.434950 0.165860 0.086140 
#    y 0.165860 2.149140 -0.011440 
#    z 0.086140 -0.011440 2.218760 
# 
# From -- ./inp_files/34563.got.cif
#   From: 2010.05.17/outbox.cif.g08.bks.cpg/sg2_18_cif.got.tgz:34563.got - 2010.06.03 11:33:40.
