data_PCOD9043393
_publ_section_title
;
Structure prediction by ZEFSAII (Michael W. Deem and Ramdas Pophale) SiO2 
 PCOD9043393
Probable space group: P -1
;
_chemical_formula_sum "Si O2"
_cell_formula_units_Z 12
_cell_length_a 9.172862
_cell_length_b 13.007793
_cell_length_c 11.089407
_cell_angle_alpha 52.479779
_cell_angle_beta 107.091266
_cell_angle_gamma 147.974426
_cell_volume 472.312808
_symmetry_space_group_name_H-M "P -1"
_symmetry_group_IT_number 2
_symmetry_cell_setting 'triclinic'
loop_
_space_group_symop_operation_xyz
x,y,z
-x,-y,-z
loop_
_atom_site_type_symbol
_atom_site_label
_atom_site_fract_x
_atom_site_fract_y
_atom_site_fract_z
Si Si1 0.274091 0.163192 0.857409
Si Si2 0.164489 0.496079 0.598495
Si Si3 0.889996 0.776104 0.588129
Si Si4 0.783459 0.041805 0.227142
Si Si5 0.511959 0.122284 0.097439
Si Si6 0.504411 0.150498 0.344006
O O1 0.523032 0.469223 0.682075
O O2 0.093815 0.956912 0.850633
O O3 0.517859 0.232541 0.916083
O O4 0.000000 0.000000 0.000000
O O5 0.280290 0.607200 0.683557
O O6 0.000000 0.500000 0.500000
O O7 0.482552 0.730534 0.427181
O O8 0.874649 0.179309 0.756346
O O9 0.980958 0.764437 0.740557
O O10 0.000000 0.000000 0.500000
O O11 0.137004 0.923015 0.437054
O O12 0.652050 0.085374 0.127070
O O13 0.635235 0.253749 0.166523
O O14 0.500000 0.000000 0.500000
#
# Coordination Sequence:
#
# PCOD9043393 Si02
#       6
#     2   2   2   2   2   2
#     4  12  30  45  65 100 142 186 225 276 347 400
#     4   9  18  35  69  98 132 162 218 273 335 391
#     4  11  27  47  70  99 139 181 227 279 338 414
#     4  10  23  45  70  99 133 179 229 278 340 403
#     4  11  23  42  69 104 135 171 223 293 335 398
#     4  11  20  41  72 105 126 175 231 279 333 404
#
# _framework density 25.406890000000001
#
# number of rings (size 3 to 8) (size 9 to 14) (size 15 to 20)
#    0.000    1.333    5.000    1.500    9.333    3.333 
#    0.000    0.000    0.000    0.000    0.000    0.000 
#    0.000    0.000    0.000    0.000    0.000    0.000 
#
# Total GULP energy -67116.393576 kJ/mol
# GULP energy per Si atom -5593.032798 kJ/mol
# Density = 2.534906 g / cm^3
# Si number density = 25.406890 Si / 1000 Ang^3
#
#
#
# Elastic Constant Matrix: (Units=GPa)
#
#
# Indices 1 2 3 4 5 6 
#
# 1 104.4430 5.2548 24.0049 -2.4282 -6.5573 -16.1101
# 2 5.2548 83.0701 18.4287 -0.8334 -17.8063 -15.3330
# 3 24.0049 18.4287 46.6602 -12.3787 2.2009 -14.8154
# 4 -2.4282 -0.8334 -12.3787 43.1155 -2.7400 -8.6252
# 5 -6.5573 -17.8063 2.2009 -2.7400 51.0480 15.6166
# 6 -16.1101 -15.3330 -14.8154 -8.6252 15.6166 40.8898
#
#
#
# Elastic Compliance Matrix: (Units=1/GPa)
#
#
# Indices 1 2 3 4 5 6 
#
# 1 0.011258 0.001283 -0.005814 -0.000488 0.001461 0.002149
# 2 0.001283 0.014757 -0.006448 -0.000854 0.005058 0.001591
# 3 -0.005814 -0.006448 0.034682 0.011672 -0.007951 0.013356
# 4 -0.000488 -0.000854 0.011672 0.028479 -0.002616 0.010723
# 5 0.001461 0.005058 -0.007951 -0.002616 0.024953 -0.010490
# 6 0.002149 0.001591 0.013356 0.010723 -0.010490 0.037007
#
#
# Mechanical properties :
#
#
# Convention : Reuss Voigt Hill
#
# Bulk Modulus (GPa) = 25.81536 36.61666 31.21601
# Shear Modulus (GPa) = 26.88064 39.44299 33.16182
#
# Velocity S-wave (km/s) = 3.25623 3.94439 3.61672
# Velocity P-wave (km/s) = 4.93155 5.93192 5.45472
#
# Compressibility (1/GPa) = 0.03873662
#
# Stress axis : x y z
#
# Youngs Moduli (GPa) = 88.82333 67.76667 28.83367
#
# Poissons Ratio (x) = -0.08692 0.16765
# Poissons Ratio (y) = -0.11393 0.18592
# Poissons Ratio (z) = 0.51646 0.43697
#
# Static dielectric constant tensor:
#      x y z
#    x 2.013420 0.045760 0.046190 
#    y 0.045760 1.967030 0.009190 
#    z 0.046190 0.009190 2.027510 
# 
# From -- ./inp_files/392367.got.cif
#   From: 2010.05.17/outbox.cif.g08.bks.cpg/sg2_197_cif.got.tgz:392367.got - 2010.06.03 11:33:40.
