data_PCOD9043765
_publ_section_title
;
Structure prediction by ZEFSAII (Michael W. Deem and Ramdas Pophale) SiO2 
 PCOD9043765
Probable space group: P -1
;
_chemical_formula_sum "Si O2"
_cell_formula_units_Z 13
_cell_length_a 5.687361
_cell_length_b 12.614017
_cell_length_c 8.431847
_cell_angle_alpha 69.528587
_cell_angle_beta 75.280410
_cell_angle_gamma 65.306688
_cell_volume 510.721989
_symmetry_space_group_name_H-M "P -1"
_symmetry_group_IT_number 2
_symmetry_cell_setting 'triclinic'
loop_
_space_group_symop_operation_xyz
x,y,z
-x,-y,-z
loop_
_atom_site_type_symbol
_atom_site_label
_atom_site_fract_x
_atom_site_fract_y
_atom_site_fract_z
Si Si1 0.500000 0.500000 0.500000
Si Si2 0.265718 0.068654 0.121918
Si Si3 0.044407 0.797334 0.175661
Si Si4 0.476900 0.100929 0.580709
Si Si5 0.520029 0.653793 0.700718
Si Si6 0.059695 0.445569 0.751056
Si Si7 0.556880 0.714877 0.994452
O O1 0.402333 0.579513 0.643516
O O2 0.267928 0.448589 0.583357
O O3 0.287224 0.969507 0.301843
O O4 0.026512 0.122979 0.015321
O O5 0.329521 0.181445 0.123632
O O6 0.500000 0.000000 0.000000
O O7 0.809005 0.861102 0.304676
O O8 0.038545 0.662626 0.227564
O O9 0.353858 0.766469 0.149881
O O10 0.507721 0.219336 0.440896
O O11 0.500000 0.000000 0.500000
O O12 0.819191 0.570119 0.729095
O O13 0.418550 0.680602 0.885719
O O14 0.212349 0.397382 0.912914
#
# Coordination Sequence:
#
# PCOD9043765 Si02
#       7
#     1   2   2   2   2   2   2
#     4  12  26  44  74 104 144 182 242 296 364 418
#     4   9  21  42  68  98 144 188 236 290 352 420
#     4  10  23  45  75 102 143 190 238 297 358 424
#     4  11  22  45  73 102 146 188 236 302 352 420
#     4  12  26  46  72 110 148 188 239 298 362 423
#     4  11  25  45  73 104 145 189 235 303 359 428
#     4  11  24  45  74 108 141 194 242 290 362 436
#
# _framework density 25.454163000000001
#
# number of rings (size 3 to 8) (size 9 to 14) (size 15 to 20)
#    0.000    1.231    3.077    1.846    2.154    7.385 
#    0.000    2.308    0.000    0.000    0.000    0.000 
#    0.000    0.000    0.000    0.000    0.000    0.000 
#
# Total GULP energy -72492.974864 kJ/mol
# GULP energy per Si atom -5576.382682 kJ/mol
# Density = 2.539623 g / cm^3
# Si number density = 25.454163 Si / 1000 Ang^3
#
#
#
# Elastic Constant Matrix: (Units=GPa)
#
#
# Indices 1 2 3 4 5 6 
#
# 1 39.9333 23.7852 11.5976 -19.5856 -10.6789 -1.4660
# 2 23.7852 130.5011 53.2815 -15.7879 5.3424 3.9605
# 3 11.5976 53.2815 90.7648 -19.0043 -1.2114 1.4676
# 4 -19.5856 -15.7879 -19.0043 54.3615 -2.0778 10.9890
# 5 -10.6789 5.3424 -1.2114 -2.0778 26.9909 3.1590
# 6 -1.4660 3.9605 1.4676 10.9890 3.1590 52.4397
#
#
#
# Elastic Compliance Matrix: (Units=1/GPa)
#
#
# Indices 1 2 3 4 5 6 
#
# 1 0.041034 -0.007425 0.002507 0.014769 0.019261 -0.002618
# 2 -0.007425 0.011621 -0.006294 -0.001671 -0.005623 -0.000220
# 3 0.002507 -0.006294 0.015469 0.004838 0.003434 -0.001108
# 4 0.014769 -0.001671 0.004838 0.026418 0.009090 -0.005680
# 5 0.019261 -0.005623 0.003434 0.009090 0.047090 -0.003875
# 6 -0.002618 -0.000220 -0.001108 -0.005680 -0.003875 0.020468
#
#
# Mechanical properties :
#
#
# Convention : Reuss Voigt Hill
#
# Bulk Modulus (GPa) = 21.88185 48.72531 35.30358
# Shear Modulus (GPa) = 25.03038 38.26076 31.64557
#
# Velocity S-wave (km/s) = 3.13924 3.88122 3.52978
# Velocity P-wave (km/s) = 4.66423 6.26651 5.52377
#
# Compressibility (1/GPa) = 0.04569998
#
# Stress axis : x y z
#
# Youngs Moduli (GPa) = 24.36980 86.05423 64.64611
#
# Poissons Ratio (x) = 0.63894 -0.16208
# Poissons Ratio (y) = 0.18094 0.40690
# Poissons Ratio (z) = -0.06110 0.54165
#
# Static dielectric constant tensor:
#      x y z
#    x 1.833560 0.006530 -0.043820 
#    y 0.006530 1.996400 0.042950 
#    z -0.043820 0.042950 2.017830 
# 
# From -- ./inp_files/24760.got.cif
#   From: 2010.05.17/outbox.cif.g08.bks.cpg/sg2_13_cif.got.tgz:24760.got - 2010.06.03 11:33:40.
