data_PCOD9043222
_publ_section_title
;
Structure prediction by ZEFSAII (Michael W. Deem and Ramdas Pophale) SiO2 
 PCOD9043222
Probable space group: P -1
;
_chemical_formula_sum "Si O2"
_cell_formula_units_Z 16
_cell_length_a 9.103896
_cell_length_b 12.045887
_cell_length_c 16.670137
_cell_angle_alpha 45.859317
_cell_angle_beta 130.116574
_cell_angle_gamma 143.803657
_cell_volume 759.998035
_symmetry_space_group_name_H-M "P -1"
_symmetry_group_IT_number 2
_symmetry_cell_setting 'triclinic'
loop_
_space_group_symop_operation_xyz
x,y,z
-x,-y,-z
loop_
_atom_site_type_symbol
_atom_site_label
_atom_site_fract_x
_atom_site_fract_y
_atom_site_fract_z
Si Si1 0.403293 0.381405 0.110908
Si Si2 0.110332 0.699792 0.385812
Si Si3 0.111291 0.555155 0.717065
Si Si4 0.988852 0.432229 0.149516
Si Si5 0.901214 0.937593 0.194560
Si Si6 0.603928 0.301850 0.962955
Si Si7 0.704297 0.003696 0.437986
Si Si8 0.045562 0.929551 0.674323
O O1 0.616771 0.383136 0.221521
O O2 0.370045 0.508476 0.093789
O O3 0.500000 0.500000 0.000000
O O4 0.144603 0.149744 0.134652
O O5 0.409744 0.872660 0.419063
O O6 0.000000 0.500000 0.500000
O O7 0.069630 0.621412 0.320202
O O8 0.966087 0.788193 0.300058
O O9 0.018375 0.489502 0.808015
O O10 0.151464 0.758743 0.616223
O O11 0.082283 0.306378 0.252691
O O12 0.178952 0.621999 0.063406
O O13 0.704280 0.267242 0.095284
O O14 0.665042 0.851712 0.096823
O O15 0.856848 0.978653 0.248584
O O16 0.836412 0.945671 0.568805
O O17 0.754541 0.976639 0.376630
#
# Coordination Sequence:
#
# PCOD9043222 Si02
#       8
#     2   2   2   2   2   2   2   2
#     4  12  24  46  68  97 140 178 222 281 337 400
#     4  12  27  41  70 104 134 177 224 275 339 406
#     4  11  23  45  67  98 134 179 220 274 338 395
#     4  10  23  45  69  92 137 176 222 281 330 393
#     4  12  26  43  70 103 133 180 224 277 341 403
#     4  11  24  44  66 102 132 175 226 276 335 398
#     4  10  24  46  66  98 135 176 226 278 329 397
#     4  10  23  45  69  93 135 179 222 279 332 392
#
# _framework density 21.052685
#
# number of rings (size 3 to 8) (size 9 to 14) (size 15 to 20)
#    0.000    1.000    5.000    0.750    5.250    2.000 
#    4.500    2.500    0.000    0.000    0.000    0.000 
#    0.000    0.000    0.000    0.000    0.000    0.000 
#
# Total GULP energy -89378.677858 kJ/mol
# GULP energy per Si atom -5586.167366 kJ/mol
# Density = 2.100477 g / cm^3
# Si number density = 21.052685 Si / 1000 Ang^3
#
#
#
# Elastic Constant Matrix: (Units=GPa)
#
#
# Indices 1 2 3 4 5 6 
#
# 1 71.0680 3.2426 2.7965 -0.0167 -1.2265 -18.4908
# 2 3.2426 56.4150 1.6234 3.7283 -4.7172 -4.6351
# 3 2.7965 1.6234 64.8894 3.9385 4.7713 -5.1526
# 4 -0.0167 3.7283 3.9385 23.8956 -0.0529 2.3015
# 5 -1.2265 -4.7172 4.7713 -0.0529 42.5135 2.7663
# 6 -18.4908 -4.6351 -5.1526 2.3015 2.7663 29.9331
#
#
#
# Elastic Compliance Matrix: (Units=1/GPa)
#
#
# Indices 1 2 3 4 5 6 
#
# 1 0.016793 -0.000060 0.000190 -0.001022 -0.000228 0.010497
# 2 -0.000060 0.018328 -0.000180 -0.003099 0.001864 0.002836
# 3 0.000190 -0.000180 0.015992 -0.002926 -0.002025 0.003254
# 4 -0.001022 -0.003099 -0.002926 0.043294 0.000332 -0.004974
# 5 -0.000228 0.001864 -0.002025 0.000332 0.024110 -0.002454
# 6 0.010497 0.002836 0.003254 -0.004974 -0.002454 0.041501
#
#
# Mechanical properties :
#
#
# Convention : Reuss Voigt Hill
#
# Bulk Modulus (GPa) = 19.60227 23.07747 21.33987
# Shear Modulus (GPa) = 28.22930 31.58242 29.90586
#
# Velocity S-wave (km/s) = 3.66579 3.87739 3.77307
# Velocity P-wave (km/s) = 5.22002 5.57056 5.39814
#
# Compressibility (1/GPa) = 0.05101450
#
# Stress axis : x y z
#
# Youngs Moduli (GPa) = 59.54772 54.56113 62.53122
#
# Poissons Ratio (x) = 0.00326 -0.01188
# Poissons Ratio (y) = 0.00356 0.01123
# Poissons Ratio (z) = -0.01132 0.00980
#
# Static dielectric constant tensor:
#      x y z
#    x 1.768820 0.008300 -0.019900 
#    y 0.008300 1.726780 -0.001260 
#    z -0.019900 -0.001260 1.821120 
# 
# From -- ./inp_files/37628.got.cif
#   From: 2010.05.17/outbox.cif.g08.bks.cpg/sg2_19_cif.got.tgz:37628.got - 2010.06.03 11:33:40.
