data_PCOD9043006
_publ_section_title
;
Structure prediction by ZEFSAII (Michael W. Deem and Ramdas Pophale) SiO2 
 PCOD9043006
Probable space group: P -1
;
_chemical_formula_sum "Si O2"
_cell_formula_units_Z 14
_cell_length_a 20.582969
_cell_length_b 18.243215
_cell_length_c 16.169392
_cell_angle_alpha 20.067752
_cell_angle_beta 19.472528
_cell_angle_gamma 17.663746
_cell_volume 561.600753
_symmetry_space_group_name_H-M "P -1"
_symmetry_group_IT_number 2
_symmetry_cell_setting 'triclinic'
loop_
_space_group_symop_operation_xyz
x,y,z
-x,-y,-z
loop_
_atom_site_type_symbol
_atom_site_label
_atom_site_fract_x
_atom_site_fract_y
_atom_site_fract_z
Si Si1 0.874623 0.576155 0.447247
Si Si2 0.382415 0.439358 0.390790
Si Si3 0.252400 0.452553 0.011589
Si Si4 0.642175 0.903995 0.075284
Si Si5 0.899370 0.247936 0.914901
Si Si6 0.463912 0.678286 0.431066
Si Si7 0.938871 0.999775 0.726960
O O1 0.716427 0.583120 0.555735
O O2 0.829376 0.473580 0.693181
O O3 0.154860 0.391295 0.273674
O O4 0.887373 0.811075 0.216901
O O5 0.364536 0.253910 0.672160
O O6 0.219673 0.742845 0.298304
O O7 0.659437 0.329887 0.162548
O O8 0.383510 0.188987 0.079701
O O9 0.436094 0.534734 0.695104
O O10 0.020778 0.729476 0.962655
O O11 0.657169 0.734194 0.159892
O O12 0.822920 0.975413 0.808814
O O13 0.000000 0.000000 0.000000
O O14 0.500000 0.500000 0.500000
O O15 0.195263 0.944002 0.460096
#
# Coordination Sequence:
#
# PCOD9043006 Si02
#       7
#     2   2   2   2   2   2   2
#     4  11  23  44  62  94 134 173 222 275 331 387
#     4  12  24  43  70  98 132 181 226 272 332 401
#     4  10  23  45  67  98 132 175 227 274 330 404
#     4  12  22  42  72  96 135 178 222 273 337 393
#     4  11  26  40  64  99 136 174 225 280 329 391
#     4  10  24  44  69 101 137 172 221 279 334 401
#     4  10  25  42  68 100 128 176 230 267 334 404
#
# _framework density 24.928740999999999
#
# number of rings (size 3 to 8) (size 9 to 14) (size 15 to 20)
#    0.857    0.286    1.429    4.714    2.000    2.857 
#    0.000    2.857    0.000    0.000    0.000    0.000 
#    0.000    0.000    0.000    0.000    0.000    0.000 
#
# Total GULP energy -78008.476000 kJ/mol
# GULP energy per Si atom -5572.034000 kJ/mol
# Density = 2.487200 g / cm^3
# Si number density = 24.928741 Si / 1000 Ang^3
#
#
#
# Elastic Constant Matrix: (Units=GPa)
#
#
# Indices 1 2 3 4 5 6 
#
# 1 144.5517 28.0319 52.8118 -10.7591 -28.1163 10.3431
# 2 28.0319 100.4906 15.6492 -26.6966 -22.5971 3.7220
# 3 52.8118 15.6492 114.0009 -1.0129 -36.7209 -10.8280
# 4 -10.7591 -26.6966 -1.0129 26.9654 10.5750 -2.1893
# 5 -28.1163 -22.5971 -36.7209 10.5750 56.6513 -14.4842
# 6 10.3431 3.7220 -10.8280 -2.1893 -14.4842 23.6602
#
#
#
# Elastic Compliance Matrix: (Units=1/GPa)
#
#
# Indices 1 2 3 4 5 6 
#
# 1 0.009523 -0.001271 -0.005396 0.002365 -0.001552 -0.007163
# 2 -0.001271 0.014291 -0.000240 0.012607 0.002843 0.001105
# 3 -0.005396 -0.000240 0.017808 -0.005960 0.014745 0.019021
# 4 0.002365 0.012607 -0.005960 0.053401 -0.009288 -0.006490
# 5 -0.001552 0.002843 0.014745 -0.009288 0.036600 0.028525
# 6 -0.007163 0.001105 0.019021 -0.006490 0.028525 0.070789
#
#
# Mechanical properties :
#
#
# Convention : Reuss Voigt Hill
#
# Bulk Modulus (GPa) = 35.96363 61.33656 48.65009
# Shear Modulus (GPa) = 22.17338 38.95873 30.56605
#
# Velocity S-wave (km/s) = 2.98563 3.95752 3.50542
# Velocity P-wave (km/s) = 5.13257 6.74839 5.99517
#
# Compressibility (1/GPa) = 0.02780587
#
# Stress axis : x y z
#
# Youngs Moduli (GPa) = 105.01160 69.97560 56.15541
#
# Poissons Ratio (x) = 0.08896 0.30302
# Poissons Ratio (y) = 0.13350 0.01349
# Poissons Ratio (z) = 0.56666 0.01681
#
# Static dielectric constant tensor:
#      x y z
#    x 1.826280 0.182220 -0.246500 
#    y 0.182220 1.860170 0.153530 
#    z -0.246500 0.153530 1.819290 
# 
# From -- ./inp_files/578391.got.cif
#   From: 2010.05.17/outbox.cif.g08.bks.cpg/sg2_290_cif.got.tgz:578391.got - 2010.06.03 11:33:40.
