data_PCOD9043028
_publ_section_title
;
Structure prediction by ZEFSAII (Michael W. Deem and Ramdas Pophale) SiO2 
 PCOD9043028
Probable space group: P -1
;
_chemical_formula_sum "Si O2"
_cell_formula_units_Z 16
_cell_length_a 21.461561
_cell_length_b 18.163346
_cell_length_c 12.162484
_cell_angle_alpha 151.181974
_cell_angle_beta 21.171428
_cell_angle_gamma 153.612736
_cell_volume 736.000603
_symmetry_space_group_name_H-M "P -1"
_symmetry_group_IT_number 2
_symmetry_cell_setting 'triclinic'
loop_
_space_group_symop_operation_xyz
x,y,z
-x,-y,-z
loop_
_atom_site_type_symbol
_atom_site_label
_atom_site_fract_x
_atom_site_fract_y
_atom_site_fract_z
Si Si1 0.438457 0.841315 0.114885
Si Si2 0.324507 0.534450 0.285641
Si Si3 0.061464 0.740856 0.324616
Si Si4 0.806859 0.009212 0.362043
Si Si5 0.477525 0.584466 0.864955
Si Si6 0.446819 0.727974 0.704066
Si Si7 0.660843 0.095456 0.269094
Si Si8 0.880362 0.912483 0.689015
O O1 0.260828 0.887768 0.475798
O O2 0.604810 0.990124 0.108089
O O3 0.394524 0.664213 0.014156
O O4 0.479259 0.823537 0.895019
O O5 0.335613 0.722960 0.521529
O O6 0.130340 0.411623 0.508393
O O7 0.500000 0.500000 0.000000
O O8 0.334432 0.506723 0.102008
O O9 0.999891 0.832899 0.452438
O O10 0.142368 0.883199 0.470664
O O11 0.237400 0.693199 0.954950
O O12 0.614480 0.837887 0.485144
O O13 0.000000 0.000000 0.000000
O O14 0.539430 0.447649 0.534825
O O15 0.671224 0.747424 0.803205
O O16 0.500000 0.000000 0.500000
O O17 0.836559 0.070398 0.003693
O O18 0.000000 0.000000 0.500000
#
# Coordination Sequence:
#
# PCOD9043028 Si02
#       8
#     2   2   2   2   2   2   2   2
#     4  10  23  45  68 100 139 179 230 279 350 405
#     4  12  24  44  69 106 141 179 230 292 344 416
#     4  11  25  45  67 105 141 180 236 279 355 408
#     4  11  26  44  72  96 133 190 233 287 341 417
#     4  11  24  44  70 101 142 181 231 288 349 405
#     4  11  26  47  69 100 141 184 233 290 338 419
#     4  11  23  44  72 101 140 181 226 288 349 407
#     4  11  26  41  68 105 139 184 231 285 351 412
#
# _framework density 21.739111999999999
#
# number of rings (size 3 to 8) (size 9 to 14) (size 15 to 20)
#    0.000    1.000    3.750    2.625   14.000    0.500 
#    0.000    6.875    0.000    0.000    0.000    0.000 
#    0.000    0.000    0.000    0.000    0.000    0.000 
#
# Total GULP energy -89256.752798 kJ/mol
# GULP energy per Si atom -5578.547050 kJ/mol
# Density = 2.168963 g / cm^3
# Si number density = 21.739112 Si / 1000 Ang^3
#
#
#
# Elastic Constant Matrix: (Units=GPa)
#
#
# Indices 1 2 3 4 5 6 
#
# 1 101.8408 42.5662 54.1607 0.7520 -22.5591 -34.0558
# 2 42.5662 118.2314 75.6548 2.5370 -24.0373 -33.6312
# 3 54.1607 75.6548 187.0383 5.4288 -33.4419 -30.2549
# 4 0.7520 2.5370 5.4288 47.3639 -2.0039 1.5150
# 5 -22.5591 -24.0373 -33.4419 -2.0039 37.6529 12.0501
# 6 -34.0558 -33.6312 -30.2549 1.5150 12.0501 37.5487
#
#
#
# Elastic Compliance Matrix: (Units=1/GPa)
#
#
# Indices 1 2 3 4 5 6 
#
# 1 0.015504 -0.000535 -0.001820 -0.000195 0.003835 0.010894
# 2 -0.000535 0.013848 -0.003640 -0.000465 0.002654 0.008153
# 3 -0.001820 -0.003640 0.008079 -0.000566 0.003580 0.000473
# 4 -0.000195 -0.000465 -0.000566 0.021316 0.000924 -0.002206
# 5 0.003835 0.002654 0.003580 0.000924 0.034541 -0.002383
# 6 0.010894 0.008153 0.000473 -0.002206 -0.002383 0.045050
#
#
# Mechanical properties :
#
#
# Convention : Reuss Voigt Hill
#
# Bulk Modulus (GPa) = 39.30466 83.54156 61.42311
# Shear Modulus (GPa) = 31.48465 40.16167 35.82316
#
# Velocity S-wave (km/s) = 3.80978 4.30285 4.06380
# Velocity P-wave (km/s) = 6.12143 7.94975 7.09473
#
# Compressibility (1/GPa) = 0.02544228
#
# Stress axis : x y z
#
# Youngs Moduli (GPa) = 64.49745 72.21184 123.78232
#
# Poissons Ratio (x) = 0.03862 0.22526
# Poissons Ratio (y) = 0.03450 0.45055
# Poissons Ratio (z) = 0.11737 0.26284
#
# Static dielectric constant tensor:
#      x y z
#    x 1.723670 0.087460 0.210260 
#    y 0.087460 1.766860 -0.161920 
#    z 0.210260 -0.161920 1.348530 
# 
# From -- ./inp_files/472451.got.cif
#   From: 2010.05.17/outbox.cif.g08.bks.cpg/sg2_237_cif.got.tgz:472451.got - 2010.06.03 11:33:40.
