data_PCOD9043719
_publ_section_title
;
Structure prediction by ZEFSAII (Michael W. Deem and Ramdas Pophale) SiO2 
 PCOD9043719
Probable space group: P -1
;
_chemical_formula_sum "Si O2"
_cell_formula_units_Z 14
_cell_length_a 21.407758
_cell_length_b 5.538919
_cell_length_c 5.285083
_cell_angle_alpha 96.539707
_cell_angle_beta 102.870254
_cell_angle_gamma 68.366389
_cell_volume 567.555484
_symmetry_space_group_name_H-M "P -1"
_symmetry_group_IT_number 2
_symmetry_cell_setting 'triclinic'
loop_
_space_group_symop_operation_xyz
x,y,z
-x,-y,-z
loop_
_atom_site_type_symbol
_atom_site_label
_atom_site_fract_x
_atom_site_fract_y
_atom_site_fract_z
Si Si1 0.831935 0.011708 0.296026
Si Si2 0.932762 0.560349 0.629655
Si Si3 0.498929 0.266093 0.158880
Si Si4 0.717513 0.526684 0.415865
Si Si5 0.614682 0.331412 0.597277
Si Si6 0.969842 0.859492 0.146247
Si Si7 0.712122 0.864645 0.945856
O O1 0.787564 0.284934 0.409147
O O2 0.865272 0.759391 0.475053
O O3 0.898882 0.027559 0.226357
O O4 0.778743 0.939173 0.064361
O O5 0.000000 0.500000 0.500000
O O6 0.955870 0.258632 0.657927
O O7 0.942384 0.672262 0.923915
O O8 0.563776 0.215214 0.395320
O O9 0.500000 0.500000 0.000000
O O10 0.431308 0.397558 0.283029
O O11 0.500000 0.000000 0.000000
O O12 0.662533 0.395108 0.437639
O O13 0.723425 0.684206 0.688349
O O14 0.700862 0.712199 0.171011
O O15 0.653883 0.131628 0.829655
O O16 0.000000 0.000000 0.000000
#
# Coordination Sequence:
#
# PCOD9043719 Si02
#       7
#     2   2   2   2   2   2   2
#     4  11  27  49  72 116 156 207 286 343 425 521
#     4   9  22  44  67  99 148 191 258 334 408 493
#     4  11  30  53  91 128 177 231 290 357 432 514
#     4  12  30  50  85 120 166 230 277 347 433 511
#     4  11  30  54  80 128 174 215 297 343 427 512
#     4  10  23  45  74 105 149 205 266 343 431 500
#     4  12  30  51  83 119 171 223 277 356 428 509
#
# _framework density 24.667192
#
# number of rings (size 3 to 8) (size 9 to 14) (size 15 to 20)
#    0.000    1.143    0.000    1.714   16.000    8.000 
#    0.000    2.143    0.000    0.000    0.000    0.000 
#    0.000    0.000    0.000    0.000    0.000    0.000 
#
# Total GULP energy -78082.144180 kJ/mol
# GULP energy per Si atom -5577.296013 kJ/mol
# Density = 2.461105 g / cm^3
# Si number density = 24.667192 Si / 1000 Ang^3
#
#
#
# Elastic Constant Matrix: (Units=GPa)
#
#
# Indices 1 2 3 4 5 6 
#
# 1 115.5106 92.5869 64.6643 -2.5423 -9.3441 -31.4919
# 2 92.5869 155.7655 75.8989 -9.6582 -3.0437 -27.6652
# 3 64.6643 75.8989 149.5957 -5.8995 3.2280 -25.3043
# 4 -2.5423 -9.6582 -5.8995 70.4983 -3.6290 -8.8534
# 5 -9.3441 -3.0437 3.2280 -3.6290 51.9350 -12.4849
# 6 -31.4919 -27.6652 -25.3043 -8.8534 -12.4849 33.6224
#
#
#
# Elastic Compliance Matrix: (Units=1/GPa)
#
#
# Indices 1 2 3 4 5 6 
#
# 1 0.021643 -0.008900 -0.002564 0.001466 0.007001 0.014004
# 2 -0.008900 0.013219 -0.002674 0.001339 -0.000390 0.000736
# 3 -0.002564 -0.002674 0.009629 0.000647 -0.000543 0.002614
# 4 0.001466 0.001339 0.000647 0.015701 0.003409 0.008361
# 5 0.007001 -0.000390 -0.000543 0.003409 0.024574 0.015850
# 6 0.014004 0.000736 0.002614 0.008361 0.015850 0.053519
#
#
# Mechanical properties :
#
#
# Convention : Reuss Voigt Hill
#
# Bulk Modulus (GPa) = 61.67345 98.57466 80.12405
# Shear Modulus (GPa) = 29.07535 43.72594 36.40064
#
# Velocity S-wave (km/s) = 3.43695 4.21484 3.84561
# Velocity P-wave (km/s) = 6.38801 7.98342 7.22986
#
# Compressibility (1/GPa) = 0.01621443
#
# Stress axis : x y z
#
# Youngs Moduli (GPa) = 46.20362 75.64696 103.85121
#
# Poissons Ratio (x) = 0.67329 0.26631
# Poissons Ratio (y) = 0.41123 0.27770
# Poissons Ratio (z) = 0.11848 0.20228
#
# Static dielectric constant tensor:
#      x y z
#    x 1.974990 -0.037420 -0.013600 
#    y -0.037420 1.471300 0.122900 
#    z -0.013600 0.122900 1.891890 
# 
# From -- ./inp_files/114807.got.cif
#   From: 2010.05.17/outbox.cif.g08.bks.cpg/sg2_58_cif.got.tgz:114807.got - 2010.06.03 11:33:40.
