data_PCOD9043811
_publ_section_title
;
Structure prediction by ZEFSAII (Michael W. Deem and Ramdas Pophale) SiO2 
 PCOD9043811
Probable space group: P -1
;
_chemical_formula_sum "Si O2"
_cell_formula_units_Z 16
_cell_length_a 20.952259
_cell_length_b 9.327743
_cell_length_c 5.564287
_cell_angle_alpha 124.571111
_cell_angle_beta 111.151725
_cell_angle_gamma 44.412034
_cell_volume 624.775069
_symmetry_space_group_name_H-M "P -1"
_symmetry_group_IT_number 2
_symmetry_cell_setting 'triclinic'
loop_
_space_group_symop_operation_xyz
x,y,z
-x,-y,-z
loop_
_atom_site_type_symbol
_atom_site_label
_atom_site_fract_x
_atom_site_fract_y
_atom_site_fract_z
Si Si1 0.650386 0.455400 0.951316
Si Si2 0.253605 0.066272 0.325266
Si Si3 0.481869 0.827441 0.813539
Si Si4 0.794793 0.475407 0.299427
Si Si5 0.088092 0.954498 0.662000
Si Si6 0.852542 0.795018 0.185597
Si Si7 0.523844 0.258675 0.786423
Si Si8 0.970928 0.367174 0.208655
O O1 0.736374 0.437057 0.026413
O O2 0.576773 0.660762 0.238048
O O3 0.580763 0.564963 0.734186
O O4 0.681692 0.212756 0.848052
O O5 0.268090 0.249529 0.489752
O O6 0.208903 0.129076 0.590089
O O7 0.193412 0.135680 0.070350
O O8 0.439137 0.847251 0.523500
O O9 0.426476 0.872402 0.021768
O O10 0.500000 0.000000 0.000000
O O11 0.890993 0.390599 0.248441
O O12 0.826304 0.313436 0.421586
O O13 0.109227 0.074424 0.623548
O O14 0.000000 0.000000 0.500000
O O15 0.055992 0.103194 0.007006
O O16 0.926400 0.516017 0.042808
O O17 0.500000 0.500000 0.000000
O O18 0.000000 0.500000 0.500000
#
# Coordination Sequence:
#
# PCOD9043811 Si02
#       8
#     2   2   2   2   2   2   2   2
#     4  10  26  43  75 104 149 184 241 288 363 420
#     4  11  25  47  66 100 140 188 230 296 359 427
#     4  10  23  45  76 110 147 185 235 288 347 430
#     4  11  24  45  68 103 140 189 242 302 363 427
#     4  12  23  37  67 102 133 186 246 308 360 428
#     4  11  24  44  68  90 143 177 238 298 359 427
#     4  10  23  46  74 110 145 187 231 282 353 424
#     4  11  24  43  68  98 137 190 245 302 370 427
#
# _framework density 25.609216
#
# number of rings (size 3 to 8) (size 9 to 14) (size 15 to 20)
#    0.750    0.500    1.250    4.500    3.500    1.000 
#    4.500    0.000    0.000    0.000    0.000    0.000 
#    0.000    0.000    0.000    0.000    0.000    0.000 
#
# Total GULP energy -89369.510926 kJ/mol
# GULP energy per Si atom -5585.594433 kJ/mol
# Density = 2.555093 g / cm^3
# Si number density = 25.609216 Si / 1000 Ang^3
#
#
#
# Elastic Constant Matrix: (Units=GPa)
#
#
# Indices 1 2 3 4 5 6 
#
# 1 90.4723 20.8547 32.5952 4.9984 8.4144 11.9217
# 2 20.8547 159.0923 37.8085 4.9746 0.0337 16.5983
# 3 32.5952 37.8085 132.6626 -12.4361 -1.2237 10.0036
# 4 4.9984 4.9746 -12.4361 35.7594 11.4091 0.0700
# 5 8.4144 0.0337 -1.2237 11.4091 40.9422 1.2653
# 6 11.9217 16.5983 10.0036 0.0700 1.2653 44.3245
#
#
#
# Elastic Compliance Matrix: (Units=1/GPa)
#
#
# Indices 1 2 3 4 5 6 
#
# 1 0.012929 -0.000652 -0.003019 -0.002096 -0.002086 -0.002489
# 2 -0.000652 0.007083 -0.001859 -0.001735 0.000620 -0.002073
# 3 -0.003019 -0.001859 0.009221 0.003948 -0.000185 -0.000574
# 4 -0.002096 -0.001735 0.003948 0.032599 -0.008550 0.000515
# 5 -0.002086 0.000620 -0.000185 -0.008550 0.027242 -0.000394
# 6 -0.002489 -0.002073 -0.000574 0.000515 -0.000394 0.024146
#
#
# Mechanical properties :
#
#
# Convention : Reuss Voigt Hill
#
# Bulk Modulus (GPa) = 55.02470 62.74933 58.88701
# Shear Modulus (GPa) = 38.36188 43.60313 40.98251
#
# Velocity S-wave (km/s) = 3.87456 4.13078 4.00472
# Velocity P-wave (km/s) = 6.44587 6.87800 6.66544
#
# Compressibility (1/GPa) = 0.01817366
#
# Stress axis : x y z
#
# Youngs Moduli (GPa) = 77.34697 141.17783 108.44623
#
# Poissons Ratio (x) = 0.09200 0.32739
# Poissons Ratio (y) = 0.05040 0.20162
# Poissons Ratio (z) = 0.23350 0.26248
#
# Static dielectric constant tensor:
#      x y z
#    x 1.957830 0.092060 -0.065790 
#    y 0.092060 1.870710 0.028480 
#    z -0.065790 0.028480 2.027160 
# 
# From -- ./inp_files/122704.got.cif
#   From: 2010.05.17/outbox.cif.g08.bks.cpg/sg2_62_cif.got.tgz:122704.got - 2010.06.03 11:33:40.
