data_PCOD9043329
_publ_section_title
;
Structure prediction by ZEFSAII (Michael W. Deem and Ramdas Pophale) SiO2 
 PCOD9043329
Probable space group: P -1
;
_chemical_formula_sum "Si O2"
_cell_formula_units_Z 16
_cell_length_a 11.746405
_cell_length_b 9.918685
_cell_length_c 10.902392
_cell_angle_alpha 94.173257
_cell_angle_beta 50.599808
_cell_angle_gamma 128.170310
_cell_volume 656.333255
_symmetry_space_group_name_H-M "P -1"
_symmetry_group_IT_number 2
_symmetry_cell_setting 'triclinic'
loop_
_space_group_symop_operation_xyz
x,y,z
-x,-y,-z
loop_
_atom_site_type_symbol
_atom_site_label
_atom_site_fract_x
_atom_site_fract_y
_atom_site_fract_z
Si Si1 0.146647 0.079792 0.640004
Si Si2 0.725686 0.822165 0.780339
Si Si3 0.477013 0.147482 0.282825
Si Si4 0.082840 0.345028 0.153381
Si Si5 0.029028 0.217195 0.921068
Si Si6 0.605828 0.441403 0.815634
Si Si7 0.499474 0.141841 0.686590
Si Si8 0.791851 0.395144 0.277273
O O1 0.380802 0.210232 0.429849
O O2 0.118717 0.145902 0.786330
O O3 0.981364 0.022982 0.644597
O O4 0.070297 0.874857 0.701305
O O5 0.604166 0.860971 0.795905
O O6 0.667560 0.635946 0.750279
O O7 0.638040 0.739190 0.973984
O O8 0.722900 0.313111 0.179194
O O9 0.416877 0.949927 0.335512
O O10 0.254976 0.491707 0.152049
O O11 0.953389 0.392255 0.216954
O O12 0.150963 0.329313 0.974121
O O13 0.094782 0.382346 0.793395
O O14 0.765929 0.032774 0.119814
O O15 0.620645 0.339877 0.695468
O O16 0.577770 0.226012 0.499981
#
# Coordination Sequence:
#
# PCOD9043329 Si02
#       8
#     2   2   2   2   2   2   2   2
#     4  11  24  46  71 112 144 194 244 299 364 436
#     4  10  23  45  70 104 150 190 243 302 362 431
#     4  12  25  46  74 105 152 191 240 307 364 429
#     4  11  23  47  73 106 151 188 238 305 366 427
#     4  12  26  46  79 108 145 194 247 296 364 438
#     4  10  24  45  73 106 145 194 243 298 367 429
#     4  12  26  49  76 107 148 195 244 300 361 437
#     4  12  27  47  72 112 150 188 246 303 364 429
#
# _framework density 24.377859999999998
#
# number of rings (size 3 to 8) (size 9 to 14) (size 15 to 20)
#    0.000    0.750    3.750    3.000    3.500    2.500 
#    2.250    0.000    0.000    0.000    0.000    0.000 
#    0.000    0.000    0.000    0.000    0.000    0.000 
#
# Total GULP energy -89362.410994 kJ/mol
# GULP energy per Si atom -5585.150687 kJ/mol
# Density = 2.432238 g / cm^3
# Si number density = 24.377860 Si / 1000 Ang^3
#
#
#
# Elastic Constant Matrix: (Units=GPa)
#
#
# Indices 1 2 3 4 5 6 
#
# 1 133.1044 23.0882 4.5781 -13.3059 17.6044 -9.0998
# 2 23.0882 85.8904 10.5813 8.7961 8.0186 -1.8078
# 3 4.5781 10.5813 81.9301 -9.0370 10.0480 -14.4357
# 4 -13.3059 8.7961 -9.0370 36.3508 -4.4888 7.1059
# 5 17.6044 8.0186 10.0480 -4.4888 29.7989 0.7030
# 6 -9.0998 -1.8078 -14.4357 7.1059 0.7030 34.0130
#
#
#
# Elastic Compliance Matrix: (Units=1/GPa)
#
#
# Indices 1 2 3 4 5 6 
#
# 1 0.008961 -0.002391 0.001102 0.003139 -0.004601 0.002177
# 2 -0.002391 0.013224 -0.001763 -0.004871 -0.002294 0.000380
# 3 0.001102 -0.001763 0.014266 0.002660 -0.004723 0.005798
# 4 0.003139 -0.004871 0.002660 0.031912 0.003485 -0.005029
# 5 -0.004601 -0.002294 -0.004723 0.003485 0.039127 -0.004894
# 6 0.002177 0.000380 0.005798 -0.005029 -0.004894 0.033616
#
#
# Mechanical properties :
#
#
# Convention : Reuss Voigt Hill
#
# Bulk Modulus (GPa) = 32.95237 41.93556 37.44397
# Shear Modulus (GPa) = 31.78164 37.54437 34.66301
#
# Velocity S-wave (km/s) = 3.61461 3.92867 3.77491
# Velocity P-wave (km/s) = 5.56482 6.14971 5.86456
#
# Compressibility (1/GPa) = 0.03034683
#
# Stress axis : x y z
#
# Youngs Moduli (GPa) = 111.59741 75.62246 70.09753
#
# Poissons Ratio (x) = 0.18078 -0.07726
# Poissons Ratio (y) = 0.26679 0.12360
# Poissons Ratio (z) = -0.12300 0.13334
#
# Static dielectric constant tensor:
#      x y z
#    x 1.957960 0.003890 -0.054580 
#    y 0.003890 1.905780 -0.030530 
#    z -0.054580 -0.030530 2.122750 
# 
# From -- ./inp_files/419420.got.cif
#   From: 2010.05.17/outbox.cif.g08.bks.cpg/sg2_210_cif.got.tgz:419420.got - 2010.06.03 11:33:40.
