data_PCOD9043423
_publ_section_title
;
Structure prediction by ZEFSAII (Michael W. Deem and Ramdas Pophale) SiO2 
 PCOD9043423
Probable space group: P -1
;
_chemical_formula_sum "Si O2"
_cell_formula_units_Z 16
_cell_length_a 12.629069
_cell_length_b 14.874148
_cell_length_c 8.546931
_cell_angle_alpha 110.015118
_cell_angle_beta 98.220987
_cell_angle_gamma 29.278808
_cell_volume 694.212588
_symmetry_space_group_name_H-M "P -1"
_symmetry_group_IT_number 2
_symmetry_cell_setting 'triclinic'
loop_
_space_group_symop_operation_xyz
x,y,z
-x,-y,-z
loop_
_atom_site_type_symbol
_atom_site_label
_atom_site_fract_x
_atom_site_fract_y
_atom_site_fract_z
Si Si1 0.449447 0.428228 0.458183
Si Si2 0.575718 0.834152 0.880571
Si Si3 0.132599 0.821855 0.033231
Si Si4 0.067724 0.198585 0.542326
Si Si5 0.500772 0.806633 0.189487
Si Si6 0.071565 0.413086 0.784610
Si Si7 0.780549 0.009481 0.242266
Si Si8 0.531566 0.367617 0.789144
O O1 0.500000 0.500000 0.500000
O O2 0.646787 0.211899 0.286465
O O3 0.495641 0.357768 0.602717
O O4 0.193355 0.605291 0.456338
O O5 0.528785 0.811952 0.017017
O O6 0.842701 0.621754 0.765413
O O7 0.410865 0.920024 0.768626
O O8 0.500000 0.000000 0.000000
O O9 0.212067 0.808879 0.204672
O O10 0.373035 0.588102 0.885264
O O11 0.979929 0.850346 0.060229
O O12 0.000000 0.000000 0.000000
O O13 0.101831 0.276790 0.673515
O O14 0.254390 0.029633 0.345268
O O15 0.106862 0.091185 0.625034
O O16 0.540147 0.662207 0.130676
O O17 0.696534 0.711295 0.266790
O O18 0.000000 0.500000 0.000000
#
# Coordination Sequence:
#
# PCOD9043423 Si02
#       8
#     2   2   2   2   2   2   2   2
#     4  12  27  45  70 102 148 187 239 294 353 420
#     4  11  25  45  71 107 140 184 234 293 361 428
#     4  11  26  44  73 102 145 188 243 290 355 421
#     4  12  26  47  71 107 142 187 237 292 355 427
#     4  11  25  44  73 100 146 182 234 293 360 421
#     4  10  23  45  71 101 139 179 230 292 350 422
#     4  12  25  44  72 103 140 187 239 289 356 423
#     4  11  26  46  67 109 139 188 239 294 353 419
#
# _framework density 23.047695999999998
#
# number of rings (size 3 to 8) (size 9 to 14) (size 15 to 20)
#    0.000    0.750    2.500    4.125   10.500    3.000 
#    0.000    1.875    0.000    0.000    0.000    0.000 
#    0.000    0.000    0.000    0.000    0.000    0.000 
#
# Total GULP energy -89399.639637 kJ/mol
# GULP energy per Si atom -5587.477477 kJ/mol
# Density = 2.299524 g / cm^3
# Si number density = 23.047696 Si / 1000 Ang^3
#
#
#
# Elastic Constant Matrix: (Units=GPa)
#
#
# Indices 1 2 3 4 5 6 
#
# 1 85.9410 28.3389 -8.3023 -2.8885 16.8337 4.2371
# 2 28.3389 153.3458 20.8144 -6.6013 3.6125 -5.3131
# 3 -8.3023 20.8144 40.0945 -0.8739 3.1929 0.0614
# 4 -2.8885 -6.6013 -0.8739 35.5715 3.3735 10.6495
# 5 16.8337 3.6125 3.1929 3.3735 36.8193 3.6641
# 6 4.2371 -5.3131 0.0614 10.6495 3.6641 49.3920
#
#
#
# Elastic Compliance Matrix: (Units=1/GPa)
#
#
# Indices 1 2 3 4 5 6 
#
# 1 0.014706 -0.003252 0.005323 0.001824 -0.006884 -0.001500
# 2 -0.003252 0.007811 -0.004792 0.000705 0.000982 0.000900
# 3 0.005323 -0.004792 0.028909 0.000940 -0.004469 -0.000879
# 4 0.001824 0.000705 0.000940 0.030646 -0.003150 -0.006456
# 5 -0.006884 0.000982 -0.004469 -0.003150 0.030978 -0.000917
# 6 -0.001500 0.000900 -0.000879 -0.006456 -0.000917 0.021933
#
#
# Mechanical properties :
#
#
# Convention : Reuss Voigt Hill
#
# Bulk Modulus (GPa) = 21.74633 40.12037 30.93335
# Shear Modulus (GPa) = 32.10220 40.25857 36.18038
#
# Velocity S-wave (km/s) = 3.73615 4.18395 3.96637
# Velocity P-wave (km/s) = 5.29789 6.38638 5.86743
#
# Compressibility (1/GPa) = 0.04598477
#
# Stress axis : x y z
#
# Youngs Moduli (GPa) = 67.99930 128.02378 34.59127
#
# Poissons Ratio (x) = 0.41629 -0.18414
# Poissons Ratio (y) = 0.22111 0.16578
# Poissons Ratio (z) = -0.36199 0.61355
#
# Static dielectric constant tensor:
#      x y z
#    x 1.844550 -0.014500 0.053710 
#    y -0.014500 1.860270 0.014420 
#    z 0.053710 0.014420 1.962180 
# 
# From -- ./inp_files/273768.got.cif
#   From: 2010.05.17/outbox.cif.g08.bks.cpg/sg2_137_cif.got.tgz:273768.got - 2010.06.03 11:33:40.
