data_PCOD9043509
_publ_section_title
;
Structure prediction by ZEFSAII (Michael W. Deem and Ramdas Pophale) SiO2 
 PCOD9043509
Probable space group: P -1
;
_chemical_formula_sum "Si O2"
_cell_formula_units_Z 16
_cell_length_a 11.238336
_cell_length_b 16.083565
_cell_length_c 11.515143
_cell_angle_alpha 26.874305
_cell_angle_beta 65.121847
_cell_angle_gamma 48.402009
_cell_volume 606.312094
_symmetry_space_group_name_H-M "P -1"
_symmetry_group_IT_number 2
_symmetry_cell_setting 'triclinic'
loop_
_space_group_symop_operation_xyz
x,y,z
-x,-y,-z
loop_
_atom_site_type_symbol
_atom_site_label
_atom_site_fract_x
_atom_site_fract_y
_atom_site_fract_z
Si Si1 0.100803 0.604666 0.523131
Si Si2 0.602915 0.674558 0.434158
Si Si3 0.264232 0.879671 0.917937
Si Si4 0.066139 0.501764 0.098467
Si Si5 0.441317 0.054064 0.649951
Si Si6 0.657230 0.317947 0.561025
Si Si7 0.667626 0.102058 0.378228
Si Si8 0.271505 0.654210 0.770470
O O1 0.235373 0.408372 0.610056
O O2 0.188521 0.704281 0.415383
O O3 0.074379 0.460002 0.802235
O O4 0.897012 0.884839 0.226485
O O5 0.578037 0.810047 0.394328
O O6 0.407552 0.831246 0.255172
O O7 0.677404 0.389635 0.778150
O O8 0.208200 0.985020 0.676887
O O9 0.436959 0.838997 0.934648
O O10 0.260172 0.265218 0.381912
O O11 0.109365 0.674760 0.844981
O O12 0.000000 0.500000 0.000000
O O13 0.616551 0.951117 0.634054
O O14 0.500000 0.500000 0.500000
O O15 0.709451 0.319358 0.404450
O O16 0.735079 0.154216 0.391720
O O17 0.467870 0.373522 0.080393
#
# Coordination Sequence:
#
# PCOD9043509 Si02
#       8
#     2   2   2   2   2   2   2   2
#     4  10  23  37  57  91 125 157 199 249 306 358
#     4  11  21  42  66  86 118 162 206 248 294 357
#     4  11  21  36  60  93 122 155 195 253 308 349
#     4  10  19  32  53  83 122 154 187 240 297 350
#     4  10  22  36  63  93 116 157 210 248 290 359
#     4  10  19  35  62  86 115 164 203 241 299 361
#     4  10  18  34  57  88 116 147 204 253 283 352
#     4  10  17  33  61  85 112 161 205 234 297 357
#
# _framework density 26.389050000000001
#
# number of rings (size 3 to 8) (size 9 to 14) (size 15 to 20)
#    0.000    1.750    3.750    2.250    0.000    2.000 
#    0.000    1.875    2.750    9.750    0.000    0.000 
#    0.000    0.000    0.000    0.000    0.000    0.000 
#
# Total GULP energy -89189.698960 kJ/mol
# GULP energy per Si atom -5574.356185 kJ/mol
# Density = 2.632899 g / cm^3
# Si number density = 26.389050 Si / 1000 Ang^3
#
#
#
# Elastic Constant Matrix: (Units=GPa)
#
#
# Indices 1 2 3 4 5 6 
#
# 1 121.9100 58.1253 32.0117 -0.3188 -33.9189 13.4864
# 2 58.1253 165.8953 59.5865 28.5203 -29.9103 12.4675
# 3 32.0117 59.5865 85.5567 24.3550 -19.2639 -6.5153
# 4 -0.3188 28.5203 24.3550 45.3705 -9.4698 -8.2666
# 5 -33.9189 -29.9103 -19.2639 -9.4698 46.5319 2.8722
# 6 13.4864 12.4675 -6.5153 -8.2666 2.8722 64.5992
#
#
#
# Elastic Compliance Matrix: (Units=1/GPa)
#
#
# Indices 1 2 3 4 5 6 
#
# 1 0.012421 -0.002724 -0.002488 0.004271 0.007272 -0.002095
# 2 -0.002724 0.009732 -0.004450 -0.003796 0.001799 -0.002324
# 3 -0.002488 -0.004450 0.017954 -0.006146 0.001363 0.002342
# 4 0.004271 -0.003796 -0.006146 0.029069 0.003874 0.002769
# 5 0.007272 0.001799 0.001363 0.003874 0.029457 -0.002542
# 6 -0.002095 -0.002324 0.002342 0.002769 -0.002542 0.017070
#
#
# Mechanical properties :
#
#
# Convention : Reuss Voigt Hill
#
# Bulk Modulus (GPa) = 48.12028 74.75658 61.43843
# Shear Modulus (GPa) = 35.22223 46.20954 40.71588
#
# Velocity S-wave (km/s) = 3.65736 4.18914 3.93225
# Velocity P-wave (km/s) = 6.00912 7.19643 6.62941
#
# Compressibility (1/GPa) = 0.02078126
#
# Stress axis : x y z
#
# Youngs Moduli (GPa) = 80.50795 102.74949 55.69942
#
# Poissons Ratio (x) = 0.27990 0.13861
# Poissons Ratio (y) = 0.21931 0.24788
# Poissons Ratio (z) = 0.20034 0.45727
#
# Static dielectric constant tensor:
#      x y z
#    x 2.085290 -0.047410 0.079790 
#    y -0.047410 2.052910 0.019400 
#    z 0.079790 0.019400 2.268510 
# 
# From -- ./inp_files/432262.got.cif
#   From: 2010.05.17/outbox.cif.g08.bks.cpg/sg2_217_cif.got.tgz:432262.got - 2010.06.03 11:33:40.
