data_PCOD9043722
_publ_section_title
;
Structure prediction by ZEFSAII (Michael W. Deem and Ramdas Pophale) SiO2 
 PCOD9043722
Probable space group: P -1
;
_chemical_formula_sum "Si O2"
_cell_formula_units_Z 10
_cell_length_a 13.599904
_cell_length_b 8.684706
_cell_length_c 9.897574
_cell_angle_alpha 134.130764
_cell_angle_beta 145.849035
_cell_angle_gamma 32.985765
_cell_volume 357.276970
_symmetry_space_group_name_H-M "P -1"
_symmetry_group_IT_number 2
_symmetry_cell_setting 'triclinic'
loop_
_space_group_symop_operation_xyz
x,y,z
-x,-y,-z
loop_
_atom_site_type_symbol
_atom_site_label
_atom_site_fract_x
_atom_site_fract_y
_atom_site_fract_z
Si Si1 0.789874 0.319073 0.006968
Si Si2 0.633290 0.623734 0.477922
Si Si3 0.992598 0.161534 0.406414
Si Si4 0.807821 0.834430 0.956573
Si Si5 0.467028 0.228250 0.241013
O O1 0.570906 0.342244 0.807571
O O2 0.701853 0.542826 0.924200
O O3 0.000000 0.000000 0.000000
O O4 0.884167 0.362092 0.273191
O O5 0.861868 0.341958 0.500727
O O6 0.572145 0.627024 0.568434
O O7 0.695584 0.827992 0.687232
O O8 0.264724 0.971888 0.608362
O O9 0.919531 0.974645 0.179056
O O10 0.612049 0.950328 0.918169
O O11 0.000000 0.500000 0.000000
#
# Coordination Sequence:
#
# PCOD9043722 Si02
#       5
#     2   2   2   2   2
#     4  12  22  44  79 101 149 197 232 309 375 412
#     4  10  25  48  74 109 145 193 251 292 369 448
#     4  12  25  50  79 103 149 199 237 307 370 431
#     4  10  23  45  74 106 146 191 243 300 366 434
#     4  10  25  50  72 108 151 189 244 309 359 439
#
# _framework density 27.98949
#
# number of rings (size 3 to 8) (size 9 to 14) (size 15 to 20)
#    1.200    0.000    2.000    3.600    0.000    4.000 
#    7.200    6.000    4.400    6.000    0.000    0.000 
#    0.000    0.000    0.000    0.000    0.000    0.000 
#
# Total GULP energy -56033.130473 kJ/mol
# GULP energy per Si atom -5603.313047 kJ/mol
# Density = 2.792578 g / cm^3
# Si number density = 27.989490 Si / 1000 Ang^3
#
#
#
# Elastic Constant Matrix: (Units=GPa)
#
#
# Indices 1 2 3 4 5 6 
#
# 1 161.2238 58.2896 74.4387 -8.5526 28.8096 -48.4021
# 2 58.2896 75.5322 39.7222 20.3304 11.7114 -8.7184
# 3 74.4387 39.7222 193.0147 -12.9214 15.2324 -16.2105
# 4 -8.5526 20.3304 -12.9214 56.6566 4.4412 5.2370
# 5 28.8096 11.7114 15.2324 4.4412 79.4769 3.7602
# 6 -48.4021 -8.7184 -16.2105 5.2370 3.7602 32.1303
#
#
#
# Elastic Compliance Matrix: (Units=1/GPa)
#
#
# Indices 1 2 3 4 5 6 
#
# 1 0.022212 -0.012737 -0.002606 0.005251 -0.007326 0.028691
# 2 -0.012737 0.025315 -0.002209 -0.010595 0.002470 -0.011995
# 3 -0.002606 -0.002209 0.006657 0.002060 -0.000050 -0.001496
# 4 0.005251 -0.010595 0.002060 0.022638 -0.002127 0.002634
# 5 -0.007326 0.002470 -0.000050 -0.002127 0.015564 -0.011866
# 6 0.028691 -0.011995 -0.001496 0.002634 -0.011866 0.071295
#
#
# Mechanical properties :
#
#
# Convention : Reuss Voigt Hill
#
# Bulk Modulus (GPa) = 52.41088 86.07466 69.24277
# Shear Modulus (GPa) = 24.37316 50.80744 37.59030
#
# Velocity S-wave (km/s) = 2.95413 4.26518 3.66869
# Velocity P-wave (km/s) = 5.51377 7.42125 6.53745
#
# Compressibility (1/GPa) = 0.01908001
#
# Stress axis : x y z
#
# Youngs Moduli (GPa) = 45.02079 39.50244 150.22409
#
# Poissons Ratio (x) = 0.50314 0.39144
# Poissons Ratio (y) = 0.57342 0.33188
# Poissons Ratio (z) = 0.11731 0.08727
#
# Static dielectric constant tensor:
#      x y z
#    x 2.251740 0.145170 -0.050150 
#    y 0.145170 2.307150 -0.043600 
#    z -0.050150 -0.043600 2.260950 
# 
# From -- ./inp_files/76090.got.cif
#   From: 2010.05.17/outbox.cif.g08.bks.cpg/sg2_39_cif.got.tgz:76090.got - 2010.06.03 11:33:40.
