data_PCOD9043541
_publ_section_title
;
Structure prediction by ZEFSAII (Michael W. Deem and Ramdas Pophale) SiO2 
 PCOD9043541
Probable space group: P -1
;
_chemical_formula_sum "Si O2"
_cell_formula_units_Z 15
_cell_length_a 24.062902
_cell_length_b 11.479451
_cell_length_c 15.467543
_cell_angle_alpha 39.561131
_cell_angle_beta 19.679919
_cell_angle_gamma 28.418910
_cell_volume 639.720005
_symmetry_space_group_name_H-M "P -1"
_symmetry_group_IT_number 2
_symmetry_cell_setting 'triclinic'
loop_
_space_group_symop_operation_xyz
x,y,z
-x,-y,-z
loop_
_atom_site_type_symbol
_atom_site_label
_atom_site_fract_x
_atom_site_fract_y
_atom_site_fract_z
Si Si1 0.919891 0.889316 0.297261
Si Si2 0.498877 0.014714 0.889874
Si Si3 0.963970 0.489117 0.802751
Si Si4 0.993914 0.787637 0.951748
Si Si5 0.250095 0.559645 0.157936
Si Si6 0.500000 0.000000 0.500000
Si Si7 0.237934 0.622026 0.325027
Si Si8 0.284272 0.578538 0.472231
O O1 0.986601 0.720261 0.212592
O O2 0.057640 0.693120 0.289393
O O3 0.643512 0.078391 0.612115
O O4 0.992978 0.041185 0.107085
O O5 0.641337 0.723800 0.817508
O O6 0.244076 0.228530 0.097460
O O7 0.500000 0.000000 0.000000
O O8 0.190232 0.441604 0.505884
O O9 0.891988 0.467581 0.013858
O O10 0.126538 0.726786 0.703278
O O11 0.729820 0.937066 0.231739
O O12 0.144213 0.730746 0.302701
O O13 0.472435 0.500654 0.833125
O O14 0.350742 0.311841 0.525631
O O15 0.166182 0.734224 0.463903
O O16 0.500000 0.500000 0.000000
#
# Coordination Sequence:
#
# PCOD9043541 Si02
#       8
#     2   2   2   2   2   1   2   2
#     4  12  25  47  71 104 149 189 235 297 365 425
#     4  12  24  42  73 104 145 191 230 294 352 433
#     4  12  26  46  71 111 144 188 245 289 364 433
#     4  12  28  47  76 105 143 193 243 300 357 430
#     4  11  22  47  72 106 146 185 237 293 368 426
#     4  12  24  48  78  98 148 188 238 300 360 420
#     4  10  23  45  72 101 143 184 235 299 355 422
#     4  11  25  48  73 106 140 189 245 295 359 428
#
# _framework density 23.447756999999999
#
# number of rings (size 3 to 8) (size 9 to 14) (size 15 to 20)
#    0.000    0.533    5.333    2.800    0.000    2.667 
#    0.000    2.000    0.000    0.000    0.000    0.000 
#    0.000    0.000    0.000    0.000    0.000    0.000 
#
# Total GULP energy -83532.836517 kJ/mol
# GULP energy per Si atom -5568.855768 kJ/mol
# Density = 2.339439 g / cm^3
# Si number density = 23.447757 Si / 1000 Ang^3
#
#
#
# Elastic Constant Matrix: (Units=GPa)
#
#
# Indices 1 2 3 4 5 6 
#
# 1 137.4451 23.9563 58.9885 1.7890 17.7910 -2.2850
# 2 23.9563 76.3952 27.0438 -10.0468 -4.2149 -1.1709
# 3 58.9885 27.0438 108.0711 -29.4462 -13.4726 11.3262
# 4 1.7890 -10.0468 -29.4462 25.9226 7.4834 -4.9344
# 5 17.7910 -4.2149 -13.4726 7.4834 49.6846 -18.9476
# 6 -2.2850 -1.1709 11.3262 -4.9344 -18.9476 35.1867
#
#
#
# Elastic Compliance Matrix: (Units=1/GPa)
#
#
# Indices 1 2 3 4 5 6 
#
# 1 0.013233 -0.002350 -0.010681 -0.012303 -0.006330 -0.000915
# 2 -0.002350 0.015010 -0.001276 0.004410 0.002050 0.002480
# 3 -0.010681 -0.001276 0.022905 0.024318 0.005628 -0.001668
# 4 -0.012303 0.004410 0.024318 0.068631 0.001854 0.002143
# 5 -0.006330 0.002050 0.005628 0.001854 0.029060 0.013754
# 6 -0.000915 0.002480 -0.001668 0.002143 0.013754 0.036686
#
#
# Mechanical properties :
#
#
# Convention : Reuss Voigt Hill
#
# Bulk Modulus (GPa) = 44.37638 60.20982 52.29310
# Shear Modulus (GPa) = 22.55810 36.28696 29.42253
#
# Velocity S-wave (km/s) = 3.10507 3.93818 3.54618
# Velocity P-wave (km/s) = 5.64110 6.81271 6.25440
#
# Compressibility (1/GPa) = 0.02253451
#
# Stress axis : x y z
#
# Youngs Moduli (GPa) = 75.56616 66.62407 43.65907
#
# Poissons Ratio (x) = 0.15658 0.46631
# Poissons Ratio (y) = 0.17759 0.05570
# Poissons Ratio (z) = 0.80709 0.08500
#
# Static dielectric constant tensor:
#      x y z
#    x 1.904930 0.012320 0.030450 
#    y 0.012320 1.921050 -0.017500 
#    z 0.030450 -0.017500 1.854020 
# 
# From -- ./inp_files/95325.got.cif
#   From: 2010.05.17/outbox.cif.g08.bks.cpg/sg2_48_cif.got.tgz:95325.got - 2010.06.03 11:33:40.
