data_PCOD9043195
_publ_section_title
;
Structure prediction by ZEFSAII (Michael W. Deem and Ramdas Pophale) SiO2 
 PCOD9043195
Probable space group: P -1
;
_chemical_formula_sum "Si O2"
_cell_formula_units_Z 15
_cell_length_a 5.762514
_cell_length_b 12.112012
_cell_length_c 11.810867
_cell_angle_alpha 100.185406
_cell_angle_beta 59.261560
_cell_angle_gamma 123.288642
_cell_volume 586.073824
_symmetry_space_group_name_H-M "P -1"
_symmetry_group_IT_number 2
_symmetry_cell_setting 'triclinic'
loop_
_space_group_symop_operation_xyz
x,y,z
-x,-y,-z
loop_
_atom_site_type_symbol
_atom_site_label
_atom_site_fract_x
_atom_site_fract_y
_atom_site_fract_z
Si Si1 0.543230 0.018746 0.857895
Si Si2 0.572985 0.291845 0.566451
Si Si3 0.132655 0.297458 0.344782
Si Si4 0.088656 0.222349 0.092134
Si Si5 0.947538 0.013232 0.385751
Si Si6 0.127319 0.465024 0.071814
Si Si7 0.500000 0.500000 0.500000
Si Si8 0.686082 0.292461 0.798605
O O1 0.750905 0.960836 0.756181
O O2 0.730391 0.173584 0.802033
O O3 0.200056 0.932178 0.863694
O O4 0.500000 0.000000 0.000000
O O5 0.434422 0.379442 0.580306
O O6 0.701811 0.317836 0.666555
O O7 0.866011 0.335303 0.415085
O O8 0.336476 0.133679 0.600996
O O9 0.370257 0.391124 0.401030
O O10 0.238478 0.287227 0.189307
O O11 0.930557 0.141841 0.401987
O O12 0.938066 0.306774 0.104605
O O13 0.346154 0.240987 0.938132
O O14 0.000000 0.000000 0.500000
O O15 0.092904 0.557652 0.185098
O O16 0.500000 0.500000 0.000000
O O17 0.000000 0.500000 0.000000
#
# Coordination Sequence:
#
# PCOD9043195 Si02
#       8
#     2   2   2   2   2   2   1   2
#     4  12  24  42  74 116 147 195 245 316 383 455
#     4  12  26  50  73 110 150 198 251 312 387 454
#     4  12  26  50  73 110 150 198 251 312 387 454
#     4  11  24  46  71 111 151 200 248 311 389 457
#     4  12  24  46  74 108 145 203 251 304 384 464
#     4  10  23  45  69 105 147 202 253 307 380 463
#     4  12  28  48  78 108 150 190 268 312 376 454
#     4  11  24  46  71 111 151 200 248 311 389 457
#
# _framework density 25.594044
#
# number of rings (size 3 to 8) (size 9 to 14) (size 15 to 20)
#    0.000    0.533    1.333    6.800    0.000    2.133 
#    9.600    0.000    0.000    0.000    0.000    0.000 
#    0.000    0.000    0.000    0.000    0.000    0.000 
#
# Total GULP energy -83640.580213 kJ/mol
# GULP energy per Si atom -5576.038681 kJ/mol
# Density = 2.553579 g / cm^3
# Si number density = 25.594044 Si / 1000 Ang^3
#
#
#
# Elastic Constant Matrix: (Units=GPa)
#
#
# Indices 1 2 3 4 5 6 
#
# 1 78.3221 34.8841 38.7179 4.1123 11.8687 -17.2612
# 2 34.8841 170.1321 22.2722 5.3340 8.6304 -26.4300
# 3 38.7179 22.2722 108.4737 11.5948 3.0514 -13.6717
# 4 4.1123 5.3340 11.5948 48.2247 3.8091 16.6510
# 5 11.8687 8.6304 3.0514 3.8091 44.7906 -15.2739
# 6 -17.2612 -26.4300 -13.6717 16.6510 -15.2739 25.8281
#
#
#
# Elastic Compliance Matrix: (Units=1/GPa)
#
#
# Indices 1 2 3 4 5 6 
#
# 1 0.018204 -0.001283 -0.004369 -0.004220 -0.000100 0.011202
# 2 -0.001283 0.008348 0.001282 -0.006785 0.004465 0.015378
# 3 -0.004369 0.001282 0.012917 -0.007955 0.005310 0.013498
# 4 -0.004220 -0.006785 -0.007955 0.043663 -0.018926 -0.053315
# 5 -0.000100 0.004465 0.005310 -0.018926 0.036820 0.041289
# 6 0.011202 0.015378 0.013498 -0.053315 0.041289 0.127874
#
#
# Mechanical properties :
#
#
# Convention : Reuss Voigt Hill
#
# Bulk Modulus (GPa) = 32.54152 60.96405 46.75278
# Shear Modulus (GPa) = 18.74000 41.17226 29.95613
#
# Velocity S-wave (km/s) = 2.70886 4.01517 3.42487
# Velocity P-wave (km/s) = 4.74615 6.73549 5.82635
#
# Compressibility (1/GPa) = 0.03072997
#
# Stress axis : x y z
#
# Youngs Moduli (GPa) = 54.93188 119.78489 77.41649
#
# Poissons Ratio (x) = 0.15370 0.33819
# Poissons Ratio (y) = 0.07048 -0.09923
# Poissons Ratio (z) = 0.23997 -0.15353
#
# Static dielectric constant tensor:
#      x y z
#    x 2.081850 0.002320 -0.071960 
#    y 0.002320 1.950390 -0.087780 
#    z -0.071960 -0.087780 2.045350 
# 
# From -- ./inp_files/364717.got.cif
#   From: 2010.05.17/outbox.cif.g08.bks.cpg/sg2_183_cif.got.tgz:364717.got - 2010.06.03 11:33:40.
