data_PCOD9043158
_publ_section_title
;
Structure prediction by ZEFSAII (Michael W. Deem and Ramdas Pophale) SiO2 
 PCOD9043158
Probable space group: P -1
;
_chemical_formula_sum "Si O2"
_cell_formula_units_Z 14
_cell_length_a 9.037402
_cell_length_b 5.301537
_cell_length_c 14.713124
_cell_angle_alpha 103.043446
_cell_angle_beta 125.860040
_cell_angle_gamma 89.684038
_cell_volume 549.363364
_symmetry_space_group_name_H-M "P -1"
_symmetry_group_IT_number 2
_symmetry_cell_setting 'triclinic'
loop_
_space_group_symop_operation_xyz
x,y,z
-x,-y,-z
loop_
_atom_site_type_symbol
_atom_site_label
_atom_site_fract_x
_atom_site_fract_y
_atom_site_fract_z
Si Si1 0.224947 0.836273 0.098432
Si Si2 0.103332 0.551898 0.730241
Si Si3 0.160102 0.912547 0.492227
Si Si4 0.957203 0.040782 0.132018
Si Si5 0.436230 0.692765 0.713615
Si Si6 0.309125 0.416316 0.971879
Si Si7 0.550624 0.719014 0.459065
O O1 0.392109 0.082724 0.179293
O O2 0.063973 0.816025 0.959973
O O3 0.305017 0.579315 0.076145
O O4 0.112136 0.861671 0.152332
O O5 0.017714 0.802123 0.753951
O O6 0.280593 0.609329 0.730193
O O7 0.171805 0.459829 0.844306
O O8 0.940523 0.335836 0.618556
O O9 0.319071 0.826461 0.606229
O O10 0.241413 0.167040 0.484785
O O11 0.000000 0.000000 0.500000
O O12 0.749262 0.885158 0.051915
O O13 0.510627 0.447813 0.669701
O O14 0.500000 0.500000 0.000000
O O15 0.500000 0.500000 0.500000
O O16 0.500000 0.000000 0.500000
#
# Coordination Sequence:
#
# PCOD9043158 Si02
#       7
#     2   2   2   2   2   2   2
#     4  10  24  43  69 104 141 189 245 307 381 454
#     4  11  26  43  71 106 139 194 248 311 378 449
#     4  12  28  48  76 108 153 202 258 318 381 458
#     4  10  23  45  69 101 144 187 244 308 378 455
#     4  12  26  46  75 109 151 200 254 316 379 462
#     4  11  23  42  71 101 143 188 243 307 374 453
#     4  12  28  52  75 112 154 202 257 315 383 457
#
# _framework density 25.484044000000001
#
# number of rings (size 3 to 8) (size 9 to 14) (size 15 to 20)
#    0.000    0.857    2.857    2.571    6.000    4.571 
#    0.000    0.000    0.000    0.000    0.000    0.000 
#    0.000    0.000    0.000    0.000    0.000    0.000 
#
# Total GULP energy -78147.391567 kJ/mol
# GULP energy per Si atom -5581.956540 kJ/mol
# Density = 2.542604 g / cm^3
# Si number density = 25.484044 Si / 1000 Ang^3
#
#
#
# Elastic Constant Matrix: (Units=GPa)
#
#
# Indices 1 2 3 4 5 6 
#
# 1 120.0867 36.8579 41.4497 7.1999 -24.3503 31.5778
# 2 36.8579 80.1460 54.8264 18.4156 -10.1594 15.5303
# 3 41.4497 54.8264 201.1231 22.3818 -15.4542 3.0982
# 4 7.1999 18.4156 22.3818 52.5932 -7.2283 5.0776
# 5 -24.3503 -10.1594 -15.4542 -7.2283 53.8372 9.3492
# 6 31.5778 15.5303 3.0982 5.0776 9.3492 45.9221
#
#
#
# Elastic Compliance Matrix: (Units=1/GPa)
#
#
# Indices 1 2 3 4 5 6 
#
# 1 0.013716 -0.002781 -0.001551 0.001717 0.007208 -0.010044
# 2 -0.002781 0.018112 -0.003788 -0.003817 0.001217 -0.003783
# 3 -0.001551 -0.003788 0.006441 -0.001421 -0.000122 0.002095
# 4 0.001717 -0.003817 -0.001421 0.021400 0.003003 -0.002771
# 5 0.007208 0.001217 -0.000122 0.003003 0.024279 -0.010635
# 6 -0.010044 -0.003783 0.002095 -0.002771 -0.010635 0.032292
#
#
# Mechanical properties :
#
#
# Convention : Reuss Voigt Hill
#
# Bulk Modulus (GPa) = 45.39498 74.18041 59.78769
# Shear Modulus (GPa) = 35.75949 48.35195 42.05572
#
# Velocity S-wave (km/s) = 3.75001 4.36057 4.06677
# Velocity P-wave (km/s) = 6.04995 7.38408 6.75005
#
# Compressibility (1/GPa) = 0.02202887
#
# Stress axis : x y z
#
# Youngs Moduli (GPa) = 72.90668 55.21338 155.26153
#
# Poissons Ratio (x) = 0.15356 0.24081
# Poissons Ratio (y) = 0.20277 0.58805
# Poissons Ratio (z) = 0.11308 0.20912
#
# Static dielectric constant tensor:
#      x y z
#    x 2.045610 -0.106150 -0.003270 
#    y -0.106150 2.285010 0.012520 
#    z -0.003270 0.012520 2.056800 
# 
# From -- ./inp_files/119351.got.cif
#   From: 2010.05.17/outbox.cif.g08.bks.cpg/sg2_60_cif.got.tgz:119351.got - 2010.06.03 11:33:40.
