data_PCOD9043706
_publ_section_title
;
Structure prediction by ZEFSAII (Michael W. Deem and Ramdas Pophale) SiO2 
 PCOD9043706
Probable space group: P -1
;
_chemical_formula_sum "Si O2"
_cell_formula_units_Z 16
_cell_length_a 5.321234
_cell_length_b 10.909644
_cell_length_c 14.020090
_cell_angle_alpha 54.876001
_cell_angle_beta 106.628102
_cell_angle_gamma 86.674051
_cell_volume 611.577304
_symmetry_space_group_name_H-M "P -1"
_symmetry_group_IT_number 2
_symmetry_cell_setting 'triclinic'
loop_
_space_group_symop_operation_xyz
x,y,z
-x,-y,-z
loop_
_atom_site_type_symbol
_atom_site_label
_atom_site_fract_x
_atom_site_fract_y
_atom_site_fract_z
Si Si1 0.234247 0.551563 0.061327
Si Si2 0.352557 0.910840 0.449261
Si Si3 0.277681 0.724171 0.308939
Si Si4 0.429272 0.020443 0.215504
Si Si5 0.300323 0.736725 0.803648
Si Si6 0.960559 0.750230 0.590958
Si Si7 0.960811 0.824556 0.056743
Si Si8 0.772424 0.443432 0.446959
O O1 0.462397 0.386557 0.176901
O O2 0.149521 0.672355 0.086897
O O3 0.326358 0.655575 0.945017
O O4 0.000000 0.500000 0.000000
O O5 0.124144 0.861901 0.508575
O O6 0.645899 0.781508 0.514818
O O7 0.500000 0.000000 0.500000
O O8 0.256577 0.011634 0.297022
O O9 0.004988 0.768402 0.195956
O O10 0.475248 0.559868 0.371835
O O11 0.216892 0.710397 0.419847
O O12 0.454710 0.846975 0.257855
O O13 0.651987 0.095605 0.248774
O O14 0.294518 0.130201 0.063312
O O15 0.027263 0.747339 0.710468
O O16 0.126930 0.587486 0.634931
O O17 0.000000 0.000000 0.000000
O O18 0.000000 0.500000 0.500000
#
# Coordination Sequence:
#
# PCOD9043706 Si02
#       8
#     2   2   2   2   2   2   2   2
#     4  11  24  46  70 103 148 189 252 305 378 459
#     4  12  26  45  71 111 148 189 248 312 379 455
#     4  10  23  46  70 103 150 193 257 305 384 449
#     4  11  22  45  72 103 145 191 249 310 378 445
#     4  11  26  43  74 108 141 199 245 314 385 452
#     4  12  27  45  76 110 148 195 252 312 380 452
#     4  10  23  45  74 104 143 196 243 313 372 453
#     4  11  24  45  72 103 148 203 245 319 371 461
#
# _framework density 26.161860999999998
#
# number of rings (size 3 to 8) (size 9 to 14) (size 15 to 20)
#    0.000    1.000    3.750    1.875    5.250    1.000 
#    6.750    1.250    0.000    0.000    0.000    0.000 
#    0.000    0.000    0.000    0.000    0.000    0.000 
#
# Total GULP energy -89215.135588 kJ/mol
# GULP energy per Si atom -5575.945974 kJ/mol
# Density = 2.610232 g / cm^3
# Si number density = 26.161861 Si / 1000 Ang^3
#
#
#
# Elastic Constant Matrix: (Units=GPa)
#
#
# Indices 1 2 3 4 5 6 
#
# 1 76.6288 24.1036 21.4696 -6.0686 6.1731 14.9141
# 2 24.1036 124.7418 20.1997 10.8902 0.6041 6.0539
# 3 21.4696 20.1997 121.1563 17.2712 20.8141 11.3765
# 4 -6.0686 10.8902 17.2712 44.1186 14.3080 -2.8852
# 5 6.1731 0.6041 20.8141 14.3080 31.5688 0.2521
# 6 14.9141 6.0539 11.3765 -2.8852 0.2521 48.3917
#
#
#
# Elastic Compliance Matrix: (Units=1/GPa)
#
#
# Indices 1 2 3 4 5 6 
#
# 1 0.015961 -0.002972 -0.001987 0.004711 -0.003859 -0.003779
# 2 -0.002972 0.009007 -0.000936 -0.003061 0.002415 -0.000186
# 3 -0.001987 -0.000936 0.010168 -0.002463 -0.005167 -0.001781
# 4 0.004711 -0.003061 -0.002463 0.029163 -0.012467 0.001314
# 5 -0.003859 0.002415 -0.005167 -0.012467 0.041433 0.001143
# 6 -0.003779 -0.000186 -0.001781 0.001314 0.001143 0.022344
#
#
# Mechanical properties :
#
#
# Convention : Reuss Voigt Hill
#
# Bulk Modulus (GPa) = 42.83193 50.45249 46.64221
# Shear Modulus (GPa) = 33.86470 41.93276 37.89873
#
# Velocity S-wave (km/s) = 3.60172 4.00787 3.81021
# Velocity P-wave (km/s) = 5.80551 6.38310 6.10114
#
# Compressibility (1/GPa) = 0.02334707
#
# Stress axis : x y z
#
# Youngs Moduli (GPa) = 62.65356 111.02623 98.34807
#
# Poissons Ratio (x) = 0.32992 0.19538
# Poissons Ratio (y) = 0.18618 0.09207
# Poissons Ratio (z) = 0.12447 0.10393
#
# Static dielectric constant tensor:
#      x y z
#    x 2.109770 0.040350 -0.013520 
#    y 0.040350 2.280590 -0.110000 
#    z -0.013520 -0.110000 2.073060 
# 
# From -- ./inp_files/482670.got.cif
#   From: 2010.05.17/outbox.cif.g08.bks.cpg/sg2_242_cif.got.tgz:482670.got - 2010.06.03 11:33:40.
