data_PCOD9043693
_publ_section_title
;
Structure prediction by ZEFSAII (Michael W. Deem and Ramdas Pophale) SiO2 
 PCOD9043693
Probable space group: P -1
;
_chemical_formula_sum "Si O2"
_cell_formula_units_Z 12
_cell_length_a 22.012517
_cell_length_b 5.172576
_cell_length_c 9.952533
_cell_angle_alpha 106.340483
_cell_angle_beta 26.186243
_cell_angle_gamma 114.587133
_cell_volume 442.612696
_symmetry_space_group_name_H-M "P -1"
_symmetry_group_IT_number 2
_symmetry_cell_setting 'triclinic'
loop_
_space_group_symop_operation_xyz
x,y,z
-x,-y,-z
loop_
_atom_site_type_symbol
_atom_site_label
_atom_site_fract_x
_atom_site_fract_y
_atom_site_fract_z
Si Si1 0.355755 0.731260 0.800178
Si Si2 0.623879 0.763765 0.420783
Si Si3 0.107956 0.835374 0.225401
Si Si4 0.068329 0.549870 0.719846
Si Si5 0.735000 0.789152 0.648679
Si Si6 0.558733 0.193538 0.776848
O O1 0.445537 0.643399 0.727474
O O2 0.334687 0.513173 0.682569
O O3 0.500000 0.000000 0.500000
O O4 0.190952 0.718466 0.158583
O O5 0.652053 0.023226 0.504650
O O6 0.740417 0.918659 0.094757
O O7 0.043580 0.596221 0.201567
O O8 0.000000 0.000000 0.500000
O O9 0.346518 0.466274 0.336137
O O10 0.176691 0.370541 0.469045
O O11 0.000000 0.500000 0.000000
O O12 0.845216 0.103232 0.422982
O O13 0.500000 0.000000 0.000000
O O14 0.592496 0.831046 0.003495
#
# Coordination Sequence:
#
# PCOD9043693 Si02
#       6
#     2   2   2   2   2   2
#     4   9  22  45  70 103 138 194 253 308 379 449
#     4  10  23  45  74 102 145 195 256 318 379 447
#     4  11  27  46  73 107 150 200 251 312 386 468
#     4  12  27  48  76 111 159 203 249 314 396 462
#     4  11  26  47  71 114 151 198 258 318 381 458
#     4  11  24  45  76 111 147 198 261 323 378 447
#
# _framework density 27.111737000000002
#
# number of rings (size 3 to 8) (size 9 to 14) (size 15 to 20)
#    0.000    1.333    1.667    1.500    4.667   11.333 
#    0.000    0.000    0.000    0.000    0.000    0.000 
#    0.000    0.000    0.000    0.000    0.000    0.000 
#
# Total GULP energy -67008.010112 kJ/mol
# GULP energy per Si atom -5584.000843 kJ/mol
# Density = 2.705003 g / cm^3
# Si number density = 27.111737 Si / 1000 Ang^3
#
#
#
# Elastic Constant Matrix: (Units=GPa)
#
#
# Indices 1 2 3 4 5 6 
#
# 1 73.2280 39.1206 54.0744 -13.7611 -22.1482 4.5256
# 2 39.1206 220.0822 49.4817 -15.3431 -4.9132 5.3607
# 3 54.0744 49.4817 180.6407 18.8017 -30.9891 7.6717
# 4 -13.7611 -15.3431 18.8017 49.5176 -0.3396 -9.7237
# 5 -22.1482 -4.9132 -30.9891 -0.3396 62.6555 0.9584
# 6 4.5256 5.3607 7.6717 -9.7237 0.9584 40.9363
#
#
#
# Elastic Compliance Matrix: (Units=1/GPa)
#
#
# Indices 1 2 3 4 5 6 
#
# 1 0.022103 -0.001892 -0.006176 0.008085 0.004642 0.000773
# 2 -0.001892 0.005232 -0.001179 0.001564 -0.000835 0.000136
# 3 -0.006176 -0.001179 0.008764 -0.005835 0.002061 -0.002239
# 4 0.008085 0.001564 -0.005835 0.026371 0.000142 0.006256
# 5 0.004642 -0.000835 0.002061 0.000142 0.018574 -0.001191
# 6 0.000773 0.000136 -0.002239 0.006256 -0.001191 0.026258
#
#
# Mechanical properties :
#
#
# Convention : Reuss Voigt Hill
#
# Bulk Modulus (GPa) = 56.80147 84.36716 70.58431
# Shear Modulus (GPa) = 37.97525 52.70682 45.34103
#
# Velocity S-wave (km/s) = 3.74664 4.41393 4.09391
# Velocity P-wave (km/s) = 6.30181 7.56062 6.95973
#
# Compressibility (1/GPa) = 0.01760518
#
# Stress axis : x y z
#
# Youngs Moduli (GPa) = 45.24250 191.12688 114.10810
#
# Poissons Ratio (x) = 0.36158 0.70477
# Poissons Ratio (y) = 0.08559 0.13450
# Poissons Ratio (z) = 0.27943 0.22528
#
# Static dielectric constant tensor:
#      x y z
#    x 3.113040 -0.649920 -0.229210 
#    y -0.649920 2.789720 0.220500 
#    z -0.229210 0.220500 2.157140 
# 
# From -- ./inp_files/339758.got.cif
#   From: 2010.05.17/outbox.cif.g08.bks.cpg/sg2_170_cif.got.tgz:339758.got - 2010.06.03 11:33:40.
