data_PCOD9043405
_publ_section_title
;
Structure prediction by ZEFSAII (Michael W. Deem and Ramdas Pophale) SiO2 
 PCOD9043405
Probable space group: P -1
;
_chemical_formula_sum "Si O2"
_cell_formula_units_Z 16
_cell_length_a 15.274050
_cell_length_b 17.005245
_cell_length_c 11.653230
_cell_angle_alpha 33.487345
_cell_angle_beta 50.213395
_cell_angle_gamma 26.186123
_cell_volume 659.784796
_symmetry_space_group_name_H-M "P -1"
_symmetry_group_IT_number 2
_symmetry_cell_setting 'triclinic'
loop_
_space_group_symop_operation_xyz
x,y,z
-x,-y,-z
loop_
_atom_site_type_symbol
_atom_site_label
_atom_site_fract_x
_atom_site_fract_y
_atom_site_fract_z
Si Si1 0.658529 0.901262 0.248357
Si Si2 0.776880 0.279322 0.453439
Si Si3 0.269119 0.949219 0.655896
Si Si4 0.130487 0.397314 0.338625
Si Si5 0.800877 0.312131 0.636341
Si Si6 0.418986 0.705492 0.059359
Si Si7 0.564792 0.110463 0.648576
Si Si8 0.026449 0.215410 0.167266
O O1 0.709968 0.758357 0.496193
O O2 0.470967 0.016568 0.198098
O O3 0.882763 0.663451 0.274883
O O4 0.609988 0.113032 0.072482
O O5 0.673764 0.428766 0.479267
O O6 0.625096 0.413583 0.306299
O O7 0.920505 0.259117 0.315608
O O8 0.908243 0.991949 0.710311
O O9 0.185479 0.189426 0.485841
O O10 0.050807 0.085330 0.673202
O O11 0.369927 0.872084 0.541685
O O12 0.434202 0.710710 0.904754
O O13 0.140732 0.508760 0.099832
O O14 0.781770 0.185257 0.875896
O O15 0.667878 0.576442 0.493485
O O16 0.758887 0.926070 0.802305
#
# Coordination Sequence:
#
# PCOD9043405 Si02
#       8
#     2   2   2   2   2   2   2   2
#     4  10  24  44  70 108 136 185 237 282 355 417
#     4  11  25  46  69 105 140 186 241 281 352 421
#     4  11  26  47  69 111 139 180 239 289 349 416
#     4  10  23  45  70  99 145 187 228 289 350 415
#     4  12  24  49  71 102 148 181 234 292 346 417
#     4  11  25  44  77 100 139 192 228 289 358 410
#     4  12  26  45  71 106 143 183 234 288 348 414
#     4  11  25  45  69 104 141 189 233 290 348 417
#
# _framework density 24.250330999999999
#
# number of rings (size 3 to 8) (size 9 to 14) (size 15 to 20)
#    0.000    1.000    3.750    1.500    5.250    3.500 
#    2.250    0.000    0.000    0.000    0.000    0.000 
#    0.000    0.000    0.000    0.000    0.000    0.000 
#
# Total GULP energy -89621.009238 kJ/mol
# GULP energy per Si atom -5601.313077 kJ/mol
# Density = 2.419514 g / cm^3
# Si number density = 24.250331 Si / 1000 Ang^3
#
#
#
# Elastic Constant Matrix: (Units=GPa)
#
#
# Indices 1 2 3 4 5 6 
#
# 1 81.6017 9.4262 16.7370 2.5733 -4.5647 -5.1106
# 2 9.4262 50.6281 -18.3841 2.6910 4.9909 6.0606
# 3 16.7370 -18.3841 68.5452 3.8851 -3.6060 5.9532
# 4 2.5733 2.6910 3.8851 14.6625 -0.7305 6.7033
# 5 -4.5647 4.9909 -3.6060 -0.7305 30.8495 7.9767
# 6 -5.1106 6.0606 5.9532 6.7033 7.9767 43.2820
#
#
#
# Elastic Compliance Matrix: (Units=1/GPa)
#
#
# Indices 1 2 3 4 5 6 
#
# 1 0.014119 -0.004798 -0.004823 -0.001605 0.001494 0.002976
# 2 -0.004798 0.024598 0.008203 -0.004167 -0.002801 -0.003978
# 3 -0.004823 0.008203 0.018572 -0.003752 0.001046 -0.003884
# 4 -0.001605 -0.004167 -0.003752 0.075843 0.004826 -0.011725
# 5 0.001494 -0.002801 0.001046 0.004826 0.035081 -0.006788
# 6 0.002976 -0.003978 -0.003884 -0.011725 -0.006788 0.027614
#
#
# Mechanical properties :
#
#
# Convention : Reuss Voigt Hill
#
# Bulk Modulus (GPa) = 18.36496 24.03700 21.20098
# Shear Modulus (GPa) = 23.06133 30.62521 26.84327
#
# Velocity S-wave (km/s) = 3.08713 3.55755 3.33066
# Velocity P-wave (km/s) = 4.50518 5.17769 4.85310
#
# Compressibility (1/GPa) = 0.05445151
#
# Stress axis : x y z
#
# Youngs Moduli (GPa) = 70.82776 40.65415 53.84518
#
# Poissons Ratio (x) = 0.19507 0.25971
# Poissons Ratio (y) = 0.33985 -0.44170
# Poissons Ratio (z) = 0.34162 -0.33349
#
# Static dielectric constant tensor:
#      x y z
#    x 1.917820 -0.057730 0.014600 
#    y -0.057730 1.944690 -0.003570 
#    z 0.014600 -0.003570 1.912600 
# 
# From -- ./inp_files/456898.got.cif
#   From: 2010.05.17/outbox.cif.g08.bks.cpg/sg2_229_cif.got.tgz:456898.got - 2010.06.03 11:33:40.
