data_PCOD9043902
_publ_section_title
;
Structure prediction by ZEFSAII (Michael W. Deem and Ramdas Pophale) SiO2 
 PCOD9043902
Probable space group: P -1
;
_chemical_formula_sum "Si O2"
_cell_formula_units_Z 14
_cell_length_a 12.300154
_cell_length_b 10.574716
_cell_length_c 11.464338
_cell_angle_alpha 85.611820
_cell_angle_beta 59.037423
_cell_angle_gamma 37.300028
_cell_volume 595.176567
_symmetry_space_group_name_H-M "P -1"
_symmetry_group_IT_number 2
_symmetry_cell_setting 'triclinic'
loop_
_space_group_symop_operation_xyz
x,y,z
-x,-y,-z
loop_
_atom_site_type_symbol
_atom_site_label
_atom_site_fract_x
_atom_site_fract_y
_atom_site_fract_z
Si Si1 0.415489 0.050002 0.273740
Si Si2 0.803318 0.292275 0.562426
Si Si3 0.076268 0.594284 0.337629
Si Si4 0.873965 0.986547 0.807348
Si Si5 0.358981 0.374002 0.958390
Si Si6 0.213811 0.844489 0.791876
Si Si7 0.145555 0.145821 0.932730
O O1 0.241681 0.324360 0.307808
O O2 0.235593 0.145705 0.468029
O O3 0.705734 0.852238 0.161112
O O4 0.472860 0.899451 0.150021
O O5 0.809000 0.384301 0.659758
O O6 0.499911 0.523599 0.676413
O O7 0.937999 0.241319 0.379376
O O8 0.000000 0.000000 0.500000
O O9 0.145070 0.543606 0.167886
O O10 0.052505 0.946520 0.758734
O O11 0.815087 0.948687 0.953421
O O12 0.584652 0.272551 0.887449
O O13 0.175011 0.568048 0.935494
O O14 0.270119 0.941360 0.780932
O O15 0.000000 0.000000 0.000000
#
# Coordination Sequence:
#
# PCOD9043902 Si02
#       7
#     2   2   2   2   2   2   2
#     4  11  23  47  71 108 148 188 242 299 362 436
#     4  12  26  46  74 109 146 194 249 298 367 440
#     4  11  24  44  75 106 144 193 243 298 367 428
#     4  11  25  45  72 101 149 187 238 305 361 423
#     4  12  25  45  74 108 142 195 239 300 362 441
#     4  10  23  46  66 102 142 188 238 299 358 424
#     4  11  25  45  73 102 147 187 248 292 374 427
#
# _framework density 23.522431000000001
#
# number of rings (size 3 to 8) (size 9 to 14) (size 15 to 20)
#    0.000    0.857    4.286    2.143    6.000    1.143 
#    2.571    0.000    0.000    0.000    0.000    0.000 
#    0.000    0.000    0.000    0.000    0.000    0.000 
#
# Total GULP energy -78268.650721 kJ/mol
# GULP energy per Si atom -5590.617909 kJ/mol
# Density = 2.346889 g / cm^3
# Si number density = 23.522431 Si / 1000 Ang^3
#
#
#
# Elastic Constant Matrix: (Units=GPa)
#
#
# Indices 1 2 3 4 5 6 
#
# 1 131.6906 30.4705 42.9918 9.5519 -4.3527 -14.5662
# 2 30.4705 74.4125 26.1115 26.3973 -7.0813 -20.3784
# 3 42.9918 26.1115 144.4737 0.9039 -5.4084 -10.5929
# 4 9.5519 26.3973 0.9039 30.5672 -3.8277 -4.3636
# 5 -4.3527 -7.0813 -5.4084 -3.8277 51.2886 17.3311
# 6 -14.5662 -20.3784 -10.5929 -4.3636 17.3311 34.5294
#
#
#
# Elastic Compliance Matrix: (Units=1/GPa)
#
#
# Indices 1 2 3 4 5 6 
#
# 1 0.009067 -0.002230 -0.002162 -0.000618 -0.000493 0.002015
# 2 -0.002230 0.025474 -0.003037 -0.019825 -0.002496 0.011909
# 3 -0.002162 -0.003037 0.008108 0.003111 0.000512 -0.000081
# 4 -0.000618 -0.019825 0.003111 0.049440 0.003415 -0.006473
# 5 -0.000493 -0.002496 0.000512 0.003415 0.023831 -0.013054
# 6 0.002015 0.011909 -0.000081 -0.006473 -0.013054 0.042549
#
#
# Mechanical properties :
#
#
# Convention : Reuss Voigt Hill
#
# Bulk Modulus (GPa) = 35.98279 61.08047 48.53163
# Shear Modulus (GPa) = 27.38398 40.01056 33.69727
#
# Velocity S-wave (km/s) = 3.41569 4.12874 3.78902
# Velocity P-wave (km/s) = 5.55755 6.98226 6.31024
#
# Compressibility (1/GPa) = 0.02779106
#
# Stress axis : x y z
#
# Youngs Moduli (GPa) = 110.29408 39.25591 123.34123
#
# Poissons Ratio (x) = 0.08754 0.26664
# Poissons Ratio (y) = 0.24596 0.37454
# Poissons Ratio (z) = 0.23844 0.11921
#
# Static dielectric constant tensor:
#      x y z
#    x 1.958040 0.006100 -0.015810 
#    y 0.006100 1.934580 0.004290 
#    z -0.015810 0.004290 1.892960 
# 
# From -- ./inp_files/428366.got.cif
#   From: 2010.05.17/outbox.cif.g08.bks.cpg/sg2_215_cif.got.tgz:428366.got - 2010.06.03 11:33:40.
