data_PCOD9043874
_publ_section_title
;
Structure prediction by ZEFSAII (Michael W. Deem and Ramdas Pophale) SiO2 
 PCOD9043874
Probable space group: P -1
;
_chemical_formula_sum "Si O2"
_cell_formula_units_Z 15
_cell_length_a 14.182443
_cell_length_b 4.828273
_cell_length_c 9.151396
_cell_angle_alpha 83.398997
_cell_angle_beta 102.380390
_cell_angle_gamma 105.588183
_cell_volume 588.475261
_symmetry_space_group_name_H-M "P -1"
_symmetry_group_IT_number 2
_symmetry_cell_setting 'triclinic'
loop_
_space_group_symop_operation_xyz
x,y,z
-x,-y,-z
loop_
_atom_site_type_symbol
_atom_site_label
_atom_site_fract_x
_atom_site_fract_y
_atom_site_fract_z
Si Si1 0.886914 0.714171 0.571196
Si Si2 0.300678 0.461156 0.937816
Si Si3 0.210335 0.868474 0.053880
Si Si4 0.312743 0.721841 0.369160
Si Si5 0.395639 0.872637 0.696078
Si Si6 0.988985 0.708782 0.311438
Si Si7 0.000000 0.000000 0.000000
Si Si8 0.468512 0.542769 0.226577
O O1 0.781344 0.542303 0.605974
O O2 0.972003 0.576102 0.679918
O O3 0.903668 0.670462 0.408084
O O4 0.918031 0.049037 0.602740
O O5 0.319959 0.646355 0.786792
O O6 0.261311 0.119874 0.944092
O O7 0.404182 0.533683 0.059192
O O8 0.223767 0.573682 0.008704
O O9 0.273750 0.908986 0.222554
O O10 0.098356 0.865268 0.052597
O O11 0.350450 0.885100 0.520873
O O12 0.399272 0.599583 0.332094
O O13 0.491658 0.739024 0.723205
O O14 0.435492 0.185668 0.759794
O O15 0.958427 0.838142 0.148040
#
# Coordination Sequence:
#
# PCOD9043874 Si02
#       8
#     2   2   2   2   2   2   1   2
#     4  10  23  46  64 100 133 183 213 282 340 396
#     4  11  25  48  71 100 141 177 232 278 346 407
#     4  11  27  45  68 103 137 187 220 287 339 406
#     4  11  25  45  70 101 143 178 233 279 340 411
#     4  12  25  44  73 103 136 180 230 287 338 409
#     4  10  24  43  71  95 136 174 230 272 339 400
#     4  12  26  46  74 102 142 174 240 276 342 402
#     4  11  24  43  71 104 136 179 225 284 349 403
#
# _framework density 25.489602999999999
#
# number of rings (size 3 to 8) (size 9 to 14) (size 15 to 20)
#    0.000    1.067    1.333    4.000    5.600    6.400 
#    4.800    0.000    0.000    0.000    0.000    0.000 
#    0.000    0.000    0.000    0.000    0.000    0.000 
#
# Total GULP energy -83925.874581 kJ/mol
# GULP energy per Si atom -5595.058305 kJ/mol
# Density = 2.543159 g / cm^3
# Si number density = 25.489603 Si / 1000 Ang^3
#
#
#
# Elastic Constant Matrix: (Units=GPa)
#
#
# Indices 1 2 3 4 5 6 
#
# 1 109.5230 12.2050 25.5006 3.2738 -0.6669 -2.8439
# 2 12.2050 88.7270 -9.3716 -6.5479 0.9491 -0.8587
# 3 25.5006 -9.3716 127.9914 -26.6975 -2.7010 -5.0056
# 4 3.2738 -6.5479 -26.6975 26.9576 11.9782 -2.3005
# 5 -0.6669 0.9491 -2.7010 11.9782 32.6696 -16.3729
# 6 -2.8439 -0.8587 -5.0056 -2.3005 -16.3729 38.7213
#
#
#
# Elastic Compliance Matrix: (Units=1/GPa)
#
#
# Indices 1 2 3 4 5 6 
#
# 1 0.010444 -0.002307 -0.003501 -0.006505 0.002937 0.001119
# 2 -0.002307 0.012471 0.002853 0.007486 -0.003118 -0.000398
# 3 -0.003501 0.002853 0.011705 0.014699 -0.004412 0.000327
# 4 -0.006505 0.007486 0.014699 0.065254 -0.025786 -0.005438
# 5 0.002937 -0.003118 -0.004412 -0.025786 0.049321 0.018899
# 6 0.001119 -0.000398 0.000327 -0.005438 0.018899 0.033609
#
#
# Mechanical properties :
#
#
# Convention : Reuss Voigt Hill
#
# Bulk Modulus (GPa) = 34.83084 42.54548 38.68816
# Shear Modulus (GPa) = 25.21619 39.53019 32.37319
#
# Velocity S-wave (km/s) = 3.14868 3.94234 3.56765
# Velocity P-wave (km/s) = 5.18781 6.11966 5.67290
#
# Compressibility (1/GPa) = 0.02871019
#
# Stress axis : x y z
#
# Youngs Moduli (GPa) = 95.74749 80.18470 85.43297
#
# Poissons Ratio (x) = 0.18500 0.29910
# Poissons Ratio (y) = 0.22090 -0.24374
# Poissons Ratio (z) = 0.33521 -0.22877
#
# Static dielectric constant tensor:
#      x y z
#    x 1.950840 0.021510 -0.019120 
#    y 0.021510 1.941000 0.017310 
#    z -0.019120 0.017310 1.980550 
# 
# From -- ./inp_files/288536.got.cif
#   From: 2010.05.17/outbox.cif.g08.bks.cpg/sg2_145_cif.got.tgz:288536.got - 2010.06.03 11:33:40.
