data_PCOD9043901
_publ_section_title
;
Structure prediction by ZEFSAII (Michael W. Deem and Ramdas Pophale) SiO2 
 PCOD9043901
Probable space group: P -1
;
_chemical_formula_sum "Si O2"
_cell_formula_units_Z 16
_cell_length_a 6.367827
_cell_length_b 20.605079
_cell_length_c 15.536391
_cell_angle_alpha 24.349248
_cell_angle_beta 78.174531
_cell_angle_gamma 90.000093
_cell_volume 729.301256
_symmetry_space_group_name_H-M "P -1"
_symmetry_group_IT_number 2
_symmetry_cell_setting 'triclinic'
loop_
_space_group_symop_operation_xyz
x,y,z
-x,-y,-z
loop_
_atom_site_type_symbol
_atom_site_label
_atom_site_fract_x
_atom_site_fract_y
_atom_site_fract_z
Si Si1 0.726434 0.944415 0.972455
Si Si2 0.747041 0.552434 0.228166
Si Si3 0.493210 0.228268 0.313525
Si Si4 0.301111 0.444415 0.972454
Si Si5 0.859752 0.089577 0.458983
Si Si6 0.681264 0.589577 0.458983
Si Si7 0.024794 0.052434 0.228166
Si Si8 0.193264 0.728268 0.313526
O O1 0.898451 0.969911 0.846571
O O2 0.810429 0.124178 0.800200
O O3 0.729461 0.792158 0.215989
O O4 0.436680 0.846544 0.094149
O O5 0.745021 0.530088 0.153431
O O6 0.480297 0.523395 0.312207
O O7 0.784053 0.412690 0.453551
O O8 0.936562 0.750000 0.999999
O O9 0.610629 0.375822 0.199799
O O10 0.642051 0.123173 0.403561
O O11 0.469171 0.346545 0.094149
O O12 0.237604 0.087311 0.546448
O O13 0.054549 0.292158 0.215989
O O14 0.792503 0.976605 0.687793
O O15 0.000000 0.000000 0.500000
O O16 0.500000 0.500000 0.500000
O O17 0.954388 0.623173 0.403561
#
# Coordination Sequence:
#
# PCOD9043901 Si02
#       8
#     2   2   2   2   2   2   2   2
#     4  10  23  46  66 101 141 177 241 283 353 430
#     4  11  24  43  63 103 134 177 235 289 348 424
#     4  10  25  43  72  98 136 192 226 297 354 410
#     4  10  23  46  66 101 141 177 241 283 353 430
#     4  11  23  44  68  98 140 180 234 288 350 425
#     4  11  23  44  68  98 140 180 234 288 350 425
#     4  11  24  43  63 103 134 177 235 289 348 424
#     4  10  25  43  72  98 136 192 226 297 354 410
#
# _framework density 21.938808999999999
#
# number of rings (size 3 to 8) (size 9 to 14) (size 15 to 20)
#    0.000    1.500    2.500    0.750    3.500    7.000 
#    0.000    0.000    0.000    0.000    0.000    0.000 
#    0.000    0.000    0.000    0.000    0.000    0.000 
#
# Total GULP energy -89172.743261 kJ/mol
# GULP energy per Si atom -5573.296454 kJ/mol
# Density = 2.188888 g / cm^3
# Si number density = 21.938809 Si / 1000 Ang^3
#
#
#
# Elastic Constant Matrix: (Units=GPa)
#
#
# Indices 1 2 3 4 5 6 
#
# 1 121.9376 34.1274 43.4377 -19.9729 -0.1647 -0.3726
# 2 34.1274 68.7783 58.3999 -20.5016 0.2869 -0.2428
# 3 43.4377 58.3999 139.0642 -26.2098 0.3576 -0.1845
# 4 -19.9729 -20.5016 -26.2098 38.6726 -0.0107 0.2661
# 5 -0.1647 0.2869 0.3576 -0.0107 32.5930 -5.2106
# 6 -0.3726 -0.2428 -0.1845 0.2661 -5.2106 16.4102
#
#
#
# Elastic Compliance Matrix: (Units=1/GPa)
#
#
# Indices 1 2 3 4 5 6 
#
# 1 0.009956 -0.003009 -0.001350 0.002630 0.000118 0.000161
# 2 -0.003009 0.024960 -0.008416 0.005974 -0.000130 0.000068
# 3 -0.001350 -0.008416 0.011665 0.002747 -0.000075 -0.000092
# 4 0.002630 0.005974 0.002747 0.032248 -0.000120 -0.000382
# 5 0.000118 -0.000130 -0.000075 -0.000120 0.032325 0.010266
# 6 0.000161 0.000068 -0.000092 -0.000382 0.010266 0.064207
#
#
# Mechanical properties :
#
#
# Convention : Reuss Voigt Hill
#
# Bulk Modulus (GPa) = 47.55164 66.85665 57.20414
# Shear Modulus (GPa) = 24.04765 30.45617 27.25191
#
# Velocity S-wave (km/s) = 3.31437 3.72994 3.52828
# Velocity P-wave (km/s) = 6.03062 7.00644 6.53677
#
# Compressibility (1/GPa) = 0.02102977
#
# Stress axis : x y z
#
# Youngs Moduli (GPa) = 100.44567 40.06443 85.72867
#
# Poissons Ratio (x) = 0.12056 0.11576
# Poissons Ratio (y) = 0.30227 0.72145
# Poissons Ratio (z) = 0.13564 0.33716
#
# Static dielectric constant tensor:
#      x y z
#    x 2.002790 -0.000170 -0.002960 
#    y -0.000170 1.813540 -0.010760 
#    z -0.002960 -0.010760 1.754490 
# 
# From -- ./inp_files/551201.got.cif
#   From: 2010.05.17/outbox.cif.g08.bks.cpg/sg2_276_cif.got.tgz:551201.got - 2010.06.03 11:33:40.
