data_PCOD9043132
_publ_section_title
;
Structure prediction by ZEFSAII (Michael W. Deem and Ramdas Pophale) SiO2 
 PCOD9043132
Probable space group: P -1
;
_chemical_formula_sum "Si O2"
_cell_formula_units_Z 14
_cell_length_a 5.879913
_cell_length_b 14.725032
_cell_length_c 23.545075
_cell_angle_alpha 20.067243
_cell_angle_beta 108.986898
_cell_angle_gamma 99.489389
_cell_volume 595.963556
_symmetry_space_group_name_H-M "P -1"
_symmetry_group_IT_number 2
_symmetry_cell_setting 'triclinic'
loop_
_space_group_symop_operation_xyz
x,y,z
-x,-y,-z
loop_
_atom_site_type_symbol
_atom_site_label
_atom_site_fract_x
_atom_site_fract_y
_atom_site_fract_z
Si Si1 0.434981 0.328315 0.319609
Si Si2 0.357899 0.205569 0.500825
Si Si3 0.598082 0.314870 0.560768
Si Si4 0.905269 0.172206 0.068984
Si Si5 0.310239 0.468855 0.052731
Si Si6 0.769649 0.648412 0.170948
Si Si7 0.328483 0.226648 0.776042
O O1 0.501436 0.309804 0.402951
O O2 0.607576 0.494873 0.215844
O O3 0.500000 0.000000 0.500000
O O4 0.150346 0.555746 0.137626
O O5 0.375502 0.302187 0.509053
O O6 0.063829 0.388540 0.346088
O O7 0.507079 0.856482 0.717515
O O8 0.500000 0.500000 0.500000
O O9 0.730183 0.478534 0.436082
O O10 0.797374 0.992505 0.786134
O O11 0.840031 0.933053 0.170834
O O12 0.732481 0.297228 0.038442
O O13 0.500000 0.500000 0.000000
O O14 0.000000 0.500000 0.000000
O O15 0.726178 0.718685 0.193758
O O16 0.641831 0.981908 0.939489
#
# Coordination Sequence:
#
# PCOD9043132 Si02
#       7
#     2   2   2   2   2   2   2
#     4  11  24  47  70 103 143 186 249 301 379 442
#     4  12  26  45  76 103 145 197 243 313 378 454
#     4  12  26  42  71 106 144 193 250 303 383 451
#     4  11  25  46  71 107 148 193 254 316 369 458
#     4  12  29  50  77 112 155 202 253 318 387 451
#     4  10  24  45  70 103 140 188 242 312 372 453
#     4  10  23  45  68  99 147 188 245 311 377 441
#
# _framework density 23.491368999999999
#
# number of rings (size 3 to 8) (size 9 to 14) (size 15 to 20)
#    0.000    0.857    4.286    1.286    8.000    1.143 
#    2.571    0.000    0.000    0.000    0.000    0.000 
#    0.000    0.000    0.000    0.000    0.000    0.000 
#
# Total GULP energy -78013.175698 kJ/mol
# GULP energy per Si atom -5572.369693 kJ/mol
# Density = 2.343790 g / cm^3
# Si number density = 23.491369 Si / 1000 Ang^3
#
#
#
# Elastic Constant Matrix: (Units=GPa)
#
#
# Indices 1 2 3 4 5 6 
#
# 1 43.1738 18.8796 23.1043 6.4860 5.2283 0.0136
# 2 18.8796 120.7101 8.3819 8.8753 1.7980 -3.4412
# 3 23.1043 8.3819 143.8892 25.0008 12.8523 0.7323
# 4 6.4860 8.8753 25.0008 44.8402 -4.8854 -0.9854
# 5 5.2283 1.7980 12.8523 -4.8854 27.2223 0.9228
# 6 0.0136 -3.4412 0.7323 -0.9854 0.9228 31.6528
#
#
#
# Elastic Compliance Matrix: (Units=1/GPa)
#
#
# Indices 1 2 3 4 5 6 
#
# 1 0.027453 -0.003882 -0.003580 -0.001606 -0.003604 -0.000296
# 2 -0.003882 0.009003 0.000373 -0.001442 -0.000316 0.000936
# 3 -0.003580 0.000373 0.008744 -0.004908 -0.004340 -0.000187
# 4 -0.001606 -0.001442 -0.004908 0.026378 0.007436 0.000562
# 5 -0.003604 -0.000316 -0.004340 0.007436 0.040862 -0.000892
# 6 -0.000296 0.000936 -0.000187 0.000562 -0.000892 0.031742
#
#
# Mechanical properties :
#
#
# Convention : Reuss Voigt Hill
#
# Bulk Modulus (GPa) = 32.23374 45.38943 38.81159
# Shear Modulus (GPa) = 29.63823 37.90354 33.77089
#
# Velocity S-wave (km/s) = 3.55585 4.02121 3.79567
# Velocity P-wave (km/s) = 5.53263 6.39718 5.98055
#
# Compressibility (1/GPa) = 0.03102339
#
# Stress axis : x y z
#
# Youngs Moduli (GPa) = 36.42564 111.07415 114.36059
#
# Poissons Ratio (x) = 0.43118 0.40935
# Poissons Ratio (y) = 0.14140 -0.04264
# Poissons Ratio (z) = 0.13039 -0.04142
#
# Static dielectric constant tensor:
#      x y z
#    x 2.051270 -0.063000 0.111700 
#    y -0.063000 1.756460 0.219790 
#    z 0.111700 0.219790 1.495460 
# 
# From -- ./inp_files/40417.got.cif
#   From: 2010.05.17/outbox.cif.g08.bks.cpg/sg2_21_cif.got.tgz:40417.got - 2010.06.03 11:33:40.
