data_PCOD9043639
_publ_section_title
;
Structure prediction by ZEFSAII (Michael W. Deem and Ramdas Pophale) SiO2 
 PCOD9043639
Probable space group: P -1
;
_chemical_formula_sum "Si O2"
_cell_formula_units_Z 14
_cell_length_a 9.367009
_cell_length_b 8.352675
_cell_length_c 24.544852
_cell_angle_alpha 137.556148
_cell_angle_beta 152.836391
_cell_angle_gamma 51.450214
_cell_volume 588.189741
_symmetry_space_group_name_H-M "P -1"
_symmetry_group_IT_number 2
_symmetry_cell_setting 'triclinic'
loop_
_space_group_symop_operation_xyz
x,y,z
-x,-y,-z
loop_
_atom_site_type_symbol
_atom_site_label
_atom_site_fract_x
_atom_site_fract_y
_atom_site_fract_z
Si Si1 0.653622 0.412943 0.916186
Si Si2 0.350572 0.476958 0.501071
Si Si3 0.643485 0.023911 0.901350
Si Si4 0.357461 0.933796 0.492676
Si Si5 0.165262 0.840342 0.193889
Si Si6 0.178939 0.748758 0.602379
Si Si7 0.278666 0.804258 0.824885
O O1 0.559611 0.266574 0.903010
O O2 0.709303 0.219602 0.838756
O O3 0.430261 0.595024 0.857021
O O4 0.977500 0.583079 0.081253
O O5 0.500000 0.500000 0.500000
O O6 0.294080 0.711381 0.571468
O O7 0.012722 0.320028 0.342244
O O8 0.636979 0.345732 0.587873
O O9 0.463078 0.805613 0.752770
O O10 0.515553 0.965891 0.904850
O O11 0.000000 0.000000 0.000000
O O12 0.574841 0.051266 0.646041
O O13 0.033163 0.037931 0.415090
O O14 0.500000 0.000000 0.500000
O O15 0.900433 0.024835 0.153581
O O16 0.000000 0.500000 0.500000
#
# Coordination Sequence:
#
# PCOD9043639 Si02
#       7
#     2   2   2   2   2   2   2
#     4  11  25  44  75 104 147 197 236 300 373 433
#     4  11  26  44  71 106 143 185 244 302 362 433
#     4  12  28  46  74 112 145 193 253 295 369 445
#     4  11  23  43  76 106 136 189 247 299 371 435
#     4  10  23  45  73 105 146 187 245 305 360 441
#     4  12  24  46  74 101 144 195 234 310 366 426
#     4  11  24  50  70 106 152 188 244 306 360 437
#
# _framework density 23.801842000000001
#
# number of rings (size 3 to 8) (size 9 to 14) (size 15 to 20)
#    0.000    0.857    2.857    3.857    8.000    1.143 
#    0.000    1.429    0.000    0.000    0.000    0.000 
#    0.000    0.000    0.000    0.000    0.000    0.000 
#
# Total GULP energy -77999.341495 kJ/mol
# GULP energy per Si atom -5571.381535 kJ/mol
# Density = 2.374767 g / cm^3
# Si number density = 23.801842 Si / 1000 Ang^3
#
#
#
# Elastic Constant Matrix: (Units=GPa)
#
#
# Indices 1 2 3 4 5 6 
#
# 1 126.6553 64.9043 12.6880 -12.8840 -3.6482 -17.2081
# 2 64.9043 136.9061 11.0518 -17.0445 13.3964 -17.4618
# 3 12.6880 11.0518 124.3832 -2.9463 4.1797 -18.5366
# 4 -12.8840 -17.0445 -2.9463 30.4730 -0.4598 6.2643
# 5 -3.6482 13.3964 4.1797 -0.4598 32.8907 6.2673
# 6 -17.2081 -17.4618 -18.5366 6.2643 6.2673 53.1299
#
#
#
# Elastic Compliance Matrix: (Units=1/GPa)
#
#
# Indices 1 2 3 4 5 6 
#
# 1 0.010987 -0.005143 -0.000569 0.001533 0.003195 0.001112
# 2 -0.005143 0.010975 0.000146 0.003438 -0.005435 0.002228
# 3 -0.000569 0.000146 0.008604 0.000013 -0.001802 0.003076
# 4 0.001533 0.003438 0.000013 0.035914 -0.000239 -0.002575
# 5 0.003195 -0.005435 -0.001802 -0.000239 0.034224 -0.005389
# 6 0.001112 0.002228 0.003076 -0.002575 -0.005389 0.021927
#
#
# Mechanical properties :
#
#
# Convention : Reuss Voigt Hill
#
# Bulk Modulus (GPa) = 51.45815 62.80365 57.13090
# Shear Modulus (GPa) = 35.65283 43.25209 39.45246
#
# Velocity S-wave (km/s) = 3.87447 4.26746 4.07570
# Velocity P-wave (km/s) = 6.45614 7.12214 6.79730
#
# Compressibility (1/GPa) = 0.01943327
#
# Stress axis : x y z
#
# Youngs Moduli (GPa) = 91.01759 91.11968 116.22334
#
# Poissons Ratio (x) = 0.46859 0.06615
# Poissons Ratio (y) = 0.46807 -0.01692
# Poissons Ratio (z) = 0.05180 -0.01326
#
# Static dielectric constant tensor:
#      x y z
#    x 1.930150 0.024960 0.037700 
#    y 0.024960 1.872550 0.041740 
#    z 0.037700 0.041740 2.063880 
# 
# From -- ./inp_files/606898.got.cif
#   From: 2010.05.17/outbox.cif.g08.bks.cpg/sg2_304_cif.got.tgz:606898.got - 2010.06.03 11:33:40.
