data_PCOD9043609
_publ_section_title
;
Structure prediction by ZEFSAII (Michael W. Deem and Ramdas Pophale) SiO2 
 PCOD9043609
Probable space group: P -1
;
_chemical_formula_sum "Si O2"
_cell_formula_units_Z 15
_cell_length_a 5.483162
_cell_length_b 14.802920
_cell_length_c 11.304611
_cell_angle_alpha 51.519941
_cell_angle_beta 63.700978
_cell_angle_gamma 91.184981
_cell_volume 583.704523
_symmetry_space_group_name_H-M "P -1"
_symmetry_group_IT_number 2
_symmetry_cell_setting 'triclinic'
loop_
_space_group_symop_operation_xyz
x,y,z
-x,-y,-z
loop_
_atom_site_type_symbol
_atom_site_label
_atom_site_fract_x
_atom_site_fract_y
_atom_site_fract_z
Si Si1 0.287095 0.981335 0.913168
Si Si2 0.609630 0.025750 0.586804
Si Si3 0.000000 0.500000 0.500000
Si Si4 0.382354 0.742462 0.345427
Si Si5 0.266251 0.205019 0.281548
Si Si6 0.798905 0.611526 0.010992
Si Si7 0.355157 0.659179 0.688948
Si Si8 0.045221 0.300526 0.833845
O O1 0.339782 0.012646 0.737706
O O2 0.561328 0.108610 0.802915
O O3 0.211341 0.831762 0.053963
O O4 0.000000 0.000000 0.000000
O O5 0.701263 0.912201 0.692102
O O6 0.500000 0.000000 0.500000
O O7 0.911437 0.152831 0.424412
O O8 0.917204 0.365691 0.554761
O O9 0.949807 0.573323 0.330731
O O10 0.396088 0.712142 0.505563
O O11 0.643384 0.713186 0.248463
O O12 0.429193 0.244294 0.339348
O O13 0.381748 0.320114 0.070637
O O14 0.596410 0.470121 0.212436
O O15 0.966979 0.688044 0.029746
O O16 0.026006 0.613371 0.856713
#
# Coordination Sequence:
#
# PCOD9043609 Si02
#       8
#     2   2   1   2   2   2   2   2
#     4  10  23  45  73 101 140 183 242 295 357 421
#     4  11  23  44  72 105 145 189 235 297 364 431
#     4  12  26  46  70  94 142 190 230 286 372 420
#     4  11  25  47  71 101 139 188 236 297 353 431
#     4  11  23  40  74 108 143 189 238 296 368 428
#     4  11  24  44  68 105 146 186 238 300 358 432
#     4  11  24  44  68 105 146 186 238 300 358 432
#     4  11  25  47  71 101 139 188 236 297 353 431
#
# _framework density 25.697932999999999
#
# number of rings (size 3 to 8) (size 9 to 14) (size 15 to 20)
#    0.000    1.067    1.333    4.800    0.000    5.867 
#    0.000    5.333    0.000    0.000    0.000    0.000 
#    0.000    0.000    0.000    0.000    0.000    0.000 
#
# Total GULP energy -83656.957419 kJ/mol
# GULP energy per Si atom -5577.130495 kJ/mol
# Density = 2.563944 g / cm^3
# Si number density = 25.697933 Si / 1000 Ang^3
#
#
#
# Elastic Constant Matrix: (Units=GPa)
#
#
# Indices 1 2 3 4 5 6 
#
# 1 18.9503 -5.7223 4.8450 12.2951 2.2155 6.8360
# 2 -5.7223 104.1580 43.7785 -21.2984 5.7911 5.7947
# 3 4.8450 43.7785 94.0953 -10.5987 2.7957 -18.7820
# 4 12.2951 -21.2984 -10.5987 70.6477 -5.9284 5.3532
# 5 2.2155 5.7911 2.7957 -5.9284 34.9122 -2.7028
# 6 6.8360 5.7947 -18.7820 5.3532 -2.7028 45.5506
#
#
#
# Elastic Compliance Matrix: (Units=1/GPa)
#
#
# Indices 1 2 3 4 5 6 
#
# 1 0.072078 0.007788 -0.011512 -0.011413 -0.008097 -0.015694
# 2 0.007788 0.014377 -0.008130 0.002068 -0.002398 -0.006735
# 3 -0.011512 -0.008130 0.017063 0.001520 0.001724 0.009721
# 4 -0.011413 0.002068 0.001520 0.017244 0.003206 0.000240
# 5 -0.008097 -0.002398 0.001724 0.003206 0.030244 0.003649
# 6 -0.015694 -0.006735 0.009721 0.000240 0.003649 0.029362
#
#
# Mechanical properties :
#
#
# Convention : Reuss Voigt Hill
#
# Bulk Modulus (GPa) = 12.52988 33.66732 23.09860
# Shear Modulus (GPa) = 21.67509 41.84227 31.75868
#
# Velocity S-wave (km/s) = 2.90738 4.03952 3.51927
# Velocity P-wave (km/s) = 4.01957 5.90648 5.05190
#
# Compressibility (1/GPa) = 0.07980923
#
# Stress axis : x y z
#
# Youngs Moduli (GPa) = 13.87389 69.55654 58.60508
#
# Poissons Ratio (x) = -0.54171 0.67468
# Poissons Ratio (y) = -0.10805 0.47647
# Poissons Ratio (z) = 0.15972 0.56550
#
# Static dielectric constant tensor:
#      x y z
#    x 2.032450 -0.049140 -0.037320 
#    y -0.049140 2.074940 -0.049870 
#    z -0.037320 -0.049870 2.054680 
# 
# From -- ./inp_files/367448.got.cif
#   From: 2010.05.17/outbox.cif.g08.bks.cpg/sg2_184_cif.got.tgz:367448.got - 2010.06.03 11:33:40.
