data_PCOD9043007
_publ_section_title
;
Structure prediction by ZEFSAII (Michael W. Deem and Ramdas Pophale) SiO2 
 PCOD9043007
Probable space group: P -1
;
_chemical_formula_sum "Si O2"
_cell_formula_units_Z 12
_cell_length_a 6.277813
_cell_length_b 14.428374
_cell_length_c 8.838581
_cell_angle_alpha 40.717883
_cell_angle_beta 64.806023
_cell_angle_gamma 72.321718
_cell_volume 472.325864
_symmetry_space_group_name_H-M "P -1"
_symmetry_group_IT_number 2
_symmetry_cell_setting 'triclinic'
loop_
_space_group_symop_operation_xyz
x,y,z
-x,-y,-z
loop_
_atom_site_type_symbol
_atom_site_label
_atom_site_fract_x
_atom_site_fract_y
_atom_site_fract_z
Si Si1 0.188128 0.195288 0.456726
Si Si2 0.394022 0.317298 0.806614
Si Si3 0.343973 0.119715 0.819403
Si Si4 0.014715 0.528241 0.780066
Si Si5 0.988684 0.911642 0.796737
Si Si6 0.358202 0.681067 0.985129
O O1 0.330766 0.123959 0.638894
O O2 0.000338 0.303528 0.444136
O O3 0.381808 0.291208 0.191652
O O4 0.052639 0.075078 0.546953
O O5 0.423788 0.273595 0.676945
O O6 0.230341 0.448729 0.733585
O O7 0.242221 0.175535 0.083286
O O8 0.619640 0.329378 0.828275
O O9 0.081537 0.093786 0.997080
O O10 0.500000 0.000000 0.000000
O O11 0.781624 0.454161 0.869963
O O12 0.000000 0.500000 0.000000
O O13 0.208745 0.816323 0.818935
#
# Coordination Sequence:
#
# PCOD9043007 Si02
#       6
#     2   2   2   2   2   2
#     4  12  23  39  74  99 128 179 221 264 333 391
#     4   9  22  43  66  91 141 170 210 276 327 376
#     4  10  23  45  67  98 134 173 218 275 330 386
#     4  11  24  44  65  97 139 171 220 273 323 389
#     4   9  23  42  67  95 135 167 223 274 325 381
#     4  11  22  45  67  98 134 172 224 273 323 389
#
# _framework density 25.406188
#
# number of rings (size 3 to 8) (size 9 to 14) (size 15 to 20)
#    1.000    0.667    1.667    2.500    0.000    2.667 
#    0.000    0.833    0.000    0.000    0.000    0.000 
#    0.000    0.000    0.000    0.000    0.000    0.000 
#
# Total GULP energy -67051.724894 kJ/mol
# GULP energy per Si atom -5587.643741 kJ/mol
# Density = 2.534836 g / cm^3
# Si number density = 25.406188 Si / 1000 Ang^3
#
#
#
# Elastic Constant Matrix: (Units=GPa)
#
#
# Indices 1 2 3 4 5 6 
#
# 1 71.1736 32.1489 2.6463 -8.3287 13.5006 20.5367
# 2 32.1489 136.6404 3.5097 -39.7180 12.9375 13.8638
# 3 2.6463 3.5097 73.7204 -4.6538 10.0085 8.1874
# 4 -8.3287 -39.7180 -4.6538 47.1716 2.3857 1.2227
# 5 13.5006 12.9375 10.0085 2.3857 30.1990 5.5079
# 6 20.5367 13.8638 8.1874 1.2227 5.5079 55.8302
#
#
#
# Elastic Compliance Matrix: (Units=1/GPa)
#
#
# Indices 1 2 3 4 5 6 
#
# 1 0.018247 -0.002698 0.001068 0.001527 -0.006456 -0.005595
# 2 -0.002698 0.011225 0.000930 0.009331 -0.004337 -0.001708
# 3 0.001068 0.000930 0.014662 0.002757 -0.005535 -0.002288
# 4 0.001527 0.009331 0.002757 0.030054 -0.007382 -0.003213
# 5 -0.006456 -0.004337 -0.005535 -0.007382 0.040191 0.000460
# 6 -0.005595 -0.001708 -0.002288 -0.003213 0.000460 0.020754
#
#
# Mechanical properties :
#
#
# Convention : Reuss Voigt Hill
#
# Bulk Modulus (GPa) = 23.40076 39.79381 31.59728
# Shear Modulus (GPa) = 33.16126 42.85546 38.00836
#
# Velocity S-wave (km/s) = 3.61673 4.11154 3.87205
# Velocity P-wave (km/s) = 5.16446 6.18358 5.69686
#
# Compressibility (1/GPa) = 0.04273366
#
# Stress axis : x y z
#
# Youngs Moduli (GPa) = 54.80455 89.08312 68.20427
#
# Poissons Ratio (x) = 0.24032 -0.07282
# Poissons Ratio (y) = 0.14785 -0.06342
# Poissons Ratio (z) = -0.05851 -0.08284
#
# Static dielectric constant tensor:
#      x y z
#    x 1.993120 -0.005630 -0.025260 
#    y -0.005630 2.032100 0.024270 
#    z -0.025260 0.024270 2.058350 
# 
# From -- ./inp_files/132917.got.cif
#   From: 2010.05.17/outbox.cif.g08.bks.cpg/sg2_67_cif.got.tgz:132917.got - 2010.06.03 11:33:40.
