data_PCOD9043709
_publ_section_title
;
Structure prediction by ZEFSAII (Michael W. Deem and Ramdas Pophale) SiO2 
 PCOD9043709
Probable space group: P -1
;
_chemical_formula_sum "Si O2"
_cell_formula_units_Z 14
_cell_length_a 9.149304
_cell_length_b 10.921766
_cell_length_c 9.351364
_cell_angle_alpha 42.889060
_cell_angle_beta 66.229772
_cell_angle_gamma 53.239219
_cell_volume 508.424679
_symmetry_space_group_name_H-M "P -1"
_symmetry_group_IT_number 2
_symmetry_cell_setting 'triclinic'
loop_
_space_group_symop_operation_xyz
x,y,z
-x,-y,-z
loop_
_atom_site_type_symbol
_atom_site_label
_atom_site_fract_x
_atom_site_fract_y
_atom_site_fract_z
Si Si1 0.543074 0.020859 0.654890
Si Si2 0.283611 0.161335 0.975151
Si Si3 0.819474 0.158556 0.800794
Si Si4 0.466851 0.663255 0.994669
Si Si5 0.295840 0.696662 0.590499
Si Si6 0.987671 0.397440 0.236464
Si Si7 0.128789 0.280454 0.568315
O O1 0.329979 0.181437 0.642185
O O2 0.625553 0.174601 0.467366
O O3 0.493708 0.848614 0.759482
O O4 0.500000 0.000000 0.000000
O O5 0.302557 0.125078 0.168555
O O6 0.175477 0.404278 0.784130
O O7 0.166541 0.062599 0.040313
O O8 0.694494 0.283142 0.603814
O O9 0.007336 0.165408 0.717650
O O10 0.605353 0.527031 0.182678
O O11 0.280861 0.754644 0.082663
O O12 0.500000 0.500000 0.000000
O O13 0.083905 0.761490 0.635484
O O14 0.147932 0.305488 0.368308
O O15 0.000000 0.500000 0.000000
O O16 0.000000 0.500000 0.500000
#
# Coordination Sequence:
#
# PCOD9043709 Si02
#       7
#     2   2   2   2   2   2   2
#     4  11  24  46  75 112 149 192 256 308 378 444
#     4  11  20  45  78 105 138 202 260 295 358 467
#     4  10  23  45  74 104 144 199 258 301 369 453
#     4  12  25  44  72 109 154 197 247 316 382 443
#     4  10  23  47  76 106 140 200 254 306 359 465
#     4  11  25  49  77 110 153 198 250 315 386 446
#     4  11  25  46  71 111 154 195 242 318 383 451
#
# _framework density 27.536034999999998
#
# number of rings (size 3 to 8) (size 9 to 14) (size 15 to 20)
#    0.000    1.143    2.857    2.143    0.000    8.000 
#   10.286    3.571    0.000    0.000    0.000    0.000 
#    0.000    0.000    0.000    0.000    0.000    0.000 
#
# Total GULP energy -78111.894158 kJ/mol
# GULP energy per Si atom -5579.421011 kJ/mol
# Density = 2.747336 g / cm^3
# Si number density = 27.536035 Si / 1000 Ang^3
#
#
#
# Elastic Constant Matrix: (Units=GPa)
#
#
# Indices 1 2 3 4 5 6 
#
# 1 128.6033 46.3059 73.9015 2.0513 2.4565 14.3980
# 2 46.3059 131.1001 61.1291 -5.6074 -19.2266 16.3149
# 3 73.9015 61.1291 87.3710 -2.9969 -1.6645 15.7704
# 4 2.0513 -5.6074 -2.9969 63.6493 7.2292 1.9608
# 5 2.4565 -19.2266 -1.6645 7.2292 60.4053 -11.6383
# 6 14.3980 16.3149 15.7704 1.9608 -11.6383 38.2068
#
#
#
# Elastic Compliance Matrix: (Units=1/GPa)
#
#
# Indices 1 2 3 4 5 6 
#
# 1 0.015317 0.000785 -0.013416 -0.000945 -0.000776 -0.000758
# 2 0.000785 0.012121 -0.008933 0.000259 0.003402 -0.000761
# 3 -0.013416 -0.008933 0.029816 0.001461 -0.002473 -0.004265
# 4 -0.000945 0.000259 0.001461 0.016131 -0.002122 -0.001832
# 5 -0.000776 0.003402 -0.002473 -0.002122 0.018962 0.005745
# 6 -0.000758 -0.000761 -0.004265 -0.001832 0.005745 0.030388
#
#
# Mechanical properties :
#
#
# Convention : Reuss Voigt Hill
#
# Bulk Modulus (GPa) = 70.78966 78.86081 74.82523
# Shear Modulus (GPa) = 29.31338 43.50146 36.40742
#
# Velocity S-wave (km/s) = 3.26628 3.97898 3.64012
# Velocity P-wave (km/s) = 6.32365 7.05769 6.70073
#
# Compressibility (1/GPa) = 0.01412636
#
# Stress axis : x y z
#
# Youngs Moduli (GPa) = 65.28688 82.50475 33.53910
#
# Poissons Ratio (x) = -0.06480 0.44995
# Poissons Ratio (y) = -0.05128 0.29962
# Poissons Ratio (z) = 0.87586 0.73705
#
# Static dielectric constant tensor:
#      x y z
#    x 2.270050 -0.192560 -0.175590 
#    y -0.192560 2.368040 0.284620 
#    z -0.175590 0.284620 2.428300 
# 
# From -- ./inp_files/174450.got.cif
#   From: 2010.05.17/outbox.cif.g08.bks.cpg/sg2_88_cif.got.tgz:174450.got - 2010.06.03 11:33:40.
