data_PCOD9043176
_publ_section_title
;
Structure prediction by ZEFSAII (Michael W. Deem and Ramdas Pophale) SiO2 
 PCOD9043176
Probable space group: P -1
;
_chemical_formula_sum "Si O2"
_cell_formula_units_Z 16
_cell_length_a 9.793534
_cell_length_b 22.248473
_cell_length_c 5.836411
_cell_angle_alpha 69.177843
_cell_angle_beta 65.941892
_cell_angle_gamma 34.136312
_cell_volume 651.237549
_symmetry_space_group_name_H-M "P -1"
_symmetry_group_IT_number 2
_symmetry_cell_setting 'triclinic'
loop_
_space_group_symop_operation_xyz
x,y,z
-x,-y,-z
loop_
_atom_site_type_symbol
_atom_site_label
_atom_site_fract_x
_atom_site_fract_y
_atom_site_fract_z
Si Si1 0.430817 0.952785 0.687764
Si Si2 0.753414 0.874516 0.942631
Si Si3 0.161157 0.580484 0.769871
Si Si4 0.505633 0.575896 0.632611
Si Si5 0.780744 0.197783 0.390013
Si Si6 0.240430 0.235758 0.570533
Si Si7 0.983541 0.575900 0.297486
Si Si8 0.108350 0.891167 0.064306
O O1 0.637169 0.864167 0.855033
O O2 0.490353 0.880178 0.549499
O O3 0.500000 0.000000 0.500000
O O4 0.154374 0.055589 0.828428
O O5 0.954615 0.854423 0.732773
O O6 0.850718 0.795324 0.183750
O O7 0.500000 0.000000 0.000000
O O8 0.289392 0.597966 0.780223
O O9 0.393048 0.466037 0.639156
O O10 0.965774 0.678284 0.594788
O O11 0.005110 0.579139 0.009064
O O12 0.415819 0.677298 0.620843
O O13 0.756202 0.479143 0.735128
O O14 0.774131 0.163400 0.689110
O O15 0.763816 0.169565 0.186869
O O16 0.238632 0.302607 0.624087
O O17 0.000000 0.500000 0.500000
O O18 0.000000 0.000000 0.000000
#
# Coordination Sequence:
#
# PCOD9043176 Si02
#       8
#     2   2   2   2   2   2   2   2
#     4  12  22  41  68 100 138 182 236 291 354 419
#     4  12  22  40  71 105 140 180 238 300 356 422
#     4  10  23  45  69 104 139 174 243 301 363 429
#     4  10  24  41  73 102 135 184 236 301 363 424
#     4  12  25  45  74 104 143 192 243 294 360 433
#     4  11  23  40  68 103 134 182 229 300 357 416
#     4  11  25  46  68  98 142 185 236 296 361 443
#     4  12  28  47  67 101 149 190 238 292 355 431
#
# _framework density 24.568605000000002
#
# number of rings (size 3 to 8) (size 9 to 14) (size 15 to 20)
#    0.000    0.750    3.750    3.000    3.500    4.000 
#    4.500    0.000    0.000    0.000    0.000    0.000 
#    0.000    0.000    0.000    0.000    0.000    0.000 
#
# Total GULP energy -89259.414295 kJ/mol
# GULP energy per Si atom -5578.713393 kJ/mol
# Density = 2.451269 g / cm^3
# Si number density = 24.568605 Si / 1000 Ang^3
#
#
#
# Elastic Constant Matrix: (Units=GPa)
#
#
# Indices 1 2 3 4 5 6 
#
# 1 53.3201 17.2911 44.3178 -2.6644 -3.8991 22.7429
# 2 17.2911 143.3264 63.1609 14.9359 6.0831 47.4587
# 3 44.3178 63.1609 163.3049 -20.8714 0.4191 29.8595
# 4 -2.6644 14.9359 -20.8714 37.9151 9.5198 6.4163
# 5 -3.8991 6.0831 0.4191 9.5198 27.4722 -0.6644
# 6 22.7429 47.4587 29.8595 6.4163 -0.6644 56.5184
#
#
#
# Elastic Compliance Matrix: (Units=1/GPa)
#
#
# Indices 1 2 3 4 5 6 
#
# 1 0.028278 0.003255 -0.007517 -0.002821 0.004149 -0.009771
# 2 0.003255 0.012006 -0.004733 -0.005614 -0.000379 -0.008257
# 3 -0.007517 -0.004733 0.010994 0.008098 -0.002987 0.000237
# 4 -0.002821 -0.005614 0.008098 0.036294 -0.011923 -0.002690
# 5 0.004149 -0.000379 -0.002987 -0.011923 0.041300 0.002066
# 6 -0.009771 -0.008257 0.000237 -0.002690 0.002066 0.028763
#
#
# Mechanical properties :
#
#
# Convention : Reuss Voigt Hill
#
# Bulk Modulus (GPa) = 30.04389 67.72120 48.88254
# Shear Modulus (GPa) = 26.77788 40.05992 33.41890
#
# Velocity S-wave (km/s) = 3.30498 4.04237 3.69213
# Velocity P-wave (km/s) = 5.17870 7.02934 6.17376
#
# Compressibility (1/GPa) = 0.03328464
#
# Stress axis : x y z
#
# Youngs Moduli (GPa) = 35.36374 83.29491 90.96247
#
# Poissons Ratio (x) = -0.27110 0.68380
# Poissons Ratio (y) = -0.11510 0.43055
# Poissons Ratio (z) = 0.26584 0.39426
#
# Static dielectric constant tensor:
#      x y z
#    x 1.473230 0.136020 0.055800 
#    y 0.136020 1.879700 0.110400 
#    z 0.055800 0.110400 2.190140 
# 
# From -- ./inp_files/84667.got.cif
#   From: 2010.05.17/outbox.cif.g08.bks.cpg/sg2_43_cif.got.tgz:84667.got - 2010.06.03 11:33:40.
