data_PCOD9043845
_publ_section_title
;
Structure prediction by ZEFSAII (Michael W. Deem and Ramdas Pophale) SiO2 
 PCOD9043845
Probable space group: P -1
;
_chemical_formula_sum "Si O2"
_cell_formula_units_Z 16
_cell_length_a 9.854885
_cell_length_b 9.962882
_cell_length_c 10.042072
_cell_angle_alpha 97.362087
_cell_angle_beta 45.713219
_cell_angle_gamma 76.737062
_cell_volume 625.397555
_symmetry_space_group_name_H-M "P -1"
_symmetry_group_IT_number 2
_symmetry_cell_setting 'triclinic'
loop_
_space_group_symop_operation_xyz
x,y,z
-x,-y,-z
loop_
_atom_site_type_symbol
_atom_site_label
_atom_site_fract_x
_atom_site_fract_y
_atom_site_fract_z
Si Si1 0.683594 0.181532 0.010958
Si Si2 0.906306 0.923359 0.444816
Si Si3 0.917187 0.383273 0.599301
Si Si4 0.471772 0.177432 0.660394
Si Si5 0.364801 0.348518 0.016197
Si Si6 0.457794 0.366093 0.447114
Si Si7 0.919781 0.360866 0.319265
Si Si8 0.875603 0.910469 0.020059
O O1 0.572187 0.302065 0.220453
O O2 0.721254 0.019497 0.023988
O O3 0.919563 0.146004 0.799703
O O4 0.543790 0.241857 0.981644
O O5 0.904814 0.775283 0.492261
O O6 0.000000 0.000000 0.500000
O O7 0.683902 0.041313 0.554370
O O8 0.000000 0.500000 0.500000
O O9 0.826182 0.344005 0.522188
O O10 0.735364 0.477980 0.841781
O O11 0.417998 0.313788 0.820967
O O12 0.500629 0.232955 0.503720
O O13 0.722876 0.866972 0.209162
O O14 0.167507 0.309607 0.161534
O O15 0.500000 0.500000 0.500000
O O16 0.203480 0.464284 0.613214
O O17 0.931410 0.243039 0.186381
O O18 0.000000 0.000000 0.000000
#
# Coordination Sequence:
#
# PCOD9043845 Si02
#       8
#     2   2   2   2   2   2   2   2
#     4  12  27  47  77 115 160 212 268 335 406 481
#     4  12  27  47  82 122 168 209 275 344 408 492
#     4  10  23  45  77 116 154 201 266 338 410 469
#     4  11  29  51  81 117 161 222 273 332 421 488
#     4  10  23  46  79 118 150 202 276 337 408 477
#     4  12  29  49  77 114 169 217 267 332 411 501
#     4  10  23  46  79 111 157 201 269 337 415 471
#     4  11  27  51  75 113 164 215 273 337 409 494
#
# _framework density 25.583727
#
# number of rings (size 3 to 8) (size 9 to 14) (size 15 to 20)
#    0.000    1.000    2.500    1.500   10.500    4.000 
#    4.500    0.000    0.000    0.000    0.000    0.000 
#    0.000    0.000    0.000    0.000    0.000    0.000 
#
# Total GULP energy -89566.805535 kJ/mol
# GULP energy per Si atom -5597.925346 kJ/mol
# Density = 2.552550 g / cm^3
# Si number density = 25.583727 Si / 1000 Ang^3
#
#
#
# Elastic Constant Matrix: (Units=GPa)
#
#
# Indices 1 2 3 4 5 6 
#
# 1 110.8070 36.2815 49.6118 0.6333 -5.2158 2.3436
# 2 36.2815 138.1996 30.5328 14.9879 -1.9937 -3.4860
# 3 49.6118 30.5328 150.2143 23.1401 10.1988 16.2312
# 4 0.6333 14.9879 23.1401 48.6905 -5.6370 -8.5998
# 5 -5.2158 -1.9937 10.1988 -5.6370 32.7920 -2.2209
# 6 2.3436 -3.4860 16.2312 -8.5998 -2.2209 42.2467
#
#
#
# Elastic Compliance Matrix: (Units=1/GPa)
#
#
# Indices 1 2 3 4 5 6 
#
# 1 0.011925 -0.002428 -0.004424 0.003446 0.003835 0.001741
# 2 -0.002428 0.008254 -0.000618 -0.002107 -0.000012 0.000624
# 3 -0.004424 -0.000618 0.010102 -0.006083 -0.005281 -0.005203
# 4 0.003446 -0.002107 -0.006083 0.026243 0.007345 0.007700
# 5 0.003835 -0.000012 -0.005281 0.007345 0.034356 0.005117
# 6 0.001741 0.000624 -0.005203 0.007700 0.005117 0.027461
#
#
# Mechanical properties :
#
#
# Convention : Reuss Voigt Hill
#
# Bulk Modulus (GPa) = 65.18757 70.23035 67.70896
# Shear Modulus (GPa) = 36.12886 43.59882 39.86384
#
# Velocity S-wave (km/s) = 3.76198 4.13263 3.95165
# Velocity P-wave (km/s) = 6.66373 7.09100 6.88068
#
# Compressibility (1/GPa) = 0.01534035
#
# Stress axis : x y z
#
# Youngs Moduli (GPa) = 83.86088 121.15669 98.99114
#
# Poissons Ratio (x) = 0.29412 0.43798
# Poissons Ratio (y) = 0.20358 0.06117
# Poissons Ratio (z) = 0.37103 0.07487
#
# Static dielectric constant tensor:
#      x y z
#    x 2.260800 0.008440 0.113920 
#    y 0.008440 1.982890 0.010810 
#    z 0.113920 0.010810 2.094850 
# 
# From -- ./inp_files/262452.got.cif
#   From: 2010.05.17/outbox.cif.g08.bks.cpg/sg2_132_cif.got.tgz:262452.got - 2010.06.03 11:33:40.
