data_PCOD9043595
_publ_section_title
;
Structure prediction by ZEFSAII (Michael W. Deem and Ramdas Pophale) SiO2 
 PCOD9043595
Probable space group: P -1
;
_chemical_formula_sum "Si O2"
_cell_formula_units_Z 16
_cell_length_a 11.596060
_cell_length_b 15.272480
_cell_length_c 14.572796
_cell_angle_alpha 18.397390
_cell_angle_beta 116.680825
_cell_angle_gamma 118.097568
_cell_volume 718.515654
_symmetry_space_group_name_H-M "P -1"
_symmetry_group_IT_number 2
_symmetry_cell_setting 'triclinic'
loop_
_space_group_symop_operation_xyz
x,y,z
-x,-y,-z
loop_
_atom_site_type_symbol
_atom_site_label
_atom_site_fract_x
_atom_site_fract_y
_atom_site_fract_z
Si Si1 0.844692 0.294752 0.963556
Si Si2 0.406649 0.560514 0.674632
Si Si3 0.414278 0.853953 0.870265
Si Si4 0.991390 0.859815 0.536756
Si Si5 0.034437 0.762730 0.125914
Si Si6 0.373528 0.286040 0.131343
Si Si7 0.138572 0.814472 0.304796
Si Si8 0.722120 0.271719 0.249598
O O1 0.889457 0.579761 0.754201
O O2 0.868557 0.303667 0.854250
O O3 0.701182 0.165244 0.077464
O O4 0.946347 0.091176 0.227238
O O5 0.371563 0.368310 0.943512
O O6 0.279196 0.709365 0.464352
O O7 0.520292 0.831316 0.446433
O O8 0.476950 0.331764 0.871836
O O9 0.347249 0.739694 0.862984
O O10 0.134039 0.793885 0.637825
O O11 0.000000 0.000000 0.500000
O O12 0.960555 0.461581 0.429323
O O13 0.117808 0.898599 0.107999
O O14 0.916200 0.949364 0.887033
O O15 0.263346 0.417319 0.014487
O O16 0.500000 0.500000 0.000000
O O17 0.357138 0.963341 0.476292
#
# Coordination Sequence:
#
# PCOD9043595 Si02
#       8
#     2   2   2   2   2   2   2   2
#     4  12  26  43  66  97 129 177 223 265 326 391
#     4  12  25  40  64  97 126 175 219 262 328 392
#     4  12  24  42  62  88 138 175 215 263 319 383
#     4  12  26  41  63  93 131 175 224 265 319 382
#     4  10  23  46  71  99 129 166 208 279 340 388
#     4  12  23  38  58  85 125 170 216 258 315 380
#     4  10  23  45  72  98 132 161 211 279 341 388
#     4  12  24  39  56  87 127 169 214 271 313 365
#
# _framework density 22.268129999999999
#
# number of rings (size 3 to 8) (size 9 to 14) (size 15 to 20)
#    0.000    0.500    3.750    4.500    7.000    0.000 
#    0.000    1.250    0.000    0.000    0.000    0.000 
#    0.000    0.000    0.000    0.000    0.000    0.000 
#
# Total GULP energy -89245.084426 kJ/mol
# GULP energy per Si atom -5577.817777 kJ/mol
# Density = 2.221745 g / cm^3
# Si number density = 22.268130 Si / 1000 Ang^3
#
#
#
# Elastic Constant Matrix: (Units=GPa)
#
#
# Indices 1 2 3 4 5 6 
#
# 1 141.1593 35.9858 25.7566 19.2154 3.4627 -6.4398
# 2 35.9858 54.4108 4.8788 -0.1369 -4.9974 -24.7212
# 3 25.7566 4.8788 108.4025 -6.3440 10.9598 0.3868
# 4 19.2154 -0.1369 -6.3440 27.2879 5.7960 11.3306
# 5 3.4627 -4.9974 10.9598 5.7960 41.7454 0.1853
# 6 -6.4398 -24.7212 0.3868 11.3306 0.1853 33.6535
#
#
#
# Elastic Compliance Matrix: (Units=1/GPa)
#
#
# Indices 1 2 3 4 5 6 
#
# 1 0.010328 -0.006757 -0.002616 -0.007799 0.000106 -0.000332
# 2 -0.006757 0.036328 -0.001256 -0.008395 0.006280 0.028199
# 3 -0.002616 -0.001256 0.010674 0.006655 -0.003643 -0.003767
# 4 -0.007799 -0.008395 0.006655 0.056885 -0.009884 -0.026833
# 5 0.000106 0.006280 -0.003643 -0.009884 0.026992 0.007854
# 6 -0.000332 0.028199 -0.003767 -0.026833 0.007854 0.059400
#
#
# Mechanical properties :
#
#
# Convention : Reuss Voigt Hill
#
# Bulk Modulus (GPa) = 27.72217 48.57945 38.15081
# Shear Modulus (GPa) = 21.37780 36.36078 28.86929
#
# Velocity S-wave (km/s) = 3.10178 4.04525 3.60452
# Velocity P-wave (km/s) = 5.03034 6.60922 5.87308
#
# Compressibility (1/GPa) = 0.03607222
#
# Stress axis : x y z
#
# Youngs Moduli (GPa) = 96.82475 27.52725 93.68403
#
# Poissons Ratio (x) = 0.18599 0.24506
# Poissons Ratio (y) = 0.65421 0.11770
# Poissons Ratio (z) = 0.25327 0.03458
#
# Static dielectric constant tensor:
#      x y z
#    x 1.913200 -0.043180 0.020660 
#    y -0.043180 1.752520 0.022420 
#    z 0.020660 0.022420 1.791790 
# 
# From -- ./inp_files/522087.got.cif
#   From: 2010.05.17/outbox.cif.g08.bks.cpg/sg2_262_cif.got.tgz:522087.got - 2010.06.03 11:33:40.
