data_PCOD9043763
_publ_section_title
;
Structure prediction by ZEFSAII (Michael W. Deem and Ramdas Pophale) SiO2 
 PCOD9043763
Probable space group: P -1
;
_chemical_formula_sum "Si O2"
_cell_formula_units_Z 16
_cell_length_a 20.289926
_cell_length_b 5.261547
_cell_length_c 9.145761
_cell_angle_alpha 119.010446
_cell_angle_beta 53.231073
_cell_angle_gamma 124.878220
_cell_volume 626.327615
_symmetry_space_group_name_H-M "P -1"
_symmetry_group_IT_number 2
_symmetry_cell_setting 'triclinic'
loop_
_space_group_symop_operation_xyz
x,y,z
-x,-y,-z
loop_
_atom_site_type_symbol
_atom_site_label
_atom_site_fract_x
_atom_site_fract_y
_atom_site_fract_z
Si Si1 0.938215 0.729107 0.614695
Si Si2 0.229004 0.273286 0.323571
Si Si3 0.235985 0.762836 0.960273
Si Si4 0.875585 0.959110 0.019306
Si Si5 0.517184 0.683589 0.876671
Si Si6 0.327213 0.957175 0.418071
Si Si7 0.417688 0.107419 0.648935
Si Si8 0.869900 0.083466 0.377215
O O1 0.835539 0.677603 0.698571
O O2 0.930251 0.380853 0.480749
O O3 0.947999 0.892819 0.804954
O O4 0.000000 0.000000 0.500000
O O5 0.316662 0.597122 0.306720
O O6 0.171169 0.203568 0.531485
O O7 0.241148 0.967231 0.157387
O O8 0.197761 0.393366 0.944205
O O9 0.169815 0.839600 0.954971
O O10 0.333861 0.876453 0.791103
O O11 0.913748 0.098180 0.165502
O O12 0.453596 0.447121 0.774001
O O13 0.618735 0.809915 0.716798
O O14 0.500000 0.500000 0.000000
O O15 0.500000 0.000000 0.000000
O O16 0.225056 0.912294 0.546729
O O17 0.379311 0.097916 0.536001
O O18 0.500000 0.000000 0.500000
#
# Coordination Sequence:
#
# PCOD9043763 Si02
#       8
#     2   2   2   2   2   2   2   2
#     4  10  24  46  71 111 150 183 237 300 362 435
#     4  10  23  45  75 102 139 196 238 297 363 439
#     4  11  24  45  70 102 143 189 249 297 354 450
#     4  11  24  45  73 105 142 196 243 288 364 435
#     4  12  29  48  67  99 141 188 244 308 381 432
#     4  11  25  45  67  98 137 185 246 297 359 441
#     4  12  27  45  72 104 145 190 246 319 379 423
#     4  11  23  43  74 100 140 194 239 291 358 434
#
# _framework density 25.545736000000002
#
# number of rings (size 3 to 8) (size 9 to 14) (size 15 to 20)
#    0.000    1.000    2.500    2.625    8.750    3.000 
#    0.000    0.625    0.000    0.000    0.000    0.000 
#    0.000    0.000    0.000    0.000    0.000    0.000 
#
# Total GULP energy -89619.441902 kJ/mol
# GULP energy per Si atom -5601.215119 kJ/mol
# Density = 2.548759 g / cm^3
# Si number density = 25.545736 Si / 1000 Ang^3
#
#
#
# Elastic Constant Matrix: (Units=GPa)
#
#
# Indices 1 2 3 4 5 6 
#
# 1 101.9093 20.8079 35.7050 13.9377 32.6832 17.6396
# 2 20.8079 134.0981 25.9835 -15.9981 26.2200 3.6504
# 3 35.7050 25.9835 150.3583 -16.8691 22.3671 10.7629
# 4 13.9377 -15.9981 -16.8691 45.6588 3.7056 7.5290
# 5 32.6832 26.2200 22.3671 3.7056 51.5211 6.8257
# 6 17.6396 3.6504 10.7629 7.5290 6.8257 34.6155
#
#
#
# Elastic Compliance Matrix: (Units=1/GPa)
#
#
# Indices 1 2 3 4 5 6 
#
# 1 0.014311 -0.000835 -0.002439 -0.004327 -0.006730 -0.004178
# 2 -0.000835 0.008888 -0.000291 0.003660 -0.004076 -0.000414
# 3 -0.002439 -0.000291 0.008151 0.004102 -0.001902 -0.001777
# 4 -0.004327 0.003660 0.004102 0.027006 -0.002192 -0.004898
# 5 -0.006730 -0.004076 -0.001902 -0.002192 0.026783 -0.000354
# 6 -0.004178 -0.000414 -0.001777 -0.004898 -0.000354 0.032749
#
#
# Mechanical properties :
#
#
# Convention : Reuss Voigt Hill
#
# Bulk Modulus (GPa) = 41.28883 61.26205 51.27544
# Shear Modulus (GPa) = 37.56798 46.61703 42.09251
#
# Velocity S-wave (km/s) = 3.83902 4.27646 4.06363
# Velocity P-wave (km/s) = 5.98737 6.95827 6.49100
#
# Compressibility (1/GPa) = 0.02421962
#
# Stress axis : x y z
#
# Youngs Moduli (GPa) = 69.87599 112.51041 122.68786
#
# Poissons Ratio (x) = 0.09390 0.29929
# Poissons Ratio (y) = 0.05832 0.03572
# Poissons Ratio (z) = 0.17046 0.03276
#
# Static dielectric constant tensor:
#      x y z
#    x 2.035280 -0.028120 -0.036700 
#    y -0.028120 1.960700 0.055050 
#    z -0.036700 0.055050 2.062000 
# 
# From -- ./inp_files/47568.got.cif
#   From: 2010.05.17/outbox.cif.g08.bks.cpg/sg2_24_cif.got.tgz:47568.got - 2010.06.03 11:33:40.
