data_PCOD9043662
_publ_section_title
;
Structure prediction by ZEFSAII (Michael W. Deem and Ramdas Pophale) SiO2 
 PCOD9043662
Probable space group: P -1
;
_chemical_formula_sum "Si O2"
_cell_formula_units_Z 14
_cell_length_a 12.444348
_cell_length_b 8.916893
_cell_length_c 11.630171
_cell_angle_alpha 92.325183
_cell_angle_beta 156.362427
_cell_angle_gamma 94.294985
_cell_volume 496.378839
_symmetry_space_group_name_H-M "P -1"
_symmetry_group_IT_number 2
_symmetry_cell_setting 'triclinic'
loop_
_space_group_symop_operation_xyz
x,y,z
-x,-y,-z
loop_
_atom_site_type_symbol
_atom_site_label
_atom_site_fract_x
_atom_site_fract_y
_atom_site_fract_z
Si Si1 0.289589 0.863968 0.218294
Si Si2 0.152836 0.097657 0.947851
Si Si3 0.736823 0.877137 0.186191
Si Si4 0.797843 0.584321 0.512156
Si Si5 0.258021 0.460527 0.856972
Si Si6 0.639810 0.889356 0.338875
Si Si7 0.385918 0.617490 0.468922
O O1 0.424096 0.829618 0.229178
O O2 0.231042 0.717459 0.240656
O O3 0.500000 0.000000 0.500000
O O4 0.085837 0.958439 0.971639
O O5 0.334398 0.077714 0.010855
O O6 0.350470 0.251286 0.208526
O O7 0.846347 0.057745 0.587333
O O8 0.832959 0.723920 0.248182
O O9 0.537573 0.857314 0.102859
O O10 0.000000 0.000000 0.500000
O O11 0.001874 0.532498 0.621154
O O12 0.832478 0.766565 0.533872
O O13 0.828874 0.493820 0.656130
O O14 0.463790 0.513879 0.167573
O O15 0.500000 0.500000 0.000000
O O16 0.500000 0.500000 0.500000
#
# Coordination Sequence:
#
# PCOD9043662 Si02
#       7
#     2   2   2   2   2   2   2
#     4  10  24  45  70 104 154 200 265 318 391 457
#     4  10  24  46  71 107 149 204 253 332 391 467
#     4  10  23  45  73 110 150 199 260 322 396 476
#     4  12  27  48  77 115 161 203 268 324 401 467
#     4  12  26  50  77 114 161 206 255 334 399 472
#     4  11  24  44  73 113 150 204 261 320 403 475
#     4  11  23  47  74 111 154 208 270 324 388 469
#
# _framework density 28.204266000000001
#
# number of rings (size 3 to 8) (size 9 to 14) (size 15 to 20)
#    0.000    1.143    4.286    0.429    2.000    7.429 
#    5.143    1.429    0.000    0.000    0.000    0.000 
#    0.000    0.000    0.000    0.000    0.000    0.000 
#
# Total GULP energy -78143.746315 kJ/mol
# GULP energy per Si atom -5581.696165 kJ/mol
# Density = 2.814007 g / cm^3
# Si number density = 28.204266 Si / 1000 Ang^3
#
#
#
# Elastic Constant Matrix: (Units=GPa)
#
#
# Indices 1 2 3 4 5 6 
#
# 1 194.7225 34.5472 20.3015 -13.5262 -24.1525 3.1022
# 2 34.5472 79.2569 17.2421 20.4313 -14.8743 25.8211
# 3 20.3015 17.2421 154.6851 14.2309 -15.7410 -7.2351
# 4 -13.5262 20.4313 14.2309 46.8030 -4.7693 -22.0509
# 5 -24.1525 -14.8743 -15.7410 -4.7693 54.1926 -8.7595
# 6 3.1022 25.8211 -7.2351 -22.0509 -8.7595 67.1006
#
#
#
# Elastic Compliance Matrix: (Units=1/GPa)
#
#
# Indices 1 2 3 4 5 6 
#
# 1 0.006947 -0.005687 -0.000433 0.007016 0.002752 0.004485
# 2 -0.005687 0.025996 -0.001061 -0.020523 -0.000201 -0.016626
# 3 -0.000433 -0.001061 0.006955 -0.001136 0.001599 0.001014
# 4 0.007016 -0.020523 -0.001136 0.043739 0.004639 0.022430
# 5 0.002752 -0.000201 0.001599 0.004639 0.021210 0.004416
# 6 0.004485 -0.016626 0.001014 0.022430 0.004416 0.029150
#
#
# Mechanical properties :
#
#
# Convention : Reuss Voigt Hill
#
# Bulk Modulus (GPa) = 39.16355 63.64957 51.40656
# Shear Modulus (GPa) = 31.87301 57.39082 44.63192
#
# Velocity S-wave (km/s) = 3.36531 4.51580 3.98232
# Velocity P-wave (km/s) = 5.38667 7.05736 6.27784
#
# Compressibility (1/GPa) = 0.02553395
#
# Stress axis : x y z
#
# Youngs Moduli (GPa) = 143.94878 38.46678 143.78923
#
# Poissons Ratio (x) = 0.21877 0.06233
# Poissons Ratio (y) = 0.81868 0.15260
# Poissons Ratio (z) = 0.06239 0.04082
#
# Static dielectric constant tensor:
#      x y z
#    x 2.396310 0.144130 -0.107010 
#    y 0.144130 2.405680 -0.127900 
#    z -0.107010 -0.127900 2.356890 
# 
# From -- ./inp_files/447573.got.cif
#   From: 2010.05.17/outbox.cif.g08.bks.cpg/sg2_224_cif.got.tgz:447573.got - 2010.06.03 11:33:40.
