data_PCOD9043850
_publ_section_title
;
Structure prediction by ZEFSAII (Michael W. Deem and Ramdas Pophale) SiO2 
 PCOD9043850
Probable space group: P -1
;
_chemical_formula_sum "Si O2"
_cell_formula_units_Z 16
_cell_length_a 7.599821
_cell_length_b 11.365527
_cell_length_c 8.492033
_cell_angle_alpha 111.987171
_cell_angle_beta 111.696922
_cell_angle_gamma 92.536771
_cell_volume 617.602106
_symmetry_space_group_name_H-M "P -1"
_symmetry_group_IT_number 2
_symmetry_cell_setting 'triclinic'
loop_
_space_group_symop_operation_xyz
x,y,z
-x,-y,-z
loop_
_atom_site_type_symbol
_atom_site_label
_atom_site_fract_x
_atom_site_fract_y
_atom_site_fract_z
Si Si1 0.898965 0.791876 0.865886
Si Si2 0.671124 0.350550 0.209199
Si Si3 0.727250 0.298000 0.538188
Si Si4 0.975855 0.554377 0.850994
Si Si5 0.684921 0.881880 0.359712
Si Si6 0.369540 0.102429 0.974237
Si Si7 0.318658 0.348204 0.558708
Si Si8 0.759729 0.102831 0.730730
O O1 0.095548 0.860196 0.055710
O O2 0.749148 0.880150 0.900718
O O3 0.859014 0.725798 0.647619
O O4 0.841366 0.657157 0.876488
O O5 0.717677 0.268060 0.335446
O O6 0.829770 0.375220 0.136570
O O7 0.486063 0.246790 0.037909
O O8 0.658526 0.497312 0.330573
O O9 0.516879 0.323461 0.532174
O O10 0.788907 0.205930 0.645115
O O11 0.878610 0.433414 0.656295
O O12 0.000000 0.500000 0.000000
O O13 0.701157 0.735618 0.330469
O O14 0.461267 0.899847 0.292280
O O15 0.770906 0.969321 0.581163
O O16 0.764987 0.934556 0.242891
O O17 0.500000 0.000000 0.000000
#
# Coordination Sequence:
#
# PCOD9043850 Si02
#       8
#     2   2   2   2   2   2   2   2
#     4  12  25  47  71 111 143 193 249 312 367 439
#     4  12  25  46  75 109 150 196 244 308 376 439
#     4  11  21  44  70 104 149 194 236 306 369 437
#     4  12  26  44  71 110 151 192 252 308 364 441
#     4  10  25  47  70 108 144 201 250 295 382 438
#     4  12  28  49  75 108 148 196 253 307 372 446
#     4  11  25  44  75 111 149 193 246 308 371 453
#     4  10  23  45  77  99 152 195 244 310 364 447
#
# _framework density 25.906647
#
# number of rings (size 3 to 8) (size 9 to 14) (size 15 to 20)
#    0.000    0.750    3.750    3.000    7.000    1.500 
#    2.250    0.000    0.000    0.000    0.000    0.000 
#    0.000    0.000    0.000    0.000    0.000    0.000 
#
# Total GULP energy -89434.859913 kJ/mol
# GULP energy per Si atom -5589.678745 kJ/mol
# Density = 2.584768 g / cm^3
# Si number density = 25.906647 Si / 1000 Ang^3
#
#
#
# Elastic Constant Matrix: (Units=GPa)
#
#
# Indices 1 2 3 4 5 6 
#
# 1 86.4758 29.0587 20.4434 0.0805 -0.9222 0.8955
# 2 29.0587 159.9303 35.6087 -1.3789 -5.4344 -11.5961
# 3 20.4434 35.6087 132.8838 3.9043 6.2141 -2.7334
# 4 0.0805 -1.3789 3.9043 45.3047 4.5336 -1.9899
# 5 -0.9222 -5.4344 6.2141 4.5336 38.0631 -1.1574
# 6 0.8955 -11.5961 -2.7334 -1.9899 -1.1574 33.0101
#
#
#
# Elastic Compliance Matrix: (Units=1/GPa)
#
#
# Indices 1 2 3 4 5 6 
#
# 1 0.012604 -0.002052 -0.001422 -0.000035 0.000213 -0.001175
# 2 -0.002052 0.007220 -0.001637 0.000347 0.001284 0.002522
# 3 -0.001422 -0.001637 0.008274 -0.000603 -0.001545 0.000058
# 4 -0.000035 0.000347 -0.000603 0.022443 -0.002485 0.001339
# 5 0.000213 0.001284 -0.001545 -0.002485 0.027043 0.001116
# 6 -0.001175 0.002522 0.000058 0.001339 0.001116 0.031336
#
#
# Mechanical properties :
#
#
# Convention : Reuss Voigt Hill
#
# Bulk Modulus (GPa) = 55.94402 61.05683 58.50042
# Shear Modulus (GPa) = 39.96777 42.88753 41.42765
#
# Velocity S-wave (km/s) = 3.93206 4.07315 4.00323
# Velocity P-wave (km/s) = 6.50047 6.76313 6.63310
#
# Compressibility (1/GPa) = 0.01787501
#
# Stress axis : x y z
#
# Youngs Moduli (GPa) = 79.33926 138.51293 120.85870
#
# Poissons Ratio (x) = 0.28419 0.17191
# Poissons Ratio (y) = 0.16278 0.19788
# Poissons Ratio (z) = 0.11285 0.22679
#
# Static dielectric constant tensor:
#      x y z
#    x 2.102590 -0.024480 0.002230 
#    y -0.024480 2.015140 0.013690 
#    z 0.002230 0.013690 2.267080 
# 
# From -- ./inp_files/189422.got.cif
#   From: 2010.05.17/outbox.cif.g08.bks.cpg/sg2_95_cif.got.tgz:189422.got - 2010.06.03 11:33:40.
