data_PCOD9043016
_publ_section_title
;
Structure prediction by ZEFSAII (Michael W. Deem and Ramdas Pophale) SiO2 
 PCOD9043016
Probable space group: P -1
;
_chemical_formula_sum "Si O2"
_cell_formula_units_Z 16
_cell_length_a 15.271500
_cell_length_b 9.385599
_cell_length_c 11.704322
_cell_angle_alpha 140.411178
_cell_angle_beta 107.516078
_cell_angle_gamma 48.455939
_cell_volume 718.339027
_symmetry_space_group_name_H-M "P -1"
_symmetry_group_IT_number 2
_symmetry_cell_setting 'triclinic'
loop_
_space_group_symop_operation_xyz
x,y,z
-x,-y,-z
loop_
_atom_site_type_symbol
_atom_site_label
_atom_site_fract_x
_atom_site_fract_y
_atom_site_fract_z
Si Si1 0.691006 0.604818 0.121674
Si Si2 0.937803 0.691476 0.788307
Si Si3 0.459207 0.666716 0.464999
Si Si4 0.009577 0.883796 0.126548
Si Si5 0.375389 0.360648 0.131890
Si Si6 0.146024 0.412251 0.516317
Si Si7 0.370455 0.356352 0.638516
Si Si8 0.087272 0.664639 0.264329
O O1 0.674223 0.492834 0.160787
O O2 0.631754 0.957543 0.329219
O O3 0.843059 0.356927 0.005038
O O4 0.622570 0.628034 0.997126
O O5 0.848909 0.786326 0.701345
O O6 0.914935 0.538874 0.777378
O O7 0.080726 0.444730 0.629685
O O8 0.931694 0.917677 0.008775
O O9 0.500000 0.500000 0.500000
O O10 0.387518 0.588455 0.325757
O O11 0.588653 0.522149 0.357895
O O12 0.018379 0.739331 0.160792
O O13 0.954908 0.223208 0.341324
O O14 0.236251 0.490605 0.193082
O O15 0.500000 0.000000 0.000000
O O16 0.274662 0.333885 0.537259
O O17 0.500000 0.000000 0.500000
O O18 0.000000 0.000000 0.500000
#
# Coordination Sequence:
#
# PCOD9043016 Si02
#       8
#     2   2   2   2   2   2   2   2
#     4  10  23  45  67  99 138 171 231 285 337 412
#     4  11  24  42  69 100 133 182 221 282 353 403
#     4  11  24  43  72  93 135 187 222 276 350 393
#     4  11  23  44  68  99 139 175 225 286 344 410
#     4  11  25  45  69 100 137 181 235 285 333 415
#     4  11  24  44  68 100 138 173 230 285 342 412
#     4  10  24  45  68  98 135 182 226 283 340 411
#     4  11  25  43  68 102 141 177 230 291 347 411
#
# _framework density 22.273603999999999
#
# number of rings (size 3 to 8) (size 9 to 14) (size 15 to 20)
#    0.000    1.250    3.750    0.750    3.500    1.500 
#    2.250    0.000    0.000    0.000    0.000    0.000 
#    0.000    0.000    0.000    0.000    0.000    0.000 
#
# Total GULP energy -89377.393293 kJ/mol
# GULP energy per Si atom -5586.087081 kJ/mol
# Density = 2.222291 g / cm^3
# Si number density = 22.273604 Si / 1000 Ang^3
#
#
#
# Elastic Constant Matrix: (Units=GPa)
#
#
# Indices 1 2 3 4 5 6 
#
# 1 117.6664 69.5972 21.4842 -8.5424 1.0394 26.2955
# 2 69.5972 127.1440 44.6995 -37.0979 -8.4633 -1.1280
# 3 21.4842 44.6995 103.4919 -23.6227 8.2843 -6.7602
# 4 -8.5424 -37.0979 -23.6227 43.1557 -6.9364 -14.4816
# 5 1.0394 -8.4633 8.2843 -6.9364 36.5175 -9.2891
# 6 26.2955 -1.1280 -6.7602 -14.4816 -9.2891 35.6049
#
#
#
# Elastic Compliance Matrix: (Units=1/GPa)
#
#
# Indices 1 2 3 4 5 6 
#
# 1 0.065438 -0.064334 -0.008890 -0.091828 -0.058845 -0.104756
# 2 -0.064334 0.076879 0.005927 0.104468 0.066351 0.110875
# 3 -0.008890 0.005927 0.013763 0.018139 0.006650 0.018479
# 4 -0.091828 0.104468 0.018139 0.179296 0.100989 0.173844
# 5 -0.058845 0.066351 0.006650 0.100989 0.090474 0.111504
# 6 -0.104756 0.110875 0.018479 0.173844 0.111504 0.212272
#
#
# Mechanical properties :
#
#
# Convention : Reuss Voigt Hill
#
# Bulk Modulus (GPa) = 46.54399 68.87379 57.70889
# Shear Modulus (GPa) = 6.41125 37.22372 21.81749
#
# Velocity S-wave (km/s) = 1.69843 4.09247 3.13313
# Velocity P-wave (km/s) = 4.97876 7.30205 6.24932
#
# Compressibility (1/GPa) = 0.02148505
#
# Stress axis : x y z
#
# Youngs Moduli (GPa) = 15.28172 13.00745 72.65699
#
# Poissons Ratio (x) = 0.83682 0.64593
# Poissons Ratio (y) = 0.98314 -0.43062
# Poissons Ratio (z) = 0.13586 -0.07709
#
# Static dielectric constant tensor:
#      x y z
#    x 1.836900 0.000410 -0.044740 
#    y 0.000410 1.836970 -0.020880 
#    z -0.044740 -0.020880 1.862060 
# 
# From -- ./inp_files/271749.got.cif
#   From: 2010.05.17/outbox.cif.g08.bks.cpg/sg2_136_cif.got.tgz:271749.got - 2010.06.03 11:33:40.
