data_PCOD9043826
_publ_section_title
;
Structure prediction by ZEFSAII (Michael W. Deem and Ramdas Pophale) SiO2 
 PCOD9043826
Probable space group: P -1
;
_chemical_formula_sum "Si O2"
_cell_formula_units_Z 12
_cell_length_a 7.673196
_cell_length_b 9.569134
_cell_length_c 8.631386
_cell_angle_alpha 125.296754
_cell_angle_beta 72.330548
_cell_angle_gamma 82.599849
_cell_volume 453.592956
_symmetry_space_group_name_H-M "P -1"
_symmetry_group_IT_number 2
_symmetry_cell_setting 'triclinic'
loop_
_space_group_symop_operation_xyz
x,y,z
-x,-y,-z
loop_
_atom_site_type_symbol
_atom_site_label
_atom_site_fract_x
_atom_site_fract_y
_atom_site_fract_z
Si Si1 0.441660 0.155563 0.982807
Si Si2 0.772187 0.137022 0.636785
Si Si3 0.260156 0.480059 0.472655
Si Si4 0.494613 0.714186 0.453302
Si Si5 0.021220 0.190574 0.071092
Si Si6 0.823017 0.428881 0.993059
O O1 0.627064 0.119961 0.798595
O O2 0.356749 0.354456 0.217732
O O3 0.249639 0.147405 0.945689
O O4 0.500000 0.000000 0.000000
O O5 0.670035 0.121383 0.492736
O O6 0.793467 0.333747 0.784178
O O7 0.000000 0.000000 0.500000
O O8 0.366354 0.627455 0.531054
O O9 0.327031 0.325798 0.495693
O O10 0.042759 0.638227 0.674655
O O11 0.619204 0.592118 0.198643
O O12 0.879758 0.277156 0.018612
O O13 0.000000 0.000000 0.000000
O O14 0.000000 0.500000 0.000000
#
# Coordination Sequence:
#
# PCOD9043826 Si02
#       6
#     2   2   2   2   2   2
#     4  12  27  47  75 112 148 198 254 305 373 451
#     4  12  28  47  72 109 152 197 244 312 370 447
#     4  10  24  46  79 104 142 200 242 311 371 446
#     4  10  23  45  76  99 144 185 254 293 380 429
#     4  11  26  46  76 110 149 189 252 313 376 450
#     4  11  24  45  71 104 142 194 248 307 376 442
#
# _framework density 26.455438000000001
#
# number of rings (size 3 to 8) (size 9 to 14) (size 15 to 20)
#    0.000    1.000    1.667    3.000   11.667    2.667 
#    0.000    3.333    0.000    0.000    0.000    0.000 
#    0.000    0.000    0.000    0.000    0.000    0.000 
#
# Total GULP energy -67035.446288 kJ/mol
# GULP energy per Si atom -5586.287191 kJ/mol
# Density = 2.639522 g / cm^3
# Si number density = 26.455438 Si / 1000 Ang^3
#
#
#
# Elastic Constant Matrix: (Units=GPa)
#
#
# Indices 1 2 3 4 5 6 
#
# 1 111.8530 42.4627 63.8327 4.5708 -46.1248 -3.5817
# 2 42.4627 140.9548 48.4150 -4.3841 -8.4134 -21.9965
# 3 63.8327 48.4150 177.4001 9.8749 -12.2389 -1.0695
# 4 4.5708 -4.3841 9.8749 28.6369 9.5407 -3.1472
# 5 -46.1248 -8.4134 -12.2389 9.5407 52.3245 2.7819
# 6 -3.5817 -21.9965 -1.0695 -3.1472 2.7819 47.6707
#
#
#
# Elastic Compliance Matrix: (Units=1/GPa)
#
#
# Indices 1 2 3 4 5 6 
#
# 1 0.021247 -0.004283 -0.004706 -0.008883 0.018674 -0.002162
# 2 -0.004283 0.009539 -0.001530 0.004384 -0.003641 0.004547
# 3 -0.004706 -0.001530 0.007666 -0.001457 -0.002291 -0.000850
# 4 -0.008883 0.004384 -0.001457 0.043278 -0.015628 0.005092
# 5 0.018674 -0.003641 -0.002291 -0.015628 0.037490 -0.003548
# 6 -0.002162 0.004547 -0.000850 0.005092 -0.003548 0.023437
#
#
# Mechanical properties :
#
#
# Convention : Reuss Voigt Hill
#
# Bulk Modulus (GPa) = 57.42929 82.18097 69.80513
# Shear Modulus (GPa) = 29.49865 44.09292 36.79578
#
# Velocity S-wave (km/s) = 3.34283 4.08694 3.73347
# Velocity P-wave (km/s) = 6.05429 7.30767 6.71031
#
# Compressibility (1/GPa) = 0.01741272
#
# Stress axis : x y z
#
# Youngs Moduli (GPa) = 47.06638 104.83366 130.44785
#
# Poissons Ratio (x) = 0.44900 0.61393
# Poissons Ratio (y) = 0.20159 0.19958
# Poissons Ratio (z) = 0.22151 0.16039
#
# Static dielectric constant tensor:
#      x y z
#    x 2.273050 -0.122730 0.021560 
#    y -0.122730 2.270660 0.121400 
#    z 0.021560 0.121400 2.169900 
# 
# From -- ./inp_files/152358.got.cif
#   From: 2010.05.17/outbox.cif.g08.bks.cpg/sg2_77_cif.got.tgz:152358.got - 2010.06.03 11:33:40.
