data_PCOD9043292
_publ_section_title
;
Structure prediction by ZEFSAII (Michael W. Deem and Ramdas Pophale) SiO2 
 PCOD9043292
Probable space group: P -1
;
_chemical_formula_sum "Si O2"
_cell_formula_units_Z 14
_cell_length_a 9.881051
_cell_length_b 13.644616
_cell_length_c 22.818402
_cell_angle_alpha 156.426106
_cell_angle_beta 149.517613
_cell_angle_gamma 34.368522
_cell_volume 614.471482
_symmetry_space_group_name_H-M "P -1"
_symmetry_group_IT_number 2
_symmetry_cell_setting 'triclinic'
loop_
_space_group_symop_operation_xyz
x,y,z
-x,-y,-z
loop_
_atom_site_type_symbol
_atom_site_label
_atom_site_fract_x
_atom_site_fract_y
_atom_site_fract_z
Si Si1 0.769184 0.425559 0.020526
Si Si2 0.192583 0.065894 0.056347
Si Si3 0.437611 0.411658 0.616255
Si Si4 0.027413 0.671894 0.160529
Si Si5 0.803746 0.459990 0.290832
Si Si6 0.370401 0.620709 0.577391
Si Si7 0.686400 0.126986 0.711853
O O1 0.763114 0.215728 0.853046
O O2 0.500000 0.500000 0.000000
O O3 0.014476 0.303584 0.087293
O O4 0.806583 0.660530 0.122082
O O5 0.476735 0.142506 0.224586
O O6 0.223528 0.813620 0.891625
O O7 0.000000 0.000000 0.000000
O O8 0.710843 0.450480 0.771720
O O9 0.203836 0.555537 0.649800
O O10 0.437807 0.476249 0.584432
O O11 0.425899 0.123350 0.460616
O O12 0.087913 0.908509 0.275836
O O13 0.000000 0.500000 0.000000
O O14 0.545103 0.652865 0.277111
O O15 0.057500 0.584203 0.433400
O O16 0.500000 0.500000 0.500000
#
# Coordination Sequence:
#
# PCOD9043292 Si02
#       7
#     2   2   2   2   2   2   2
#     4  11  23  43  70  99 137 181 239 288 346 426
#     4  12  25  47  71 101 149 188 234 296 354 423
#     4  11  23  48  70 101 143 179 240 299 345 426
#     4   9  19  40  66  98 135 168 224 289 346 409
#     4  11  24  47  72 106 142 184 238 289 360 425
#     4  12  26  46  73 102 147 191 235 289 359 428
#     4  10  23  45  70 101 141 179 229 301 354 412
#
# _framework density 22.783805999999998
#
# number of rings (size 3 to 8) (size 9 to 14) (size 15 to 20)
#    0.000    1.143    2.857    3.857    0.000    0.571 
#   25.714    1.429    0.000    0.000    0.000    0.000 
#    0.000    0.000    0.000    0.000    0.000    0.000 
#
# Total GULP energy -78065.259783 kJ/mol
# GULP energy per Si atom -5576.089984 kJ/mol
# Density = 2.273195 g / cm^3
# Si number density = 22.783806 Si / 1000 Ang^3
#
#
#
# Elastic Constant Matrix: (Units=GPa)
#
#
# Indices 1 2 3 4 5 6 
#
# 1 191.1007 38.3006 55.9826 6.0970 18.2154 25.7307
# 2 38.3006 62.2363 47.5570 12.5310 1.6152 15.4812
# 3 55.9826 47.5570 135.1634 -5.1244 12.1131 -7.6326
# 4 6.0970 12.5310 -5.1244 37.0692 3.3189 -0.1803
# 5 18.2154 1.6152 12.1131 3.3189 47.5792 0.6167
# 6 25.7307 15.4812 -7.6326 -0.1803 0.6167 34.7525
#
#
#
# Elastic Compliance Matrix: (Units=1/GPa)
#
#
# Indices 1 2 3 4 5 6 
#
# 1 0.007204 -0.000263 -0.003116 -0.001396 -0.001782 -0.005877
# 2 -0.000263 0.033780 -0.013634 -0.013671 0.003612 -0.017983
# 3 -0.003116 -0.013634 0.014676 0.007453 -0.002752 0.011692
# 4 -0.001396 -0.013671 0.007453 0.033200 -0.003331 0.008992
# 5 -0.001782 0.003612 -0.002752 -0.003331 0.022527 -0.001311
# 6 -0.005877 -0.017983 0.011692 0.008992 -0.001311 0.043775
#
#
# Mechanical properties :
#
#
# Convention : Reuss Voigt Hill
#
# Bulk Modulus (GPa) = 46.22537 74.68676 60.45607
# Shear Modulus (GPa) = 25.45837 40.32420 32.89129
#
# Velocity S-wave (km/s) = 3.34636 4.21154 3.80363
# Velocity P-wave (km/s) = 5.93832 7.51673 6.77365
#
# Compressibility (1/GPa) = 0.02163314
#
# Stress axis : x y z
#
# Youngs Moduli (GPa) = 138.80784 29.60347 68.13994
#
# Poissons Ratio (x) = 0.00778 0.21235
# Poissons Ratio (y) = 0.03650 0.92901
# Poissons Ratio (z) = 0.43258 0.40361
#
# Static dielectric constant tensor:
#      x y z
#    x 1.905070 -0.040010 0.033260 
#    y -0.040010 1.877660 0.008510 
#    z 0.033260 0.008510 1.978410 
# 
# From -- ./inp_files/589292.got.cif
#   From: 2010.05.17/outbox.cif.g08.bks.cpg/sg2_295_cif.got.tgz:589292.got - 2010.06.03 11:33:40.
