data_PCOD9043412
_publ_section_title
;
Structure prediction by ZEFSAII (Michael W. Deem and Ramdas Pophale) SiO2 
 PCOD9043412
Probable space group: P -1
;
_chemical_formula_sum "Si O2"
_cell_formula_units_Z 14
_cell_length_a 11.819807
_cell_length_b 12.891360
_cell_length_c 5.152430
_cell_angle_alpha 118.181411
_cell_angle_beta 85.312546
_cell_angle_gamma 128.488137
_cell_volume 515.419924
_symmetry_space_group_name_H-M "P -1"
_symmetry_group_IT_number 2
_symmetry_cell_setting 'triclinic'
loop_
_space_group_symop_operation_xyz
x,y,z
-x,-y,-z
loop_
_atom_site_type_symbol
_atom_site_label
_atom_site_fract_x
_atom_site_fract_y
_atom_site_fract_z
Si Si1 0.880669 0.789189 0.678743
Si Si2 0.053785 0.732122 0.923222
Si Si3 0.542063 0.662373 0.257306
Si Si4 0.359998 0.582772 0.714639
Si Si5 0.846639 0.407141 0.601999
Si Si6 0.808580 0.948761 0.244777
Si Si7 0.676296 0.095679 0.558538
O O1 0.745149 0.604702 0.438201
O O2 0.976466 0.792637 0.896194
O O3 0.818298 0.865347 0.905606
O O4 0.013069 0.895395 0.564142
O O5 0.058781 0.637721 0.583574
O O6 0.934687 0.573746 0.930037
O O7 0.220298 0.861862 0.159012
O O8 0.483980 0.642761 0.535658
O O9 0.714048 0.816694 0.331538
O O10 0.500000 0.500000 0.000000
O O11 0.443535 0.666209 0.066435
O O12 0.256024 0.609016 0.628046
O O13 0.742908 0.262869 0.642915
O O14 0.720191 0.010471 0.280556
O O15 0.500000 0.000000 0.500000
#
# Coordination Sequence:
#
# PCOD9043412 Si02
#       7
#     2   2   2   2   2   2   2
#     4  10  23  48  71 109 142 201 251 320 369 452
#     4  10  23  45  71 100 141 189 256 300 375 441
#     4  12  26  50  72 112 150 203 253 312 386 457
#     4  11  26  47  80 107 150 198 259 315 376 458
#     4  10  23  45  71 101 138 195 244 307 365 451
#     4  11  25  45  72 107 154 189 253 307 395 439
#     4  12  26  43  68 110 146 194 239 316 384 461
#
# _framework density 27.162317000000002
#
# number of rings (size 3 to 8) (size 9 to 14) (size 15 to 20)
#    0.000    1.143    2.857    1.714    4.000    5.714 
#    2.571    0.000    0.000    0.000    0.000    0.000 
#    0.000    0.000    0.000    0.000    0.000    0.000 
#
# Total GULP energy -78402.981959 kJ/mol
# GULP energy per Si atom -5600.212997 kJ/mol
# Density = 2.710049 g / cm^3
# Si number density = 27.162317 Si / 1000 Ang^3
#
#
#
# Elastic Constant Matrix: (Units=GPa)
#
#
# Indices 1 2 3 4 5 6 
#
# 1 190.8441 45.6618 62.0448 8.1176 -6.3032 17.9202
# 2 45.6618 190.3619 33.8148 13.9140 -1.4816 16.9223
# 3 62.0448 33.8148 86.8525 2.4665 19.1035 1.5462
# 4 8.1176 13.9140 2.4665 28.5904 5.6504 4.5016
# 5 -6.3032 -1.4816 19.1035 5.6504 52.3774 10.3610
# 6 17.9202 16.9223 1.5462 4.5016 10.3610 50.8139
#
#
#
# Elastic Compliance Matrix: (Units=1/GPa)
#
#
# Indices 1 2 3 4 5 6 
#
# 1 0.007863 -0.000328 -0.006270 -0.001837 0.004042 -0.003134
# 2 -0.000328 0.006148 -0.002421 -0.002717 0.001699 -0.001964
# 3 -0.006270 -0.002421 0.018709 0.002433 -0.008702 0.004007
# 4 -0.001837 -0.002717 0.002433 0.037748 -0.005094 -0.000827
# 5 0.004042 0.001699 -0.008702 -0.005094 0.024594 -0.006290
# 6 -0.003134 -0.001964 0.004007 -0.000827 -0.006290 0.022673
#
#
# Mechanical properties :
#
#
# Convention : Reuss Voigt Hill
#
# Bulk Modulus (GPa) = 68.11212 83.45571 75.78392
# Shear Modulus (GPa) = 35.54458 48.12549 41.83504
#
# Velocity S-wave (km/s) = 3.62138 4.21381 3.92878
# Velocity P-wave (km/s) = 6.52811 7.38014 6.96716
#
# Compressibility (1/GPa) = 0.01468168
#
# Stress axis : x y z
#
# Youngs Moduli (GPa) = 127.17991 162.64773 53.44884
#
# Poissons Ratio (x) = 0.05332 0.33515
# Poissons Ratio (y) = 0.04169 0.12941
# Poissons Ratio (z) = 0.79748 0.39380
#
# Static dielectric constant tensor:
#      x y z
#    x 2.176440 0.182910 0.022950 
#    y 0.182910 2.572390 -0.006470 
#    z 0.022950 -0.006470 2.134870 
# 
# From -- ./inp_files/78381.got.cif
#   From: 2010.05.17/outbox.cif.g08.bks.cpg/sg2_40_cif.got.tgz:78381.got - 2010.06.03 11:33:40.
