data_PCOD9043063
_publ_section_title
;
Structure prediction by ZEFSAII (Michael W. Deem and Ramdas Pophale) SiO2 
 PCOD9043063
Probable space group: P -1
;
_chemical_formula_sum "Si O2"
_cell_formula_units_Z 16
_cell_length_a 12.942470
_cell_length_b 5.395256
_cell_length_c 11.151452
_cell_angle_alpha 99.977165
_cell_angle_beta 66.743304
_cell_angle_gamma 122.433506
_cell_volume 603.072163
_symmetry_space_group_name_H-M "P -1"
_symmetry_group_IT_number 2
_symmetry_cell_setting 'triclinic'
loop_
_space_group_symop_operation_xyz
x,y,z
-x,-y,-z
loop_
_atom_site_type_symbol
_atom_site_label
_atom_site_fract_x
_atom_site_fract_y
_atom_site_fract_z
Si Si1 0.850564 0.115354 0.584590
Si Si2 0.304247 0.604720 0.419481
Si Si3 0.258269 0.475217 0.686826
Si Si4 0.435524 0.373938 0.732041
Si Si5 0.445709 0.206515 0.079449
Si Si6 0.139831 0.950860 0.166655
Si Si7 0.172034 0.811638 0.886103
Si Si8 0.027462 0.814080 0.717368
O O1 0.775043 0.754871 0.587430
O O2 0.947356 0.233706 0.435720
O O3 0.753445 0.237815 0.619782
O O4 0.917650 0.212712 0.693015
O O5 0.284381 0.665485 0.571929
O O6 0.456462 0.718280 0.336598
O O7 0.379280 0.424743 0.639993
O O8 0.125671 0.168655 0.707388
O O9 0.235839 0.611329 0.827365
O O10 0.506758 0.672180 0.799467
O O11 0.301262 0.134825 0.838671
O O12 0.290308 0.046155 0.122640
O O13 0.500000 0.500000 0.000000
O O14 0.500000 0.000000 0.000000
O O15 0.113562 0.220408 0.199648
O O16 0.102862 0.803541 0.040532
O O17 0.080430 0.733374 0.803977
#
# Coordination Sequence:
#
# PCOD9043063 Si02
#       8
#     2   2   2   2   2   2   2   2
#     4  11  25  47  72 106 147 184 244 301 356 425
#     4  11  24  45  73 107 142 192 239 296 361 430
#     4  10  23  45  68 104 145 191 239 303 352 425
#     4  11  24  41  72 103 147 187 242 296 362 429
#     4  12  27  48  69 106 151 184 235 293 364 434
#     4  12  25  45  77 103 144 194 238 297 368 426
#     4  11  23  45  71 104 147 187 242 301 357 426
#     4  10  24  49  68 105 142 192 246 298 354 430
#
# _framework density 26.530819999999999
#
# number of rings (size 3 to 8) (size 9 to 14) (size 15 to 20)
#    0.000    1.000    3.750    1.875    3.500    1.000 
#    9.000    1.875    0.000    0.000    0.000    0.000 
#    0.000    0.000    0.000    0.000    0.000    0.000 
#
# Total GULP energy -89630.410082 kJ/mol
# GULP energy per Si atom -5601.900630 kJ/mol
# Density = 2.647044 g / cm^3
# Si number density = 26.530820 Si / 1000 Ang^3
#
#
#
# Elastic Constant Matrix: (Units=GPa)
#
#
# Indices 1 2 3 4 5 6 
#
# 1 166.7283 36.3575 57.8775 9.0334 -9.8292 -28.6691
# 2 36.3575 98.0336 48.3808 0.5808 -1.8747 -16.7352
# 3 57.8775 48.3808 183.2481 9.3854 6.0620 -6.0549
# 4 9.0334 0.5808 9.3854 45.7206 -7.5078 -0.6344
# 5 -9.8292 -1.8747 6.0620 -7.5078 49.1578 12.6310
# 6 -28.6691 -16.7352 -6.0549 -0.6344 12.6310 37.8673
#
#
#
# Elastic Compliance Matrix: (Units=1/GPa)
#
#
# Indices 1 2 3 4 5 6 
#
# 1 0.007862 -0.001058 -0.001997 -0.001006 0.000330 0.005039
# 2 -0.001058 0.012793 -0.002912 0.000636 -0.000435 0.004543
# 3 -0.001997 -0.002912 0.006915 -0.001205 -0.001211 -0.001309
# 4 -0.001006 0.000636 -0.001205 0.022925 0.003880 -0.001583
# 5 0.000330 -0.000435 -0.001211 0.003880 0.023135 -0.007788
# 6 0.005039 0.004543 -0.001309 -0.001583 -0.007788 0.034592
#
#
# Mechanical properties :
#
#
# Convention : Reuss Voigt Hill
#
# Bulk Modulus (GPa) = 63.94795 81.47129 72.70962
# Shear Modulus (GPa) = 39.88262 46.90875 43.39568
#
# Velocity S-wave (km/s) = 3.88139 4.20942 4.04873
# Velocity P-wave (km/s) = 6.65151 7.37567 7.02293
#
# Compressibility (1/GPa) = 0.01563772
#
# Stress axis : x y z
#
# Youngs Moduli (GPa) = 127.19492 78.16579 144.61424
#
# Poissons Ratio (x) = 0.08270 0.28875
# Poissons Ratio (y) = 0.13457 0.42106
# Poissons Ratio (z) = 0.25397 0.22759
#
# Static dielectric constant tensor:
#      x y z
#    x 2.055790 -0.003550 -0.003020 
#    y -0.003550 2.108140 0.036390 
#    z -0.003020 0.036390 2.096400 
# 
# From -- ./inp_files/410735.got.cif
#   From: 2010.05.17/outbox.cif.g08.bks.cpg/sg2_206_cif.got.tgz:410735.got - 2010.06.03 11:33:40.
