data_PCOD9043507
_publ_section_title
;
Structure prediction by ZEFSAII (Michael W. Deem and Ramdas Pophale) SiO2 
 PCOD9043507
Probable space group: P -1
;
_chemical_formula_sum "Si O2"
_cell_formula_units_Z 16
_cell_length_a 9.219011
_cell_length_b 6.426301
_cell_length_c 18.335406
_cell_angle_alpha 85.412763
_cell_angle_beta 114.260035
_cell_angle_gamma 129.972497
_cell_volume 732.162300
_symmetry_space_group_name_H-M "P -1"
_symmetry_group_IT_number 2
_symmetry_cell_setting 'triclinic'
loop_
_space_group_symop_operation_xyz
x,y,z
-x,-y,-z
loop_
_atom_site_type_symbol
_atom_site_label
_atom_site_fract_x
_atom_site_fract_y
_atom_site_fract_z
Si Si1 0.586421 0.275513 0.466416
Si Si2 0.316910 0.007505 0.176855
Si Si3 0.121295 0.816948 0.737622
Si Si4 0.630356 0.046549 0.351894
Si Si5 0.172921 0.502508 0.867856
Si Si6 0.749084 0.300412 0.971172
Si Si7 0.667732 0.560255 0.621254
Si Si8 0.469484 0.428138 0.861934
O O1 0.695958 0.514735 0.543739
O O2 0.398251 0.257220 0.396680
O O3 0.500000 0.000000 0.500000
O O4 0.701738 0.277073 0.420788
O O5 0.448471 0.989925 0.263615
O O6 0.349882 0.934891 0.104818
O O7 0.063950 0.783026 0.148815
O O8 0.417313 0.324429 0.181210
O O9 0.140986 0.610208 0.785765
O O10 0.886010 0.701860 0.703612
O O11 0.176628 0.843034 0.663671
O O12 0.297766 0.125484 0.798279
O O13 0.520789 0.749514 0.375495
O O14 0.334400 0.455067 0.888075
O O15 0.262764 0.736924 0.943036
O O16 0.652760 0.445492 0.934278
O O17 0.000000 0.500000 0.000000
#
# Coordination Sequence:
#
# PCOD9043507 Si02
#       8
#     2   2   2   2   2   2   2   2
#     4   9  22  44  71  99 131 172 217 266 324 395
#     4  11  24  44  67  96 133 174 221 278 334 386
#     4  12  26  41  67 103 136 173 222 271 330 393
#     4  11  22  42  69  97 136 169 217 273 323 395
#     4  11  25  43  67  95 130 181 222 280 329 392
#     4  10  24  45  66  91 135 176 229 278 332 388
#     4  10  23  45  71  98 133 175 213 267 333 390
#     4  12  25  41  65 101 131 176 228 273 336 388
#
# _framework density 21.853076999999999
#
# number of rings (size 3 to 8) (size 9 to 14) (size 15 to 20)
#    0.000    1.250    3.750    0.375    3.500    7.500 
#    0.000    5.625    0.000    0.000    0.000    0.000 
#    0.000    0.000    0.000    0.000    0.000    0.000 
#
# Total GULP energy -89405.050418 kJ/mol
# GULP energy per Si atom -5587.815651 kJ/mol
# Density = 2.180334 g / cm^3
# Si number density = 21.853077 Si / 1000 Ang^3
#
#
#
# Elastic Constant Matrix: (Units=GPa)
#
#
# Indices 1 2 3 4 5 6 
#
# 1 120.3375 42.0634 23.8892 -13.3234 2.3334 -1.0764
# 2 42.0634 70.6832 -0.8070 -13.1449 2.5807 0.0103
# 3 23.8892 -0.8070 43.1548 -17.5190 -1.9634 -3.3243
# 4 -13.3234 -13.1449 -17.5190 25.5435 -6.9397 1.5882
# 5 2.3334 2.5807 -1.9634 -6.9397 54.6969 -1.9887
# 6 -1.0764 0.0103 -3.3243 1.5882 -1.9887 28.3661
#
#
#
# Elastic Compliance Matrix: (Units=1/GPa)
#
#
# Indices 1 2 3 4 5 6 
#
# 1 0.012508 -0.008247 -0.008766 -0.003973 -0.000978 -0.000396
# 2 -0.008247 0.021930 0.011198 0.015094 0.001644 0.000262
# 3 -0.008766 0.011198 0.041175 0.030683 0.005331 0.003145
# 4 -0.003973 0.015094 0.030683 0.068384 0.009244 0.000259
# 5 -0.000978 0.001644 0.005331 0.009244 0.019664 0.001448
# 6 -0.000396 0.000262 0.003145 0.000259 0.001448 0.035694
#
#
# Mechanical properties :
#
#
# Convention : Reuss Voigt Hill
#
# Bulk Modulus (GPa) = 15.62908 40.49630 28.06269
# Shear Modulus (GPa) = 21.52263 32.98995 27.25629
#
# Velocity S-wave (km/s) = 3.14168 3.88960 3.53548
# Velocity P-wave (km/s) = 4.50862 6.22442 5.43466
#
# Compressibility (1/GPa) = 0.06398328
#
# Stress axis : x y z
#
# Youngs Moduli (GPa) = 79.94575 45.59903 24.28641
#
# Poissons Ratio (x) = 0.37605 0.21290
# Poissons Ratio (y) = 0.65931 -0.27196
# Poissons Ratio (z) = 0.70084 -0.51062
#
# Static dielectric constant tensor:
#      x y z
#    x 1.805720 0.001470 -0.027530 
#    y 0.001470 1.774790 0.024240 
#    z -0.027530 0.024240 1.829180 
# 
# From -- ./inp_files/56939.got.cif
#   From: 2010.05.17/outbox.cif.g08.bks.cpg/sg2_29_cif.got.tgz:56939.got - 2010.06.03 11:33:40.
