data_PCOD9043226
_publ_section_title
;
Structure prediction by ZEFSAII (Michael W. Deem and Ramdas Pophale) SiO2 
 PCOD9043226
Probable space group: P -1
;
_chemical_formula_sum "Si O2"
_cell_formula_units_Z 16
_cell_length_a 9.079886
_cell_length_b 12.100562
_cell_length_c 9.001619
_cell_angle_alpha 98.052976
_cell_angle_beta 127.748869
_cell_angle_gamma 93.408129
_cell_volume 760.875565
_symmetry_space_group_name_H-M "P -1"
_symmetry_group_IT_number 2
_symmetry_cell_setting 'triclinic'
loop_
_space_group_symop_operation_xyz
x,y,z
-x,-y,-z
loop_
_atom_site_type_symbol
_atom_site_label
_atom_site_fract_x
_atom_site_fract_y
_atom_site_fract_z
Si Si1 0.504068 0.872990 0.151590
Si Si2 0.666226 0.056094 0.496265
Si Si3 0.565655 0.666925 0.335608
Si Si4 0.452622 0.783538 0.786182
Si Si5 0.208663 0.540951 0.571082
Si Si6 0.239381 0.277736 0.232220
Si Si7 0.195558 0.528171 0.214593
Si Si8 0.113194 0.897108 0.074034
O O1 0.546318 0.750901 0.205810
O O2 0.308352 0.901511 0.104418
O O3 0.667260 0.961883 0.351849
O O4 0.481081 0.865961 0.959994
O O5 0.631018 0.162020 0.397772
O O6 0.838631 0.097131 0.720661
O O7 0.500000 0.000000 0.500000
O O8 0.672877 0.561288 0.353176
O O9 0.672613 0.736977 0.554503
O O10 0.352739 0.618438 0.248047
O O11 0.325417 0.661118 0.724168
O O12 0.655834 0.770361 0.846621
O O13 0.178785 0.560894 0.381252
O O14 0.000000 0.500000 0.500000
O O15 0.273799 0.411392 0.252452
O O16 0.022739 0.218231 0.081135
O O17 0.000000 0.500000 0.000000
O O18 0.000000 0.000000 0.000000
#
# Coordination Sequence:
#
# PCOD9043226 Si02
#       8
#     2   2   2   2   2   2   2   2
#     4  11  25  42  70  99 137 177 220 285 344 396
#     4  10  23  45  69  93 129 175 223 280 331 402
#     4  11  22  46  66  98 140 183 230 269 331 410
#     4  12  24  44  67  99 140 175 222 276 349 398
#     4  11  26  43  66 101 144 182 219 284 337 395
#     4  11  21  40  65  94 129 178 225 274 328 396
#     4  11  23  39  67  94 132 180 234 267 322 409
#     4  11  23  42  70  99 125 175 234 275 332 412
#
# _framework density 21.028404999999999
#
# number of rings (size 3 to 8) (size 9 to 14) (size 15 to 20)
#    0.000    1.000    2.500    5.625    7.000    1.500 
#    0.000    1.250    0.000    0.000    0.000    0.000 
#    0.000    0.000    0.000    0.000    0.000    0.000 
#
# Total GULP energy -89366.594693 kJ/mol
# GULP energy per Si atom -5585.412168 kJ/mol
# Density = 2.098054 g / cm^3
# Si number density = 21.028405 Si / 1000 Ang^3
#
#
#
# Elastic Constant Matrix: (Units=GPa)
#
#
# Indices 1 2 3 4 5 6 
#
# 1 67.3388 11.6477 22.8002 2.5504 -3.5491 -10.2570
# 2 11.6477 66.8349 9.9638 -0.5283 -9.8610 -1.5139
# 3 22.8002 9.9638 128.6200 7.6142 -10.1278 -8.5885
# 4 2.5504 -0.5283 7.6142 41.3202 0.1263 -0.1938
# 5 -3.5491 -9.8610 -10.1278 0.1263 31.6167 9.9902
# 6 -10.2570 -1.5139 -8.5885 -0.1938 9.9902 22.2642
#
#
#
# Elastic Compliance Matrix: (Units=1/GPa)
#
#
# Indices 1 2 3 4 5 6 
#
# 1 0.017260 -0.002791 -0.002459 -0.000605 -0.002178 0.007785
# 2 -0.002791 0.016279 -0.000551 0.000452 0.005486 -0.002849
# 3 -0.002459 -0.000551 0.008573 -0.001435 0.001902 0.001270
# 4 -0.000605 0.000452 -0.001435 0.024508 -0.000348 -0.000432
# 5 -0.002178 0.005486 0.001902 -0.000348 0.039238 -0.017506
# 6 0.007785 -0.002849 0.001270 -0.000432 -0.017506 0.056649
#
#
# Mechanical properties :
#
#
# Convention : Reuss Voigt Hill
#
# Bulk Modulus (GPa) = 32.77770 39.06855 35.92313
# Shear Modulus (GPa) = 27.13259 33.59902 30.36581
#
# Velocity S-wave (km/s) = 3.59595 4.00158 3.80417
# Velocity P-wave (km/s) = 5.73257 6.32214 6.03456
#
# Compressibility (1/GPa) = 0.03050855
#
# Stress axis : x y z
#
# Youngs Moduli (GPa) = 57.93851 61.42763 116.64404
#
# Poissons Ratio (x) = 0.17145 0.28686
# Poissons Ratio (y) = 0.16172 0.06431
# Poissons Ratio (z) = 0.14249 0.03387
#
# Static dielectric constant tensor:
#      x y z
#    x 1.748820 -0.006440 -0.002680 
#    y -0.006440 1.836460 -0.002890 
#    z -0.002680 -0.002890 1.773170 
# 
# From -- ./inp_files/186418.got.cif
#   From: 2010.05.17/outbox.cif.g08.bks.cpg/sg2_94_cif.got.tgz:186418.got - 2010.06.03 11:33:40.
