data_PCOD9043459
_publ_section_title
;
Structure prediction by ZEFSAII (Michael W. Deem and Ramdas Pophale) SiO2 
 PCOD9043459
Probable space group: P -1
;
_chemical_formula_sum "Si O2"
_cell_formula_units_Z 16
_cell_length_a 17.003107
_cell_length_b 8.891158
_cell_length_c 20.408000
_cell_angle_alpha 138.138949
_cell_angle_beta 18.755286
_cell_angle_gamma 136.321878
_cell_volume 659.639835
_symmetry_space_group_name_H-M "P -1"
_symmetry_group_IT_number 2
_symmetry_cell_setting 'triclinic'
loop_
_space_group_symop_operation_xyz
x,y,z
-x,-y,-z
loop_
_atom_site_type_symbol
_atom_site_label
_atom_site_fract_x
_atom_site_fract_y
_atom_site_fract_z
Si Si1 0.226741 0.960267 0.261104
Si Si2 0.495302 0.852890 0.353642
Si Si3 0.287642 0.751174 0.611990
Si Si4 0.605865 0.761344 0.996430
Si Si5 0.815250 0.458841 0.943591
Si Si6 0.738335 0.453743 0.156381
Si Si7 0.452867 0.026178 0.307908
Si Si8 0.945964 0.758704 0.616070
O O1 0.430166 0.900445 0.133789
O O2 0.206154 0.752039 0.157955
O O3 0.244492 0.182145 0.271559
O O4 0.000000 0.000000 0.500000
O O5 0.272477 0.777391 0.553722
O O6 0.695360 0.004470 0.288047
O O7 0.441192 0.020190 0.392467
O O8 0.606811 0.637128 0.163288
O O9 0.556606 0.653647 0.372167
O O10 0.074675 0.592625 0.762468
O O11 0.625092 0.848594 0.082977
O O12 0.500000 0.500000 0.000000
O O13 0.853676 0.808634 0.776969
O O14 0.795538 0.398223 0.017037
O O15 0.567273 0.254533 0.260809
O O16 0.000000 0.500000 0.000000
O O17 0.184708 0.922579 0.464231
O O18 0.000000 0.500000 0.500000
#
# Coordination Sequence:
#
# PCOD9043459 Si02
#       8
#     2   2   2   2   2   2   2   2
#     4  12  25  46  73 106 147 201 249 309 369 445
#     4  10  24  42  71 105 142 191 239 310 372 453
#     4  10  23  45  71 104 146 184 250 301 378 456
#     4  12  25  47  69 106 152 195 251 312 363 447
#     4  11  24  46  73 103 146 194 244 305 380 445
#     4  11  26  46  73 109 146 190 245 310 380 453
#     4  12  25  45  70 106 148 189 251 295 381 441
#     4  12  26  46  71 103 146 197 251 307 373 440
#
# _framework density 24.255659999999999
#
# number of rings (size 3 to 8) (size 9 to 14) (size 15 to 20)
#    0.000    0.750    2.500    3.750    0.000    9.000 
#    0.000    0.000    0.000    0.000    0.000    0.000 
#    0.000    0.000    0.000    0.000    0.000    0.000 
#
# Total GULP energy -89378.792404 kJ/mol
# GULP energy per Si atom -5586.174525 kJ/mol
# Density = 2.420045 g / cm^3
# Si number density = 24.255660 Si / 1000 Ang^3
#
#
#
# Elastic Constant Matrix: (Units=GPa)
#
#
# Indices 1 2 3 4 5 6 
#
# 1 133.2383 48.5420 34.8268 -9.2147 29.1023 -30.3296
# 2 48.5420 152.5363 45.8996 -10.1876 -1.5478 -21.6796
# 3 34.8268 45.8996 113.3060 -21.0805 33.1938 -2.3872
# 4 -9.2147 -10.1876 -21.0805 48.8758 0.9261 16.1946
# 5 29.1023 -1.5478 33.1938 0.9261 39.5619 -1.4993
# 6 -30.3296 -21.6796 -2.3872 16.1946 -1.4993 38.0347
#
#
#
# Elastic Compliance Matrix: (Units=1/GPa)
#
#
# Indices 1 2 3 4 5 6 
#
# 1 0.012285 -0.002896 0.000001 -0.000819 -0.008824 0.008147
# 2 -0.002896 0.009653 -0.005551 -0.002453 0.007381 0.004179
# 3 0.000001 -0.005551 0.016853 0.008480 -0.014796 -0.006299
# 4 -0.000819 -0.002453 0.008480 0.028180 -0.007792 -0.013825
# 5 -0.008824 0.007381 -0.014796 -0.007792 0.044703 0.001322
# 6 0.008147 0.004179 -0.006299 -0.013825 0.001322 0.040713
#
#
# Mechanical properties :
#
#
# Convention : Reuss Voigt Hill
#
# Bulk Modulus (GPa) = 45.66190 73.06861 59.36525
# Shear Modulus (GPa) = 28.31578 43.28196 35.79887
#
# Velocity S-wave (km/s) = 3.42041 4.22881 3.84591
# Velocity P-wave (km/s) = 5.87070 7.35075 6.65201
#
# Compressibility (1/GPa) = 0.02190010
#
# Stress axis : x y z
#
# Youngs Moduli (GPa) = 81.39768 103.59543 59.33550
#
# Poissons Ratio (x) = 0.30006 -0.00009
# Poissons Ratio (y) = 0.23576 0.32936
# Poissons Ratio (z) = -0.00012 0.57504
#
# Static dielectric constant tensor:
#      x y z
#    x 1.976440 -0.035310 -0.029940 
#    y -0.035310 1.905950 0.083610 
#    z -0.029940 0.083610 1.945610 
# 
# From -- ./inp_files/599759.got.cif
#   From: 2010.05.17/outbox.cif.g08.bks.cpg/sg2_300_cif.got.tgz:599759.got - 2010.06.03 11:33:40.
