data_PCOD9043351
_publ_section_title
;
Structure prediction by ZEFSAII (Michael W. Deem and Ramdas Pophale) SiO2 
 PCOD9043351
Probable space group: P -1
;
_chemical_formula_sum "Si O2"
_cell_formula_units_Z 14
_cell_length_a 12.301379
_cell_length_b 11.585962
_cell_length_c 21.392706
_cell_angle_alpha 151.023921
_cell_angle_beta 155.370975
_cell_angle_gamma 40.542794
_cell_volume 606.058077
_symmetry_space_group_name_H-M "P -1"
_symmetry_group_IT_number 2
_symmetry_cell_setting 'triclinic'
loop_
_space_group_symop_operation_xyz
x,y,z
-x,-y,-z
loop_
_atom_site_type_symbol
_atom_site_label
_atom_site_fract_x
_atom_site_fract_y
_atom_site_fract_z
Si Si1 0.138949 0.124688 0.710510
Si Si2 0.378144 0.778060 0.454397
Si Si3 0.020851 0.130139 0.139580
Si Si4 0.625363 0.777497 0.983020
Si Si5 0.819031 0.634277 0.277071
Si Si6 0.902138 0.718559 0.978231
Si Si7 0.485685 0.295622 0.724009
O O1 0.852320 0.206857 0.608507
O O2 0.280038 0.172261 0.872907
O O3 0.278832 0.274795 0.796851
O O4 0.073629 0.841647 0.525574
O O5 0.669384 0.812729 0.652284
O O6 0.376474 0.013553 0.520659
O O7 0.301270 0.520978 0.259847
O O8 0.903648 0.375649 0.193747
O O9 0.872370 0.945511 0.026540
O O10 0.000000 0.000000 0.000000
O O11 0.429691 0.516580 0.756853
O O12 0.859584 0.764851 0.050508
O O13 0.500000 0.000000 0.000000
O O14 0.619278 0.657335 0.239847
O O15 0.197600 0.674812 0.098371
#
# Coordination Sequence:
#
# PCOD9043351 Si02
#       7
#     2   2   2   2   2   2   2
#     4  10  23  46  72 102 146 192 236 291 359 421
#     4  10  23  45  70 108 137 188 234 285 362 420
#     4  11  25  45  73 110 144 181 239 296 357 421
#     4  12  26  45  70 106 145 189 241 294 352 419
#     4  10  23  46  71 108 139 186 241 295 355 421
#     4  11  24  47  70 103 147 187 234 291 355 426
#     4  10  23  46  72 102 137 194 235 289 351 424
#
# _framework density 23.100097000000002
#
# number of rings (size 3 to 8) (size 9 to 14) (size 15 to 20)
#    0.000    1.429    1.429    2.143    4.000    3.429 
#   20.571    3.571    0.000    0.000    0.000    0.000 
#    0.000    0.000    0.000    0.000    0.000    0.000 
#
# Total GULP energy -78362.305622 kJ/mol
# GULP energy per Si atom -5597.307544 kJ/mol
# Density = 2.304752 g / cm^3
# Si number density = 23.100097 Si / 1000 Ang^3
#
#
#
# Elastic Constant Matrix: (Units=GPa)
#
#
# Indices 1 2 3 4 5 6 
#
# 1 170.4783 67.4075 43.1171 16.9895 15.1610 18.1476
# 2 67.4075 138.7486 58.8713 36.5040 7.3582 7.5271
# 3 43.1171 58.8713 124.5566 23.0662 3.4500 10.7163
# 4 16.9895 36.5040 23.0662 37.9599 -0.8062 11.0446
# 5 15.1610 7.3582 3.4500 -0.8062 32.9108 6.2128
# 6 18.1476 7.5271 10.7163 11.0446 6.2128 35.2542
#
#
#
# Elastic Compliance Matrix: (Units=1/GPa)
#
#
# Indices 1 2 3 4 5 6 
#
# 1 0.007872 -0.003444 -0.001006 0.001232 -0.002151 -0.003018
# 2 -0.003444 0.012746 -0.003269 -0.009764 -0.001806 0.003422
# 3 -0.001006 -0.003269 0.010466 -0.002392 0.000277 -0.001265
# 4 0.001232 -0.009764 -0.002392 0.040008 0.004966 -0.011232
# 5 -0.002151 -0.001806 0.000277 0.004966 0.032998 -0.005963
# 6 -0.003018 0.003422 -0.001265 -0.011232 -0.005963 0.034142
#
#
# Mechanical properties :
#
#
# Convention : Reuss Voigt Hill
#
# Bulk Modulus (GPa) = 63.91192 85.84168 74.87680
# Shear Modulus (GPa) = 31.46927 38.85082 35.16004
#
# Velocity S-wave (km/s) = 3.69494 4.10548 3.90561
# Velocity P-wave (km/s) = 6.77723 7.72753 7.26793
#
# Compressibility (1/GPa) = 0.01564653
#
# Stress axis : x y z
#
# Youngs Moduli (GPa) = 127.03637 78.45491 95.54932
#
# Poissons Ratio (x) = 0.27018 0.09614
# Poissons Ratio (y) = 0.43749 0.31231
# Poissons Ratio (z) = 0.12783 0.25644
#
# Static dielectric constant tensor:
#      x y z
#    x 1.851330 0.025660 0.015690 
#    y 0.025660 1.884330 0.028040 
#    z 0.015690 0.028040 1.902340 
# 
# From -- ./inp_files/619618.got.cif
#   From: 2010.05.17/outbox.cif.g08.bks.cpg/sg2_310_cif.got.tgz:619618.got - 2010.06.03 11:33:40.
