data_PCOD9043716
_publ_section_title
;
Structure prediction by ZEFSAII (Michael W. Deem and Ramdas Pophale) SiO2 
 PCOD9043716
Probable space group: P -1
;
_chemical_formula_sum "Si O2"
_cell_formula_units_Z 16
_cell_length_a 9.374120
_cell_length_b 13.665502
_cell_length_c 9.713008
_cell_angle_alpha 107.485751
_cell_angle_beta 108.043678
_cell_angle_gamma 128.579369
_cell_volume 691.464232
_symmetry_space_group_name_H-M "P -1"
_symmetry_group_IT_number 2
_symmetry_cell_setting 'triclinic'
loop_
_space_group_symop_operation_xyz
x,y,z
-x,-y,-z
loop_
_atom_site_type_symbol
_atom_site_label
_atom_site_fract_x
_atom_site_fract_y
_atom_site_fract_z
Si Si1 0.765766 0.350585 0.960989
Si Si2 0.455552 0.581638 0.944343
Si Si3 0.877900 0.699452 0.490683
Si Si4 0.652610 0.029865 0.402523
Si Si5 0.147305 0.178161 0.061344
Si Si6 0.283779 0.987210 0.282900
Si Si7 0.576226 0.705060 0.539401
Si Si8 0.030199 0.436483 0.353094
O O1 0.579932 0.169797 0.762116
O O2 0.619392 0.375829 0.949399
O O3 0.000000 0.500000 0.000000
O O4 0.839690 0.354584 0.139125
O O5 0.233195 0.438793 0.712626
O O6 0.686900 0.744246 0.991923
O O7 0.500000 0.500000 0.000000
O O8 0.672415 0.673531 0.447779
O O9 0.967859 0.677300 0.633358
O O10 0.123162 0.884198 0.586113
O O11 0.750927 0.084956 0.610925
O O12 0.541045 0.079993 0.346962
O O13 0.336241 0.299296 0.292132
O O14 0.000000 0.000000 0.000000
O O15 0.940123 0.148664 0.946436
O O16 0.296280 0.115634 0.367348
O O17 0.295053 0.582698 0.420260
O O18 0.000000 0.500000 0.500000
#
# Coordination Sequence:
#
# PCOD9043716 Si02
#       8
#     2   2   2   2   2   2   2   2
#     4  12  30  48  77 107 146 197 252 305 374 448
#     4  12  28  47  75 110 154 193 249 311 381 444
#     4  12  27  44  72 108 145 192 244 309 374 442
#     4  11  27  46  71 104 145 187 248 298 376 442
#     4  10  23  45  74 105 144 192 247 304 375 436
#     4  10  24  45  72  97 145 189 237 303 368 438
#     4  11  24  43  73 103 144 188 246 299 374 436
#     4  12  24  49  75 103 150 192 248 306 372 440
#
# _framework density 23.139302000000001
#
# number of rings (size 3 to 8) (size 9 to 14) (size 15 to 20)
#    0.000    0.750    2.500    2.625   14.000    2.000 
#    0.000    0.000    0.000    0.000    0.000    0.000 
#    0.000    0.000    0.000    0.000    0.000    0.000 
#
# Total GULP energy -89454.026140 kJ/mol
# GULP energy per Si atom -5590.876634 kJ/mol
# Density = 2.308664 g / cm^3
# Si number density = 23.139302 Si / 1000 Ang^3
#
#
#
# Elastic Constant Matrix: (Units=GPa)
#
#
# Indices 1 2 3 4 5 6 
#
# 1 135.7770 35.7777 16.8928 -3.1749 -0.8222 -2.7191
# 2 35.7777 112.9905 10.1395 8.3054 -1.8370 15.3468
# 3 16.8928 10.1395 86.8904 -12.8443 20.8093 -11.5195
# 4 -3.1749 8.3054 -12.8443 31.3316 -5.7236 6.8413
# 5 -0.8222 -1.8370 20.8093 -5.7236 40.3866 -2.0158
# 6 -2.7191 15.3468 -11.5195 6.8413 -2.0158 36.3087
#
#
#
# Elastic Compliance Matrix: (Units=1/GPa)
#
#
# Indices 1 2 3 4 5 6 
#
# 1 0.008290 -0.002748 -0.001185 0.000961 0.000854 0.001273
# 2 -0.002748 0.010765 -0.001960 -0.002735 0.000816 -0.004817
# 3 -0.001185 -0.001960 0.014825 0.004282 -0.006933 0.004251
# 4 0.000961 -0.002735 0.004282 0.035842 0.002567 -0.004024
# 5 0.000854 0.000816 -0.006933 0.002567 0.028683 -0.001372
# 6 0.001273 -0.004817 0.004251 -0.004024 -0.001372 0.031704
#
#
# Mechanical properties :
#
#
# Convention : Reuss Voigt Hill
#
# Bulk Modulus (GPa) = 45.26233 51.25309 48.25771
# Shear Modulus (GPa) = 33.49888 39.79525 36.64707
#
# Velocity S-wave (km/s) = 3.80900 4.15156 3.98396
# Velocity P-wave (km/s) = 6.24083 6.72149 6.48561
#
# Compressibility (1/GPa) = 0.02209343
#
# Stress axis : x y z
#
# Youngs Moduli (GPa) = 120.63165 92.89385 67.45483
#
# Poissons Ratio (x) = 0.25529 0.07991
# Poissons Ratio (y) = 0.33152 0.13222
# Poissons Ratio (z) = 0.14290 0.18209
#
# Static dielectric constant tensor:
#      x y z
#    x 1.859170 0.028430 -0.006950 
#    y 0.028430 1.842860 0.018660 
#    z -0.006950 0.018660 1.895440 
# 
# From -- ./inp_files/207939.got.cif
#   From: 2010.05.17/outbox.cif.g08.bks.cpg/sg2_104_cif.got.tgz:207939.got - 2010.06.03 11:33:40.
