data_PCOD9043127
_publ_section_title
;
Structure prediction by ZEFSAII (Michael W. Deem and Ramdas Pophale) SiO2 
 PCOD9043127
Probable space group: P -1
;
_chemical_formula_sum "Si O2"
_cell_formula_units_Z 13
_cell_length_a 14.536800
_cell_length_b 11.410129
_cell_length_c 15.606425
_cell_angle_alpha 139.301985
_cell_angle_beta 161.143853
_cell_angle_gamma 39.128841
_cell_volume 524.272677
_symmetry_space_group_name_H-M "P -1"
_symmetry_group_IT_number 2
_symmetry_cell_setting 'triclinic'
loop_
_space_group_symop_operation_xyz
x,y,z
-x,-y,-z
loop_
_atom_site_type_symbol
_atom_site_label
_atom_site_fract_x
_atom_site_fract_y
_atom_site_fract_z
Si Si1 0.762019 0.318473 0.155665
Si Si2 0.381270 0.717158 0.335564
Si Si3 0.203556 0.231490 0.798967
Si Si4 0.848049 0.487792 0.490926
Si Si5 0.564602 0.184662 0.261212
Si Si6 0.192936 0.041116 0.112267
Si Si7 0.500000 0.500000 0.500000
O O1 0.799892 0.327042 0.296222
O O2 0.051975 0.361446 0.394332
O O3 0.718244 0.137051 0.970811
O O4 0.500000 0.500000 0.000000
O O5 0.561224 0.594478 0.349071
O O6 0.427136 0.592787 0.391754
O O7 0.041323 0.794382 0.053482
O O8 0.531318 0.887005 0.574929
O O9 0.104851 0.394711 0.733441
O O10 0.890656 0.206225 0.541938
O O11 0.392726 0.036744 0.816858
O O12 0.367422 0.257681 0.044484
O O13 0.451291 0.302804 0.310262
O O14 0.000000 0.000000 0.000000
#
# Coordination Sequence:
#
# PCOD9043127 Si02
#       7
#     2   2   2   2   2   2   1
#     4  11  27  44  77 109 145 188 253 309 377 446
#     4  12  29  48  76 108 156 201 242 316 368 455
#     4  10  23  45  68  99 137 194 227 301 357 429
#     4  11  25  46  72 106 147 195 246 305 375 447
#     4  10  24  43  69  99 142 180 250 288 353 429
#     4  12  27  50  78 111 153 193 251 312 385 438
#     4  12  28  48  74 114 148 200 256 296 376 444
#
# _framework density 24.796258000000002
#
# number of rings (size 3 to 8) (size 9 to 14) (size 15 to 20)
#    0.000    0.923    3.077    1.385   10.769    2.462 
#    2.769    0.000    0.000    0.000    0.000    0.000 
#    0.000    0.000    0.000    0.000    0.000    0.000 
#
# Total GULP energy -72659.881722 kJ/mol
# GULP energy per Si atom -5589.221671 kJ/mol
# Density = 2.473982 g / cm^3
# Si number density = 24.796258 Si / 1000 Ang^3
#
#
#
# Elastic Constant Matrix: (Units=GPa)
#
#
# Indices 1 2 3 4 5 6 
#
# 1 105.6102 41.3938 29.9835 -7.5753 -32.0669 -5.6713
# 2 41.3938 110.7398 27.7284 5.9049 -20.3364 -32.1865
# 3 29.9835 27.7284 123.7142 0.2691 -26.8149 -20.6894
# 4 -7.5753 5.9049 0.2691 46.5546 -0.8894 -10.7414
# 5 -32.0669 -20.3364 -26.8149 -0.8894 43.5319 20.2506
# 6 -5.6713 -32.1865 -20.6894 -10.7414 20.2506 32.5335
#
#
#
# Elastic Compliance Matrix: (Units=1/GPa)
#
#
# Indices 1 2 3 4 5 6 
#
# 1 0.016334 -0.007168 -0.001603 0.000648 0.014158 -0.013862
# 2 -0.007168 0.015975 -0.000122 0.001065 -0.006713 0.019008
# 3 -0.001603 -0.000122 0.009835 0.000756 0.002810 0.004355
# 4 0.000648 0.001065 0.000756 0.024107 -0.003569 0.011829
# 5 0.014158 -0.006713 0.002810 -0.003569 0.047268 -0.032986
# 6 -0.013862 0.019008 0.004355 0.011829 -0.032986 0.074333
#
#
# Mechanical properties :
#
#
# Convention : Reuss Voigt Hill
#
# Bulk Modulus (GPa) = 41.05363 59.80841 50.43102
# Shear Modulus (GPa) = 23.39101 40.58791 31.98946
#
# Velocity S-wave (km/s) = 3.07470 4.05020 3.59568
# Velocity P-wave (km/s) = 5.40346 6.78560 6.13359
#
# Compressibility (1/GPa) = 0.02435838
#
# Stress axis : x y z
#
# Youngs Moduli (GPa) = 61.22075 62.59776 101.68117
#
# Poissons Ratio (x) = 0.44869 0.16301
# Poissons Ratio (y) = 0.43882 0.01239
# Poissons Ratio (z) = 0.09815 0.00763
#
# Static dielectric constant tensor:
#      x y z
#    x 1.962080 -0.025110 0.025460 
#    y -0.025110 2.054840 0.136610 
#    z 0.025460 0.136610 2.086200 
# 
# From -- ./inp_files/88851.got.cif
#   From: 2010.05.17/outbox.cif.g08.bks.cpg/sg2_45_cif.got.tgz:88851.got - 2010.06.03 11:33:40.
