data_PCOD9043190
_publ_section_title
;
Structure prediction by ZEFSAII (Michael W. Deem and Ramdas Pophale) SiO2 
 PCOD9043190
Probable space group: P -1
;
_chemical_formula_sum "Si O2"
_cell_formula_units_Z 14
_cell_length_a 11.906111
_cell_length_b 13.683194
_cell_length_c 5.483581
_cell_angle_alpha 57.352634
_cell_angle_beta 89.520814
_cell_angle_gamma 59.820850
_cell_volume 606.379256
_symmetry_space_group_name_H-M "P -1"
_symmetry_group_IT_number 2
_symmetry_cell_setting 'triclinic'
loop_
_space_group_symop_operation_xyz
x,y,z
-x,-y,-z
loop_
_atom_site_type_symbol
_atom_site_label
_atom_site_fract_x
_atom_site_fract_y
_atom_site_fract_z
Si Si1 0.339149 0.109066 0.104130
Si Si2 0.448039 0.400914 0.176578
Si Si3 0.913455 0.067344 0.659405
Si Si4 0.456105 0.828958 0.151392
Si Si5 0.129884 0.640412 0.807284
Si Si6 0.327091 0.911360 0.613447
Si Si7 0.018654 0.350793 0.696543
O O1 0.417361 0.953203 0.179820
O O2 0.333062 0.048488 0.445828
O O3 0.424834 0.173858 0.994936
O O4 0.182955 0.223818 0.865652
O O5 0.480184 0.329074 0.539538
O O6 0.542125 0.252927 0.223450
O O7 0.500000 0.500000 0.000000
O O8 0.284147 0.491903 0.010104
O O9 0.852359 0.233614 0.411481
O O10 0.790496 0.052317 0.623395
O O11 0.000000 0.000000 0.500000
O O12 0.000000 0.000000 0.000000
O O13 0.313965 0.888399 0.928778
O O14 0.046207 0.649857 0.558089
O O15 0.052779 0.660384 0.041259
O O16 0.000000 0.500000 0.500000
#
# Coordination Sequence:
#
# PCOD9043190 Si02
#       7
#     2   2   2   2   2   2   2
#     4  10  23  45  69 105 140 184 244 295 364 422
#     4  11  25  45  67 102 142 183 240 289 360 426
#     4  12  27  46  73 106 144 189 241 297 365 433
#     4  10  24  43  73 101 140 188 239 302 355 430
#     4  12  27  49  71 107 144 193 240 303 359 437
#     4  11  24  43  73 100 139 185 237 297 359 425
#     4  12  28  48  74 105 146 194 242 298 365 435
#
# _framework density 23.087859000000002
#
# number of rings (size 3 to 8) (size 9 to 14) (size 15 to 20)
#    0.000    0.857    1.429    4.286   12.000    1.714 
#    0.000    0.000    0.000    0.000    0.000    0.000 
#    0.000    0.000    0.000    0.000    0.000    0.000 
#
# Total GULP energy -78065.426050 kJ/mol
# GULP energy per Si atom -5576.101861 kJ/mol
# Density = 2.303531 g / cm^3
# Si number density = 23.087859 Si / 1000 Ang^3
#
#
#
# Elastic Constant Matrix: (Units=GPa)
#
#
# Indices 1 2 3 4 5 6 
#
# 1 127.2443 23.1110 74.5268 -0.0143 -5.7984 4.4244
# 2 23.1110 54.2502 33.2696 -5.1913 6.9495 1.1268
# 3 74.5268 33.2696 192.9952 -1.9676 4.3224 3.7675
# 4 -0.0143 -5.1913 -1.9676 49.2347 10.8520 -0.5295
# 5 -5.7984 6.9495 4.3224 10.8520 53.0064 -11.2852
# 6 4.4244 1.1268 3.7675 -0.5295 -11.2852 30.8053
#
#
#
# Elastic Compliance Matrix: (Units=1/GPa)
#
#
# Indices 1 2 3 4 5 6 
#
# 1 0.010583 -0.002563 -0.003690 -0.000837 0.001904 -0.000292
# 2 -0.002563 0.021971 -0.002651 0.003050 -0.003885 -0.001482
# 3 -0.003690 -0.002651 0.007093 0.000169 -0.000781 -0.000524
# 4 -0.000837 0.003050 0.000169 0.021791 -0.005303 -0.001580
# 5 0.001904 -0.003885 -0.000781 -0.005303 0.022457 0.008100
# 6 -0.000292 -0.001482 -0.000524 -0.001580 0.008100 0.035562
#
#
# Mechanical properties :
#
#
# Convention : Reuss Voigt Hill
#
# Bulk Modulus (GPa) = 45.79112 70.70051 58.24581
# Shear Modulus (GPa) = 34.59155 42.84811 38.71983
#
# Velocity S-wave (km/s) = 3.87493 4.31266 4.09964
# Velocity P-wave (km/s) = 6.31638 7.44900 6.90594
#
# Compressibility (1/GPa) = 0.02183830
#
# Stress axis : x y z
#
# Youngs Moduli (GPa) = 94.49486 45.51478 140.98726
#
# Poissons Ratio (x) = 0.11666 0.52027
# Poissons Ratio (y) = 0.24221 0.37371
# Poissons Ratio (z) = 0.34870 0.12064
#
# Static dielectric constant tensor:
#      x y z
#    x 2.105170 -0.118140 -0.129600 
#    y -0.118140 2.022640 0.187390 
#    z -0.129600 0.187390 2.020690 
# 
# From -- ./inp_files/70521.got.cif
#   From: 2010.05.17/outbox.cif.g08.bks.cpg/sg2_36_cif.got.tgz:70521.got - 2010.06.03 11:33:40.
