data_PCOD9043183
_publ_section_title
;
Structure prediction by ZEFSAII (Michael W. Deem and Ramdas Pophale) SiO2 
 PCOD9043183
Probable space group: P -1
;
_chemical_formula_sum "Si O2"
_cell_formula_units_Z 15
_cell_length_a 8.246777
_cell_length_b 8.985104
_cell_length_c 8.949736
_cell_angle_alpha 96.956471
_cell_angle_beta 79.710113
_cell_angle_gamma 80.715907
_cell_volume 636.223090
_symmetry_space_group_name_H-M "P -1"
_symmetry_group_IT_number 2
_symmetry_cell_setting 'triclinic'
loop_
_space_group_symop_operation_xyz
x,y,z
-x,-y,-z
loop_
_atom_site_type_symbol
_atom_site_label
_atom_site_fract_x
_atom_site_fract_y
_atom_site_fract_z
Si Si1 0.854188 0.123669 0.971091
Si Si2 0.361437 0.569812 0.330795
Si Si3 0.041991 0.600093 0.865815
Si Si4 0.627967 0.918630 0.594553
Si Si5 0.121416 0.871705 0.368097
Si Si6 0.700692 0.622136 0.394722
Si Si7 0.500000 0.000000 0.000000
Si Si8 0.669067 0.717507 0.857805
O O1 0.923675 0.148226 0.797442
O O2 0.682821 0.059826 0.990546
O O3 0.845523 0.279574 0.083791
O O4 0.000000 0.000000 0.000000
O O5 0.197463 0.701899 0.389902
O O6 0.531955 0.635253 0.325784
O O7 0.347292 0.459362 0.458163
O O8 0.369282 0.451155 0.177629
O O9 0.145256 0.482677 0.720297
O O10 0.870455 0.690006 0.829813
O O11 0.000000 0.500000 0.000000
O O12 0.738300 0.782289 0.465414
O O13 0.589254 0.836537 0.748601
O O14 0.500000 0.000000 0.500000
O O15 0.717821 0.048224 0.653868
O O16 0.000000 0.000000 0.500000
O O17 0.591774 0.824165 0.017955
#
# Coordination Sequence:
#
# PCOD9043183 Si02
#       8
#     2   2   2   2   2   2   1   2
#     4  12  27  51  74 111 152 197 252 308 382 450
#     4  10  23  45  69 104 145 190 250 301 378 446
#     4  12  27  47  73 107 152 195 252 309 381 452
#     4  11  23  44  69 103 140 181 249 303 369 445
#     4  12  27  44  74 110 145 193 251 314 373 453
#     4  10  24  44  71 100 143 196 237 311 375 447
#     4  12  24  48  80 100 148 204 248 312 380 446
#     4  11  25  44  70 107 144 195 244 308 375 450
#
# _framework density 23.576636000000001
#
# number of rings (size 3 to 8) (size 9 to 14) (size 15 to 20)
#    0.000    0.800    4.000    1.600    7.467    4.267 
#    0.000    2.667    0.000    0.000    0.000    0.000 
#    0.000    0.000    0.000    0.000    0.000    0.000 
#
# Total GULP energy -83500.778455 kJ/mol
# GULP energy per Si atom -5566.718564 kJ/mol
# Density = 2.352297 g / cm^3
# Si number density = 23.576636 Si / 1000 Ang^3
#
#
#
# Elastic Constant Matrix: (Units=GPa)
#
#
# Indices 1 2 3 4 5 6 
#
# 1 95.0655 23.7871 12.2561 1.5395 -2.8679 -15.5155
# 2 23.7871 115.0821 0.8633 21.3007 6.5533 -3.4935
# 3 12.2561 0.8633 21.6105 -4.7304 3.3774 1.4676
# 4 1.5395 21.3007 -4.7304 34.2249 -5.9227 6.6178
# 5 -2.8679 6.5533 3.3774 -5.9227 30.6352 10.6896
# 6 -15.5155 -3.4935 1.4676 6.6178 10.6896 48.0243
#
#
#
# Elastic Compliance Matrix: (Units=1/GPa)
#
#
# Indices 1 2 3 4 5 6 
#
# 1 0.012830 -0.002378 -0.007788 -0.000797 0.000983 0.004101
# 2 -0.002378 0.011023 -0.000245 -0.008068 -0.004896 0.002243
# 3 -0.007788 -0.000245 0.053326 0.008162 -0.003396 -0.004532
# 4 -0.000797 -0.008068 0.008162 0.039137 0.011472 -0.009041
# 5 0.000983 -0.004896 -0.003396 0.011472 0.040010 -0.010421
# 6 0.004101 0.002243 -0.004532 -0.009041 -0.010421 0.026015
#
#
# Mechanical properties :
#
#
# Convention : Reuss Voigt Hill
#
# Bulk Modulus (GPa) = 17.74395 33.95235 25.84815
# Shear Modulus (GPa) = 22.52779 35.56696 29.04737
#
# Velocity S-wave (km/s) = 3.09449 3.88824 3.51385
# Velocity P-wave (km/s) = 4.50669 5.88133 5.23929
#
# Compressibility (1/GPa) = 0.05635724
#
# Stress axis : x y z
#
# Youngs Moduli (GPa) = 77.94309 90.71961 18.75272
#
# Poissons Ratio (x) = 0.21569 0.14604
# Poissons Ratio (y) = 0.18531 0.00460
# Poissons Ratio (z) = 0.60701 0.02225
#
# Static dielectric constant tensor:
#      x y z
#    x 1.877980 0.045800 0.112010 
#    y 0.045800 1.941880 0.021760 
#    z 0.112010 0.021760 1.077740 
# 
# From -- ./inp_files/155276.got.cif
#   From: 2010.05.17/outbox.cif.g08.bks.cpg/sg2_78_cif.got.tgz:155276.got - 2010.06.03 11:33:40.
