data_PCOD9043174
_publ_section_title
;
Structure prediction by ZEFSAII (Michael W. Deem and Ramdas Pophale) SiO2 
 PCOD9043174
Probable space group: P -1
;
_chemical_formula_sum "Si O2"
_cell_formula_units_Z 14
_cell_length_a 9.677479
_cell_length_b 8.911962
_cell_length_c 20.848355
_cell_angle_alpha 30.404329
_cell_angle_beta 122.366952
_cell_angle_gamma 132.540560
_cell_volume 664.959885
_symmetry_space_group_name_H-M "P -1"
_symmetry_group_IT_number 2
_symmetry_cell_setting 'triclinic'
loop_
_space_group_symop_operation_xyz
x,y,z
-x,-y,-z
loop_
_atom_site_type_symbol
_atom_site_label
_atom_site_fract_x
_atom_site_fract_y
_atom_site_fract_z
Si Si1 0.361823 0.633051 0.891272
Si Si2 0.137970 0.397080 0.038781
Si Si3 0.643049 0.842527 0.586537
Si Si4 0.599415 0.383250 0.618849
Si Si5 0.985914 0.291498 0.427698
Si Si6 0.445172 0.601000 0.143666
Si Si7 0.837169 0.686185 0.164868
O O1 0.203771 0.369696 0.900109
O O2 0.477773 0.988739 0.753022
O O3 0.500000 0.500000 0.000000
O O4 0.263850 0.674381 0.914639
O O5 0.279682 0.391365 0.128384
O O6 0.008648 0.045960 0.098488
O O7 0.000000 0.500000 0.000000
O O8 0.613598 0.605280 0.604016
O O9 0.621278 0.599546 0.731199
O O10 0.500000 0.000000 0.500000
O O11 0.858023 0.153476 0.510681
O O12 0.500000 0.500000 0.500000
O O13 0.792351 0.434088 0.615736
O O14 0.880678 0.413122 0.308102
O O15 0.000000 0.000000 0.500000
O O16 0.640269 0.619851 0.168701
O O17 0.500000 0.000000 0.000000
#
# Coordination Sequence:
#
# PCOD9043174 Si02
#       7
#     2   2   2   2   2   2   2
#     4  12  25  45  73 104 143 194 241 296 370 426
#     4  12  27  44  71 110 146 188 240 302 368 431
#     4  11  24  45  75 104 145 193 240 298 369 430
#     4  11  26  46  73 105 148 191 245 299 362 436
#     4  10  23  45  69 103 143 187 239 296 355 431
#     4  12  25  47  73 107 152 185 238 310 361 430
#     4  12  25  46  75 104 149 188 248 298 359 443
#
# _framework density 21.053902000000001
#
# number of rings (size 3 to 8) (size 9 to 14) (size 15 to 20)
#    0.000    0.571    4.286    3.857    0.000    3.429 
#    0.000    1.429    0.000    0.000    0.000    0.000 
#    0.000    0.000    0.000    0.000    0.000    0.000 
#
# Total GULP energy -78169.090611 kJ/mol
# GULP energy per Si atom -5583.506472 kJ/mol
# Density = 2.100598 g / cm^3
# Si number density = 21.053902 Si / 1000 Ang^3
#
#
#
# Elastic Constant Matrix: (Units=GPa)
#
#
# Indices 1 2 3 4 5 6 
#
# 1 167.7291 43.2952 85.9645 13.5176 -14.4561 21.5391
# 2 43.2952 131.6936 73.0926 18.1589 -10.8998 14.1599
# 3 85.9645 73.0926 177.2661 21.5800 -6.9798 9.1490
# 4 13.5176 18.1589 21.5800 41.8434 -3.6566 2.2121
# 5 -14.4561 -10.8998 -6.9798 -3.6566 52.2997 6.5692
# 6 21.5391 14.1599 9.1490 2.2121 6.5692 35.4203
#
#
#
# Elastic Compliance Matrix: (Units=1/GPa)
#
#
# Indices 1 2 3 4 5 6 
#
# 1 0.008813 0.000043 -0.003898 -0.000382 0.002502 -0.004810
# 2 0.000043 0.010562 -0.003843 -0.002258 0.001980 -0.003482
# 3 -0.003898 -0.003843 0.009227 -0.002018 -0.001019 0.001839
# 4 -0.000382 -0.002258 -0.002018 0.026139 0.001002 -0.000162
# 5 0.002502 0.001980 -0.001019 0.001002 0.020911 -0.005991
# 6 -0.004810 -0.003482 0.001839 -0.000162 -0.005991 0.033195
#
#
# Mechanical properties :
#
#
# Convention : Reuss Voigt Hill
#
# Bulk Modulus (GPa) = 75.72883 97.93259 86.83071
# Shear Modulus (GPa) = 38.86627 44.20177 41.53402
#
# Velocity S-wave (km/s) = 4.30121 4.58695 4.44638
# Velocity P-wave (km/s) = 7.79194 8.64116 8.22752
#
# Compressibility (1/GPa) = 0.01320501
#
# Stress axis : x y z
#
# Youngs Moduli (GPa) = 113.47011 94.67913 108.37638
#
# Poissons Ratio (x) = -0.00410 0.42249
# Poissons Ratio (y) = -0.00491 0.41654
# Poissons Ratio (z) = 0.44234 0.36390
#
# Static dielectric constant tensor:
#      x y z
#    x 1.725540 -0.002620 -0.038610 
#    y -0.002620 1.801100 -0.050490 
#    z -0.038610 -0.050490 1.751130 
# 
# From -- ./inp_files/297027.got.cif
#   From: 2010.05.17/outbox.cif.g08.bks.cpg/sg2_149_cif.got.tgz:297027.got - 2010.06.03 11:33:40.
