data_PCOD9043828
_publ_section_title
;
Structure prediction by ZEFSAII (Michael W. Deem and Ramdas Pophale) SiO2 
 PCOD9043828
Probable space group: P -1
;
_chemical_formula_sum "Si O2"
_cell_formula_units_Z 12
_cell_length_a 10.564161
_cell_length_b 7.797396
_cell_length_c 16.415757
_cell_angle_alpha 139.507417
_cell_angle_beta 31.423670
_cell_angle_gamma 131.381324
_cell_volume 457.494025
_symmetry_space_group_name_H-M "P -1"
_symmetry_group_IT_number 2
_symmetry_cell_setting 'triclinic'
loop_
_space_group_symop_operation_xyz
x,y,z
-x,-y,-z
loop_
_atom_site_type_symbol
_atom_site_label
_atom_site_fract_x
_atom_site_fract_y
_atom_site_fract_z
Si Si1 0.540550 0.103035 0.651641
Si Si2 0.999182 0.012920 0.727174
Si Si3 0.961220 0.225462 0.217761
Si Si4 0.265027 0.522127 0.029528
Si Si5 0.624504 0.673198 0.567641
Si Si6 0.572388 0.942912 0.845147
O O1 0.720550 0.052411 0.460235
O O2 0.277200 0.957505 0.734630
O O3 0.670647 0.953654 0.600255
O O4 0.470921 0.399047 0.816271
O O5 0.912514 0.921079 0.830622
O O6 0.848394 0.858055 0.684011
O O7 0.935889 0.317993 0.854032
O O8 0.857325 0.508035 0.401087
O O9 0.131406 0.294816 0.073262
O O10 0.387524 0.756453 0.101057
O O11 0.500000 0.500000 0.500000
O O12 0.478550 0.741344 0.754774
O O13 0.500000 0.000000 0.000000
#
# Coordination Sequence:
#
# PCOD9043828 Si02
#       6
#     2   2   2   2   2   2
#     4  11  23  45  73 108 150 197 248 308 377 448
#     4  10  25  45  69 112 144 199 253 307 377 445
#     4  11  23  45  73 108 150 197 248 308 377 448
#     4  10  25  45  69 112 144 199 253 307 377 445
#     4  10  23  45  77 101 147 197 249 305 383 444
#     4  10  25  49  69 114 151 193 257 315 374 449
#
# _framework density 26.229849999999999
#
# number of rings (size 3 to 8) (size 9 to 14) (size 15 to 20)
#    1.000    0.667    1.667    1.000    4.667    4.667 
#    0.000    0.000    0.000    0.000    0.000    0.000 
#    0.000    0.000    0.000    0.000    0.000    0.000 
#
# Total GULP energy -66934.832852 kJ/mol
# GULP energy per Si atom -5577.902738 kJ/mol
# Density = 2.617015 g / cm^3
# Si number density = 26.229850 Si / 1000 Ang^3
#
#
#
# Elastic Constant Matrix: (Units=GPa)
#
#
# Indices 1 2 3 4 5 6 
#
# 1 84.0682 51.0215 47.3133 20.9720 14.4171 -23.1301
# 2 51.0215 80.6214 37.8592 -12.5187 14.8883 -7.6321
# 3 47.3133 37.8592 171.2545 14.8964 28.5278 -5.4159
# 4 20.9720 -12.5187 14.8964 41.2029 -6.5948 0.5842
# 5 14.4171 14.8883 28.5278 -6.5948 38.4630 0.2444
# 6 -23.1301 -7.6321 -5.4159 0.5842 0.2444 41.9063
#
#
#
# Elastic Compliance Matrix: (Units=1/GPa)
#
#
# Indices 1 2 3 4 5 6 
#
# 1 0.048702 -0.032004 -0.000546 -0.036520 -0.011860 0.021560
# 2 -0.032004 0.036591 -0.003063 0.029522 0.005241 -0.011839
# 3 -0.000546 -0.003063 0.007927 -0.004361 -0.005239 0.000257
# 4 -0.036520 0.029522 -0.004361 0.056069 0.015212 -0.016214
# 5 -0.011860 0.005241 -0.005239 0.015212 0.034952 -0.006685
# 6 0.021560 -0.011839 0.000257 -0.016214 -0.006685 0.033905
#
#
# Mechanical properties :
#
#
# Convention : Reuss Voigt Hill
#
# Bulk Modulus (GPa) = 45.46421 67.59244 56.52832
# Shear Modulus (GPa) = 16.85176 37.63113 27.24144
#
# Velocity S-wave (km/s) = 2.53744 3.79181 3.22618
# Velocity P-wave (km/s) = 5.09465 6.70788 5.95613
#
# Compressibility (1/GPa) = 0.02199532
#
# Stress axis : x y z
#
# Youngs Moduli (GPa) = 20.53292 27.32880 126.14759
#
# Poissons Ratio (x) = 0.87464 0.06885
# Poissons Ratio (y) = 0.65715 0.38633
# Poissons Ratio (z) = 0.01121 0.08370
#
# Static dielectric constant tensor:
#      x y z
#    x 2.122750 0.016080 -0.042030 
#    y 0.016080 2.168940 -0.107890 
#    z -0.042030 -0.107890 2.166920 
# 
# From -- ./inp_files/567013.got.cif
#   From: 2010.05.17/outbox.cif.g08.bks.cpg/sg2_284_cif.got.tgz:567013.got - 2010.06.03 11:33:40.
