data_PCOD9043085
_publ_section_title
;
Structure prediction by ZEFSAII (Michael W. Deem and Ramdas Pophale) SiO2 
 PCOD9043085
Probable space group: P -1
;
_chemical_formula_sum "Si O2"
_cell_formula_units_Z 14
_cell_length_a 14.490374
_cell_length_b 22.852671
_cell_length_c 28.325585
_cell_angle_alpha 11.835367
_cell_angle_beta 160.228260
_cell_angle_gamma 158.946453
_cell_volume 640.628234
_symmetry_space_group_name_H-M "P -1"
_symmetry_group_IT_number 2
_symmetry_cell_setting 'triclinic'
loop_
_space_group_symop_operation_xyz
x,y,z
-x,-y,-z
loop_
_atom_site_type_symbol
_atom_site_label
_atom_site_fract_x
_atom_site_fract_y
_atom_site_fract_z
Si Si1 0.737648 0.285893 0.883528
Si Si2 0.119625 0.232670 0.505914
Si Si3 0.655767 0.729430 0.675935
Si Si4 0.573269 0.269427 0.915733
Si Si5 0.948944 0.207228 0.676603
Si Si6 0.281615 0.420906 0.913449
Si Si7 0.676875 0.744494 0.780418
O O1 0.737676 0.518052 0.658195
O O2 0.709158 0.426443 0.810338
O O3 0.042452 0.200026 0.097819
O O4 0.500000 0.000000 0.000000
O O5 0.952529 0.380479 0.348515
O O6 0.322122 0.031335 0.784166
O O7 0.867503 0.005864 0.539705
O O8 0.347424 0.786114 0.494756
O O9 0.759731 0.687788 0.811603
O O10 0.634214 0.470789 0.832502
O O11 0.245135 0.208319 0.795293
O O12 0.000000 0.500000 0.500000
O O13 0.878632 0.904194 0.908794
O O14 0.468911 0.477849 0.912682
O O15 0.500000 0.500000 0.000000
O O16 0.500000 0.000000 0.500000
#
# Coordination Sequence:
#
# PCOD9043085 Si02
#       7
#     2   2   2   2   2   2   2
#     4  12  27  42  68 104 138 179 226 285 353 404
#     4  12  24  44  72  99 134 184 229 284 340 411
#     4  11  23  47  71  97 137 184 230 282 349 410
#     4  11  26  47  66 102 147 176 222 293 351 412
#     4  10  23  45  68  94 139 182 221 290 348 400
#     4  12  21  41  71  99 132 179 238 280 336 414
#     4  12  23  41  71 103 132 180 237 285 331 419
#
# _framework density 21.853548
#
# number of rings (size 3 to 8) (size 9 to 14) (size 15 to 20)
#    0.000    0.571    5.714    1.286    2.000    4.000 
#    5.143    1.429    0.000    0.000    0.000    0.000 
#    0.000    0.000    0.000    0.000    0.000    0.000 
#
# Total GULP energy -78115.145059 kJ/mol
# GULP energy per Si atom -5579.653219 kJ/mol
# Density = 2.180381 g / cm^3
# Si number density = 21.853548 Si / 1000 Ang^3
#
#
#
# Elastic Constant Matrix: (Units=GPa)
#
#
# Indices 1 2 3 4 5 6 
#
# 1 116.8944 23.0337 29.2774 -18.0660 -1.6630 14.1091
# 2 23.0337 104.2976 34.5307 -10.0206 9.8431 23.0547
# 3 29.2774 34.5307 91.9476 -2.5308 15.1991 11.6485
# 4 -18.0660 -10.0206 -2.5308 47.4912 6.7437 4.8630
# 5 -1.6630 9.8431 15.1991 6.7437 25.7951 -4.5933
# 6 14.1091 23.0547 11.6485 4.8630 -4.5933 40.4855
#
#
#
# Elastic Compliance Matrix: (Units=1/GPa)
#
#
# Indices 1 2 3 4 5 6 
#
# 1 0.010297 -0.000429 -0.002805 0.003836 0.000963 -0.002888
# 2 -0.000429 0.013276 -0.002770 0.004129 -0.005927 -0.007782
# 3 -0.002805 -0.002770 0.014532 0.000572 -0.008306 -0.002637
# 4 0.003836 0.004129 0.000572 0.025632 -0.009799 -0.008043
# 5 0.000963 -0.005927 -0.008306 -0.009799 0.050748 0.012364
# 6 -0.002888 -0.007782 -0.002637 -0.008043 0.012364 0.033266
#
#
# Mechanical properties :
#
#
# Convention : Reuss Voigt Hill
#
# Bulk Modulus (GPa) = 38.31960 54.09146 46.20553
# Shear Modulus (GPa) = 29.68083 37.84088 33.76086
#
# Velocity S-wave (km/s) = 3.68933 4.16572 3.93475
# Velocity P-wave (km/s) = 5.97671 6.92410 6.46778
#
# Compressibility (1/GPa) = 0.02609630
#
# Stress axis : x y z
#
# Youngs Moduli (GPa) = 97.11468 75.32416 68.81342
#
# Poissons Ratio (x) = 0.03233 0.19304
# Poissons Ratio (y) = 0.04168 0.19061
# Poissons Ratio (z) = 0.27244 0.20864
#
# Static dielectric constant tensor:
#      x y z
#    x 1.823690 -0.010590 0.004030 
#    y -0.010590 1.872810 0.040830 
#    z 0.004030 0.040830 1.851110 
# 
# From -- ./inp_files/623708.got.cif
#   From: 2010.05.17/outbox.cif.g08.bks.cpg/sg2_312_cif.got.tgz:623708.got - 2010.06.03 11:33:40.
