data_PCOD9043435
_publ_section_title
;
Structure prediction by ZEFSAII (Michael W. Deem and Ramdas Pophale) SiO2 
 PCOD9043435
Probable space group: P -1
;
_chemical_formula_sum "Si O2"
_cell_formula_units_Z 16
_cell_length_a 10.733641
_cell_length_b 11.364980
_cell_length_c 12.104025
_cell_angle_alpha 55.302010
_cell_angle_beta 107.280539
_cell_angle_gamma 144.115839
_cell_volume 669.004109
_symmetry_space_group_name_H-M "P -1"
_symmetry_group_IT_number 2
_symmetry_cell_setting 'triclinic'
loop_
_space_group_symop_operation_xyz
x,y,z
-x,-y,-z
loop_
_atom_site_type_symbol
_atom_site_label
_atom_site_fract_x
_atom_site_fract_y
_atom_site_fract_z
Si Si1 0.408605 0.369255 0.664660
Si Si2 0.287057 0.900673 0.545036
Si Si3 0.960511 0.599355 0.225941
Si Si4 0.463503 0.149842 0.676538
Si Si5 0.639868 0.529920 0.861981
Si Si6 0.484503 0.078604 0.063886
Si Si7 0.089902 0.341543 0.576825
Si Si8 0.815415 0.755116 0.006717
O O1 0.500000 0.500000 0.500000
O O2 0.358791 0.157617 0.739118
O O3 0.594024 0.543015 0.718238
O O4 0.201032 0.290812 0.670687
O O5 0.118034 0.631013 0.696722
O O6 0.151991 0.867678 0.433937
O O7 0.500000 0.000000 0.500000
O O8 0.361897 0.075320 0.567698
O O9 0.927523 0.582480 0.357715
O O10 0.810378 0.585411 0.134905
O O11 0.218689 0.870188 0.122674
O O12 0.443282 0.966110 0.798147
O O13 0.727095 0.425959 0.583110
O O14 0.409413 0.365588 0.951271
O O15 0.825144 0.756616 0.874683
O O16 0.636691 0.355337 0.949739
O O17 0.500000 0.000000 0.000000
O O18 0.000000 0.000000 0.000000
#
# Coordination Sequence:
#
# PCOD9043435 Si02
#       8
#     2   2   2   2   2   2   2   2
#     4  10  23  45  71 102 145 187 241 304 362 439
#     4  12  24  41  72 109 141 190 244 302 370 428
#     4  12  23  44  70 102 144 182 244 305 363 430
#     4  11  23  45  69 103 145 187 246 296 366 434
#     4  11  23  46  71 101 142 189 241 299 366 428
#     4  12  24  43  73  98 144 196 236 304 362 432
#     4  11  23  44  70 101 143 188 237 310 356 434
#     4  11  24  44  71 106 138 187 243 299 360 434
#
# _framework density 23.916145
#
# number of rings (size 3 to 8) (size 9 to 14) (size 15 to 20)
#    0.000    0.750    6.250    1.875    0.000    0.500 
#    4.500    8.750    0.000    0.000    0.000    0.000 
#    0.000    0.000    0.000    0.000    0.000    0.000 
#
# Total GULP energy -89432.864545 kJ/mol
# GULP energy per Si atom -5589.554034 kJ/mol
# Density = 2.386171 g / cm^3
# Si number density = 23.916145 Si / 1000 Ang^3
#
#
#
# Elastic Constant Matrix: (Units=GPa)
#
#
# Indices 1 2 3 4 5 6 
#
# 1 87.3984 31.0621 15.9250 13.9707 10.9273 -5.2194
# 2 31.0621 135.3421 37.6995 34.6920 -0.1108 -10.2148
# 3 15.9250 37.6995 86.0503 20.9285 14.7978 -5.5198
# 4 13.9707 34.6920 20.9285 49.0834 -2.1120 -1.7972
# 5 10.9273 -0.1108 14.7978 -2.1120 41.6421 6.3263
# 6 -5.2194 -10.2148 -5.5198 -1.7972 6.3263 28.9341
#
#
#
# Elastic Compliance Matrix: (Units=1/GPa)
#
#
# Indices 1 2 3 4 5 6 
#
# 1 0.013247 -0.002279 -0.000100 -0.002202 -0.003905 0.002283
# 2 -0.002279 0.010198 -0.002817 -0.005236 0.001042 0.002099
# 3 -0.000100 -0.002817 0.015233 -0.004630 -0.006075 0.002934
# 4 -0.002202 -0.005236 -0.004630 0.026759 0.003919 -0.002324
# 5 -0.003905 0.001042 -0.006075 0.003919 0.028537 -0.007492
# 6 0.002283 0.002099 0.002934 -0.002324 -0.007492 0.037768
#
#
# Mechanical properties :
#
#
# Convention : Reuss Voigt Hill
#
# Bulk Modulus (GPa) = 35.35343 53.12933 44.24138
# Shear Modulus (GPa) = 32.99017 38.87220 35.93119
#
# Velocity S-wave (km/s) = 3.71807 4.03594 3.88026
# Velocity P-wave (km/s) = 5.76597 6.63185 6.21401
#
# Compressibility (1/GPa) = 0.02828580
#
# Stress axis : x y z
#
# Youngs Moduli (GPa) = 75.49155 98.05950 65.64886
#
# Poissons Ratio (x) = 0.22348 0.00654
# Poissons Ratio (y) = 0.17205 0.18493
# Poissons Ratio (z) = 0.00752 0.27624
#
# Static dielectric constant tensor:
#      x y z
#    x 1.956560 0.034530 0.023580 
#    y 0.034530 1.974690 -0.030280 
#    z 0.023580 -0.030280 2.009000 
# 
# From -- ./inp_files/427846.got.cif
#   From: 2010.05.17/outbox.cif.g08.bks.cpg/sg2_214_cif.got.tgz:427846.got - 2010.06.03 11:33:40.
