data_PCOD9043008
_publ_section_title
;
Structure prediction by ZEFSAII (Michael W. Deem and Ramdas Pophale) SiO2 
 PCOD9043008
Probable space group: P -1
;
_chemical_formula_sum "Si O2"
_cell_formula_units_Z 16
_cell_length_a 21.507774
_cell_length_b 11.169667
_cell_length_c 9.308276
_cell_angle_alpha 60.196121
_cell_angle_beta 144.249595
_cell_angle_gamma 144.246769
_cell_volume 672.442952
_symmetry_space_group_name_H-M "P -1"
_symmetry_group_IT_number 2
_symmetry_cell_setting 'triclinic'
loop_
_space_group_symop_operation_xyz
x,y,z
-x,-y,-z
loop_
_atom_site_type_symbol
_atom_site_label
_atom_site_fract_x
_atom_site_fract_y
_atom_site_fract_z
Si Si1 0.361990 0.908812 0.173315
Si Si2 0.596704 0.279910 0.840132
Si Si3 0.977394 0.414986 0.851328
Si Si4 0.312997 0.390537 0.685139
Si Si5 0.825402 0.042364 0.335701
Si Si6 0.246822 0.040850 0.405155
Si Si7 0.790677 0.478166 0.364826
Si Si8 0.199070 0.284452 0.213362
O O1 0.404704 0.876032 0.126216
O O2 0.500000 0.000000 0.500000
O O3 0.325098 0.030389 0.995180
O O4 0.167193 0.646452 0.001108
O O5 0.399205 0.130070 0.541607
O O6 0.747185 0.531720 0.895094
O O7 0.633283 0.327211 0.047447
O O8 0.820879 0.349820 0.536134
O O9 0.929731 0.206568 0.855772
O O10 0.000000 0.500000 0.000000
O O11 0.258206 0.463712 0.636864
O O12 0.279692 0.399857 0.452606
O O13 0.176244 0.120494 0.606871
O O14 0.500000 0.500000 0.000000
O O15 0.020921 0.294309 0.499480
O O16 0.784818 0.018997 0.445485
O O17 0.303087 0.257837 0.371028
O O18 0.000000 0.000000 0.000000
#
# Coordination Sequence:
#
# PCOD9043008 Si02
#       8
#     2   2   2   2   2   2   2   2
#     4  11  25  43  68 101 137 182 231 288 345 410
#     4  12  25  43  70 103 137 182 228 288 347 415
#     4  11  25  43  68 100 139 181 231 285 345 414
#     4  11  25  43  70 102 139 182 228 293 350 415
#     4  10  23  45  67  98 136 181 231 282 343 414
#     4  11  24  44  67 100 137 181 231 282 347 410
#     4  11  24  44  71 101 135 183 230 285 348 415
#     4  11  25  45  71 100 139 186 230 291 347 418
#
# _framework density 23.793839999999999
#
# number of rings (size 3 to 8) (size 9 to 14) (size 15 to 20)
#    0.000    1.000    0.000    6.750    5.250    6.000 
#    2.250    0.000    0.000    0.000    0.000    0.000 
#    0.000    0.000    0.000    0.000    0.000    0.000 
#
# Total GULP energy -89258.733391 kJ/mol
# GULP energy per Si atom -5578.670837 kJ/mol
# Density = 2.373968 g / cm^3
# Si number density = 23.793840 Si / 1000 Ang^3
#
#
#
# Elastic Constant Matrix: (Units=GPa)
#
#
# Indices 1 2 3 4 5 6 
#
# 1 118.2789 16.0345 10.5845 4.4049 0.8904 -23.2586
# 2 16.0345 70.2102 11.1328 -1.1647 -4.4320 -9.8959
# 3 10.5845 11.1328 76.2952 -3.0351 -9.5068 4.9239
# 4 4.4049 -1.1647 -3.0351 31.7640 1.6003 12.4991
# 5 0.8904 -4.4320 -9.5068 1.6003 42.5155 15.0733
# 6 -23.2586 -9.8959 4.9239 12.4991 15.0733 32.3438
#
#
#
# Elastic Compliance Matrix: (Units=1/GPa)
#
#
# Indices 1 2 3 4 5 6 
#
# 1 0.012107 -0.000612 -0.003610 -0.007579 -0.006101 0.014840
# 2 -0.000612 0.015566 -0.002775 -0.001902 -0.001026 0.005958
# 3 -0.003610 -0.002775 0.015905 0.006118 0.007224 -0.011597
# 4 -0.007579 -0.001902 0.006118 0.043736 0.009755 -0.028411
# 5 -0.006101 -0.001026 0.007224 0.009755 0.033761 -0.025304
# 6 0.014840 0.005958 -0.011597 -0.028411 -0.025304 0.067950
#
#
# Mechanical properties :
#
#
# Convention : Reuss Voigt Hill
#
# Bulk Modulus (GPa) = 33.80025 37.80977 35.80501
# Shear Modulus (GPa) = 23.48756 36.46017 29.97386
#
# Velocity S-wave (km/s) = 3.14527 3.91875 3.55312
# Velocity P-wave (km/s) = 5.23704 6.03329 5.64921
#
# Compressibility (1/GPa) = 0.02958558
#
# Stress axis : x y z
#
# Youngs Moduli (GPa) = 82.59711 64.24228 62.87497
#
# Poissons Ratio (x) = 0.03930 0.22696
# Poissons Ratio (y) = 0.05053 0.17445
# Poissons Ratio (z) = 0.29816 0.17824
#
# Static dielectric constant tensor:
#      x y z
#    x 1.855120 -0.018810 0.055860 
#    y -0.018810 1.912780 -0.032270 
#    z 0.055860 -0.032270 1.899970 
# 
# From -- ./inp_files/346105.got.cif
#   From: 2010.05.17/outbox.cif.g08.bks.cpg/sg2_174_cif.got.tgz:346105.got - 2010.06.03 11:33:40.
