data_PCOD9043637
_publ_section_title
;
Structure prediction by ZEFSAII (Michael W. Deem and Ramdas Pophale) SiO2 
 PCOD9043637
Probable space group: P -1
;
_chemical_formula_sum "Si O2"
_cell_formula_units_Z 12
_cell_length_a 9.657726
_cell_length_b 12.685820
_cell_length_c 9.600640
_cell_angle_alpha 145.434184
_cell_angle_beta 58.652710
_cell_angle_gamma 103.131939
_cell_volume 518.470528
_symmetry_space_group_name_H-M "P -1"
_symmetry_group_IT_number 2
_symmetry_cell_setting 'triclinic'
loop_
_space_group_symop_operation_xyz
x,y,z
-x,-y,-z
loop_
_atom_site_type_symbol
_atom_site_label
_atom_site_fract_x
_atom_site_fract_y
_atom_site_fract_z
Si Si1 0.885314 0.682007 0.155648
Si Si2 0.688758 0.976937 0.821839
Si Si3 0.185000 0.016641 0.946947
Si Si4 0.744494 0.374747 0.188746
Si Si5 0.567612 0.454314 0.650408
Si Si6 0.644500 0.779073 0.132990
O O1 0.756791 0.852990 0.511685
O O2 0.768725 0.658578 0.065788
O O3 0.000000 0.500000 0.000000
O O4 0.045358 0.724280 0.049183
O O5 0.500000 0.000000 0.000000
O O6 0.817229 0.899592 0.803981
O O7 0.678551 0.196614 0.032556
O O8 0.333580 0.779957 0.604712
O O9 0.236579 0.158547 0.970893
O O10 0.000000 0.000000 0.000000
O O11 0.685636 0.474024 0.478802
O O12 0.624171 0.514110 0.278913
O O13 0.560487 0.631524 0.951512
O O14 0.500000 0.000000 0.500000
#
# Coordination Sequence:
#
# PCOD9043637 Si02
#       6
#     2   2   2   2   2   2
#     4  12  29  44  71 110 145 188 241 296 359 428
#     4  11  24  47  74 101 142 189 235 292 363 434
#     4  11  26  44  73 102 138 188 242 294 359 421
#     4  10  23  45  73 105 143 187 239 298 361 422
#     4  10  24  44  76 103 144 190 242 295 362 430
#     4  12  27  48  71 106 146 188 238 300 359 424
#
# _framework density 23.144998999999999
#
# number of rings (size 3 to 8) (size 9 to 14) (size 15 to 20)
#    0.000    1.000    0.000    5.500   14.000    3.333 
#    0.000    0.000    0.000    0.000    0.000    0.000 
#    0.000    0.000    0.000    0.000    0.000    0.000 
#
# Total GULP energy -67125.822352 kJ/mol
# GULP energy per Si atom -5593.818529 kJ/mol
# Density = 2.309232 g / cm^3
# Si number density = 23.144999 Si / 1000 Ang^3
#
#
#
# Elastic Constant Matrix: (Units=GPa)
#
#
# Indices 1 2 3 4 5 6 
#
# 1 103.1995 0.6144 18.5196 -17.6743 5.2341 -14.6989
# 2 0.6144 59.2960 -1.8842 1.4080 6.3180 -16.7802
# 3 18.5196 -1.8842 87.5914 -15.2452 14.4949 -0.6459
# 4 -17.6743 1.4080 -15.2452 37.4529 2.6967 -6.9252
# 5 5.2341 6.3180 14.4949 2.6967 39.6997 -4.8965
# 6 -14.6989 -16.7802 -0.6459 -6.9252 -4.8965 44.4455
#
#
#
# Elastic Compliance Matrix: (Units=1/GPa)
#
#
# Indices 1 2 3 4 5 6 
#
# 1 0.011718 0.001274 -0.001182 0.006033 -0.001090 0.005159
# 2 0.001274 0.019319 0.000996 0.001908 -0.002783 0.007720
# 3 -0.001182 0.000996 0.013490 0.005354 -0.005238 0.000438
# 4 0.006033 0.001908 0.005354 0.033360 -0.004394 0.007507
# 5 -0.001090 -0.002783 -0.005238 -0.004394 0.028101 0.000924
# 6 0.005159 0.007720 0.000438 0.007507 0.000924 0.028398
#
#
# Mechanical properties :
#
#
# Convention : Reuss Voigt Hill
#
# Bulk Modulus (GPa) = 21.41203 31.62071 26.51637
# Shear Modulus (GPa) = 33.83494 39.84209 36.83851
#
# Velocity S-wave (km/s) = 3.82759 4.15349 3.99386
# Velocity P-wave (km/s) = 5.36705 6.05753 5.72271
#
# Compressibility (1/GPa) = 0.04670271
#
# Stress axis : x y z
#
# Youngs Moduli (GPa) = 85.34036 51.76256 74.13019
#
# Poissons Ratio (x) = -0.06594 0.08760
# Poissons Ratio (y) = -0.10871 -0.07383
# Poissons Ratio (z) = 0.10084 -0.05155
#
# Static dielectric constant tensor:
#      x y z
#    x 1.857500 -0.041330 -0.031630 
#    y -0.041330 1.938350 -0.013270 
#    z -0.031630 -0.013270 2.009800 
# 
# From -- ./inp_files/149655.got.cif
#   From: 2010.05.17/outbox.cif.g08.bks.cpg/sg2_75_cif.got.tgz:149655.got - 2010.06.03 11:33:40.
