data_PCOD9043362
_publ_section_title
;
Structure prediction by ZEFSAII (Michael W. Deem and Ramdas Pophale) SiO2 
 PCOD9043362
Probable space group: P -1
;
_chemical_formula_sum "Si O2"
_cell_formula_units_Z 14
_cell_length_a 14.868746
_cell_length_b 8.625582
_cell_length_c 9.076375
_cell_angle_alpha 133.322023
_cell_angle_beta 124.030200
_cell_angle_gamma 85.866755
_cell_volume 600.634245
_symmetry_space_group_name_H-M "P -1"
_symmetry_group_IT_number 2
_symmetry_cell_setting 'triclinic'
loop_
_space_group_symop_operation_xyz
x,y,z
-x,-y,-z
loop_
_atom_site_type_symbol
_atom_site_label
_atom_site_fract_x
_atom_site_fract_y
_atom_site_fract_z
Si Si1 0.338398 0.750565 0.840637
Si Si2 0.944335 0.941100 0.246934
Si Si3 0.892429 0.528479 0.335655
Si Si4 0.819326 0.401661 0.839359
Si Si5 0.505319 0.529713 0.851990
Si Si6 0.760627 0.024180 0.312894
Si Si7 0.465792 0.698421 0.519965
O O1 0.240191 0.629173 0.804774
O O2 0.398022 0.587201 0.747964
O O3 0.271046 0.781646 0.659841
O O4 0.451825 0.030737 0.158652
O O5 0.951319 0.826627 0.597547
O O6 0.823828 0.968528 0.194319
O O7 0.902156 0.660088 0.993959
O O8 0.000000 0.000000 0.500000
O O9 0.000000 0.500000 0.500000
O O10 0.867915 0.453069 0.089210
O O11 0.825510 0.174809 0.621313
O O12 0.677454 0.360175 0.671036
O O13 0.485578 0.291294 0.594435
O O14 0.500000 0.500000 0.000000
O O15 0.641117 0.762500 0.080431
O O16 0.500000 0.500000 0.500000
#
# Coordination Sequence:
#
# PCOD9043362 Si02
#       7
#     2   2   2   2   2   2   2
#     4  12  25  45  70 100 146 175 230 283 347 411
#     4  10  23  45  70  93 136 180 230 276 336 406
#     4  11  25  47  68  97 137 185 227 285 331 405
#     4  11  24  43  75  99 132 183 232 277 349 403
#     4  12  26  40  67 107 141 174 225 287 346 410
#     4  12  23  45  69 102 135 179 228 284 341 410
#     4  12  23  43  73 106 139 182 224 281 358 409
#
# _framework density 23.308695
#
# number of rings (size 3 to 8) (size 9 to 14) (size 15 to 20)
#    0.000    0.571    5.714    2.143    4.000    3.429 
#    0.000    2.143    0.000    0.000    0.000    0.000 
#    0.000    0.000    0.000    0.000    0.000    0.000 
#
# Total GULP energy -78153.653106 kJ/mol
# GULP energy per Si atom -5582.403793 kJ/mol
# Density = 2.325564 g / cm^3
# Si number density = 23.308695 Si / 1000 Ang^3
#
#
#
# Elastic Constant Matrix: (Units=GPa)
#
#
# Indices 1 2 3 4 5 6 
#
# 1 67.5841 7.9363 13.7161 -3.9465 6.9407 0.4855
# 2 7.9363 71.3975 7.8437 -2.7492 16.6860 11.5317
# 3 13.7161 7.8437 84.5612 -4.6435 3.4557 6.7733
# 4 -3.9465 -2.7492 -4.6435 30.9478 2.7727 5.4115
# 5 6.9407 16.6860 3.4557 2.7727 44.0565 -3.0401
# 6 0.4855 11.5317 6.7733 5.4115 -3.0401 35.9998
#
#
#
# Elastic Compliance Matrix: (Units=1/GPa)
#
#
# Indices 1 2 3 4 5 6 
#
# 1 0.015682 -0.000967 -0.002283 0.001736 -0.002028 0.000096
# 2 -0.000967 0.016906 -0.000456 0.003034 -0.006844 -0.006350
# 3 -0.002283 -0.000456 0.012589 0.002075 -0.000763 -0.002568
# 4 0.001736 0.003034 0.002075 0.034713 -0.004250 -0.006962
# 5 -0.002028 -0.006844 -0.000763 -0.004250 0.026297 0.005223
# 6 0.000096 -0.006350 -0.002568 -0.006962 0.005223 0.031782
#
#
# Mechanical properties :
#
#
# Convention : Reuss Voigt Hill
#
# Bulk Modulus (GPa) = 26.48054 31.39278 28.93666
# Shear Modulus (GPa) = 31.65147 35.13727 33.39437
#
# Velocity S-wave (km/s) = 3.68900 3.88683 3.78921
# Velocity P-wave (km/s) = 5.43419 5.80007 5.62011
#
# Compressibility (1/GPa) = 0.03776358
#
# Stress axis : x y z
#
# Youngs Moduli (GPa) = 63.76608 59.15186 79.43288
#
# Poissons Ratio (x) = 0.05720 0.18138
# Poissons Ratio (y) = 0.06166 0.03625
# Poissons Ratio (z) = 0.14561 0.02699
#
# Static dielectric constant tensor:
#      x y z
#    x 2.121380 0.038480 0.228490 
#    y 0.038480 1.914270 -0.016810 
#    z 0.228490 -0.016810 2.057950 
# 
# From -- ./inp_files/236643.got.cif
#   From: 2010.05.17/outbox.cif.g08.bks.cpg/sg2_119_cif.got.tgz:236643.got - 2010.06.03 11:33:40.
