data_PCOD9043030
_publ_section_title
;
Structure prediction by ZEFSAII (Michael W. Deem and Ramdas Pophale) SiO2 
 PCOD9043030
Probable space group: P -1
;
_chemical_formula_sum "Si O2"
_cell_formula_units_Z 14
_cell_length_a 11.483545
_cell_length_b 8.707841
_cell_length_c 8.108507
_cell_angle_alpha 135.289079
_cell_angle_beta 95.332182
_cell_angle_gamma 86.164118
_cell_volume 567.971244
_symmetry_space_group_name_H-M "P -1"
_symmetry_group_IT_number 2
_symmetry_cell_setting 'triclinic'
loop_
_space_group_symop_operation_xyz
x,y,z
-x,-y,-z
loop_
_atom_site_type_symbol
_atom_site_label
_atom_site_fract_x
_atom_site_fract_y
_atom_site_fract_z
Si Si1 0.026474 0.335455 0.623206
Si Si2 0.364051 0.538214 0.296265
Si Si3 0.844236 0.648942 0.015727
Si Si4 0.509621 0.744501 0.104020
Si Si5 0.588345 0.829510 0.510500
Si Si6 0.112663 0.944554 0.860540
Si Si7 0.231612 0.526761 0.609776
O O1 0.108201 0.413141 0.543362
O O2 0.949184 0.524192 0.840580
O O3 0.940811 0.164154 0.396071
O O4 0.111201 0.273733 0.740382
O O5 0.267185 0.513377 0.118598
O O6 0.459906 0.727997 0.457161
O O7 0.284500 0.545529 0.450297
O O8 0.441311 0.317809 0.114587
O O9 0.818166 0.848647 0.042058
O O10 0.596136 0.852551 0.331214
O O11 0.408078 0.926629 0.227407
O O12 0.500000 0.500000 0.000000
O O13 0.677404 0.638269 0.420928
O O14 0.197521 0.776260 0.837969
O O15 0.000000 0.000000 0.000000
#
# Coordination Sequence:
#
# PCOD9043030 Si02
#       7
#     2   2   2   2   2   2   2
#     4  11  24  47  67 101 136 184 246 292 361 419
#     4  11  23  42  68 100 140 183 231 289 354 418
#     4  11  24  44  72  98 138 190 242 294 346 429
#     4   9  21  45  68  96 137 183 236 280 348 418
#     4  10  23  45  68 100 142 185 229 292 346 434
#     4  12  24  45  69 103 144 186 235 300 357 415
#     4  12  24  44  67 105 144 181 236 288 362 418
#
# _framework density 24.649137
#
# number of rings (size 3 to 8) (size 9 to 14) (size 15 to 20)
#    0.000    1.143    2.857    3.000    2.000    0.571 
#   12.857    0.000    0.000    0.000    0.000    0.000 
#    0.000    0.000    0.000    0.000    0.000    0.000 
#
# Total GULP energy -78022.913361 kJ/mol
# GULP energy per Si atom -5573.065240 kJ/mol
# Density = 2.459303 g / cm^3
# Si number density = 24.649137 Si / 1000 Ang^3
#
#
#
# Elastic Constant Matrix: (Units=GPa)
#
#
# Indices 1 2 3 4 5 6 
#
# 1 123.3817 58.1889 43.9189 18.8995 -8.2671 -1.7930
# 2 58.1889 87.6381 34.5760 30.9650 -12.6031 -16.9048
# 3 43.9189 34.5760 106.3240 9.4756 -27.9690 -2.4517
# 4 18.8995 30.9650 9.4756 41.1234 0.5596 -10.0865
# 5 -8.2671 -12.6031 -27.9690 0.5596 47.0971 -1.1305
# 6 -1.7930 -16.9048 -2.4517 -10.0865 -1.1305 48.9321
#
#
#
# Elastic Compliance Matrix: (Units=1/GPa)
#
#
# Indices 1 2 3 4 5 6 
#
# 1 0.012894 -0.008166 -0.003270 0.000395 -0.001928 -0.002475
# 2 -0.008166 0.023560 -0.002038 -0.012272 0.003934 0.005299
# 3 -0.003270 -0.002038 0.013194 -0.000101 0.006716 -0.000028
# 4 0.000395 -0.012272 -0.000101 0.034115 -0.003615 0.002719
# 5 -0.001928 0.003934 0.006716 -0.003615 0.026014 0.001481
# 6 -0.002475 0.005299 -0.000028 0.002719 0.001481 0.022770
#
#
# Mechanical properties :
#
#
# Convention : Reuss Voigt Hill
#
# Bulk Modulus (GPa) = 44.05126 65.63461 54.84293
# Shear Modulus (GPa) = 29.92898 39.47450 34.70174
#
# Velocity S-wave (km/s) = 3.48832 4.00616 3.75617
# Velocity P-wave (km/s) = 5.84248 6.93430 6.41167
#
# Compressibility (1/GPa) = 0.02270083
#
# Stress axis : x y z
#
# Youngs Moduli (GPa) = 77.55320 42.44451 75.79234
#
# Poissons Ratio (x) = 0.34658 0.24786
# Poissons Ratio (y) = 0.63327 0.15446
# Poissons Ratio (z) = 0.25362 0.08650
#
# Static dielectric constant tensor:
#      x y z
#    x 2.023710 -0.042110 -0.016280 
#    y -0.042110 2.051880 -0.012170 
#    z -0.016280 -0.012170 2.012430 
# 
# From -- ./inp_files/246257.got.cif
#   From: 2010.05.17/outbox.cif.g08.bks.cpg/sg2_124_cif.got.tgz:246257.got - 2010.06.03 11:33:40.
