data_PCOD9043601
_publ_section_title
;
Structure prediction by ZEFSAII (Michael W. Deem and Ramdas Pophale) SiO2 
 PCOD9043601
Probable space group: P -1
;
_chemical_formula_sum "Si O2"
_cell_formula_units_Z 14
_cell_length_a 7.613303
_cell_length_b 13.207858
_cell_length_c 14.345506
_cell_angle_alpha 49.032101
_cell_angle_beta 145.459915
_cell_angle_gamma 117.543157
_cell_volume 607.321488
_symmetry_space_group_name_H-M "P -1"
_symmetry_group_IT_number 2
_symmetry_cell_setting 'triclinic'
loop_
_space_group_symop_operation_xyz
x,y,z
-x,-y,-z
loop_
_atom_site_type_symbol
_atom_site_label
_atom_site_fract_x
_atom_site_fract_y
_atom_site_fract_z
Si Si1 0.150086 0.352668 0.696199
Si Si2 0.817740 0.193123 0.278956
Si Si3 0.521307 0.951974 0.263047
Si Si4 0.178670 0.895539 0.326911
Si Si5 0.568091 0.458527 0.948744
Si Si6 0.265874 0.842217 0.029958
Si Si7 0.616371 0.749049 0.762271
O O1 0.000000 0.500000 0.500000
O O2 0.915363 0.246591 0.658674
O O3 0.274418 0.395325 0.823101
O O4 0.450774 0.265722 0.826172
O O5 0.843925 0.327687 0.151074
O O6 0.616491 0.222809 0.267793
O O7 0.160174 0.128024 0.502956
O O8 0.627203 0.094750 0.198093
O O9 0.282256 0.965311 0.237075
O O10 0.390813 0.876505 0.166077
O O11 0.453932 0.852116 0.549074
O O12 0.878508 0.005028 0.166308
O O13 0.500000 0.500000 0.000000
O O14 0.620851 0.590285 0.836136
O O15 0.958742 0.771917 0.928537
#
# Coordination Sequence:
#
# PCOD9043601 Si02
#       7
#     2   2   2   2   2   2   2
#     4  12  27  48  70 100 147 186 236 290 349 417
#     4  10  23  45  72  99 143 186 233 290 351 416
#     4  11  25  43  74 106 138 183 242 288 350 416
#     4  12  25  46  74 106 143 183 236 294 347 419
#     4  10  24  44  73  96 139 189 233 281 354 413
#     4  12  27  44  72 107 143 185 235 290 354 417
#     4  11  24  45  71 104 144 182 237 287 352 419
#
# _framework density 23.052040999999999
#
# number of rings (size 3 to 8) (size 9 to 14) (size 15 to 20)
#    0.000    0.857    2.857    3.000    8.000    2.857 
#    0.000    1.429    0.000    0.000    0.000    0.000 
#    0.000    0.000    0.000    0.000    0.000    0.000 
#
# Total GULP energy -78230.554147 kJ/mol
# GULP energy per Si atom -5587.896725 kJ/mol
# Density = 2.299957 g / cm^3
# Si number density = 23.052041 Si / 1000 Ang^3
#
#
#
# Elastic Constant Matrix: (Units=GPa)
#
#
# Indices 1 2 3 4 5 6 
#
# 1 76.5087 33.5499 37.0615 7.6696 3.6225 -17.7910
# 2 33.5499 163.1674 65.5886 -4.7961 1.1755 4.9260
# 3 37.0615 65.5886 121.3583 -6.5546 2.1201 -5.5460
# 4 7.6696 -4.7961 -6.5546 57.0483 1.7956 -6.1931
# 5 3.6225 1.1755 2.1201 1.7956 29.9796 4.8017
# 6 -17.7910 4.9260 -5.5460 -6.1931 4.8017 30.9973
#
#
#
# Elastic Compliance Matrix: (Units=1/GPa)
#
#
# Indices 1 2 3 4 5 6 
#
# 1 0.019018 -0.002702 -0.003897 -0.001948 -0.003530 0.010805
# 2 -0.002702 0.008344 -0.003856 0.000198 0.000846 -0.003658
# 3 -0.003897 -0.003856 0.011650 0.001645 -0.000437 0.000857
# 4 -0.001948 0.000198 0.001645 0.018374 -0.001477 0.003045
# 5 -0.003530 0.000846 -0.000437 -0.001477 0.035147 -0.007979
# 6 0.010805 -0.003658 0.000857 0.003045 -0.007979 0.041042
#
#
# Mechanical properties :
#
#
# Convention : Reuss Voigt Hill
#
# Bulk Modulus (GPa) = 55.24230 70.38161 62.81195
# Shear Modulus (GPa) = 31.14906 38.59399 34.87153
#
# Velocity S-wave (km/s) = 3.67992 4.09615 3.89360
# Velocity P-wave (km/s) = 6.48629 7.27799 6.89352
#
# Compressibility (1/GPa) = 0.01810207
#
# Stress axis : x y z
#
# Youngs Moduli (GPa) = 52.58130 119.84185 85.83788
#
# Poissons Ratio (x) = 0.32379 0.33455
# Poissons Ratio (y) = 0.14206 0.33098
# Poissons Ratio (z) = 0.20493 0.46210
#
# Static dielectric constant tensor:
#      x y z
#    x 1.885130 -0.009230 0.008950 
#    y -0.009230 1.913180 -0.059340 
#    z 0.008950 -0.059340 1.921680 
# 
# From -- ./inp_files/381281.got.cif
#   From: 2010.05.17/outbox.cif.g08.bks.cpg/sg2_191_cif.got.tgz:381281.got - 2010.06.03 11:33:40.
