data_PCOD9043083
_publ_section_title
;
Structure prediction by ZEFSAII (Michael W. Deem and Ramdas Pophale) SiO2 
 PCOD9043083
Probable space group: P -1
;
_chemical_formula_sum "Si O2"
_cell_formula_units_Z 16
_cell_length_a 22.114481
_cell_length_b 12.997333
_cell_length_c 9.492736
_cell_angle_alpha 131.609587
_cell_angle_beta 141.557829
_cell_angle_gamma 24.951281
_cell_volume 704.476071
_symmetry_space_group_name_H-M "P -1"
_symmetry_group_IT_number 2
_symmetry_cell_setting 'triclinic'
loop_
_space_group_symop_operation_xyz
x,y,z
-x,-y,-z
loop_
_atom_site_type_symbol
_atom_site_label
_atom_site_fract_x
_atom_site_fract_y
_atom_site_fract_z
Si Si1 0.098600 0.238467 0.430876
Si Si2 0.143744 0.660923 0.374077
Si Si3 0.357546 0.100709 0.942360
Si Si4 0.223166 0.788681 0.838441
Si Si5 0.677319 0.562711 0.771484
Si Si6 0.679122 0.842216 0.748206
Si Si7 0.874663 0.242835 0.083279
Si Si8 0.320190 0.939415 0.289421
O O1 0.000000 0.500000 0.500000
O O2 0.977630 0.265203 0.302706
O O3 0.167801 0.115377 0.290071
O O4 0.271459 0.071952 0.685512
O O5 0.264581 0.616326 0.650876
O O6 0.188234 0.657379 0.294411
O O7 0.193004 0.441960 0.277131
O O8 0.941006 0.934447 0.277346
O O9 0.249749 0.369137 0.007804
O O10 0.374846 0.045292 0.089870
O O11 0.500000 0.000000 0.000000
O O12 0.164200 0.775366 0.855918
O O13 0.348522 0.759136 0.101857
O O14 0.493805 0.780982 0.550383
O O15 0.696350 0.469823 0.872349
O O16 0.500000 0.000000 0.500000
O O17 0.734619 0.892127 0.782126
O O18 0.000000 0.000000 0.000000
#
# Coordination Sequence:
#
# PCOD9043083 Si02
#       8
#     2   2   2   2   2   2   2   2
#     4  12  25  42  70 100 134 178 229 282 338 409
#     4  10  23  45  68  93 138 181 222 286 336 405
#     4  11  22  42  68 102 135 168 221 279 336 405
#     4  11  26  45  68  98 138 184 234 278 336 416
#     4  11  22  44  69  94 140 171 221 290 333 405
#     4  11  23  43  71 100 135 180 219 285 351 397
#     4  12  24  45  68  94 135 184 224 280 343 398
#     4  12  25  45  68 102 137 179 229 284 349 406
#
# _framework density 22.711912999999999
#
# number of rings (size 3 to 8) (size 9 to 14) (size 15 to 20)
#    0.000    0.750    7.500    0.000    3.500    4.500 
#    0.000    0.000    0.000    0.000    0.000    0.000 
#    0.000    0.000    0.000    0.000    0.000    0.000 
#
# Total GULP energy -89174.508862 kJ/mol
# GULP energy per Si atom -5573.406804 kJ/mol
# Density = 2.266022 g / cm^3
# Si number density = 22.711913 Si / 1000 Ang^3
#
#
#
# Elastic Constant Matrix: (Units=GPa)
#
#
# Indices 1 2 3 4 5 6 
#
# 1 115.0879 25.4039 59.0778 2.6465 -14.7277 22.5382
# 2 25.4039 46.2337 22.8521 -5.1160 0.7831 14.9308
# 3 59.0778 22.8521 143.4956 16.0083 -6.7865 11.9571
# 4 2.6465 -5.1160 16.0083 37.3394 -0.1241 -1.7589
# 5 -14.7277 0.7831 -6.7865 -0.1241 43.7901 5.1426
# 6 22.5382 14.9308 11.9571 -1.7589 5.1426 32.0807
#
#
#
# Elastic Compliance Matrix: (Units=1/GPa)
#
#
# Indices 1 2 3 4 5 6 
#
# 1 0.013616 -0.003068 -0.004294 0.000128 0.004827 -0.007304
# 2 -0.003068 0.028483 -0.003076 0.004986 -0.000883 -0.009540
# 3 -0.004294 -0.003076 0.009648 -0.004224 0.000021 0.000618
# 4 0.000128 0.004986 -0.004224 0.029306 -0.000722 0.000886
# 5 0.004827 -0.000883 0.000021 -0.000722 0.025309 -0.007084
# 6 -0.007304 -0.009540 0.000618 0.000886 -0.007084 0.041697
#
#
# Mechanical properties :
#
#
# Convention : Reuss Voigt Hill
#
# Bulk Modulus (GPa) = 32.39443 57.72055 45.05749
# Shear Modulus (GPa) = 27.89818 35.80761 31.85289
#
# Velocity S-wave (km/s) = 3.50858 3.97495 3.74903
# Velocity P-wave (km/s) = 5.54145 6.82176 6.21466
#
# Compressibility (1/GPa) = 0.03086950
#
# Stress axis : x y z
#
# Youngs Moduli (GPa) = 73.44449 35.10907 103.65322
#
# Poissons Ratio (x) = 0.10770 0.44514
# Poissons Ratio (y) = 0.22529 0.31886
# Poissons Ratio (z) = 0.31541 0.10800
#
# Static dielectric constant tensor:
#      x y z
#    x 1.863270 -0.016950 0.014330 
#    y -0.016950 1.945810 -0.047560 
#    z 0.014330 -0.047560 1.932710 
# 
# From -- ./inp_files/346390.got.cif
#   From: 2010.05.17/outbox.cif.g08.bks.cpg/sg2_174_cif.got.tgz:346390.got - 2010.06.03 11:33:40.
