data_PCOD9043780
_publ_section_title
;
Structure prediction by ZEFSAII (Michael W. Deem and Ramdas Pophale) SiO2 
 PCOD9043780
Probable space group: P -1
;
_chemical_formula_sum "Si O2"
_cell_formula_units_Z 12
_cell_length_a 11.213964
_cell_length_b 12.468287
_cell_length_c 4.998451
_cell_angle_alpha 94.994669
_cell_angle_beta 117.389355
_cell_angle_gamma 125.005677
_cell_volume 445.176325
_symmetry_space_group_name_H-M "P -1"
_symmetry_group_IT_number 2
_symmetry_cell_setting 'triclinic'
loop_
_space_group_symop_operation_xyz
x,y,z
-x,-y,-z
loop_
_atom_site_type_symbol
_atom_site_label
_atom_site_fract_x
_atom_site_fract_y
_atom_site_fract_z
Si Si1 0.736122 0.053243 0.017383
Si Si2 0.896126 0.853383 0.526468
Si Si3 0.699743 0.390793 0.644289
Si Si4 0.060141 0.624222 0.811319
Si Si5 0.571548 0.604639 0.846833
Si Si6 0.411134 0.154963 0.657827
O O1 0.796774 0.211055 0.138077
O O2 0.939219 0.117631 0.158228
O O3 0.650820 0.952025 0.174981
O O4 0.603479 0.939503 0.619118
O O5 0.740206 0.831747 0.524109
O O6 0.789000 0.727713 0.158874
O O7 0.000000 0.000000 0.500000
O O8 0.520325 0.328414 0.272990
O O9 0.604617 0.326396 0.827482
O O10 0.863530 0.556890 0.722502
O O11 0.825446 0.354273 0.804194
O O12 0.000000 0.500000 0.500000
O O13 0.500000 0.500000 0.500000
O O14 0.500000 0.500000 0.000000
#
# Coordination Sequence:
#
# PCOD9043780 Si02
#       6
#     2   2   2   2   2   2
#     4  11  26  47  77 111 151 197 254 301 379 453
#     4  10  23  45  75 108 152 189 240 307 378 445
#     4  11  27  48  72 105 153 191 255 311 376 436
#     4  11  29  48  74 102 152 207 251 314 367 451
#     4  12  27  44  75 113 146 195 245 309 377 451
#     4  11  25  46  78 113 148 194 249 318 375 449
#
# _framework density 26.95561
#
# number of rings (size 3 to 8) (size 9 to 14) (size 15 to 20)
#    0.000    1.000    0.000    4.500   14.000    6.667 
#    0.000    0.000    0.000    0.000    0.000    0.000 
#    0.000    0.000    0.000    0.000    0.000    0.000 
#
# Total GULP energy -66865.328120 kJ/mol
# GULP energy per Si atom -5572.110677 kJ/mol
# Density = 2.689426 g / cm^3
# Si number density = 26.955610 Si / 1000 Ang^3
#
#
#
# Elastic Constant Matrix: (Units=GPa)
#
#
# Indices 1 2 3 4 5 6 
#
# 1 91.3662 30.2925 26.2299 -0.0905 -5.0982 37.2095
# 2 30.2925 183.8989 42.4464 9.5753 -28.9973 30.2735
# 3 26.2299 42.4464 110.5987 13.2664 -20.9600 8.5715
# 4 -0.0905 9.5753 13.2664 50.7942 1.7619 2.9372
# 5 -5.0982 -28.9973 -20.9600 1.7619 59.2678 -1.7395
# 6 37.2095 30.2735 8.5715 2.9372 -1.7395 56.8496
#
#
#
# Elastic Compliance Matrix: (Units=1/GPa)
#
#
# Indices 1 2 3 4 5 6 
#
# 1 0.015969 -0.000413 -0.003093 0.001493 -0.000256 -0.009851
# 2 -0.000413 0.006851 -0.001705 -0.000765 0.002648 -0.003000
# 3 -0.003093 -0.001705 0.011219 -0.002803 0.002994 0.001477
# 4 0.001493 -0.000765 -0.002803 0.020706 -0.001890 -0.001274
# 5 -0.000256 0.002648 0.002994 -0.001890 0.019231 -0.001008
# 6 -0.009851 -0.003000 0.001477 -0.001274 -0.001008 0.025448
#
#
# Mechanical properties :
#
#
# Convention : Reuss Voigt Hill
#
# Bulk Modulus (GPa) = 42.34351 64.86683 53.60517
# Shear Modulus (GPa) = 42.47485 52.50865 47.49175
#
# Velocity S-wave (km/s) = 3.97386 4.41837 4.20199
# Velocity P-wave (km/s) = 6.06614 7.08137 6.59333
#
# Compressibility (1/GPa) = 0.02361637
#
# Stress axis : x y z
#
# Youngs Moduli (GPa) = 62.62240 145.97250 89.13635
#
# Poissons Ratio (x) = 0.06029 0.27568
# Poissons Ratio (y) = 0.02586 0.15199
# Poissons Ratio (z) = 0.19367 0.24890
#
# Static dielectric constant tensor:
#      x y z
#    x 2.270340 -0.173150 -0.102730 
#    y -0.173150 2.049150 -0.071800 
#    z -0.102730 -0.071800 2.011050 
# 
# From -- ./inp_files/64778.got.cif
#   From: 2010.05.17/outbox.cif.g08.bks.cpg/sg2_33_cif.got.tgz:64778.got - 2010.06.03 11:33:40.
