data_PCOD9043563
_publ_section_title
;
Structure prediction by ZEFSAII (Michael W. Deem and Ramdas Pophale) SiO2 
 PCOD9043563
Probable space group: P -1
;
_chemical_formula_sum "Si O2"
_cell_formula_units_Z 14
_cell_length_a 6.947550
_cell_length_b 7.840144
_cell_length_c 14.907485
_cell_angle_alpha 128.053119
_cell_angle_beta 101.579239
_cell_angle_gamma 54.413893
_cell_volume 503.922658
_symmetry_space_group_name_H-M "P -1"
_symmetry_group_IT_number 2
_symmetry_cell_setting 'triclinic'
loop_
_space_group_symop_operation_xyz
x,y,z
-x,-y,-z
loop_
_atom_site_type_symbol
_atom_site_label
_atom_site_fract_x
_atom_site_fract_y
_atom_site_fract_z
Si Si1 0.396506 0.039638 0.665678
Si Si2 0.053421 0.434884 0.302296
Si Si3 0.756217 0.279950 0.532767
Si Si4 0.711117 0.244014 0.032188
Si Si5 0.974580 0.055995 0.824343
Si Si6 0.373512 0.720690 0.287390
Si Si7 0.460813 0.000127 0.867898
O O1 0.613631 0.025409 0.631321
O O2 0.168294 0.300147 0.679520
O O3 0.365742 0.801518 0.575653
O O4 0.423126 0.083639 0.786284
O O5 0.157987 0.532451 0.418272
O O6 0.273377 0.283482 0.201403
O O7 0.007115 0.217700 0.255771
O O8 0.595545 0.376239 0.639759
O O9 0.000000 0.000000 0.500000
O O10 0.590821 0.487136 0.169114
O O11 0.779156 0.985084 0.135164
O O12 0.759181 0.273082 0.942082
O O13 0.521321 0.167434 0.988003
O O14 0.877451 0.174349 0.753944
O O15 0.000000 0.000000 0.000000
#
# Coordination Sequence:
#
# PCOD9043563 Si02
#       7
#     2   2   2   2   2   2   2
#     4  11  23  47  74 105 147 195 246 297 362 434
#     4  10  23  45  72 104 150 187 245 297 355 432
#     4  10  24  45  72 107 144 196 248 294 361 431
#     4  11  26  48  73 110 147 191 244 296 369 442
#     4  11  24  46  70 113 144 190 244 298 367 433
#     4  12  23  47  76 103 152 193 240 308 360 428
#     4  11  25  48  73 109 148 187 246 298 365 436
#
# _framework density 27.782038
#
# number of rings (size 3 to 8) (size 9 to 14) (size 15 to 20)
#    0.000    1.143    2.857    4.286    4.000    1.714 
#    7.714    3.571    0.000    0.857    0.000    0.000 
#    0.000    0.000    0.000    0.000    0.000    0.000 
#
# Total GULP energy -78342.767078 kJ/mol
# GULP energy per Si atom -5595.911934 kJ/mol
# Density = 2.771881 g / cm^3
# Si number density = 27.782038 Si / 1000 Ang^3
#
#
#
# Elastic Constant Matrix: (Units=GPa)
#
#
# Indices 1 2 3 4 5 6 
#
# 1 195.0526 34.0326 62.5184 3.9038 39.0615 -5.5095
# 2 34.0326 82.1335 36.3558 -11.8364 16.3800 -11.8653
# 3 62.5184 36.3558 122.4142 3.8242 37.0922 -5.2420
# 4 3.9038 -11.8364 3.8242 46.7331 2.4216 11.7604
# 5 39.0615 16.3800 37.0922 2.4216 70.6273 -4.0283
# 6 -5.5095 -11.8653 -5.2420 11.7604 -4.0283 57.6991
#
#
#
# Elastic Compliance Matrix: (Units=1/GPa)
#
#
# Indices 1 2 3 4 5 6 
#
# 1 0.006524 -0.001355 -0.002278 -0.000625 -0.002069 0.000120
# 2 -0.001355 0.015355 -0.003627 0.003884 -0.000935 0.001842
# 3 -0.002278 -0.003627 0.011664 -0.001509 -0.003966 0.000127
# 4 -0.000625 0.003884 -0.001509 0.023677 -0.000819 -0.004281
# 5 -0.002069 -0.000935 -0.003966 -0.000819 0.017668 0.000650
# 6 0.000120 0.001842 0.000127 -0.004281 0.000650 0.018651
#
#
# Mechanical properties :
#
#
# Convention : Reuss Voigt Hill
#
# Bulk Modulus (GPa) = 52.57074 73.93487 63.25281
# Shear Modulus (GPa) = 43.70687 52.79148 48.24917
#
# Velocity S-wave (km/s) = 3.97067 4.36386 4.17190
# Velocity P-wave (km/s) = 6.32339 7.21535 6.78405
#
# Compressibility (1/GPa) = 0.01902199
#
# Stress axis : x y z
#
# Youngs Moduli (GPa) = 153.29114 65.12719 85.73624
#
# Poissons Ratio (x) = 0.08824 0.19527
# Poissons Ratio (y) = 0.20769 0.31100
# Poissons Ratio (z) = 0.34913 0.23624
#
# Static dielectric constant tensor:
#      x y z
#    x 2.266450 0.056360 -0.015750 
#    y 0.056360 2.264240 -0.000670 
#    z -0.015750 -0.000670 2.201570 
# 
# From -- ./inp_files/327898.got.cif
#   From: 2010.05.17/outbox.cif.g08.bks.cpg/sg2_164_cif.got.tgz:327898.got - 2010.06.03 11:33:40.
