data_PCOD9043568
_publ_section_title
;
Structure prediction by ZEFSAII (Michael W. Deem and Ramdas Pophale) SiO2 
 PCOD9043568
Probable space group: P -1
;
_chemical_formula_sum "Si O2"
_cell_formula_units_Z 14
_cell_length_a 16.587407
_cell_length_b 11.052419
_cell_length_c 5.621943
_cell_angle_alpha 93.696399
_cell_angle_beta 108.114286
_cell_angle_gamma 37.904727
_cell_volume 572.219648
_symmetry_space_group_name_H-M "P -1"
_symmetry_group_IT_number 2
_symmetry_cell_setting 'triclinic'
loop_
_space_group_symop_operation_xyz
x,y,z
-x,-y,-z
loop_
_atom_site_type_symbol
_atom_site_label
_atom_site_fract_x
_atom_site_fract_y
_atom_site_fract_z
Si Si1 0.190148 0.527455 0.654597
Si Si2 0.418108 0.616797 0.689403
Si Si3 0.214915 0.246264 0.783668
Si Si4 0.509294 0.099614 0.706644
Si Si5 0.162932 0.815577 0.711289
Si Si6 0.918187 0.840704 0.110295
Si Si7 0.279611 0.004087 0.424846
O O1 0.146988 0.457662 0.754441
O O2 0.351971 0.318122 0.681038
O O3 0.190302 0.651081 0.823707
O O4 0.077558 0.669616 0.348002
O O5 0.500000 0.500000 0.500000
O O6 0.277374 0.694665 0.587631
O O7 0.356992 0.824634 0.655689
O O8 0.500000 0.500000 0.000000
O O9 0.136627 0.225190 0.840105
O O10 0.229152 0.187294 0.518123
O O11 0.377163 0.068729 0.008039
O O12 0.595102 0.111348 0.663279
O O13 0.500000 0.000000 0.500000
O O14 0.168892 0.935230 0.871578
O O15 0.000000 0.000000 0.500000
O O16 0.865270 0.889068 0.797102
#
# Coordination Sequence:
#
# PCOD9043568 Si02
#       7
#     2   2   2   2   2   2   2
#     4  11  23  42  71 103 139 186 239 300 367 436
#     4  12  26  45  75 107 143 199 255 305 368 454
#     4  11  23  43  72  96 141 184 236 297 360 434
#     4  11  24  43  65 104 143 184 234 307 369 430
#     4  10  23  45  72 105 148 190 243 311 373 436
#     4  10  23  47  69 100 141 190 241 293 364 449
#     4  11  24  44  71  98 143 184 238 299 362 438
#
# _framework density 24.46613
#
# number of rings (size 3 to 8) (size 9 to 14) (size 15 to 20)
#    0.000    1.143    2.857    2.571    4.000    0.571 
#    2.571    9.286    0.000    0.000    0.000    0.000 
#    0.000    0.000    0.000    0.000    0.000    0.000 
#
# Total GULP energy -78205.165991 kJ/mol
# GULP energy per Si atom -5586.083285 kJ/mol
# Density = 2.441044 g / cm^3
# Si number density = 24.466130 Si / 1000 Ang^3
#
#
#
# Elastic Constant Matrix: (Units=GPa)
#
#
# Indices 1 2 3 4 5 6 
#
# 1 110.3119 55.4458 31.1148 -9.4450 6.1998 17.6482
# 2 55.4458 133.4453 45.2538 -15.6348 5.9908 24.0172
# 3 31.1148 45.2538 115.6655 -17.7411 11.9846 -7.3461
# 4 -9.4450 -15.6348 -17.7411 34.8381 3.8084 3.5109
# 5 6.1998 5.9908 11.9846 3.8084 32.8847 -15.4381
# 6 17.6482 24.0172 -7.3461 3.5109 -15.4381 57.2604
#
#
#
# Elastic Compliance Matrix: (Units=1/GPa)
#
#
# Indices 1 2 3 4 5 6 
#
# 1 0.012128 -0.003635 -0.001528 0.001508 -0.002766 -0.003247
# 2 -0.003635 0.011495 -0.002981 0.003518 -0.003146 -0.005147
# 3 -0.001528 -0.002981 0.011267 0.004063 -0.002720 0.002184
# 4 0.001508 0.003518 0.004063 0.034373 -0.009207 -0.006009
# 5 -0.002766 -0.003146 -0.002720 -0.009207 0.039709 0.013094
# 6 -0.003247 -0.005147 0.002184 -0.006009 0.013094 0.024803
#
#
# Mechanical properties :
#
#
# Convention : Reuss Voigt Hill
#
# Bulk Modulus (GPa) = 53.76314 69.22793 61.49553
# Shear Modulus (GPa) = 31.99751 40.17054 36.08403
#
# Velocity S-wave (km/s) = 3.62031 4.05641 3.84455
# Velocity P-wave (km/s) = 6.28473 7.09198 6.70052
#
# Compressibility (1/GPa) = 0.01860010
#
# Stress axis : x y z
#
# Youngs Moduli (GPa) = 82.45623 86.99593 88.75734
#
# Poissons Ratio (x) = 0.31626 0.13566
# Poissons Ratio (y) = 0.29976 0.26456
# Poissons Ratio (z) = 0.12603 0.25931
#
# Static dielectric constant tensor:
#      x y z
#    x 2.024700 0.015200 -0.044480 
#    y 0.015200 1.944230 0.022920 
#    z -0.044480 0.022920 1.967900 
# 
# From -- ./inp_files/109138.got.cif
#   From: 2010.05.17/outbox.cif.g08.bks.cpg/sg2_55_cif.got.tgz:109138.got - 2010.06.03 11:33:40.
