data_PCOD9043995
_publ_section_title
;
Structure prediction by ZEFSAII (Michael W. Deem and Ramdas Pophale) SiO2 
 PCOD9043995
Probable space group: P -1
;
_chemical_formula_sum "Si O2"
_cell_formula_units_Z 16
_cell_length_a 15.938945
_cell_length_b 9.355786
_cell_length_c 14.631185
_cell_angle_alpha 70.584343
_cell_angle_beta 150.318738
_cell_angle_gamma 88.587139
_cell_volume 755.319592
_symmetry_space_group_name_H-M "P -1"
_symmetry_group_IT_number 2
_symmetry_cell_setting 'triclinic'
loop_
_space_group_symop_operation_xyz
x,y,z
-x,-y,-z
loop_
_atom_site_type_symbol
_atom_site_label
_atom_site_fract_x
_atom_site_fract_y
_atom_site_fract_z
Si Si1 0.488394 0.475950 0.316375
Si Si2 0.775950 0.957998 0.313944
Si Si3 0.545005 0.905605 0.866596
Si Si4 0.865028 0.097921 0.204851
Si Si5 0.720603 0.632674 0.493070
Si Si6 0.031956 0.486044 0.423372
Si Si7 0.807419 0.053096 0.606615
Si Si8 0.047434 0.596763 0.948796
O O1 0.626581 0.538158 0.472475
O O2 0.676693 0.247841 0.505317
O O3 0.318594 0.659843 0.041848
O O4 0.309452 0.488561 0.204999
O O5 0.925623 0.975992 0.516688
O O6 0.919309 0.718615 0.506649
O O7 0.530844 0.086149 0.102559
O O8 0.760653 0.027994 0.182221
O O9 0.382964 0.898282 0.652766
O O10 0.472922 0.121829 0.735587
O O11 0.799138 0.706470 0.127101
O O12 0.989839 0.988835 0.250632
O O13 0.937521 0.585679 0.755624
O O14 0.779926 0.556220 0.459457
O O15 0.000000 0.500000 0.500000
O O16 0.917526 0.832809 0.797520
O O17 0.000000 0.500000 0.000000
#
# Coordination Sequence:
#
# PCOD9043995 Si02
#       8
#     2   2   2   2   2   2   2   2
#     4  11  22  37  64  89 120 153 194 249 306 355
#     4   9  19  33  49  78 112 163 214 243 282 338
#     4   9  19  37  54  75 121 168 202 245 290 337
#     4   9  19  33  53  78 119 156 200 252 286 337
#     4  10  24  40  60  92 123 157 203 246 297 359
#     4  11  23  32  53  82 124 165 203 241 285 341
#     4   9  19  37  61  86 113 157 197 237 306 363
#     4  10  23  46  68  88 119 152 192 253 311 366
#
# _framework density 21.183087
#
# number of rings (size 3 to 8) (size 9 to 14) (size 15 to 20)
#    0.000    2.250    0.000    3.750    5.250    3.000 
#    0.000    4.375    0.000    0.000    0.000    0.000 
#    0.000    0.000    0.000    0.000    0.000    0.000 
#
# Total GULP energy -89170.110480 kJ/mol
# GULP energy per Si atom -5573.131905 kJ/mol
# Density = 2.113487 g / cm^3
# Si number density = 21.183087 Si / 1000 Ang^3
#
#
#
# Elastic Constant Matrix: (Units=GPa)
#
#
# Indices 1 2 3 4 5 6 
#
# 1 96.4249 38.9189 19.8113 -22.4578 18.1019 25.2063
# 2 38.9189 85.6458 30.7697 -13.3858 26.8567 13.9566
# 3 19.8113 30.7697 63.3038 -25.1204 31.7391 -4.7047
# 4 -22.4578 -13.3858 -25.1204 39.6180 -4.0145 4.0861
# 5 18.1019 26.8567 31.7391 -4.0145 29.5400 5.1708
# 6 25.2063 13.9566 -4.7047 4.0861 5.1708 24.5418
#
#
#
# Elastic Compliance Matrix: (Units=1/GPa)
#
#
# Indices 1 2 3 4 5 6 
#
# 1 0.020817 -0.002467 0.002843 0.014010 -0.008154 -0.020047
# 2 -0.002467 0.018789 -0.000604 0.003845 -0.013332 -0.006098
# 3 0.002843 -0.000604 0.064731 0.033458 -0.069506 0.018907
# 4 0.014010 0.003845 0.033458 0.052858 -0.038964 -0.010753
# 5 -0.008154 -0.013332 -0.069506 -0.038964 0.123306 -0.016860
# 6 -0.020047 -0.006098 0.018907 -0.010753 -0.016860 0.073772
#
#
# Mechanical properties :
#
#
# Convention : Reuss Voigt Hill
#
# Bulk Modulus (GPa) = 9.62639 47.15271 28.38955
# Shear Modulus (GPa) = 12.84165 29.13159 20.98662
#
# Velocity S-wave (km/s) = 2.46483 3.71243 3.15099
# Velocity P-wave (km/s) = 3.55735 6.37841 5.16425
#
# Compressibility (1/GPa) = 0.10388111
#
# Stress axis : x y z
#
# Youngs Moduli (GPa) = 48.03764 53.22141 15.44843
#
# Poissons Ratio (x) = 0.13131 -0.04391
# Poissons Ratio (y) = 0.11852 0.00933
# Poissons Ratio (z) = -0.13655 0.03213
#
# Static dielectric constant tensor:
#      x y z
#    x 1.819360 0.002110 0.000160 
#    y 0.002110 1.775130 0.065200 
#    z 0.000160 0.065200 1.781460 
# 
# From -- ./inp_files/45726.got.cif
#   From: 2010.05.17/outbox.cif.g08.bks.cpg/sg2_23_cif.got.tgz:45726.got - 2010.06.03 11:33:40.
