data_PCOD9043289
_publ_section_title
;
Structure prediction by ZEFSAII (Michael W. Deem and Ramdas Pophale) SiO2 
 PCOD9043289
Probable space group: P -1
;
_chemical_formula_sum "Si O2"
_cell_formula_units_Z 14
_cell_length_a 11.946331
_cell_length_b 9.378421
_cell_length_c 16.184422
_cell_angle_alpha 71.461577
_cell_angle_beta 34.005155
_cell_angle_gamma 47.969417
_cell_volume 618.533766
_symmetry_space_group_name_H-M "P -1"
_symmetry_group_IT_number 2
_symmetry_cell_setting 'triclinic'
loop_
_space_group_symop_operation_xyz
x,y,z
-x,-y,-z
loop_
_atom_site_type_symbol
_atom_site_label
_atom_site_fract_x
_atom_site_fract_y
_atom_site_fract_z
Si Si1 0.841992 0.634382 0.657344
Si Si2 0.410773 0.880079 0.595934
Si Si3 0.708902 0.409658 0.514041
Si Si4 0.240062 0.997155 0.858844
Si Si5 0.826162 0.320506 0.788546
Si Si6 0.775134 0.509327 0.093458
Si Si7 0.855216 0.082719 0.666614
O O1 0.887843 0.463124 0.718998
O O2 0.000000 0.500000 0.500000
O O3 0.023405 0.671723 0.575927
O O4 0.477222 0.868539 0.814401
O O5 0.576889 0.633392 0.507568
O O6 0.500000 0.000000 0.500000
O O7 0.438805 0.857754 0.681122
O O8 0.057574 0.086739 0.743866
O O9 0.427190 0.485624 0.721939
O O10 0.913786 0.168640 0.384597
O O11 0.018285 0.268634 0.938632
O O12 0.000000 0.000000 0.000000
O O13 0.847936 0.237871 0.697920
O O14 0.500000 0.500000 0.000000
O O15 0.508542 0.741015 0.158664
O O16 0.000000 0.500000 0.000000
O O17 0.000000 0.000000 0.500000
#
# Coordination Sequence:
#
# PCOD9043289 Si02
#       7
#     2   2   2   2   2   2   2
#     4  12  21  41  72 102 138 193 244 282 341 431
#     4  12  24  42  67 103 142 180 233 286 356 421
#     4  11  23  43  68  98 139 186 237 284 350 428
#     4  12  22  41  72 103 136 183 242 295 337 414
#     4  12  26  44  70 106 146 182 230 301 361 409
#     4  11  23  41  68 104 135 172 238 303 346 399
#     4  10  23  45  70 101 139 187 238 284 350 432
#
# _framework density 22.634172
#
# number of rings (size 3 to 8) (size 9 to 14) (size 15 to 20)
#    0.000    0.571    4.286    5.143    0.000    4.000 
#    0.000    0.714    0.000    0.000    0.000    0.000 
#    0.000    0.000    0.000    0.000    0.000    0.000 
#
# Total GULP energy -78064.289495 kJ/mol
# GULP energy per Si atom -5576.020678 kJ/mol
# Density = 2.258266 g / cm^3
# Si number density = 22.634172 Si / 1000 Ang^3
#
#
#
# Elastic Constant Matrix: (Units=GPa)
#
#
# Indices 1 2 3 4 5 6 
#
# 1 80.6807 16.8314 24.1518 3.5938 -23.3719 10.1133
# 2 16.8314 143.1473 48.9345 21.9085 -11.1431 6.7461
# 3 24.1518 48.9345 93.7003 12.7623 -27.6451 7.7985
# 4 3.5938 21.9085 12.7623 60.6628 -0.3276 -11.6190
# 5 -23.3719 -11.1431 -27.6451 -0.3276 39.1787 9.6360
# 6 10.1133 6.7461 7.7985 -11.6190 9.6360 44.3572
#
#
#
# Elastic Compliance Matrix: (Units=1/GPa)
#
#
# Indices 1 2 3 4 5 6 
#
# 1 0.016779 -0.000498 0.000260 -0.002127 0.011731 -0.006901
# 2 -0.000498 0.008882 -0.004244 -0.002485 -0.000534 -0.001026
# 3 0.000260 -0.004244 0.017566 -0.003287 0.012828 -0.006150
# 4 -0.002127 -0.002485 -0.003287 0.019683 -0.006078 0.007917
# 5 0.011731 -0.000534 0.012828 -0.006078 0.045380 -0.016299
# 6 -0.006901 -0.001026 -0.006150 0.007917 -0.016299 0.030970
#
#
# Mechanical properties :
#
#
# Convention : Reuss Voigt Hill
#
# Bulk Modulus (GPa) = 29.18526 55.26262 42.22394
# Shear Modulus (GPa) = 31.31980 44.01379 37.66680
#
# Velocity S-wave (km/s) = 3.72390 4.41452 4.08383
# Velocity P-wave (km/s) = 5.60466 7.10299 6.39784
#
# Compressibility (1/GPa) = 0.03426387
#
# Stress axis : x y z
#
# Youngs Moduli (GPa) = 59.60006 112.58371 56.92835
#
# Poissons Ratio (x) = 0.05605 -0.01483
# Poissons Ratio (y) = 0.02967 0.24160
# Poissons Ratio (z) = -0.01552 0.47781
#
# Static dielectric constant tensor:
#      x y z
#    x 1.982420 0.096040 -0.037270 
#    y 0.096040 2.139630 0.009590 
#    z -0.037270 0.009590 1.880310 
# 
# From -- ./inp_files/158611.got.cif
#   From: 2010.05.17/outbox.cif.g08.bks.cpg/sg2_80_cif.got.tgz:158611.got - 2010.06.03 11:33:40.
