data_PCOD9043233
_publ_section_title
;
Structure prediction by ZEFSAII (Michael W. Deem and Ramdas Pophale) SiO2 
 PCOD9043233
Probable space group: P -1
;
_chemical_formula_sum "Si O2"
_cell_formula_units_Z 12
_cell_length_a 8.796720
_cell_length_b 8.724863
_cell_length_c 11.704427
_cell_angle_alpha 50.608087
_cell_angle_beta 131.775652
_cell_angle_gamma 105.064526
_cell_volume 496.628065
_symmetry_space_group_name_H-M "P -1"
_symmetry_group_IT_number 2
_symmetry_cell_setting 'triclinic'
loop_
_space_group_symop_operation_xyz
x,y,z
-x,-y,-z
loop_
_atom_site_type_symbol
_atom_site_label
_atom_site_fract_x
_atom_site_fract_y
_atom_site_fract_z
Si Si1 0.119065 0.018349 0.816805
Si Si2 0.814645 0.984856 0.499231
Si Si3 0.200415 0.338240 0.524148
Si Si4 0.590149 0.795663 0.722723
Si Si5 0.372668 0.606786 0.211737
Si Si6 0.970918 0.728181 0.121175
O O1 0.156320 0.200515 0.670982
O O2 0.052066 0.106952 0.867000
O O3 0.323109 0.820530 0.014525
O O4 0.935268 0.939112 0.701645
O O5 0.623490 0.190201 0.318356
O O6 0.273175 0.188912 0.521631
O O7 0.000000 0.000000 0.500000
O O8 0.387944 0.436911 0.603861
O O9 0.990261 0.512656 0.298873
O O10 0.653142 0.586908 0.780200
O O11 0.500000 0.000000 0.500000
O O12 0.774631 0.793999 0.905448
O O13 0.190629 0.669035 0.187835
#
# Coordination Sequence:
#
# PCOD9043233 Si02
#       6
#     2   2   2   2   2   2
#     4  11  24  45  70 105 145 186 234 290 349 421
#     4  10  23  45  69  96 137 184 232 285 344 414
#     4  11  24  45  70 105 145 186 234 290 349 421
#     4  12  26  47  72 102 140 188 239 295 353 418
#     4  12  25  44  71 105 143 189 237 290 350 419
#     4  12  25  44  71 105 143 189 237 290 350 419
#
# _framework density 24.162952000000001
#
# number of rings (size 3 to 8) (size 9 to 14) (size 15 to 20)
#    0.000    0.667    0.000    7.500    0.000    5.333 
#    0.000    7.500    0.000    0.000    0.000    0.000 
#    0.000    0.000    0.000    0.000    0.000    0.000 
#
# Total GULP energy -67157.367011 kJ/mol
# GULP energy per Si atom -5596.447251 kJ/mol
# Density = 2.410796 g / cm^3
# Si number density = 24.162952 Si / 1000 Ang^3
#
#
#
# Elastic Constant Matrix: (Units=GPa)
#
#
# Indices 1 2 3 4 5 6 
#
# 1 97.6092 35.7853 50.0155 4.5387 -4.6889 -16.7209
# 2 35.7853 159.9392 50.4325 18.3301 -18.3137 -40.2079
# 3 50.0155 50.4325 174.4872 6.5146 -11.4047 -4.5755
# 4 4.5387 18.3301 6.5146 63.5495 4.4859 -1.1911
# 5 -4.6889 -18.3137 -11.4047 4.4859 32.6693 -0.1744
# 6 -16.7209 -40.2079 -4.5755 -1.1911 -0.1744 43.8417
#
#
#
# Elastic Compliance Matrix: (Units=1/GPa)
#
#
# Indices 1 2 3 4 5 6 
#
# 1 0.012941 -0.000807 -0.003345 -0.000298 0.000299 0.003839
# 2 -0.000807 0.010236 -0.002038 -0.002899 0.005356 0.008809
# 3 -0.003345 -0.002038 0.007277 -0.000028 0.000909 -0.002382
# 4 -0.000298 -0.002899 -0.000028 0.016835 -0.004002 -0.002333
# 5 0.000299 0.005356 0.000909 -0.004002 0.034549 0.005149
# 6 0.003839 0.008809 -0.002382 -0.002333 0.005149 0.032061
#
#
# Mechanical properties :
#
#
# Convention : Reuss Voigt Hill
#
# Bulk Modulus (GPa) = 55.32954 78.27802 66.80378
# Shear Modulus (GPa) = 37.79234 47.73226 42.76230
#
# Velocity S-wave (km/s) = 3.95911 4.44940 4.21140
# Velocity P-wave (km/s) = 6.62175 7.67219 7.16624
#
# Compressibility (1/GPa) = 0.01807353
#
# Stress axis : x y z
#
# Youngs Moduli (GPa) = 77.27635 97.69819 137.42327
#
# Poissons Ratio (x) = 0.07887 0.45964
# Poissons Ratio (y) = 0.06238 0.28003
# Poissons Ratio (z) = 0.25847 0.19908
#
# Static dielectric constant tensor:
#      x y z
#    x 2.069740 0.049920 -0.081690 
#    y 0.049920 1.938000 -0.028230 
#    z -0.081690 -0.028230 1.942570 
# 
# From -- ./inp_files/373701.got.cif
#   From: 2010.05.17/outbox.cif.g08.bks.cpg/sg2_187_cif.got.tgz:373701.got - 2010.06.03 11:33:40.
