data_PCOD9043680
_publ_section_title
;
Structure prediction by ZEFSAII (Michael W. Deem and Ramdas Pophale) SiO2 
 PCOD9043680
Probable space group: P -1
;
_chemical_formula_sum "Si O2"
_cell_formula_units_Z 14
_cell_length_a 6.543608
_cell_length_b 14.572006
_cell_length_c 9.746859
_cell_angle_alpha 67.623788
_cell_angle_beta 48.120945
_cell_angle_gamma 72.512151
_cell_volume 638.430966
_symmetry_space_group_name_H-M "P -1"
_symmetry_group_IT_number 2
_symmetry_cell_setting 'triclinic'
loop_
_space_group_symop_operation_xyz
x,y,z
-x,-y,-z
loop_
_atom_site_type_symbol
_atom_site_label
_atom_site_fract_x
_atom_site_fract_y
_atom_site_fract_z
Si Si1 0.025516 0.899633 0.456140
Si Si2 0.914209 0.309679 0.835046
Si Si3 0.451409 0.185657 0.598472
Si Si4 0.536943 0.202276 0.259513
Si Si5 0.153466 0.492028 0.789210
Si Si6 0.798994 0.425164 0.558776
Si Si7 0.860367 0.997443 0.209820
O O1 0.281524 0.825975 0.423279
O O2 0.748226 0.842618 0.627221
O O3 0.000000 0.000000 0.500000
O O4 0.052919 0.940754 0.266837
O O5 0.174320 0.229914 0.766595
O O6 0.021736 0.403205 0.815290
O O7 0.838489 0.332136 0.697342
O O8 0.655586 0.272673 0.053729
O O9 0.497551 0.247059 0.403909
O O10 0.393731 0.072662 0.646246
O O11 0.759260 0.108571 0.231024
O O12 0.479057 0.466366 0.683322
O O13 0.129607 0.579857 0.633388
O O14 0.000000 0.500000 0.000000
O O15 0.000000 0.500000 0.500000
O O16 0.000000 0.000000 0.000000
#
# Coordination Sequence:
#
# PCOD9043680 Si02
#       7
#     2   2   2   2   2   2   2
#     4  11  21  40  66  87 126 186 226 264 317 374
#     4  11  25  42  65  98 135 168 212 273 322 381
#     4  11  23  41  61  93 132 173 224 271 316 374
#     4  11  23  40  62  94 131 171 223 271 319 373
#     4  10  23  45  74 100 125 166 215 255 330 409
#     4   9  22  45  70  96 129 166 206 257 333 399
#     4  11  21  40  63  87 125 176 224 266 322 379
#
# _framework density 21.92876
#
# number of rings (size 3 to 8) (size 9 to 14) (size 15 to 20)
#    0.000    1.429    4.286    0.857    0.000   10.857 
#    2.571    0.000    0.000    0.000    0.000    0.000 
#    0.000    0.000    0.000    0.000    0.000    0.000 
#
# Total GULP energy -78200.267986 kJ/mol
# GULP energy per Si atom -5585.733428 kJ/mol
# Density = 2.187885 g / cm^3
# Si number density = 21.928760 Si / 1000 Ang^3
#
#
#
# Elastic Constant Matrix: (Units=GPa)
#
#
# Indices 1 2 3 4 5 6 
#
# 1 145.5859 25.4059 71.1299 -7.1341 12.6968 -20.2329
# 2 25.4059 29.3317 15.5455 -8.0931 5.8722 1.0626
# 3 71.1299 15.5455 179.3117 -4.8500 20.4686 -7.7186
# 4 -7.1341 -8.0931 -4.8500 33.0290 0.2177 3.9291
# 5 12.6968 5.8722 20.4686 0.2177 26.1340 3.4277
# 6 -20.2329 1.0626 -7.7186 3.9291 3.4277 26.6319
#
#
#
# Elastic Compliance Matrix: (Units=1/GPa)
#
#
# Indices 1 2 3 4 5 6 
#
# 1 0.011101 -0.008100 -0.003120 -0.001016 -0.002208 0.008287
# 2 -0.008100 0.045451 -0.000260 0.010446 -0.004988 -0.008942
# 3 -0.003120 -0.000260 0.007338 0.000337 -0.004210 0.000259
# 4 -0.001016 0.010446 0.000337 0.033367 -0.001634 -0.005804
# 5 -0.002208 -0.004988 -0.004210 -0.001634 0.044848 -0.008230
# 6 0.008287 -0.008942 0.000259 -0.005804 -0.008230 0.046192
#
#
# Mechanical properties :
#
#
# Convention : Reuss Voigt Hill
#
# Bulk Modulus (GPa) = 24.43244 64.26576 44.34910
# Shear Modulus (GPa) = 22.23189 33.30217 27.76703
#
# Velocity S-wave (km/s) = 3.18751 3.90122 3.56228
# Velocity P-wave (km/s) = 4.97121 7.04719 6.09819
#
# Compressibility (1/GPa) = 0.04092919
#
# Stress axis : x y z
#
# Youngs Moduli (GPa) = 90.07988 22.00148 136.27832
#
# Poissons Ratio (x) = 0.17822 0.42521
# Poissons Ratio (y) = 0.72969 0.03545
# Poissons Ratio (z) = 0.28106 0.00572
#
# Static dielectric constant tensor:
#      x y z
#    x 1.798750 0.030460 0.057080 
#    y 0.030460 1.827360 -0.057600 
#    z 0.057080 -0.057600 1.765370 
# 
# From -- ./inp_files/107844.got.cif
#   From: 2010.05.17/outbox.cif.g08.bks.cpg/sg2_54_cif.got.tgz:107844.got - 2010.06.03 11:33:40.
