data_PCOD9043514
_publ_section_title
;
Structure prediction by ZEFSAII (Michael W. Deem and Ramdas Pophale) SiO2 
 PCOD9043514
Probable space group: P -1
;
_chemical_formula_sum "Si O2"
_cell_formula_units_Z 13
_cell_length_a 10.723330
_cell_length_b 6.997718
_cell_length_c 9.244284
_cell_angle_alpha 56.060625
_cell_angle_beta 91.220349
_cell_angle_gamma 111.004343
_cell_volume 522.740601
_symmetry_space_group_name_H-M "P -1"
_symmetry_group_IT_number 2
_symmetry_cell_setting 'triclinic'
loop_
_space_group_symop_operation_xyz
x,y,z
-x,-y,-z
loop_
_atom_site_type_symbol
_atom_site_label
_atom_site_fract_x
_atom_site_fract_y
_atom_site_fract_z
Si Si1 0.183836 0.002657 0.558692
Si Si2 0.000000 0.000000 0.000000
Si Si3 0.333120 0.269642 0.708485
Si Si4 0.392855 0.762199 0.685484
Si Si5 0.817598 0.222031 0.885495
Si Si6 0.455549 0.947657 0.186712
Si Si7 0.115273 0.250211 0.204216
O O1 0.253678 0.240535 0.569377
O O2 0.195528 0.112801 0.351684
O O3 0.260645 0.822485 0.663520
O O4 0.029924 0.854464 0.671604
O O5 0.964316 0.237019 0.837781
O O6 0.915523 0.825307 0.930434
O O7 0.364397 0.509607 0.706181
O O8 0.471081 0.233814 0.690345
O O9 0.229778 0.029271 0.904906
O O10 0.500000 0.000000 0.500000
O O11 0.468486 0.798393 0.826028
O O12 0.707641 0.166891 0.778252
O O13 0.819205 0.451905 0.884433
O O14 0.500000 0.000000 0.000000
#
# Coordination Sequence:
#
# PCOD9043514 Si02
#       7
#     2   1   2   2   2   2   2
#     4  10  25  47  68 100 140 181 217 287 344 401
#     4  12  26  40  70 104 130 182 230 274 330 410
#     4  10  23  45  71  99 138 179 223 284 343 399
#     4  11  26  42  73 103 134 178 232 280 335 411
#     4  11  25  42  72 101 138 178 226 284 336 409
#     4   9  23  44  66 100 136 179 217 286 340 394
#     4  11  26  46  70  99 140 181 226 279 342 403
#
# _framework density 24.868931
#
# number of rings (size 3 to 8) (size 9 to 14) (size 15 to 20)
#    0.000    1.538    1.538    0.462    8.615    6.154 
#    0.000    3.077    0.000    0.000    0.000    0.000 
#    0.000    0.000    0.000    0.000    0.000    0.000 
#
# Total GULP energy -72512.508327 kJ/mol
# GULP energy per Si atom -5577.885256 kJ/mol
# Density = 2.481233 g / cm^3
# Si number density = 24.868931 Si / 1000 Ang^3
#
#
#
# Elastic Constant Matrix: (Units=GPa)
#
#
# Indices 1 2 3 4 5 6 
#
# 1 34.3582 28.6569 14.5688 11.5217 16.7032 3.2305
# 2 28.6569 242.3726 56.7212 31.0593 20.8770 0.4146
# 3 14.5688 56.7212 67.0719 8.9403 9.5691 9.6341
# 4 11.5217 31.0593 8.9403 32.3603 8.3334 -2.0156
# 5 16.7032 20.8770 9.5691 8.3334 35.7049 6.8495
# 6 3.2305 0.4146 9.6341 -2.0156 6.8495 30.8492
#
#
#
# Elastic Compliance Matrix: (Units=1/GPa)
#
#
# Indices 1 2 3 4 5 6 
#
# 1 0.042944 -0.001541 -0.004617 -0.008423 -0.015978 -0.000037
# 2 -0.001541 0.005822 -0.004172 -0.003543 -0.001003 0.001377
# 3 -0.004617 -0.004172 0.020290 -0.000428 0.000395 -0.005913
# 4 -0.008423 -0.003543 -0.000428 0.038659 -0.003744 0.004421
# 5 -0.015978 -0.001003 0.000395 -0.003744 0.038211 -0.007165
# 6 -0.000037 0.001377 -0.005913 0.004421 -0.007165 0.036127
#
#
# Mechanical properties :
#
#
# Convention : Reuss Voigt Hill
#
# Bulk Modulus (GPa) = 20.66242 60.41072 40.53657
# Shear Modulus (GPa) = 22.84709 36.03994 29.44351
#
# Velocity S-wave (km/s) = 3.03429 3.81096 3.44459
# Velocity P-wave (km/s) = 4.53900 6.61127 5.67060
#
# Compressibility (1/GPa) = 0.04839705
#
# Stress axis : x y z
#
# Youngs Moduli (GPa) = 23.28603 171.75031 49.28548
#
# Poissons Ratio (x) = 0.26472 0.22755
# Poissons Ratio (y) = 0.03589 0.20560
# Poissons Ratio (z) = 0.10751 0.71647
#
# Static dielectric constant tensor:
#      x y z
#    x 2.387180 0.063360 0.019700 
#    y 0.063360 1.956580 -0.018970 
#    z 0.019700 -0.018970 2.013430 
# 
# From -- ./inp_files/47996.got.cif
#   From: 2010.05.17/outbox.cif.g08.bks.cpg/sg2_24_cif.got.tgz:47996.got - 2010.06.03 11:33:40.
