data_PCOD9043456
_publ_section_title
;
Structure prediction by ZEFSAII (Michael W. Deem and Ramdas Pophale) SiO2 
 PCOD9043456
Probable space group: P -1
;
_chemical_formula_sum "Si O2"
_cell_formula_units_Z 16
_cell_length_a 9.232096
_cell_length_b 20.317099
_cell_length_c 17.656221
_cell_angle_alpha 19.924242
_cell_angle_beta 60.806016
_cell_angle_gamma 48.326071
_cell_volume 709.775483
_symmetry_space_group_name_H-M "P -1"
_symmetry_group_IT_number 2
_symmetry_cell_setting 'triclinic'
loop_
_space_group_symop_operation_xyz
x,y,z
-x,-y,-z
loop_
_atom_site_type_symbol
_atom_site_label
_atom_site_fract_x
_atom_site_fract_y
_atom_site_fract_z
Si Si1 0.408531 0.898536 0.949676
Si Si2 0.979633 0.025461 0.107726
Si Si3 0.776654 0.635716 0.012733
Si Si4 0.510197 0.222564 0.776352
Si Si5 0.779563 0.563090 0.520846
Si Si6 0.991833 0.153633 0.264876
Si Si7 0.582724 0.721566 0.807280
Si Si8 0.921291 0.939878 0.384237
O O1 0.162207 0.994698 0.893041
O O2 0.364241 0.158165 0.700390
O O3 0.560681 0.756075 0.990253
O O4 0.543994 0.713842 0.189644
O O5 0.966277 0.938778 0.286492
O O6 0.240488 0.880197 0.181966
O O7 0.848127 0.336300 0.803842
O O8 0.734465 0.617608 0.956554
O O9 0.989984 0.342214 0.308558
O O10 0.825961 0.822218 0.800322
O O11 0.347075 0.428625 0.528463
O O12 0.500000 0.000000 0.000000
O O13 0.000000 0.500000 0.500000
O O14 0.046784 0.991325 0.350689
O O15 0.742811 0.463103 0.991990
O O16 0.000000 0.000000 0.500000
O O17 0.344772 0.818063 0.788954
O O18 0.500000 0.000000 0.500000
#
# Coordination Sequence:
#
# PCOD9043456 Si02
#       8
#     2   2   2   2   2   2   2   2
#     4  11  26  46  72 106 146 198 238 302 379 427
#     4  12  26  46  72 108 144 189 254 295 362 449
#     4  12  27  49  69 112 155 180 245 313 366 439
#     4  10  23  45  71 104 142 194 238 298 367 432
#     4  11  25  46  72 102 147 190 248 306 357 441
#     4  12  26  47  83 104 146 199 240 300 381 444
#     4  12  24  50  76 106 148 191 242 302 372 443
#     4  12  28  46  73 111 146 193 245 308 366 442
#
# _framework density 22.542339999999999
#
# number of rings (size 3 to 8) (size 9 to 14) (size 15 to 20)
#    0.000    0.500    6.250    1.875    5.250    4.500 
#    0.000    0.000    0.000    0.000    0.000    0.000 
#    0.000    0.000    0.000    0.000    0.000    0.000 
#
# Total GULP energy -89485.049201 kJ/mol
# GULP energy per Si atom -5592.815575 kJ/mol
# Density = 2.249103 g / cm^3
# Si number density = 22.542340 Si / 1000 Ang^3
#
#
#
# Elastic Constant Matrix: (Units=GPa)
#
#
# Indices 1 2 3 4 5 6 
#
# 1 128.6884 19.3935 16.0735 13.7617 -5.8568 1.7048
# 2 19.3935 67.0893 12.7885 4.3863 4.5531 1.8248
# 3 16.0735 12.7885 120.9205 13.1551 -0.4132 10.7905
# 4 13.7617 4.3863 13.1551 32.1940 3.8960 8.1215
# 5 -5.8568 4.5531 -0.4132 3.8960 35.5538 0.3600
# 6 1.7048 1.8248 10.7905 8.1215 0.3600 43.0014
#
#
#
# Elastic Compliance Matrix: (Units=1/GPa)
#
#
# Indices 1 2 3 4 5 6 
#
# 1 0.008658 -0.002321 -0.000561 -0.003548 0.002100 0.000549
# 2 -0.002321 0.016022 -0.001346 -0.000305 -0.002415 -0.000172
# 3 -0.000561 -0.001346 0.008948 -0.002885 0.000516 -0.001625
# 4 -0.003548 -0.000305 -0.002885 0.035812 -0.004444 -0.005849
# 5 0.002100 -0.002415 0.000516 -0.004444 0.029270 0.000484
# 6 0.000549 -0.000172 -0.001625 -0.005849 0.000484 0.024749
#
#
# Mechanical properties :
#
#
# Convention : Reuss Voigt Hill
#
# Bulk Modulus (GPa) = 39.72797 45.91214 42.82006
# Shear Modulus (GPa) = 35.63664 40.04603 37.84133
#
# Velocity S-wave (km/s) = 3.98034 4.21940 4.10161
# Velocity P-wave (km/s) = 6.22785 6.64448 6.43953
#
# Compressibility (1/GPa) = 0.02517118
#
# Stress axis : x y z
#
# Youngs Moduli (GPa) = 115.49500 62.41592 111.76301
#
# Poissons Ratio (x) = 0.14489 0.06272
# Poissons Ratio (y) = 0.26811 0.15038
# Poissons Ratio (z) = 0.06481 0.08398
#
# Static dielectric constant tensor:
#      x y z
#    x 1.874250 -0.037220 0.003550 
#    y -0.037220 1.825720 -0.020330 
#    z 0.003550 -0.020330 1.861740 
# 
# From -- ./inp_files/562529.got.cif
#   From: 2010.05.17/outbox.cif.g08.bks.cpg/sg2_282_cif.got.tgz:562529.got - 2010.06.03 11:33:40.
