data_PCOD9043385
_publ_section_title
;
Structure prediction by ZEFSAII (Michael W. Deem and Ramdas Pophale) SiO2 
 PCOD9043385
Probable space group: P -1
;
_chemical_formula_sum "Si O2"
_cell_formula_units_Z 14
_cell_length_a 12.892583
_cell_length_b 11.672920
_cell_length_c 5.059215
_cell_angle_alpha 76.799727
_cell_angle_beta 123.742756
_cell_angle_gamma 85.999229
_cell_volume 597.936826
_symmetry_space_group_name_H-M "P -1"
_symmetry_group_IT_number 2
_symmetry_cell_setting 'triclinic'
loop_
_space_group_symop_operation_xyz
x,y,z
-x,-y,-z
loop_
_atom_site_type_symbol
_atom_site_label
_atom_site_fract_x
_atom_site_fract_y
_atom_site_fract_z
Si Si1 0.037866 0.568132 0.271670
Si Si2 0.625374 0.690990 0.484345
Si Si3 0.273870 0.582490 0.305802
Si Si4 0.809048 0.071001 0.733627
Si Si5 0.911949 0.179858 0.319700
Si Si6 0.859706 0.806527 0.708331
Si Si7 0.455981 0.736166 0.705295
O O1 0.185948 0.566220 0.440181
O O2 0.000000 0.500000 0.500000
O O3 0.000000 0.500000 0.000000
O O4 0.954294 0.704733 0.071529
O O5 0.683743 0.548497 0.697503
O O6 0.735941 0.754273 0.511680
O O7 0.558161 0.752918 0.621506
O O8 0.522813 0.700894 0.098684
O O9 0.391964 0.632743 0.549465
O O10 0.182239 0.687589 0.944596
O O11 0.882679 0.133060 0.586907
O O12 0.661450 0.146440 0.490332
O O13 0.822276 0.934588 0.733858
O O14 0.869160 0.091305 0.089780
O O15 0.055008 0.183872 0.434433
#
# Coordination Sequence:
#
# PCOD9043385 Si02
#       7
#     2   2   2   2   2   2   2
#     4  11  25  43  68 103 137 164 216 277 350 403
#     4  12  26  42  68 101 137 180 230 273 339 394
#     4  10  23  45  70  97 137 176 227 283 333 401
#     4  11  24  47  70  99 136 179 233 272 333 403
#     4  10  24  43  73 102 132 176 223 283 342 405
#     4  11  26  44  73 103 139 176 217 287 344 404
#     4  11  26  44  65  98 134 189 231 271 321 397
#
# _framework density 23.413844999999998
#
# number of rings (size 3 to 8) (size 9 to 14) (size 15 to 20)
#    0.000    1.143    1.429    3.429    2.000   14.857 
#    0.000    0.000    0.000    0.000    0.000    0.000 
#    0.000    0.000    0.000    0.000    0.000    0.000 
#
# Total GULP energy -78536.289647 kJ/mol
# GULP energy per Si atom -5609.734975 kJ/mol
# Density = 2.336055 g / cm^3
# Si number density = 23.413845 Si / 1000 Ang^3
#
#
#
# Elastic Constant Matrix: (Units=GPa)
#
#
# Indices 1 2 3 4 5 6 
#
# 1 93.0239 39.8428 36.5130 -16.8586 5.5915 -9.3875
# 2 39.8428 173.2133 35.6518 -18.6069 8.1321 -9.5969
# 3 36.5130 35.6518 57.2093 -1.5813 -10.6242 -3.8174
# 4 -16.8586 -18.6069 -1.5813 32.8280 -3.9811 -1.1801
# 5 5.5915 8.1321 -10.6242 -3.9811 43.5171 1.3846
# 6 -9.3875 -9.5969 -3.8174 -1.1801 1.3846 35.2955
#
#
#
# Elastic Compliance Matrix: (Units=1/GPa)
#
#
# Indices 1 2 3 4 5 6 
#
# 1 0.017339 -0.000467 -0.011106 0.007721 -0.004264 0.003709
# 2 -0.000467 0.007372 -0.004490 0.003520 -0.002142 0.001596
# 3 -0.011106 -0.004490 0.028730 -0.005855 0.008796 -0.001608
# 4 0.007721 0.003520 -0.005855 0.036284 0.000126 0.003585
# 5 -0.004264 -0.002142 0.008796 0.000126 0.026143 -0.001787
# 6 0.003709 0.001596 -0.001608 0.003585 -0.001787 0.029769
#
#
# Mechanical properties :
#
#
# Convention : Reuss Voigt Hill
#
# Bulk Modulus (GPa) = 46.91600 60.82907 53.87254
# Shear Modulus (GPa) = 27.04621 36.42404 31.73513
#
# Velocity S-wave (km/s) = 3.40242 3.94847 3.68557
# Velocity P-wave (km/s) = 5.95957 6.84277 6.41639
#
# Compressibility (1/GPa) = 0.02131469
#
# Stress axis : x y z
#
# Youngs Moduli (GPa) = 57.67290 135.64863 34.80659
#
# Poissons Ratio (x) = 0.06341 0.38656
# Poissons Ratio (y) = 0.02696 0.15628
# Poissons Ratio (z) = 0.64052 0.60904
#
# Static dielectric constant tensor:
#      x y z
#    x 1.867810 -0.000680 0.016160 
#    y -0.000680 1.884340 -0.000030 
#    z 0.016160 -0.000030 1.875590 
# 
# From -- ./inp_files/66544.got.cif
#   From: 2010.05.17/outbox.cif.g08.bks.cpg/sg2_34_cif.got.tgz:66544.got - 2010.06.03 11:33:40.
