data_PCOD9043729
_publ_section_title
;
Structure prediction by ZEFSAII (Michael W. Deem and Ramdas Pophale) SiO2 
 PCOD9043729
Probable space group: P -1
;
_chemical_formula_sum "Si O2"
_cell_formula_units_Z 16
_cell_length_a 10.875955
_cell_length_b 7.961017
_cell_length_c 19.477418
_cell_angle_alpha 52.853519
_cell_angle_beta 149.222754
_cell_angle_gamma 119.997297
_cell_volume 687.115255
_symmetry_space_group_name_H-M "P -1"
_symmetry_group_IT_number 2
_symmetry_cell_setting 'triclinic'
loop_
_space_group_symop_operation_xyz
x,y,z
-x,-y,-z
loop_
_atom_site_type_symbol
_atom_site_label
_atom_site_fract_x
_atom_site_fract_y
_atom_site_fract_z
Si Si1 0.999653 0.947588 0.594058
Si Si2 0.780798 0.140287 0.643657
Si Si3 0.143627 0.769901 0.121607
Si Si4 0.444129 0.822030 0.614018
Si Si5 0.787866 0.506962 0.643175
Si Si6 0.447314 0.065864 0.138126
Si Si7 0.734141 0.080397 0.055948
Si Si8 0.720673 0.578658 0.917984
O O1 0.277322 0.933644 0.752242
O O2 0.885002 0.732566 0.617647
O O3 0.000000 0.000000 0.500000
O O4 0.819297 0.123617 0.496663
O O5 0.596322 0.209045 0.478207
O O6 0.890219 0.348106 0.673790
O O7 0.625288 0.015684 0.655638
O O8 0.008382 0.989308 0.770539
O O9 0.141131 0.607730 0.223271
O O10 0.407837 0.851063 0.215563
O O11 0.993043 0.651557 0.021574
O O12 0.000000 0.000000 0.000000
O O13 0.566227 0.639818 0.762221
O O14 0.500000 0.500000 0.500000
O O15 0.381641 0.271476 0.103893
O O16 0.282142 0.023227 0.002820
O O17 0.713546 0.332408 0.986901
O O18 0.500000 0.000000 0.000000
#
# Coordination Sequence:
#
# PCOD9043729 Si02
#       8
#     2   2   2   2   2   2   2   2
#     4  12  25  45  74 108 150 190 247 310 372 442
#     4  11  25  46  70 107 150 182 251 310 359 445
#     4  10  23  45  74 107 143 190 252 301 358 451
#     4  11  24  47  72 106 145 194 243 308 366 445
#     4  12  25  44  78 108 141 200 252 296 379 445
#     4  11  24  47  73 105 149 192 241 315 370 433
#     4  12  29  47  71 111 152 193 249 308 373 446
#     4  11  25  47  75 103 146 197 251 293 376 436
#
# _framework density 23.285757
#
# number of rings (size 3 to 8) (size 9 to 14) (size 15 to 20)
#    0.000    0.750    2.500    5.250    5.250    4.500 
#    0.000    1.875    0.000    0.000    0.000    0.000 
#    0.000    0.000    0.000    0.000    0.000    0.000 
#
# Total GULP energy -89426.717381 kJ/mol
# GULP energy per Si atom -5589.169836 kJ/mol
# Density = 2.323276 g / cm^3
# Si number density = 23.285757 Si / 1000 Ang^3
#
#
#
# Elastic Constant Matrix: (Units=GPa)
#
#
# Indices 1 2 3 4 5 6 
#
# 1 79.2468 30.1822 22.4874 -4.9797 7.2780 13.4123
# 2 30.1822 134.8668 63.7456 -11.2525 8.1240 21.0851
# 3 22.4874 63.7456 143.6946 -6.8109 -0.5469 5.5534
# 4 -4.9797 -11.2525 -6.8109 35.3685 5.5313 4.2448
# 5 7.2780 8.1240 -0.5469 5.5313 42.0674 8.4483
# 6 13.4123 21.0851 5.5534 4.2448 8.4483 41.4586
#
#
#
# Elastic Compliance Matrix: (Units=1/GPa)
#
#
# Indices 1 2 3 4 5 6 
#
# 1 0.014539 -0.001875 -0.001228 0.001896 -0.001730 -0.003427
# 2 -0.001875 0.010852 -0.004208 0.003117 -0.001354 -0.004392
# 3 -0.001228 -0.004208 0.008974 -0.000066 0.000918 0.001155
# 4 0.001896 0.003117 -0.000066 0.030696 -0.004062 -0.004505
# 5 -0.001730 -0.001354 0.000918 -0.004062 0.025617 -0.003679
# 6 -0.003427 -0.004392 0.001155 -0.004505 -0.003679 0.028519
#
#
# Mechanical properties :
#
#
# Convention : Reuss Voigt Hill
#
# Bulk Modulus (GPa) = 50.65202 65.62654 58.13928
# Shear Modulus (GPa) = 35.61251 39.87175 37.74213
#
# Velocity S-wave (km/s) = 3.91496 4.14246 4.03031
# Velocity P-wave (km/s) = 6.49888 7.15012 6.83227
#
# Compressibility (1/GPa) = 0.01974255
#
# Stress axis : x y z
#
# Youngs Moduli (GPa) = 68.77824 92.15164 111.43418
#
# Poissons Ratio (x) = 0.17282 0.13681
# Poissons Ratio (y) = 0.12898 0.46894
# Poissons Ratio (z) = 0.08444 0.38779
#
# Static dielectric constant tensor:
#      x y z
#    x 1.995360 -0.066210 0.028180 
#    y -0.066210 2.157720 -0.215610 
#    z 0.028180 -0.215610 2.089670 
# 
# From -- ./inp_files/593999.got.cif
#   From: 2010.05.17/outbox.cif.g08.bks.cpg/sg2_297_cif.got.tgz:593999.got - 2010.06.03 11:33:40.
