data_PCOD9043051
_publ_section_title
;
Structure prediction by ZEFSAII (Michael W. Deem and Ramdas Pophale) SiO2 
 PCOD9043051
Probable space group: P -1
;
_chemical_formula_sum "Si O2"
_cell_formula_units_Z 16
_cell_length_a 8.038669
_cell_length_b 11.792421
_cell_length_c 9.195856
_cell_angle_alpha 91.750486
_cell_angle_beta 52.108243
_cell_angle_gamma 84.869953
_cell_volume 681.122979
_symmetry_space_group_name_H-M "P -1"
_symmetry_group_IT_number 2
_symmetry_cell_setting 'triclinic'
loop_
_space_group_symop_operation_xyz
x,y,z
-x,-y,-z
loop_
_atom_site_type_symbol
_atom_site_label
_atom_site_fract_x
_atom_site_fract_y
_atom_site_fract_z
Si Si1 0.182038 0.791620 0.988096
Si Si2 0.802078 0.595970 0.607772
Si Si3 0.214690 0.308023 0.676390
Si Si4 0.522823 0.635329 0.997275
Si Si5 0.713487 0.963650 0.976814
Si Si6 0.442201 0.598666 0.360661
Si Si7 0.126428 0.797269 0.674204
Si Si8 0.482533 0.903656 0.389899
O O1 0.980559 0.727345 0.130987
O O2 0.171426 0.923157 0.053071
O O3 0.366999 0.717269 0.979478
O O4 0.203288 0.795119 0.802416
O O5 0.838760 0.682440 0.464345
O O6 0.748537 0.640613 0.799629
O O7 0.611697 0.527165 0.653904
O O8 0.000000 0.500000 0.500000
O O9 0.330979 0.412569 0.677702
O O10 0.405851 0.209486 0.596918
O O11 0.500000 0.500000 0.000000
O O12 0.485150 0.662733 0.187512
O O13 0.882963 0.860486 0.819562
O O14 0.615909 0.925682 0.178550
O O15 0.500000 0.000000 0.000000
O O16 0.233698 0.672843 0.548999
O O17 0.238966 0.882675 0.511926
O O18 0.500000 0.000000 0.500000
#
# Coordination Sequence:
#
# PCOD9043051 Si02
#       8
#     2   2   2   2   2   2   2   2
#     4  12  24  44  73 100 138 188 230 287 355 410
#     4  11  24  46  68 104 141 185 232 286 353 420
#     4  11  23  41  72 101 138 184 233 284 352 411
#     4  10  23  45  68 102 140 177 229 290 350 416
#     4  12  28  47  70 104 143 183 238 292 348 416
#     4  10  24  44  71 101 143 179 237 287 347 415
#     4  11  24  47  70 103 142 182 238 285 347 424
#     4  11  22  44  71 102 136 186 233 285 350 416
#
# _framework density 23.490618000000001
#
# number of rings (size 3 to 8) (size 9 to 14) (size 15 to 20)
#    0.000    1.000    2.500    4.500    3.500    3.500 
#    2.250    3.750    0.000    0.000    0.000    0.000 
#    0.000    0.000    0.000    0.000    0.000    0.000 
#
# Total GULP energy -89290.951310 kJ/mol
# GULP energy per Si atom -5580.684457 kJ/mol
# Density = 2.343715 g / cm^3
# Si number density = 23.490618 Si / 1000 Ang^3
#
#
#
# Elastic Constant Matrix: (Units=GPa)
#
#
# Indices 1 2 3 4 5 6 
#
# 1 49.2946 10.4217 39.1985 0.7282 -3.8487 -21.7480
# 2 10.4217 83.3182 31.6074 -0.1874 7.2117 2.8009
# 3 39.1985 31.6074 173.2256 2.9536 -14.9483 -14.2612
# 4 0.7282 -0.1874 2.9536 39.4318 2.4245 3.3485
# 5 -3.8487 7.2117 -14.9483 2.4245 34.2794 -5.3330
# 6 -21.7480 2.8009 -14.2612 3.3485 -5.3330 47.9032
#
#
#
# Elastic Compliance Matrix: (Units=1/GPa)
#
#
# Indices 1 2 3 4 5 6 
#
# 1 0.031129 -0.002778 -0.005060 -0.001593 0.004063 0.013352
# 2 -0.002778 0.013903 -0.002641 0.000918 -0.004995 -0.003481
# 3 -0.005060 -0.002641 0.007768 -0.000770 0.003525 0.000616
# 4 -0.001593 0.000918 -0.000770 0.025906 -0.003031 -0.003154
# 5 0.004063 -0.004995 0.003525 -0.003031 0.033540 0.007132
# 6 0.013352 -0.003481 0.000616 -0.003154 0.007132 0.028339
#
#
# Mechanical properties :
#
#
# Convention : Reuss Voigt Hill
#
# Bulk Modulus (GPa) = 31.40672 52.03263 41.71968
# Shear Modulus (GPa) = 29.04317 39.29692 34.17005
#
# Velocity S-wave (km/s) = 3.52002 4.09452 3.81809
# Velocity P-wave (km/s) = 5.46989 6.67472 6.10212
#
# Compressibility (1/GPa) = 0.03184032
#
# Stress axis : x y z
#
# Youngs Moduli (GPa) = 32.12467 71.92594 128.73548
#
# Poissons Ratio (x) = 0.19982 0.65141
# Poissons Ratio (y) = 0.08925 0.34005
# Poissons Ratio (z) = 0.16255 0.18999
#
# Static dielectric constant tensor:
#      x y z
#    x 1.814530 -0.068420 -0.058460 
#    y -0.068420 1.770780 -0.044590 
#    z -0.058460 -0.044590 1.920650 
# 
# From -- ./inp_files/187253.got.cif
#   From: 2010.05.17/outbox.cif.g08.bks.cpg/sg2_94_cif.got.tgz:187253.got - 2010.06.03 11:33:40.
