data_PCOD9043098
_publ_section_title
;
Structure prediction by ZEFSAII (Michael W. Deem and Ramdas Pophale) SiO2 
 PCOD9043098
Probable space group: P -1
;
_chemical_formula_sum "Si O2"
_cell_formula_units_Z 16
_cell_length_a 8.744716
_cell_length_b 20.177337
_cell_length_c 10.932884
_cell_angle_alpha 131.885121
_cell_angle_beta 102.775438
_cell_angle_gamma 40.646434
_cell_volume 756.282564
_symmetry_space_group_name_H-M "P -1"
_symmetry_group_IT_number 2
_symmetry_cell_setting 'triclinic'
loop_
_space_group_symop_operation_xyz
x,y,z
-x,-y,-z
loop_
_atom_site_type_symbol
_atom_site_label
_atom_site_fract_x
_atom_site_fract_y
_atom_site_fract_z
Si Si1 0.417325 0.363257 0.743660
Si Si2 0.597849 0.137682 0.675977
Si Si3 0.073435 0.801659 0.932473
Si Si4 0.197302 0.239815 0.227807
Si Si5 0.780142 0.698137 0.958239
Si Si6 0.350580 0.845115 0.706698
Si Si7 0.899012 0.178684 0.768851
Si Si8 0.617597 0.603968 0.671918
O O1 0.376670 0.295504 0.740577
O O2 0.594613 0.240725 0.508072
O O3 0.631259 0.325708 0.811733
O O4 0.112070 0.548585 0.876841
O O5 0.815509 0.116512 0.717342
O O6 0.437649 0.178841 0.817535
O O7 0.797473 0.972433 0.435217
O O8 0.077380 0.778998 0.049892
O O9 0.952757 0.959525 0.093181
O O10 0.862765 0.835688 0.865112
O O11 0.398069 0.640957 0.741643
O O12 0.278761 0.221654 0.079196
O O13 0.419204 0.183004 0.286505
O O14 0.888166 0.433578 0.439070
O O15 0.733879 0.617181 0.810280
O O16 0.433038 0.746761 0.715950
#
# Coordination Sequence:
#
# PCOD9043098 Si02
#       8
#     2   2   2   2   2   2   2   2
#     4  10  17  33  60  82 111 136 195 234 269 310
#     4   9  17  32  57  84 105 140 192 234 265 312
#     4  12  22  39  57  84 119 147 183 228 293 331
#     4  11  24  38  55  84 122 150 173 235 289 334
#     4  11  19  36  59  84 109 146 194 228 270 332
#     4  11  20  38  62  82 110 147 193 235 267 329
#     4   9  19  33  55  85 108 144 181 239 273 317
#     4  11  21  38  60  85 107 153 193 229 269 331
#
# _framework density 21.156115
#
# number of rings (size 3 to 8) (size 9 to 14) (size 15 to 20)
#    0.750    0.750    5.000    2.250    0.000    0.000 
#    0.000    1.250    0.000    0.000    0.000    0.000 
#    0.000    0.000    0.000    0.000    0.000    0.000 
#
# Total GULP energy -89243.552844 kJ/mol
# GULP energy per Si atom -5577.722053 kJ/mol
# Density = 2.110796 g / cm^3
# Si number density = 21.156115 Si / 1000 Ang^3
#
#
#
# Elastic Constant Matrix: (Units=GPa)
#
#
# Indices 1 2 3 4 5 6 
#
# 1 16.4673 -20.3160 15.2627 -2.3922 4.2584 -4.6378
# 2 -20.3160 57.5280 13.6763 -3.4213 7.6296 -1.5768
# 3 15.2627 13.6763 90.4115 -8.6564 -24.4775 9.7167
# 4 -2.3922 -3.4213 -8.6564 24.9307 -4.8569 4.6845
# 5 4.2584 7.6296 -24.4775 -4.8569 17.5672 -4.7886
# 6 -4.6378 -1.5768 9.7167 4.6845 -4.7886 17.8162
#
#
#
# Elastic Compliance Matrix: (Units=1/GPa)
#
#
# Indices 1 2 3 4 5 6 
#
# 1 -0.045281 -0.035908 0.040593 0.025214 0.084363 -0.021059
# 2 -0.035908 -0.004661 0.019764 0.012761 0.038071 -0.013661
# 3 0.040593 0.019764 -0.007437 -0.003090 -0.026930 0.009947
# 4 0.025214 0.012761 -0.003090 0.042842 -0.004996 -0.003229
# 5 0.084363 0.038071 -0.026930 -0.004996 -0.008307 0.039099
# 6 -0.021059 -0.013661 0.009947 -0.003229 0.039099 0.055371
#
#
# Mechanical properties :
#
#
# Convention : Reuss Voigt Hill
#
# Bulk Modulus (GPa) = -117.91270 20.18363 -48.86453
# Shear Modulus (GPa) = -260.42802 22.44841 -118.98981
#
# Velocity S-wave (km/s) = -11.10700 3.26096 -7.50772
# Velocity P-wave (km/s) = 14.84395 4.87232 9.91472
#
# Compressibility (1/GPa) = -0.00848085
#
# Stress axis : x y z
#
# Youngs Moduli (GPa) = -22.08436 -214.53964 -134.45475
#
# Poissons Ratio (x) = -7.70359 5.45791
# Poissons Ratio (y) = -0.79299 2.65735
# Poissons Ratio (z) = 0.89647 4.24015
#
# Static dielectric constant tensor:
#      x y z
#    x 1.767950 0.002320 0.009620 
#    y 0.002320 1.795190 0.013130 
#    z 0.009620 0.013130 1.752380 
# 
# From -- ./inp_files/406299.got.cif
#   From: 2010.05.17/outbox.cif.g08.bks.cpg/sg2_204_cif.got.tgz:406299.got - 2010.06.03 11:33:40.
