data_PCOD9043278
_publ_section_title
;
Structure prediction by ZEFSAII (Michael W. Deem and Ramdas Pophale) SiO2 
 PCOD9043278
Probable space group: P -1
;
_chemical_formula_sum "Si O2"
_cell_formula_units_Z 14
_cell_length_a 5.088296
_cell_length_b 19.049476
_cell_length_c 9.304437
_cell_angle_alpha 126.303451
_cell_angle_beta 99.946441
_cell_angle_gamma 106.878573
_cell_volume 622.190540
_symmetry_space_group_name_H-M "P -1"
_symmetry_group_IT_number 2
_symmetry_cell_setting 'triclinic'
loop_
_space_group_symop_operation_xyz
x,y,z
-x,-y,-z
loop_
_atom_site_type_symbol
_atom_site_label
_atom_site_fract_x
_atom_site_fract_y
_atom_site_fract_z
Si Si1 0.135211 0.187455 0.570179
Si Si2 0.422598 0.720618 0.510465
Si Si3 0.428849 0.339775 0.997790
Si Si4 0.263069 0.026426 0.436900
Si Si5 0.006721 0.600747 0.078929
Si Si6 0.507088 0.936989 0.788079
Si Si7 0.646751 0.427493 0.420130
O O1 0.299232 0.263791 0.548224
O O2 0.149014 0.237886 0.784106
O O3 0.361620 0.141860 0.560784
O O4 0.810452 0.103606 0.380024
O O5 0.132298 0.672508 0.316788
O O6 0.503929 0.833003 0.704180
O O7 0.375106 0.639360 0.526438
O O8 0.738011 0.356405 0.971198
O O9 0.319794 0.417326 0.028405
O O10 0.475688 0.349196 0.181057
O O11 0.231425 0.996510 0.226826
O O12 0.500000 0.000000 0.500000
O O13 0.000000 0.000000 0.500000
O O14 0.000000 0.500000 0.000000
O O15 0.500000 0.000000 0.000000
O O16 0.500000 0.500000 0.500000
O O17 0.000000 0.500000 0.500000
#
# Coordination Sequence:
#
# PCOD9043278 Si02
#       7
#     2   2   2   2   2   2   2
#     4  10  23  45  70 100 143 184 246 286 356 435
#     4  10  24  42  69 103 144 190 238 298 355 436
#     4  11  23  41  66  95 132 177 224 287 342 420
#     4  11  23  44  71 102 138 182 240 299 355 425
#     4  11  21  39  67  97 127 180 232 280 346 423
#     4  11  24  46  74 106 148 193 244 300 364 433
#     4  12  27  46  67 104 145 182 235 300 367 423
#
# _framework density 22.501144
#
# number of rings (size 3 to 8) (size 9 to 14) (size 15 to 20)
#    0.000    1.143    2.857    3.000    2.000    4.571 
#    2.571    0.000    0.000    0.000    0.000    0.000 
#    0.000    0.000    0.000    0.000    0.000    0.000 
#
# Total GULP energy -78067.207297 kJ/mol
# GULP energy per Si atom -5576.229093 kJ/mol
# Density = 2.244993 g / cm^3
# Si number density = 22.501144 Si / 1000 Ang^3
#
#
#
# Elastic Constant Matrix: (Units=GPa)
#
#
# Indices 1 2 3 4 5 6 
#
# 1 139.3043 48.5879 33.3811 -12.1180 -15.8060 -3.6071
# 2 48.5879 130.2254 32.4978 -27.3160 -13.4870 8.1944
# 3 33.3811 32.4978 135.4729 -16.6208 -18.1515 12.2427
# 4 -12.1180 -27.3160 -16.6208 34.8686 0.4410 -4.6260
# 5 -15.8060 -13.4870 -18.1515 0.4410 36.2642 -2.2141
# 6 -3.6071 8.1944 12.2427 -4.6260 -2.2141 37.8531
#
#
#
# Elastic Compliance Matrix: (Units=1/GPa)
#
#
# Indices 1 2 3 4 5 6 
#
# 1 0.008810 -0.002739 -0.001331 0.000527 0.002275 0.002060
# 2 -0.002739 0.010614 -0.000597 0.006865 0.002287 -0.001393
# 3 -0.001331 -0.000597 0.008889 0.002957 0.003470 -0.002308
# 4 0.000527 0.006865 0.002957 0.035895 0.003962 0.002226
# 5 0.002275 0.002287 0.003470 0.003962 0.031162 0.000906
# 6 0.002060 -0.001393 -0.002308 0.002226 0.000906 0.027987
#
#
# Mechanical properties :
#
#
# Convention : Reuss Voigt Hill
#
# Bulk Modulus (GPa) = 52.68446 70.43736 61.56091
# Shear Modulus (GPa) = 35.96712 41.16622 38.56667
#
# Velocity S-wave (km/s) = 4.00241 4.28193 4.14452
# Velocity P-wave (km/s) = 6.69507 7.47117 7.09374
#
# Compressibility (1/GPa) = 0.01898093
#
# Stress axis : x y z
#
# Youngs Moduli (GPa) = 113.50998 94.21335 112.49900
#
# Poissons Ratio (x) = 0.25801 0.14969
# Poissons Ratio (y) = 0.31085 0.06715
# Poissons Ratio (z) = 0.15104 0.05623
#
# Static dielectric constant tensor:
#      x y z
#    x 1.976540 -0.017030 -0.070170 
#    y -0.017030 1.909290 0.065220 
#    z -0.070170 0.065220 1.892900 
# 
# From -- ./inp_files/138114.got.cif
#   From: 2010.05.17/outbox.cif.g08.bks.cpg/sg2_70_cif.got.tgz:138114.got - 2010.06.03 11:33:40.
