data_PCOD9043463
_publ_section_title
;
Structure prediction by ZEFSAII (Michael W. Deem and Ramdas Pophale) SiO2 
 PCOD9043463
Probable space group: P -1
;
_chemical_formula_sum "Si O2"
_cell_formula_units_Z 16
_cell_length_a 8.014370
_cell_length_b 18.015876
_cell_length_c 7.541000
_cell_angle_alpha 63.177128
_cell_angle_beta 109.050146
_cell_angle_gamma 139.023192
_cell_volume 636.982413
_symmetry_space_group_name_H-M "P -1"
_symmetry_group_IT_number 2
_symmetry_cell_setting 'triclinic'
loop_
_space_group_symop_operation_xyz
x,y,z
-x,-y,-z
loop_
_atom_site_type_symbol
_atom_site_label
_atom_site_fract_x
_atom_site_fract_y
_atom_site_fract_z
Si Si1 0.810784 0.376614 0.454690
Si Si2 0.988335 0.136786 0.773996
Si Si3 0.594919 0.635496 0.560653
Si Si4 0.607791 0.179961 0.871988
Si Si5 0.406168 0.987877 0.763861
Si Si6 0.808131 0.963961 0.621278
Si Si7 0.446195 0.255702 0.032949
Si Si8 0.256008 0.491793 0.243702
O O1 0.555768 0.347204 0.395879
O O2 0.765085 0.279371 0.665108
O O3 0.000000 0.500000 0.500000
O O4 0.965491 0.403755 0.302302
O O5 0.152316 0.240703 0.571216
O O6 0.168094 0.196149 0.944254
O O7 0.711024 0.080455 0.765568
O O8 0.935318 0.029904 0.780470
O O9 0.415320 0.555250 0.414583
O O10 0.672350 0.573778 0.738941
O O11 0.381186 0.054502 0.825839
O O12 0.530902 0.228031 0.924270
O O13 0.710669 0.139167 0.075156
O O14 0.309217 0.991232 0.544163
O O15 0.596785 0.823059 0.738175
O O16 0.000000 0.000000 0.500000
O O17 0.639412 0.397770 0.958196
#
# Coordination Sequence:
#
# PCOD9043463 Si02
#       8
#     2   2   2   2   2   2   2   2
#     4  10  17  33  60  95 123 159 202 267 307 371
#     4  11  21  40  65  91 124 164 207 263 310 375
#     4   9  18  32  58  92 124 158 205 257 314 363
#     4  11  21  39  64  95 124 158 220 247 318 375
#     4  11  26  39  63  94 125 167 208 264 313 379
#     4  12  27  43  60  90 130 168 210 257 321 374
#     4  11  22  40  67  90 129 166 207 258 313 379
#     4   9  18  35  57  97 125 156 209 265 309 367
#
# _framework density 25.118435000000002
#
# number of rings (size 3 to 8) (size 9 to 14) (size 15 to 20)
#    0.000    1.500    5.000    2.250    3.500    1.000 
#    0.000    0.000    0.000    5.250    0.000    0.000 
#    0.000    0.000    0.000    0.000    0.000    0.000 
#
# Total GULP energy -89468.741598 kJ/mol
# GULP energy per Si atom -5591.796350 kJ/mol
# Density = 2.506126 g / cm^3
# Si number density = 25.118435 Si / 1000 Ang^3
#
#
#
# Elastic Constant Matrix: (Units=GPa)
#
#
# Indices 1 2 3 4 5 6 
#
# 1 132.1507 34.1839 55.4068 -22.3541 11.7379 13.8958
# 2 34.1839 72.1956 49.8199 -35.2142 11.6668 3.5759
# 3 55.4068 49.8199 175.0617 -43.3021 24.9752 12.7952
# 4 -22.3541 -35.2142 -43.3021 54.6633 -6.2821 0.8414
# 5 11.7379 11.6668 24.9752 -6.2821 33.6268 -7.7888
# 6 13.8958 3.5759 12.7952 0.8414 -7.7888 38.6957
#
#
#
# Elastic Compliance Matrix: (Units=1/GPa)
#
#
# Indices 1 2 3 4 5 6 
#
# 1 0.009518 -0.002565 -0.001606 0.000809 -0.001790 -0.003028
# 2 -0.002565 0.022878 -0.002235 0.011532 -0.003557 -0.001421
# 3 -0.001606 -0.002235 0.008947 0.004438 -0.005251 -0.003329
# 4 0.000809 0.011532 0.004438 0.029281 -0.003053 -0.004075
# 5 -0.001790 -0.003557 -0.005251 -0.003053 0.037308 0.010284
# 6 -0.003028 -0.001421 -0.003329 -0.004075 0.010284 0.030320
#
#
# Mechanical properties :
#
#
# Convention : Reuss Voigt Hill
#
# Bulk Modulus (GPa) = 35.04942 73.13661 54.09301
# Shear Modulus (GPa) = 31.13809 41.39699 36.26754
#
# Velocity S-wave (km/s) = 3.52469 4.06405 3.80394
# Velocity P-wave (km/s) = 5.52707 7.15555 6.39337
#
# Compressibility (1/GPa) = 0.02853115
#
# Stress axis : x y z
#
# Youngs Moduli (GPa) = 105.06375 43.71008 111.77061
#
# Poissons Ratio (x) = 0.11211 0.17948
# Poissons Ratio (y) = 0.26947 0.24985
# Poissons Ratio (z) = 0.16871 0.09771
#
# Static dielectric constant tensor:
#      x y z
#    x 2.042940 0.011400 0.010240 
#    y 0.011400 2.037630 0.047360 
#    z 0.010240 0.047360 2.049700 
# 
# From -- ./inp_files/221876.got.cif
#   From: 2010.05.17/outbox.cif.g08.bks.cpg/sg2_111_cif.got.tgz:221876.got - 2010.06.03 11:33:40.
