data_PCOD9043535
_publ_section_title
;
Structure prediction by ZEFSAII (Michael W. Deem and Ramdas Pophale) SiO2 
 PCOD9043535
Probable space group: P -1
;
_chemical_formula_sum "Si O2"
_cell_formula_units_Z 16
_cell_length_a 7.918488
_cell_length_b 11.303001
_cell_length_c 10.282014
_cell_angle_alpha 86.702271
_cell_angle_beta 102.497495
_cell_angle_gamma 120.669702
_cell_volume 771.255042
_symmetry_space_group_name_H-M "P -1"
_symmetry_group_IT_number 2
_symmetry_cell_setting 'triclinic'
loop_
_space_group_symop_operation_xyz
x,y,z
-x,-y,-z
loop_
_atom_site_type_symbol
_atom_site_label
_atom_site_fract_x
_atom_site_fract_y
_atom_site_fract_z
Si Si1 0.017732 0.954422 0.650986
Si Si2 0.614806 0.415130 0.546224
Si Si3 0.615800 0.784202 0.251998
Si Si4 0.896155 0.082860 0.855215
Si Si5 0.943442 0.684292 0.305035
Si Si6 0.016160 0.689977 0.615003
Si Si7 0.342393 0.639145 0.733819
Si Si8 0.335761 0.176939 0.027244
O O1 0.951267 0.795826 0.646710
O O2 0.254937 0.052490 0.712669
O O3 0.000000 0.000000 0.500000
O O4 0.907956 0.992621 0.741953
O O5 0.500000 0.500000 0.500000
O O6 0.532280 0.304496 0.653669
O O7 0.600215 0.348879 0.408618
O O8 0.840750 0.532466 0.609972
O O9 0.781284 0.734862 0.288238
O O10 0.547571 0.769998 0.092969
O O11 0.899364 0.212875 0.781655
O O12 0.715824 0.973549 0.921373
O O13 0.109331 0.147410 0.964092
O O14 0.809269 0.523952 0.257406
O O15 0.043397 0.705772 0.461847
O O16 0.211898 0.712493 0.719503
O O17 0.535654 0.709033 0.852165
#
# Coordination Sequence:
#
# PCOD9043535 Si02
#       8
#     2   2   2   2   2   2   2   2
#     4  10  17  33  61  86 113 144 200 243 288 329
#     4  11  20  37  61  90 113 150 202 241 284 334
#     4  10  20  36  59  89 111 148 199 254 272 331
#     4   9  19  35  61  85 112 152 199 249 274 335
#     4   9  17  34  55  85 115 146 191 244 286 325
#     4  11  21  36  56  91 125 148 184 246 302 340
#     4  11  23  36  58  88 126 153 184 236 302 360
#     4   9  21  38  55  88 120 149 195 238 293 338
#
# _framework density 20.745408000000001
#
# number of rings (size 3 to 8) (size 9 to 14) (size 15 to 20)
#    0.000    2.250    5.000    1.500    3.500    2.000 
#    0.000    6.875    0.000    3.000    0.000    0.000 
#    0.000    0.000    0.000    0.000    0.000    0.000 
#
# Total GULP energy -89217.120096 kJ/mol
# GULP energy per Si atom -5576.070006 kJ/mol
# Density = 2.069819 g / cm^3
# Si number density = 20.745408 Si / 1000 Ang^3
#
#
#
# Elastic Constant Matrix: (Units=GPa)
#
#
# Indices 1 2 3 4 5 6 
#
# 1 20.7016 -1.2474 20.7319 5.2655 2.6006 -3.0035
# 2 -1.2474 97.9336 62.0981 -10.8271 -7.0800 11.6863
# 3 20.7319 62.0981 112.3763 -1.7934 -8.3606 14.6237
# 4 5.2655 -10.8271 -1.7934 43.0373 14.2724 -8.8197
# 5 2.6006 -7.0800 -8.3606 14.2724 18.0022 -3.7837
# 6 -3.0035 11.6863 14.6237 -8.8197 -3.7837 12.9344
#
#
#
# Elastic Compliance Matrix: (Units=1/GPa)
#
#
# Indices 1 2 3 4 5 6 
#
# 1 0.086518 0.015246 -0.030777 0.005819 -0.016978 0.040112
# 2 0.015246 0.019071 -0.014119 0.004517 -0.003959 0.004195
# 3 -0.030777 -0.014119 0.026592 -0.008117 0.012121 -0.026445
# 4 0.005819 0.004517 -0.008117 0.037295 -0.027386 0.023868
# 5 -0.016978 -0.003959 0.012121 -0.027386 0.081942 -0.008773
# 6 0.040112 0.004195 -0.026445 0.023868 -0.008773 0.126445
#
#
# Mechanical properties :
#
#
# Convention : Reuss Voigt Hill
#
# Bulk Modulus (GPa) = 13.72086 43.79743 28.75914
# Shear Modulus (GPa) = 10.83529 24.75670 17.79599
#
# Velocity S-wave (km/s) = 2.28786 3.45825 2.93205
# Velocity P-wave (km/s) = 3.68882 6.09128 5.03543
#
# Compressibility (1/GPa) = 0.07288174
#
# Stress axis : x y z
#
# Youngs Moduli (GPa) = 11.55826 52.43683 37.60499
#
# Poissons Ratio (x) = -0.79946 1.15735
# Poissons Ratio (y) = -0.17622 0.53096
# Poissons Ratio (z) = 0.35572 0.74037
#
# Static dielectric constant tensor:
#      x y z
#    x 1.787130 0.005400 -0.019720 
#    y 0.005400 1.771620 -0.027090 
#    z -0.019720 -0.027090 1.764700 
# 
# From -- ./inp_files/179273.got.cif
#   From: 2010.05.17/outbox.cif.g08.bks.cpg/sg2_90_cif.got.tgz:179273.got - 2010.06.03 11:33:40.
