data_PCOD9043059
_publ_section_title
;
Structure prediction by ZEFSAII (Michael W. Deem and Ramdas Pophale) SiO2 
 PCOD9043059
Probable space group: P -1
;
_chemical_formula_sum "Si O2"
_cell_formula_units_Z 13
_cell_length_a 16.099671
_cell_length_b 8.216500
_cell_length_c 11.552166
_cell_angle_alpha 34.619884
_cell_angle_beta 50.809253
_cell_angle_gamma 74.589754
_cell_volume 549.337243
_symmetry_space_group_name_H-M "P -1"
_symmetry_group_IT_number 2
_symmetry_cell_setting 'triclinic'
loop_
_space_group_symop_operation_xyz
x,y,z
-x,-y,-z
loop_
_atom_site_type_symbol
_atom_site_label
_atom_site_fract_x
_atom_site_fract_y
_atom_site_fract_z
Si Si1 0.839389 0.809478 0.169228
Si Si2 0.648945 0.712481 0.206068
Si Si3 0.060001 0.623733 0.746304
Si Si4 0.320812 0.396169 0.021468
Si Si5 0.500000 0.500000 0.000000
Si Si6 0.125688 0.503697 0.216981
Si Si7 0.250496 0.481698 0.328342
O O1 0.725278 0.635797 0.275621
O O2 0.926380 0.672842 0.143317
O O3 0.787767 0.698902 0.409051
O O4 0.896607 0.215699 0.877478
O O5 0.500000 0.500000 0.500000
O O6 0.663698 0.606129 0.128066
O O7 0.705655 0.121874 0.921939
O O8 0.969890 0.657372 0.714326
O O9 0.202616 0.995325 0.396623
O O10 0.000000 0.500000 0.000000
O O11 0.451883 0.501483 0.908722
O O12 0.268148 0.632458 0.963752
O O13 0.370227 0.483175 0.170406
O O14 0.131046 0.313845 0.438150
#
# Coordination Sequence:
#
# PCOD9043059 Si02
#       7
#     2   2   2   2   1   2   2
#     4  11  24  45  70 104 139 182 233 280 351 415
#     4  11  24  42  71 104 138 181 234 286 345 416
#     4  12  26  45  73 101 139 189 237 282 345 416
#     4  11  24  48  69 104 143 181 231 295 344 406
#     4  10  24  40  74  96 134 186 222 280 352 406
#     4  10  25  44  69 103 139 184 227 285 348 413
#     4  10  23  45  68 103 142 183 224 291 347 407
#
# _framework density 23.66488
#
# number of rings (size 3 to 8) (size 9 to 14) (size 15 to 20)
#    0.000    1.231    1.538    2.769    6.462    3.077 
#    0.000    4.615    0.000    0.000    0.000    0.000 
#    0.000    0.000    0.000    0.000    0.000    0.000 
#
# Total GULP energy -72442.326500 kJ/mol
# GULP energy per Si atom -5572.486654 kJ/mol
# Density = 2.361102 g / cm^3
# Si number density = 23.664880 Si / 1000 Ang^3
#
#
#
# Elastic Constant Matrix: (Units=GPa)
#
#
# Indices 1 2 3 4 5 6 
#
# 1 241.5807 50.5742 20.1633 13.5151 12.7337 -0.6010
# 2 50.5742 141.1326 19.0219 26.4108 20.4993 -5.2722
# 3 20.1633 19.0219 46.3284 15.1722 16.9524 -0.8467
# 4 13.5151 26.4108 15.1722 37.6480 11.5293 13.0542
# 5 12.7337 20.4993 16.9524 11.5293 26.4822 13.2641
# 6 -0.6010 -5.2722 -0.8467 13.0542 13.2641 49.3714
#
#
#
# Elastic Compliance Matrix: (Units=1/GPa)
#
#
# Indices 1 2 3 4 5 6 
#
# 1 0.004560 -0.001424 -0.001317 -0.000024 -0.000209 -0.000057
# 2 -0.001424 0.009852 0.001491 -0.006350 -0.007515 0.004758
# 3 -0.001317 0.001491 0.033151 -0.010481 -0.021866 0.009357
# 4 -0.000024 -0.006350 -0.010481 0.039072 0.000266 -0.011260
# 5 -0.000209 -0.007515 -0.021866 0.000266 0.067234 -0.019313
# 6 -0.000057 0.004758 0.009357 -0.011260 -0.019313 0.029089
#
#
# Mechanical properties :
#
#
# Convention : Reuss Voigt Hill
#
# Bulk Modulus (GPa) = 22.19117 67.61783 44.90450
# Shear Modulus (GPa) = 24.94045 45.31912 35.12978
#
# Velocity S-wave (km/s) = 3.24991 4.38086 3.85706
# Velocity P-wave (km/s) = 4.84563 7.36372 6.23316
#
# Compressibility (1/GPa) = 0.04506297
#
# Stress axis : x y z
#
# Youngs Moduli (GPa) = 219.31954 101.49827 30.16529
#
# Poissons Ratio (x) = 0.14451 0.03972
# Poissons Ratio (y) = 0.31227 -0.04497
# Poissons Ratio (z) = 0.28879 -0.15131
#
# Static dielectric constant tensor:
#      x y z
#    x 1.923890 0.013450 0.017360 
#    y 0.013450 1.931300 -0.076180 
#    z 0.017360 -0.076180 1.933930 
# 
# From -- ./inp_files/24121.got.cif
#   From: 2010.05.17/outbox.cif.g08.bks.cpg/sg2_13_cif.got.tgz:24121.got - 2010.06.03 11:33:40.
