data_PCOD9043702
_publ_section_title
;
Structure prediction by ZEFSAII (Michael W. Deem and Ramdas Pophale) SiO2 
 PCOD9043702
Probable space group: P -1
;
_chemical_formula_sum "Si O2"
_cell_formula_units_Z 12
_cell_length_a 6.838320
_cell_length_b 14.567412
_cell_length_c 8.871300
_cell_angle_alpha 143.895440
_cell_angle_beta 98.705187
_cell_angle_gamma 86.947580
_cell_volume 511.119885
_symmetry_space_group_name_H-M "P -1"
_symmetry_group_IT_number 2
_symmetry_cell_setting 'triclinic'
loop_
_space_group_symop_operation_xyz
x,y,z
-x,-y,-z
loop_
_atom_site_type_symbol
_atom_site_label
_atom_site_fract_x
_atom_site_fract_y
_atom_site_fract_z
Si Si1 0.696762 0.876402 0.740259
Si Si2 0.421063 0.584984 0.459105
Si Si3 0.954585 0.976129 0.192116
Si Si4 0.455969 0.610793 0.006496
Si Si5 0.399146 0.938408 0.561154
Si Si6 0.853569 0.344499 0.238875
O O1 0.585111 0.709137 0.560502
O O2 0.538872 0.975744 0.772828
O O3 0.810188 0.953588 0.000188
O O4 0.870504 0.884523 0.643352
O O5 0.500000 0.500000 0.500000
O O6 0.260693 0.681517 0.647662
O O7 0.364829 0.435495 0.144375
O O8 0.815268 0.011450 0.361626
O O9 0.047741 0.811692 0.997845
O O10 0.408574 0.757410 0.293881
O O11 0.500000 0.500000 0.000000
O O12 0.283228 0.612851 0.861122
O O13 0.500000 0.000000 0.500000
O O14 0.000000 0.500000 0.500000
#
# Coordination Sequence:
#
# PCOD9043702 Si02
#       6
#     2   2   2   2   2   2
#     4  11  25  46  76 105 149 198 252 309 362 453
#     4  10  23  45  74 103 145 197 247 301 379 439
#     4  11  27  46  75 113 146 196 260 304 370 450
#     4  11  24  47  72 106 147 196 244 303 382 440
#     4  12  28  46  75 108 156 200 238 313 386 443
#     4  11  26  46  77 109 146 196 259 313 361 452
#
# _framework density 23.477855999999999
#
# number of rings (size 3 to 8) (size 9 to 14) (size 15 to 20)
#    0.000    1.000    1.667    3.500   14.000    2.667 
#    0.000    1.667    0.000    0.000    0.000    0.000 
#    0.000    0.000    0.000    0.000    0.000    0.000 
#
# Total GULP energy -66803.799018 kJ/mol
# GULP energy per Si atom -5566.983252 kJ/mol
# Density = 2.342442 g / cm^3
# Si number density = 23.477856 Si / 1000 Ang^3
#
#
#
# Elastic Constant Matrix: (Units=GPa)
#
#
# Indices 1 2 3 4 5 6 
#
# 1 136.3850 77.7926 64.2914 12.5329 -36.3839 18.7473
# 2 77.7926 146.5700 40.1858 -1.9824 -22.8119 -4.9213
# 3 64.2914 40.1858 116.4403 12.4950 -44.6033 6.9625
# 4 12.5329 -1.9824 12.4950 38.1593 -5.1669 1.6295
# 5 -36.3839 -22.8119 -44.6033 -5.1669 58.6825 -8.6515
# 6 18.7473 -4.9213 6.9625 1.6295 -8.6515 48.0905
#
#
#
# Elastic Compliance Matrix: (Units=1/GPa)
#
#
# Indices 1 2 3 4 5 6 
#
# 1 0.014693 -0.006475 -0.004372 -0.003207 0.002213 -0.005251
# 2 -0.006475 0.010616 -0.000364 0.002724 0.000618 0.003682
# 3 -0.004372 -0.000364 0.014386 -0.002251 0.008047 0.001108
# 4 -0.003207 0.002724 -0.002251 0.028095 -0.000035 0.000897
# 5 0.002213 0.000618 0.008047 -0.000035 0.025144 0.002560
# 6 -0.005251 0.003682 0.001108 0.000897 0.002560 0.023488
#
#
# Mechanical properties :
#
#
# Convention : Reuss Voigt Hill
#
# Bulk Modulus (GPa) = 57.89865 84.88167 71.39016
# Shear Modulus (GPa) = 34.57767 43.46149 39.01958
#
# Velocity S-wave (km/s) = 3.84184 4.30719 4.08115
# Velocity P-wave (km/s) = 6.66289 7.80822 7.25818
#
# Compressibility (1/GPa) = 0.01727156
#
# Stress axis : x y z
#
# Youngs Moduli (GPa) = 68.05756 94.19856 69.51348
#
# Poissons Ratio (x) = 0.60994 0.30393
# Poissons Ratio (y) = 0.44067 0.02533
# Poissons Ratio (z) = 0.29757 0.03433
#
# Static dielectric constant tensor:
#      x y z
#    x 2.023740 0.027810 -0.011800 
#    y 0.027810 1.848470 0.021260 
#    z -0.011800 0.021260 1.947830 
# 
# From -- ./inp_files/135945.got.cif
#   From: 2010.05.17/outbox.cif.g08.bks.cpg/sg2_68_cif.got.tgz:135945.got - 2010.06.03 11:33:40.
