data_PCOD9043868
_publ_section_title
;
Structure prediction by ZEFSAII (Michael W. Deem and Ramdas Pophale) SiO2 
 PCOD9043868
Probable space group: P -1
;
_chemical_formula_sum "Si O2"
_cell_formula_units_Z 12
_cell_length_a 10.684445
_cell_length_b 5.217813
_cell_length_c 10.384211
_cell_angle_alpha 58.707842
_cell_angle_beta 83.288129
_cell_angle_gamma 84.798022
_cell_volume 491.002554
_symmetry_space_group_name_H-M "P -1"
_symmetry_group_IT_number 2
_symmetry_cell_setting 'triclinic'
loop_
_space_group_symop_operation_xyz
x,y,z
-x,-y,-z
loop_
_atom_site_type_symbol
_atom_site_label
_atom_site_fract_x
_atom_site_fract_y
_atom_site_fract_z
Si Si1 0.836786 0.211605 0.879353
Si Si2 0.975673 0.762599 0.809926
Si Si3 0.750694 0.280274 0.315279
Si Si4 0.436000 0.175599 0.580506
Si Si5 0.870248 0.320176 0.563333
Si Si6 0.605176 0.888058 0.115076
O O1 0.799834 0.342768 0.705510
O O2 0.896258 0.470820 0.885765
O O3 0.059616 0.038398 0.114115
O O4 0.727842 0.063404 0.011405
O O5 0.120924 0.698632 0.784121
O O6 0.921738 0.975209 0.646450
O O7 0.784333 0.361594 0.437514
O O8 0.706621 0.937895 0.399286
O O9 0.650895 0.536481 0.209682
O O10 0.500000 0.500000 0.500000
O O11 0.451878 0.040814 0.756372
O O12 0.500000 0.000000 0.500000
O O13 0.000000 0.500000 0.500000
O O14 0.500000 0.000000 0.000000
#
# Coordination Sequence:
#
# PCOD9043868 Si02
#       6
#     2   2   2   2   2   2
#     4  10  26  47  78 117 168 205 261 329 409 488
#     4  10  24  45  80 120 159 203 258 331 419 480
#     4  12  26  49  85 119 168 212 275 339 411 492
#     4  12  30  55  82 116 154 221 287 338 397 485
#     4  10  23  45  80 123 161 209 261 328 414 500
#     4  12  32  55  79 117 167 224 284 334 407 488
#
# _framework density 24.439793999999999
#
# number of rings (size 3 to 8) (size 9 to 14) (size 15 to 20)
#    1.000    0.000    3.333    0.500    9.333    3.333 
#    0.000    0.000    0.000    0.000    0.000    0.000 
#    0.000    0.000    0.000    0.000    0.000    0.000 
#
# Total GULP energy -67026.582213 kJ/mol
# GULP energy per Si atom -5585.548518 kJ/mol
# Density = 2.438417 g / cm^3
# Si number density = 24.439794 Si / 1000 Ang^3
#
#
#
# Elastic Constant Matrix: (Units=GPa)
#
#
# Indices 1 2 3 4 5 6 
#
# 1 80.3713 41.7662 45.1607 -15.1929 -2.5746 -2.3727
# 2 41.7662 193.0574 64.1663 -14.9188 -5.4353 13.4176
# 3 45.1607 64.1663 175.2371 3.2274 -18.2893 1.0818
# 4 -15.1929 -14.9188 3.2274 47.7754 1.2161 -12.4036
# 5 -2.5746 -5.4353 -18.2893 1.2161 55.2685 -7.2512
# 6 -2.3727 13.4176 1.0818 -12.4036 -7.2512 41.2348
#
#
#
# Elastic Compliance Matrix: (Units=1/GPa)
#
#
# Indices 1 2 3 4 5 6 
#
# 1 0.016870 -0.002222 -0.003697 0.005835 -0.000327 0.003488
# 2 -0.002222 0.006471 -0.001839 0.000937 -0.000354 -0.001966
# 3 -0.003697 -0.001839 0.007606 -0.002355 0.002198 -0.000136
# 4 0.005835 0.000937 -0.002355 0.025234 0.000038 0.007690
# 5 -0.000327 -0.000354 0.002198 0.000038 0.019220 0.003430
# 6 0.003488 -0.001966 -0.000136 0.007690 0.003430 0.028011
#
#
# Mechanical properties :
#
#
# Convention : Reuss Voigt Hill
#
# Bulk Modulus (GPa) = 64.80300 83.42801 74.11551
# Shear Modulus (GPa) = 40.29954 48.69393 44.49674
#
# Velocity S-wave (km/s) = 4.06511 4.46848 4.27156
# Velocity P-wave (km/s) = 6.97183 7.79957 7.39729
#
# Compressibility (1/GPa) = 0.01543138
#
# Stress axis : x y z
#
# Youngs Moduli (GPa) = 59.27834 154.54372 131.46965
#
# Poissons Ratio (x) = 0.34332 0.48606
# Poissons Ratio (y) = 0.13169 0.24176
# Poissons Ratio (z) = 0.21916 0.28419
#
# Static dielectric constant tensor:
#      x y z
#    x -0.394560 1.517800 0.095000 
#    y 1.517800 0.972480 -0.052500 
#    z 0.095000 -0.052500 2.032090 
# 
# From -- ./inp_files/130960.got.cif
#   From: 2010.05.17/outbox.cif.g08.bks.cpg/sg2_66_cif.got.tgz:130960.got - 2010.06.03 11:33:40.
