data_PCOD9043084
_publ_section_title
;
Structure prediction by ZEFSAII (Michael W. Deem and Ramdas Pophale) SiO2 
 PCOD9043084
Probable space group: P -1
;
_chemical_formula_sum "Si O2"
_cell_formula_units_Z 16
_cell_length_a 9.132669
_cell_length_b 12.552346
_cell_length_c 16.519867
_cell_angle_alpha 25.394575
_cell_angle_beta 88.331416
_cell_angle_gamma 98.927190
_cell_volume 735.458440
_symmetry_space_group_name_H-M "P -1"
_symmetry_group_IT_number 2
_symmetry_cell_setting 'triclinic'
loop_
_space_group_symop_operation_xyz
x,y,z
-x,-y,-z
loop_
_atom_site_type_symbol
_atom_site_label
_atom_site_fract_x
_atom_site_fract_y
_atom_site_fract_z
Si Si1 0.064996 0.904865 0.143478
Si Si2 0.629051 0.689735 0.553924
Si Si3 0.657358 0.553307 0.167853
Si Si4 0.600397 0.539508 0.890146
Si Si5 0.231123 0.895128 0.590004
Si Si6 0.790432 0.897616 0.243643
Si Si7 0.681801 0.172025 0.911482
Si Si8 0.918189 0.456161 0.943880
O O1 0.905104 0.762446 0.298948
O O2 0.180467 0.774910 0.195112
O O3 0.187572 0.175020 0.002252
O O4 0.000000 0.000000 0.000000
O O5 0.440795 0.568925 0.663845
O O6 0.694501 0.467950 0.733481
O O7 0.715006 0.958875 0.423607
O O8 0.665681 0.733921 0.428121
O O9 0.531306 0.608042 0.075635
O O10 0.696498 0.324055 0.279595
O O11 0.738806 0.434802 0.966746
O O12 0.692899 0.857739 0.644095
O O13 0.500000 0.500000 0.000000
O O14 0.038599 0.720257 0.710118
O O15 0.712174 0.998215 0.102499
O O16 0.906322 0.180352 0.092357
O O17 0.500000 0.000000 0.000000
O O18 0.000000 0.500000 0.000000
#
# Coordination Sequence:
#
# PCOD9043084 Si02
#       8
#     2   2   2   2   2   2   2   2
#     4  10  23  45  68  94 129 179 222 278 340 390
#     4  11  23  41  72 100 130 175 228 275 338 401
#     4  11  22  45  67  97 137 172 221 283 330 402
#     4  11  25  37  63  99 135 178 222 268 338 407
#     4  11  23  43  67  98 141 174 220 279 340 408
#     4  11  24  42  73  96 131 179 224 276 344 397
#     4  11  24  46  68  94 134 174 227 284 329 394
#     4  12  23  41  65  97 139 174 217 274 345 412
#
# _framework density 21.755137999999999
#
# number of rings (size 3 to 8) (size 9 to 14) (size 15 to 20)
#    0.000    1.000    3.750    4.125    1.750    1.000 
#    0.000    0.000    0.000    0.000    0.000    0.000 
#    0.000    0.000    0.000    0.000    0.000    0.000 
#
# Total GULP energy -89421.208248 kJ/mol
# GULP energy per Si atom -5588.825516 kJ/mol
# Density = 2.170562 g / cm^3
# Si number density = 21.755138 Si / 1000 Ang^3
#
#
#
# Elastic Constant Matrix: (Units=GPa)
#
#
# Indices 1 2 3 4 5 6 
#
# 1 135.9184 57.6532 24.6625 14.8844 -4.8480 -20.7827
# 2 57.6532 95.1860 18.5501 20.9960 5.5279 -19.4334
# 3 24.6625 18.5501 64.4764 31.2524 -9.4197 -4.2694
# 4 14.8844 20.9960 31.2524 41.3839 -14.8451 -6.8629
# 5 -4.8480 5.5279 -9.4197 -14.8451 30.1460 0.9886
# 6 -20.7827 -19.4334 -4.2694 -6.8629 0.9886 47.4970
#
#
#
# Elastic Compliance Matrix: (Units=1/GPa)
#
#
# Indices 1 2 3 4 5 6 
#
# 1 0.010751 -0.006390 -0.003313 0.003509 0.003520 0.002225
# 2 -0.006390 0.017576 0.001263 -0.010277 -0.009022 0.003212
# 3 -0.003313 0.001263 0.025613 -0.019943 -0.002534 -0.001459
# 4 0.003509 -0.010277 -0.019943 0.051259 0.021377 0.002500
# 5 0.003520 -0.009022 -0.002534 0.021377 0.045135 -0.000229
# 6 0.002225 0.003212 -0.001459 0.002500 -0.000229 0.023577
#
#
# Mechanical properties :
#
#
# Convention : Reuss Voigt Hill
#
# Bulk Modulus (GPa) = 26.98281 55.25693 41.11987
# Shear Modulus (GPa) = 24.61310 36.78640 30.69975
#
# Velocity S-wave (km/s) = 3.36723 4.11655 3.76060
# Velocity P-wave (km/s) = 5.24858 6.93176 6.14804
#
# Compressibility (1/GPa) = 0.03706063
#
# Stress axis : x y z
#
# Youngs Moduli (GPa) = 93.01859 56.89435 39.04277
#
# Poissons Ratio (x) = 0.36355 0.12935
# Poissons Ratio (y) = 0.59439 -0.04932
# Poissons Ratio (z) = 0.30816 -0.07187
#
# Static dielectric constant tensor:
#      x y z
#    x 1.804720 -0.042560 -0.010710 
#    y -0.042560 1.807500 0.032780 
#    z -0.010710 0.032780 1.833880 
# 
# From -- ./inp_files/499694.got.cif
#   From: 2010.05.17/outbox.cif.g08.bks.cpg/sg2_250_cif.got.tgz:499694.got - 2010.06.03 11:33:40.
