data_PCOD9043650
_publ_section_title
;
Structure prediction by ZEFSAII (Michael W. Deem and Ramdas Pophale) SiO2 
 PCOD9043650
Probable space group: P -1
;
_chemical_formula_sum "Si O2"
_cell_formula_units_Z 14
_cell_length_a 8.933482
_cell_length_b 10.486424
_cell_length_c 8.816977
_cell_angle_alpha 60.240991
_cell_angle_beta 53.944750
_cell_angle_gamma 68.825973
_cell_volume 576.883319
_symmetry_space_group_name_H-M "P -1"
_symmetry_group_IT_number 2
_symmetry_cell_setting 'triclinic'
loop_
_space_group_symop_operation_xyz
x,y,z
-x,-y,-z
loop_
_atom_site_type_symbol
_atom_site_label
_atom_site_fract_x
_atom_site_fract_y
_atom_site_fract_z
Si Si1 0.859511 0.099054 0.917835
Si Si2 0.443374 0.677682 0.478880
Si Si3 0.163621 0.065481 0.276218
Si Si4 0.518567 0.998413 0.308973
Si Si5 0.495851 0.508127 0.819120
Si Si6 0.864557 0.357886 0.551424
Si Si7 0.115437 0.393314 0.109183
O O1 0.931832 0.243741 0.712463
O O2 0.796664 0.015044 0.856727
O O3 0.669706 0.112238 0.115875
O O4 0.000000 0.000000 0.000000
O O5 0.500000 0.500000 0.500000
O O6 0.554989 0.825494 0.327379
O O7 0.415237 0.652475 0.689338
O O8 0.265846 0.714050 0.455043
O O9 0.086586 0.228853 0.182511
O O10 0.333904 0.060134 0.293579
O O11 0.000000 0.000000 0.500000
O O12 0.500000 0.000000 0.500000
O O13 0.706998 0.470808 0.656782
O O14 0.500000 0.500000 0.000000
O O15 0.334852 0.400898 0.946624
O O16 0.028331 0.416132 0.318050
O O17 0.000000 0.500000 0.000000
#
# Coordination Sequence:
#
# PCOD9043650 Si02
#       7
#     2   2   2   2   2   2   2
#     4  12  27  45  73 108 151 199 254 318 383 456
#     4  10  23  45  73 107 150 199 255 313 381 464
#     4  12  25  47  74 106 151 195 254 321 385 459
#     4  12  27  45  79 111 150 203 257 319 394 459
#     4  11  27  44  73 108 149 196 250 315 385 449
#     4  11  24  49  72 107 152 192 261 314 373 463
#     4  12  26  45  78 107 143 202 254 306 392 461
#
# _framework density 24.268339999999998
#
# number of rings (size 3 to 8) (size 9 to 14) (size 15 to 20)
#    0.000    0.571    4.286    2.143    8.000    1.714 
#    0.000    0.000    0.000    0.000    0.000    0.000 
#    0.000    0.000    0.000    0.000    0.000    0.000 
#
# Total GULP energy -78044.480418 kJ/mol
# GULP energy per Si atom -5574.605744 kJ/mol
# Density = 2.421310 g / cm^3
# Si number density = 24.268340 Si / 1000 Ang^3
#
#
#
# Elastic Constant Matrix: (Units=GPa)
#
#
# Indices 1 2 3 4 5 6 
#
# 1 108.1137 9.2364 15.3248 -5.3566 37.4656 -19.2032
# 2 9.2364 81.8715 18.9076 -13.8588 12.3826 -6.4989
# 3 15.3248 18.9076 153.1381 -7.0491 22.0647 -12.9348
# 4 -5.3566 -13.8588 -7.0491 52.1060 -6.0722 10.9490
# 5 37.4656 12.3826 22.0647 -6.0722 55.3751 -5.7684
# 6 -19.2032 -6.4989 -12.9348 10.9490 -5.7684 34.1468
#
#
#
# Elastic Compliance Matrix: (Units=1/GPa)
#
#
# Indices 1 2 3 4 5 6 
#
# 1 0.013262 0.000065 0.000405 -0.000924 -0.008576 0.006471
# 2 0.000065 0.013368 -0.001138 0.002982 -0.002167 0.000828
# 3 0.000405 -0.001138 0.007205 -0.000083 -0.002658 0.002318
# 4 -0.000924 0.002982 -0.000083 0.021455 0.001658 -0.006583
# 5 -0.008576 -0.002167 -0.002658 0.001658 0.025326 -0.002495
# 6 0.006471 0.000828 0.002318 -0.006583 -0.002495 0.035649
#
#
# Mechanical properties :
#
#
# Convention : Reuss Voigt Hill
#
# Bulk Modulus (GPa) = 30.77098 47.78455 39.27777
# Shear Modulus (GPa) = 38.93020 48.30255 43.61637
#
# Velocity S-wave (km/s) = 4.00954 4.46618 4.24400
# Velocity P-wave (km/s) = 5.84313 6.80650 6.34313
#
# Compressibility (1/GPa) = 0.03249815
#
# Stress axis : x y z
#
# Youngs Moduli (GPa) = 75.40256 74.80652 138.79372
#
# Poissons Ratio (x) = -0.00484 -0.05615
# Poissons Ratio (y) = -0.00488 0.15790
# Poissons Ratio (z) = -0.03050 0.08510
#
# Static dielectric constant tensor:
#      x y z
#    x 1.941850 0.050970 -0.037850 
#    y 0.050970 2.068590 0.057380 
#    z -0.037850 0.057380 1.965500 
# 
# From -- ./inp_files/184677.got.cif
#   From: 2010.05.17/outbox.cif.g08.bks.cpg/sg2_93_cif.got.tgz:184677.got - 2010.06.03 11:33:40.
