data_PCOD9043088
_publ_section_title
;
Structure prediction by ZEFSAII (Michael W. Deem and Ramdas Pophale) SiO2 
 PCOD9043088
Probable space group: P -1
;
_chemical_formula_sum "Si O2"
_cell_formula_units_Z 16
_cell_length_a 17.068007
_cell_length_b 11.715874
_cell_length_c 8.862880
_cell_angle_alpha 94.201213
_cell_angle_beta 41.510711
_cell_angle_gamma 125.162762
_cell_volume 720.794145
_symmetry_space_group_name_H-M "P -1"
_symmetry_group_IT_number 2
_symmetry_cell_setting 'triclinic'
loop_
_space_group_symop_operation_xyz
x,y,z
-x,-y,-z
loop_
_atom_site_type_symbol
_atom_site_label
_atom_site_fract_x
_atom_site_fract_y
_atom_site_fract_z
Si Si1 0.402752 0.031430 0.342973
Si Si2 0.531979 0.354410 0.663579
Si Si3 0.906677 0.921528 0.795154
Si Si4 0.362951 0.019544 0.056474
Si Si5 0.291109 0.635356 0.866283
Si Si6 0.167144 0.325509 0.531512
Si Si7 0.102456 0.681814 0.955956
Si Si8 0.930612 0.700538 0.653743
O O1 0.349989 0.034899 0.254433
O O2 0.517479 0.208087 0.295778
O O3 0.227216 0.847858 0.673089
O O4 0.546369 0.034729 0.105934
O O5 0.664121 0.415697 0.340531
O O6 0.642480 0.529280 0.626613
O O7 0.319541 0.225155 0.900616
O O8 0.493845 0.212800 0.806086
O O9 0.924182 0.800462 0.791029
O O10 0.000000 0.000000 0.500000
O O11 0.032491 0.110320 0.722303
O O12 0.146108 0.858530 0.294244
O O13 0.235547 0.716954 0.888060
O O14 0.128029 0.458987 0.191799
O O15 0.202349 0.371697 0.305929
O O16 0.048583 0.347174 0.755980
O O17 0.000000 0.500000 0.000000
#
# Coordination Sequence:
#
# PCOD9043088 Si02
#       8
#     2   2   2   2   2   2   2   2
#     4  11  24  38  66  99 135 175 217 270 337 398
#     4  12  23  43  69  99 131 174 225 269 329 402
#     4  10  23  45  68  95 133 174 226 279 323 381
#     4  11  22  42  65  98 136 172 224 271 325 406
#     4  12  25  40  66  99 137 173 217 275 335 395
#     4  11  23  42  71 100 130 179 220 269 338 393
#     4  12  22  40  66  99 137 170 211 273 337 397
#     4  11  25  45  65  96 136 174 224 280 323 384
#
# _framework density 22.197738999999999
#
# number of rings (size 3 to 8) (size 9 to 14) (size 15 to 20)
#    0.000    0.750    5.000    3.375    0.000    6.500 
#    2.250    0.625    0.000    0.000    0.000    0.000 
#    0.000    0.000    0.000    0.000    0.000    0.000 
#
# Total GULP energy -89475.649577 kJ/mol
# GULP energy per Si atom -5592.228099 kJ/mol
# Density = 2.214722 g / cm^3
# Si number density = 22.197739 Si / 1000 Ang^3
#
#
#
# Elastic Constant Matrix: (Units=GPa)
#
#
# Indices 1 2 3 4 5 6 
#
# 1 33.0109 9.5384 6.8621 -4.3388 7.6887 16.0810
# 2 9.5384 112.0725 21.0164 -10.7179 3.3340 24.4776
# 3 6.8621 21.0164 70.6955 -10.4704 3.5750 3.4715
# 4 -4.3388 -10.7179 -10.4704 29.9636 -2.6576 -12.7561
# 5 7.6887 3.3340 3.5750 -2.6576 35.6318 -2.1218
# 6 16.0810 24.4776 3.4715 -12.7561 -2.1218 30.5149
#
#
#
# Elastic Compliance Matrix: (Units=1/GPa)
#
#
# Indices 1 2 3 4 5 6 
#
# 1 0.047425 0.003271 -0.004590 -0.008010 -0.012541 -0.031315
# 2 0.003271 0.011715 -0.003360 -0.001643 -0.002277 -0.011584
# 3 -0.004590 -0.003360 0.016217 0.006389 0.000510 0.005975
# 4 -0.008010 -0.001643 0.006389 0.044542 0.005984 0.023849
# 5 -0.012541 -0.002277 0.000510 0.005984 0.032160 0.013115
# 6 -0.031315 -0.011584 0.005975 0.023849 0.013115 0.068767
#
#
# Mechanical properties :
#
#
# Convention : Reuss Voigt Hill
#
# Bulk Modulus (GPa) = 15.15180 32.29029 23.72105
# Shear Modulus (GPa) = 19.82682 31.11287 25.46985
#
# Velocity S-wave (km/s) = 2.99187 3.74789 3.39102
# Velocity P-wave (km/s) = 4.33310 5.77123 5.10308
#
# Compressibility (1/GPa) = 0.06599877
#
# Stress axis : x y z
#
# Youngs Moduli (GPa) = 21.08596 85.36013 61.66547
#
# Poissons Ratio (x) = -0.27920 0.28306
# Poissons Ratio (y) = -0.06897 0.20717
# Poissons Ratio (z) = 0.09679 0.28677
#
# Static dielectric constant tensor:
#      x y z
#    x 1.888220 0.031380 -0.024080 
#    y 0.031380 1.843630 0.003910 
#    z -0.024080 0.003910 1.783590 
# 
# From -- ./inp_files/307307.got.cif
#   From: 2010.05.17/outbox.cif.g08.bks.cpg/sg2_154_cif.got.tgz:307307.got - 2010.06.03 11:33:40.
