data_PCOD9043124
_publ_section_title
;
Structure prediction by ZEFSAII (Michael W. Deem and Ramdas Pophale) SiO2 
 PCOD9043124
Probable space group: P -1
;
_chemical_formula_sum "Si O2"
_cell_formula_units_Z 16
_cell_length_a 9.899961
_cell_length_b 11.746465
_cell_length_c 8.472907
_cell_angle_alpha 51.088282
_cell_angle_beta 94.685012
_cell_angle_gamma 87.393340
_cell_volume 758.149145
_symmetry_space_group_name_H-M "P -1"
_symmetry_group_IT_number 2
_symmetry_cell_setting 'triclinic'
loop_
_space_group_symop_operation_xyz
x,y,z
-x,-y,-z
loop_
_atom_site_type_symbol
_atom_site_label
_atom_site_fract_x
_atom_site_fract_y
_atom_site_fract_z
Si Si1 0.105338 0.881962 0.704078
Si Si2 0.984317 0.841826 0.070192
Si Si3 0.603765 0.476252 0.888347
Si Si4 0.614088 0.132927 0.090831
Si Si5 0.875972 0.436249 0.132089
Si Si6 0.662412 0.892383 0.038048
Si Si7 0.393712 0.392402 0.529549
Si Si8 0.868080 0.429776 0.504938
O O1 0.258635 0.919143 0.731882
O O2 0.111926 0.739690 0.719478
O O3 0.000000 0.000000 0.500000
O O4 0.042201 0.833542 0.905840
O O5 0.820016 0.834017 0.061112
O O6 0.083222 0.735037 0.287589
O O7 0.000000 0.000000 0.000000
O O8 0.577160 0.611885 0.648180
O O9 0.500000 0.500000 0.000000
O O10 0.604179 0.312865 0.950074
O O11 0.749103 0.487127 0.966546
O O12 0.657888 0.043553 0.009024
O O13 0.455955 0.095388 0.119831
O O14 0.845313 0.467786 0.285527
O O15 0.000000 0.500000 0.000000
O O16 0.611350 0.764680 0.255189
O O17 0.500000 0.500000 0.500000
O O18 0.251953 0.490394 0.470494
O O19 0.000000 0.500000 0.500000
#
# Coordination Sequence:
#
# PCOD9043124 Si02
#       8
#     2   2   2   2   2   2   2   2
#     4  11  24  45  67 100 142 180 228 288 355 420
#     4  12  24  41  72  99 138 187 236 288 345 421
#     4  11  24  45  67 100 142 180 228 288 355 420
#     4  10  23  45  68  99 135 182 229 287 345 425
#     4  11  25  40  64  98 142 178 219 297 354 402
#     4  11  24  43  70 102 136 179 240 289 344 410
#     4  12  24  41  72  99 138 187 236 288 345 421
#     4  12  24  43  66 104 133 181 250 280 345 427
#
# _framework density 21.104026999999999
#
# number of rings (size 3 to 8) (size 9 to 14) (size 15 to 20)
#    0.000    0.750    3.750    4.500    0.000    0.000 
#    0.000    5.000    0.000    0.000    0.000    0.000 
#    0.000    0.000    0.000    0.000    0.000    0.000 
#
# Total GULP energy -89141.450489 kJ/mol
# GULP energy per Si atom -5571.340656 kJ/mol
# Density = 2.105599 g / cm^3
# Si number density = 21.104027 Si / 1000 Ang^3
#
#
#
# Elastic Constant Matrix: (Units=GPa)
#
#
# Indices 1 2 3 4 5 6 
#
# 1 130.6174 12.5295 12.8537 0.2034 4.6305 12.7051
# 2 12.5295 72.6168 10.9977 1.7693 -4.4281 10.5411
# 3 12.8537 10.9977 88.1144 -1.4116 0.6383 7.0247
# 4 0.2034 1.7693 -1.4116 27.3998 -7.8148 3.3806
# 5 4.6305 -4.4281 0.6383 -7.8148 34.4072 7.4967
# 6 12.7051 10.5411 7.0247 3.3806 7.4967 37.3684
#
#
#
# Elastic Compliance Matrix: (Units=1/GPa)
#
#
# Indices 1 2 3 4 5 6 
#
# 1 0.008073 -0.000992 -0.000876 0.000019 -0.000724 -0.002157
# 2 -0.000992 0.014954 -0.001397 0.000382 0.003102 -0.004275
# 3 -0.000876 -0.001397 0.011799 0.001001 0.000312 -0.001679
# 4 0.000019 0.000382 0.001001 0.040262 0.010491 -0.006049
# 5 -0.000724 0.003102 0.000312 0.010491 0.033770 -0.008412
# 6 -0.002157 -0.004275 -0.001679 -0.006049 -0.008412 0.031250
#
#
# Mechanical properties :
#
#
# Convention : Reuss Voigt Hill
#
# Bulk Modulus (GPa) = 35.34200 40.45671 37.89936
# Shear Modulus (GPa) = 32.03696 36.83294 34.43495
#
# Velocity S-wave (km/s) = 3.90044 4.18222 4.04378
# Velocity P-wave (km/s) = 6.08831 6.52173 6.30874
#
# Compressibility (1/GPa) = 0.02829494
#
# Stress axis : x y z
#
# Youngs Moduli (GPa) = 123.87394 66.87118 84.75478
#
# Poissons Ratio (x) = 0.06632 0.07428
# Poissons Ratio (y) = 0.12284 0.11843
# Poissons Ratio (z) = 0.10856 0.09344
#
# Static dielectric constant tensor:
#      x y z
#    x 1.753720 -0.007610 0.005720 
#    y -0.007610 1.804750 -0.033100 
#    z 0.005720 -0.033100 1.554400 
# 
# From -- ./inp_files/184333.got.cif
#   From: 2010.05.17/outbox.cif.g08.bks.cpg/sg2_93_cif.got.tgz:184333.got - 2010.06.03 11:33:40.
