data_PCOD9043802
_publ_section_title
;
Structure prediction by ZEFSAII (Michael W. Deem and Ramdas Pophale) SiO2 
 PCOD9043802
Probable space group: P -1
;
_chemical_formula_sum "Si O2"
_cell_formula_units_Z 10
_cell_length_a 10.395214
_cell_length_b 8.467573
_cell_length_c 8.640412
_cell_angle_alpha 107.434691
_cell_angle_beta 30.327384
_cell_angle_gamma 91.827857
_cell_volume 323.276930
_symmetry_space_group_name_H-M "P -1"
_symmetry_group_IT_number 2
_symmetry_cell_setting 'triclinic'
loop_
_space_group_symop_operation_xyz
x,y,z
-x,-y,-z
loop_
_atom_site_type_symbol
_atom_site_label
_atom_site_fract_x
_atom_site_fract_y
_atom_site_fract_z
Si Si1 0.661636 0.859224 0.649060
Si Si2 0.876022 0.122581 0.508292
Si Si3 0.158176 0.122269 0.913246
Si Si4 0.381585 0.358320 0.634576
Si Si5 0.193403 0.537644 0.184773
O O1 0.499734 0.783789 0.679846
O O2 0.942302 0.678802 0.368393
O O3 0.756912 0.999063 0.509175
O O4 0.500000 0.000000 0.000000
O O5 0.675736 0.331402 0.842130
O O6 0.000000 0.000000 0.500000
O O7 0.079356 0.158074 0.187843
O O8 0.100623 0.315097 0.938577
O O9 0.500000 0.000000 0.500000
O O10 0.000000 0.000000 0.000000
O O11 0.500000 0.500000 0.500000
O O12 0.415985 0.374648 0.792432
O O13 0.000000 0.500000 0.500000
#
# Coordination Sequence:
#
# PCOD9043802 Si02
#       5
#     2   2   2   2   2
#     4  11  25  45  77 107 153 211 267 322 401 487
#     4  10  23  45  76 105 152 206 265 318 396 481
#     4  12  28  49  78 118 157 212 275 329 398 492
#     4  12  27  46  74 113 158 205 261 335 404 467
#     4  11  24  45  71 109 155 200 262 335 402 471
#
# _framework density 30.933232
#
# number of rings (size 3 to 8) (size 9 to 14) (size 15 to 20)
#    0.000    0.800    4.000    1.800   11.200    1.600 
#    0.000    2.000    0.000    0.000    0.000    0.000 
#    0.000    0.000    0.000    0.000    0.000    0.000 
#
# Total GULP energy -55703.200496 kJ/mol
# GULP energy per Si atom -5570.320050 kJ/mol
# Density = 3.086283 g / cm^3
# Si number density = 30.933232 Si / 1000 Ang^3
#
#
#
# Elastic Constant Matrix: (Units=GPa)
#
#
# Indices 1 2 3 4 5 6 
#
# 1 128.9170 96.5751 53.6223 -6.4160 22.0668 21.0912
# 2 96.5751 336.3959 99.2614 -9.3093 41.6695 44.8879
# 3 53.6223 99.2614 183.4671 -33.6624 46.3325 -6.9774
# 4 -6.4160 -9.3093 -33.6624 92.2711 -10.7337 24.0013
# 5 22.0668 41.6695 46.3325 -10.7337 74.9687 3.1265
# 6 21.0912 44.8879 -6.9774 24.0013 3.1265 81.9348
#
#
#
# Elastic Compliance Matrix: (Units=1/GPa)
#
#
# Indices 1 2 3 4 5 6 
#
# 1 0.010530 -0.002190 -0.001736 0.000239 -0.000704 -0.001702
# 2 -0.002190 0.004447 -0.001637 0.000144 -0.000710 -0.002027
# 3 -0.001736 -0.001637 0.008101 0.001854 -0.003388 0.001620
# 4 0.000239 0.000144 0.001854 0.012583 0.000660 -0.003693
# 5 -0.000704 -0.000710 -0.003388 0.000660 0.016151 -0.000528
# 6 -0.001702 -0.002027 0.001620 -0.003693 -0.000528 0.014993
#
#
# Mechanical properties :
#
#
# Convention : Reuss Voigt Hill
#
# Bulk Modulus (GPa) = 83.66755 127.52195 105.59475
# Shear Modulus (GPa) = 61.03838 76.45634 68.74736
#
# Velocity S-wave (km/s) = 4.44692 4.97697 4.71939
# Velocity P-wave (km/s) = 7.31255 8.62214 7.99421
#
# Compressibility (1/GPa) = 0.01195207
#
# Stress axis : x y z
#
# Youngs Moduli (GPa) = 94.96297 224.87472 123.44063
#
# Poissons Ratio (x) = 0.49247 0.21429
# Poissons Ratio (y) = 0.20797 0.20210
# Poissons Ratio (z) = 0.16485 0.36817
#
# Static dielectric constant tensor:
#      x y z
#    x 8.426760 -5.174740 2.136610 
#    y -5.174740 7.072470 -1.937370 
#    z 2.136610 -1.937370 3.624100 
# 
# From -- ./inp_files/245271.got.cif
#   From: 2010.05.17/outbox.cif.g08.bks.cpg/sg2_123_cif.got.tgz:245271.got - 2010.06.03 11:33:40.
