data_PCOD9043254
_publ_section_title
;
Structure prediction by ZEFSAII (Michael W. Deem and Ramdas Pophale) SiO2 
 PCOD9043254
Probable space group: P -1
;
_chemical_formula_sum "Si O2"
_cell_formula_units_Z 16
_cell_length_a 8.605239
_cell_length_b 15.448660
_cell_length_c 10.921063
_cell_angle_alpha 117.402201
_cell_angle_beta 71.872510
_cell_angle_gamma 56.035478
_cell_volume 679.826773
_symmetry_space_group_name_H-M "P -1"
_symmetry_group_IT_number 2
_symmetry_cell_setting 'triclinic'
loop_
_space_group_symop_operation_xyz
x,y,z
-x,-y,-z
loop_
_atom_site_type_symbol
_atom_site_label
_atom_site_fract_x
_atom_site_fract_y
_atom_site_fract_z
Si Si1 0.611471 0.078789 0.916902
Si Si2 0.159276 0.640025 0.168878
Si Si3 0.099399 0.858890 0.461319
Si Si4 0.792644 0.525220 0.135244
Si Si5 0.376976 0.301965 0.457881
Si Si6 0.777144 0.533624 0.740441
Si Si7 0.613953 0.360720 0.290842
Si Si8 0.296868 0.037226 0.900753
O O1 0.652036 0.031447 0.018586
O O2 0.422596 0.271181 0.071661
O O3 0.447853 0.068144 0.886567
O O4 0.926165 0.938451 0.683526
O O5 0.007473 0.809087 0.373428
O O6 0.138791 0.559334 0.213554
O O7 0.500000 0.500000 0.000000
O O8 0.084834 0.638943 0.051289
O O9 0.449883 0.694783 0.287836
O O10 0.000000 0.000000 0.500000
O O11 0.763188 0.566311 0.311200
O O12 0.000000 0.500000 0.000000
O O13 0.574214 0.277107 0.314794
O O14 0.092765 0.403010 0.520943
O O15 0.559409 0.114488 0.323164
O O16 0.597639 0.544098 0.712238
O O17 0.500000 0.500000 0.500000
O O18 0.949764 0.213118 0.080798
#
# Coordination Sequence:
#
# PCOD9043254 Si02
#       8
#     2   2   2   2   2   2   2   2
#     4  11  24  44  74 101 148 187 235 294 362 432
#     4  10  23  45  69  99 136 187 231 292 347 418
#     4  11  25  47  74 104 139 190 238 297 364 418
#     4  11  24  45  72 102 139 186 242 291 351 421
#     4  12  25  46  72 100 148 189 234 299 357 426
#     4  12  25  45  72 100 145 187 239 288 361 428
#     4  12  28  43  69 111 139 191 237 292 359 430
#     4  11  26  46  70 109 147 186 236 296 362 423
#
# _framework density 23.535405999999998
#
# number of rings (size 3 to 8) (size 9 to 14) (size 15 to 20)
#    0.000    0.750    2.500    4.500   10.500    0.000 
#    0.000    0.625    0.000    0.000    0.000    0.000 
#    0.000    0.000    0.000    0.000    0.000    0.000 
#
# Total GULP energy -89540.420491 kJ/mol
# GULP energy per Si atom -5596.276281 kJ/mol
# Density = 2.348184 g / cm^3
# Si number density = 23.535406 Si / 1000 Ang^3
#
#
#
# Elastic Constant Matrix: (Units=GPa)
#
#
# Indices 1 2 3 4 5 6 
#
# 1 128.3165 30.1572 44.7420 4.2334 -5.7781 3.9827
# 2 30.1572 71.9995 22.3127 -3.5994 5.8628 13.7190
# 3 44.7420 22.3127 120.2709 5.1944 0.8892 3.3216
# 4 4.2334 -3.5994 5.1944 35.0402 5.7298 -0.0999
# 5 -5.7781 5.8628 0.8892 5.7298 54.2952 1.4874
# 6 3.9827 13.7190 3.3216 -0.0999 1.4874 37.1546
#
#
#
# Elastic Compliance Matrix: (Units=1/GPa)
#
#
# Indices 1 2 3 4 5 6 
#
# 1 0.009732 -0.003440 -0.002947 -0.001351 0.001586 0.000423
# 2 -0.003440 0.017346 -0.001884 0.002845 -0.002351 -0.005766
# 3 -0.002947 -0.001884 0.009813 -0.001269 -0.000141 0.000137
# 4 -0.001351 0.002845 -0.001269 0.029762 -0.003555 -0.000570
# 5 0.001586 -0.002351 -0.000141 -0.003555 0.019220 -0.000068
# 6 0.000423 -0.005766 0.000137 -0.000570 -0.000068 0.028987
#
#
# Mechanical properties :
#
#
# Convention : Reuss Voigt Hill
#
# Bulk Modulus (GPa) = 49.14767 57.22341 53.18554
# Shear Modulus (GPa) = 36.18286 40.18968 38.18627
#
# Velocity S-wave (km/s) = 3.92520 4.13683 4.03240
# Velocity P-wave (km/s) = 6.43977 6.86908 6.65789
#
# Compressibility (1/GPa) = 0.02034684
#
# Stress axis : x y z
#
# Youngs Moduli (GPa) = 102.75002 57.64916 101.90891
#
# Poissons Ratio (x) = 0.19834 0.30036
# Poissons Ratio (y) = 0.35350 0.19204
# Poissons Ratio (z) = 0.30284 0.10864
#
# Static dielectric constant tensor:
#      x y z
#    x 1.954200 0.073780 0.022560 
#    y 0.073780 2.048370 -0.067230 
#    z 0.022560 -0.067230 1.897640 
# 
# From -- ./inp_files/399423.got.cif
#   From: 2010.05.17/outbox.cif.g08.bks.cpg/sg2_200_cif.got.tgz:399423.got - 2010.06.03 11:33:40.
