data_PCOD9043106
_publ_section_title
;
Structure prediction by ZEFSAII (Michael W. Deem and Ramdas Pophale) SiO2 
 PCOD9043106
Probable space group: P -1
;
_chemical_formula_sum "Si O2"
_cell_formula_units_Z 12
_cell_length_a 22.120849
_cell_length_b 8.715481
_cell_length_c 14.305736
_cell_angle_alpha 30.467054
_cell_angle_beta 20.961511
_cell_angle_gamma 31.545351
_cell_volume 482.940463
_symmetry_space_group_name_H-M "P -1"
_symmetry_group_IT_number 2
_symmetry_cell_setting 'triclinic'
loop_
_space_group_symop_operation_xyz
x,y,z
-x,-y,-z
loop_
_atom_site_type_symbol
_atom_site_label
_atom_site_fract_x
_atom_site_fract_y
_atom_site_fract_z
Si Si1 0.312763 0.822306 0.528468
Si Si2 0.801052 0.514745 0.300851
Si Si3 0.300527 0.785087 0.932583
Si Si4 0.090588 0.483970 0.532428
Si Si5 0.626753 0.542628 0.709273
Si Si6 0.688163 0.588508 0.073386
O O1 0.283953 0.570880 0.626442
O O2 0.510282 0.860598 0.208587
O O3 0.312946 0.677597 0.707202
O O4 0.156640 0.135617 0.574464
O O5 0.733106 0.334529 0.578136
O O6 0.000000 0.500000 0.000000
O O7 0.748066 0.875901 0.219253
O O8 0.155102 0.717808 0.247640
O O9 0.471256 0.766333 0.756981
O O10 0.331346 0.531477 0.939543
O O11 0.206811 0.421121 0.491203
O O12 0.886559 0.612857 0.779884
O O13 0.500000 0.500000 0.000000
#
# Coordination Sequence:
#
# PCOD9043106 Si02
#       6
#     2   2   2   2   2   2
#     4  11  25  41  71 101 132 179 233 283 334 400
#     4  12  24  44  72 104 135 176 234 285 337 406
#     4  11  24  45  70  94 140 182 218 278 352 407
#     4  11  24  46  67 100 139 181 223 279 346 408
#     4  10  23  45  68  97 138 184 219 276 349 405
#     4  11  23  43  69  99 137 180 228 280 340 406
#
# _framework density 24.847783
#
# number of rings (size 3 to 8) (size 9 to 14) (size 15 to 20)
#    0.000    1.000    1.667    4.500    4.667    0.667 
#    6.000    2.500    0.000    0.000    0.000    0.000 
#    0.000    0.000    0.000    0.000    0.000    0.000 
#
# Total GULP energy -66909.139549 kJ/mol
# GULP energy per Si atom -5575.761629 kJ/mol
# Density = 2.479123 g / cm^3
# Si number density = 24.847783 Si / 1000 Ang^3
#
#
#
# Elastic Constant Matrix: (Units=GPa)
#
#
# Indices 1 2 3 4 5 6 
#
# 1 105.8926 4.3711 41.5092 8.1237 5.1787 14.1424
# 2 4.3711 23.4724 31.0166 20.4072 -2.1727 -13.2920
# 3 41.5092 31.0166 205.7987 53.6417 7.2629 -21.4052
# 4 8.1237 20.4072 53.6417 37.9298 -3.6653 -3.7721
# 5 5.1787 -2.1727 7.2629 -3.6653 43.6806 10.4300
# 6 14.1424 -13.2920 -21.4052 -3.7721 10.4300 14.5450
#
#
#
# Elastic Compliance Matrix: (Units=1/GPa)
#
#
# Indices 1 2 3 4 5 6 
#
# 1 0.001487 0.043033 0.006292 -0.028759 -0.013237 0.049174
# 2 0.043033 -0.125755 -0.043095 0.101660 0.061077 -0.237619
# 3 0.006292 -0.043095 0.000061 0.017954 0.010061 -0.047969
# 4 -0.028759 0.101660 0.017954 -0.034742 -0.036744 0.164627
# 5 -0.013237 0.061077 0.010061 -0.036744 0.006134 0.069565
# 6 0.049174 -0.237619 -0.047969 0.164627 0.069565 -0.273995
#
#
# Mechanical properties :
#
#
# Convention : Reuss Voigt Hill
#
# Bulk Modulus (GPa) = -8.94879 54.32861 22.68991
# Shear Modulus (GPa) = -10.49273 36.44885 12.97806
#
# Velocity S-wave (km/s) = -2.05718 3.83415 2.28787
# Velocity P-wave (km/s) = 3.04169 6.44306 4.01628
#
# Compressibility (1/GPa) = -0.11174690
#
# Stress axis : x y z
#
# Youngs Moduli (GPa) = 672.53942 -7.95194 16446.35100
#
# Poissons Ratio (x) = 0.34220 -103.48362
# Poissons Ratio (y) = -28.94133 708.75058
# Poissons Ratio (z) = -4.23175 -0.34269
#
# Static dielectric constant tensor:
#      x y z
#    x 1.933220 0.024400 0.044410 
#    y 0.024400 2.055860 -0.026510 
#    z 0.044410 -0.026510 2.120140 
# 
# From -- ./inp_files/151866.got.cif
#   From: 2010.05.17/outbox.cif.g08.bks.cpg/sg2_76_cif.got.tgz:151866.got - 2010.06.03 11:33:40.
