data_PCOD9043177
_publ_section_title
;
Structure prediction by ZEFSAII (Michael W. Deem and Ramdas Pophale) SiO2 
 PCOD9043177
Probable space group: P -1
;
_chemical_formula_sum "Si O2"
_cell_formula_units_Z 16
_cell_length_a 10.589570
_cell_length_b 7.036173
_cell_length_c 10.743726
_cell_angle_alpha 88.411030
_cell_angle_beta 67.436658
_cell_angle_gamma 109.951563
_cell_volume 683.166632
_symmetry_space_group_name_H-M "P -1"
_symmetry_group_IT_number 2
_symmetry_cell_setting 'triclinic'
loop_
_space_group_symop_operation_xyz
x,y,z
-x,-y,-z
loop_
_atom_site_type_symbol
_atom_site_label
_atom_site_fract_x
_atom_site_fract_y
_atom_site_fract_z
Si Si1 0.214602 0.827472 0.254174
Si Si2 0.390774 0.180071 0.034511
Si Si3 0.192445 0.696549 0.683320
Si Si4 0.669611 0.497769 0.806914
Si Si5 0.356817 0.461456 0.470431
Si Si6 0.971317 0.747686 0.147804
Si Si7 0.216118 0.996241 0.859580
Si Si8 0.139451 0.992615 0.521543
O O1 0.206114 0.595474 0.255980
O O2 0.076997 0.832258 0.226079
O O3 0.363087 0.977032 0.127326
O O4 0.221368 0.911385 0.387176
O O5 0.294431 0.283453 0.147524
O O6 0.552717 0.348170 0.951610
O O7 0.326417 0.114891 0.923736
O O8 0.279762 0.608224 0.555365
O O9 0.100350 0.495606 0.801544
O O10 0.283573 0.878184 0.741445
O O11 0.103480 0.816344 0.643048
O O12 0.607254 0.494755 0.690917
O O13 0.500000 0.500000 0.500000
O O14 0.243621 0.222282 0.519689
O O15 0.849006 0.846934 0.179495
O O16 0.077378 0.825028 0.986861
O O17 0.000000 0.000000 0.500000
#
# Coordination Sequence:
#
# PCOD9043177 Si02
#       8
#     2   2   2   2   2   2   2   2
#     4  11  22  44  68 101 135 180 234 285 348 416
#     4  10  24  44  70  96 135 178 232 293 336 420
#     4  12  25  44  71 104 141 188 232 286 360 423
#     4  11  24  45  70  98 132 183 233 285 355 407
#     4  12  29  48  71 105 146 185 235 297 355 421
#     4  10  24  42  71 104 141 181 230 296 346 418
#     4  10  23  45  69 104 140 181 231 287 355 415
#     4  12  27  46  72 104 144 187 236 292 351 428
#
# _framework density 23.420345000000001
#
# number of rings (size 3 to 8) (size 9 to 14) (size 15 to 20)
#    0.000    1.000    2.500    3.000    5.250    7.500 
#    4.500    0.000    0.000    0.000    0.000    0.000 
#    0.000    0.000    0.000    0.000    0.000    0.000 
#
# Total GULP energy -89409.875386 kJ/mol
# GULP energy per Si atom -5588.117212 kJ/mol
# Density = 2.336704 g / cm^3
# Si number density = 23.420345 Si / 1000 Ang^3
#
#
#
# Elastic Constant Matrix: (Units=GPa)
#
#
# Indices 1 2 3 4 5 6 
#
# 1 63.3526 41.3715 -2.8090 -1.5657 16.3326 -8.7528
# 2 41.3715 155.5779 31.2612 28.6906 9.3258 -21.4280
# 3 -2.8090 31.2612 62.3500 14.9791 17.1182 -9.3177
# 4 -1.5657 28.6906 14.9791 58.4821 -1.8702 7.3524
# 5 16.3326 9.3258 17.1182 -1.8702 30.2213 -2.0912
# 6 -8.7528 -21.4280 -9.3177 7.3524 -2.0912 31.8738
#
#
#
# Elastic Compliance Matrix: (Units=1/GPa)
#
#
# Indices 1 2 3 4 5 6 
#
# 1 0.026142 -0.007586 0.010048 0.000834 -0.017171 0.003697
# 2 -0.007586 0.010784 -0.004812 -0.004788 0.003554 0.005098
# 3 0.010048 -0.004812 0.026540 -0.005695 -0.018821 0.007361
# 4 0.000834 -0.004788 -0.005695 0.022279 0.004976 -0.009467
# 5 -0.017171 0.003554 -0.018821 0.004976 0.051855 -0.005573
# 6 0.003697 0.005098 0.007361 -0.009467 -0.005573 0.039786
#
#
# Mechanical properties :
#
#
# Convention : Reuss Voigt Hill
#
# Bulk Modulus (GPa) = 17.01708 46.76978 31.89343
# Shear Modulus (GPa) = 24.79232 38.21256 31.50244
#
# Velocity S-wave (km/s) = 3.25711 4.04369 3.67152
# Velocity P-wave (km/s) = 4.62890 6.46645 5.62324
#
# Compressibility (1/GPa) = 0.05876449
#
# Stress axis : x y z
#
# Youngs Moduli (GPa) = 38.25213 92.73022 37.67957
#
# Poissons Ratio (x) = 0.70346 -0.37860
# Poissons Ratio (y) = 0.29018 0.18133
# Poissons Ratio (z) = -0.38435 0.44625
#
# Static dielectric constant tensor:
#      x y z
#    x 1.877050 -0.030990 -0.042350 
#    y -0.030990 1.904430 0.024120 
#    z -0.042350 0.024120 1.941190 
# 
# From -- ./inp_files/410485.got.cif
#   From: 2010.05.17/outbox.cif.g08.bks.cpg/sg2_206_cif.got.tgz:410485.got - 2010.06.03 11:33:40.
