data_PCOD9043299
_publ_section_title
;
Structure prediction by ZEFSAII (Michael W. Deem and Ramdas Pophale) SiO2 
 PCOD9043299
Probable space group: P -1
;
_chemical_formula_sum "Si O2"
_cell_formula_units_Z 10
_cell_length_a 4.896859
_cell_length_b 7.774252
_cell_length_c 12.184039
_cell_angle_alpha 117.114599
_cell_angle_beta 112.532100
_cell_angle_gamma 91.789609
_cell_volume 369.195434
_symmetry_space_group_name_H-M "P -1"
_symmetry_group_IT_number 2
_symmetry_cell_setting 'triclinic'
loop_
_space_group_symop_operation_xyz
x,y,z
-x,-y,-z
loop_
_atom_site_type_symbol
_atom_site_label
_atom_site_fract_x
_atom_site_fract_y
_atom_site_fract_z
Si Si1 0.784729 0.332780 0.280917
Si Si2 0.932780 0.205020 0.589426
Si Si3 0.612675 0.733579 0.601871
Si Si4 0.750734 0.712242 0.103322
Si Si5 0.819961 0.168399 0.997154
O O1 0.482060 0.250999 0.281327
O O2 0.795082 0.280248 0.140090
O O3 0.888866 0.576810 0.371921
O O4 0.029436 0.227079 0.341821
O O5 0.582715 0.179848 0.489674
O O6 0.034701 0.240432 0.742576
O O7 0.000000 0.000000 0.500000
O O8 0.500000 0.500000 0.500000
O O9 0.968792 0.717096 0.034306
O O10 0.500000 0.500000 0.000000
O O11 0.532157 0.865804 0.105920
O O12 0.000000 0.000000 0.000000
#
# Coordination Sequence:
#
# PCOD9043299 Si02
#       5
#     2   2   2   2   2
#     4  11  24  47  74 102 147 196 244 300 372 444
#     4  11  26  44  74 109 148 187 253 310 373 434
#     4  10  23  45  70 102 143 194 238 298 370 445
#     4  12  27  51  77 108 153 200 249 315 380 439
#     4  12  28  48  80 108 150 201 258 306 372 455
#
# _framework density 27.085927000000002
#
# number of rings (size 3 to 8) (size 9 to 14) (size 15 to 20)
#    0.000    0.800    2.000    4.800    5.600    3.200 
#    0.000   10.000    0.000    0.000    0.000    0.000 
#    0.000    0.000    0.000    0.000    0.000    0.000 
#
# Total GULP energy -55987.665053 kJ/mol
# GULP energy per Si atom -5598.766505 kJ/mol
# Density = 2.702428 g / cm^3
# Si number density = 27.085927 Si / 1000 Ang^3
#
#
#
# Elastic Constant Matrix: (Units=GPa)
#
#
# Indices 1 2 3 4 5 6 
#
# 1 130.9314 37.5834 58.7760 -9.5576 -18.1769 2.1851
# 2 37.5834 184.4138 79.5779 -8.4958 -3.4870 -28.4110
# 3 58.7760 79.5779 204.7655 -16.7607 -19.8132 11.8399
# 4 -9.5576 -8.4958 -16.7607 56.8469 -5.3839 -1.6515
# 5 -18.1769 -3.4870 -19.8132 -5.3839 55.6822 -11.6518
# 6 2.1851 -28.4110 11.8399 -1.6515 -11.6518 46.6485
#
#
#
# Elastic Compliance Matrix: (Units=1/GPa)
#
#
# Indices 1 2 3 4 5 6 
#
# 1 0.009189 -0.000901 -0.001980 0.001056 0.002373 0.000153
# 2 -0.000901 0.007816 -0.003050 0.000313 0.000327 0.005669
# 3 -0.001980 -0.003050 0.007038 0.001299 0.001117 -0.003226
# 4 0.001056 0.000313 0.001299 0.018504 0.002863 0.001182
# 5 0.002373 0.000327 0.001117 0.002863 0.020479 0.005021
# 6 0.000153 0.005669 -0.003226 0.001182 0.005021 0.026997
#
#
# Mechanical properties :
#
#
# Convention : Reuss Voigt Hill
#
# Bulk Modulus (GPa) = 82.09080 96.88725 89.48903
# Shear Modulus (GPa) = 47.19388 54.78043 50.98716
#
# Velocity S-wave (km/s) = 4.17871 4.50206 4.34340
# Velocity P-wave (km/s) = 7.32499 7.92924 7.63309
#
# Compressibility (1/GPa) = 0.01218163
#
# Stress axis : x y z
#
# Youngs Moduli (GPa) = 108.82426 127.93999 142.08293
#
# Poissons Ratio (x) = 0.11528 0.28138
# Poissons Ratio (y) = 0.09805 0.43328
# Poissons Ratio (z) = 0.21551 0.39015
#
# Static dielectric constant tensor:
#      x y z
#    x 2.127240 -0.000180 0.033940 
#    y -0.000180 2.195440 0.017120 
#    z 0.033940 0.017120 2.210940 
# 
# From -- ./inp_files/191428.got.cif
#   From: 2010.05.17/outbox.cif.g08.bks.cpg/sg2_96_cif.got.tgz:191428.got - 2010.06.03 11:33:40.
