data_PCOD9043928
_publ_section_title
;
Structure prediction by ZEFSAII (Michael W. Deem and Ramdas Pophale) SiO2 
 PCOD9043928
Probable space group: P -1
;
_chemical_formula_sum "Si O2"
_cell_formula_units_Z 16
_cell_length_a 12.367922
_cell_length_b 16.588886
_cell_length_c 7.836132
_cell_angle_alpha 112.582481
_cell_angle_beta 58.698234
_cell_angle_gamma 154.556413
_cell_volume 574.087572
_symmetry_space_group_name_H-M "P -1"
_symmetry_group_IT_number 2
_symmetry_cell_setting 'triclinic'
loop_
_space_group_symop_operation_xyz
x,y,z
-x,-y,-z
loop_
_atom_site_type_symbol
_atom_site_label
_atom_site_fract_x
_atom_site_fract_y
_atom_site_fract_z
Si Si1 0.914609 0.199507 0.666895
Si Si2 0.318764 0.119471 0.254849
Si Si3 0.422400 0.354625 0.889047
Si Si4 0.510705 0.609087 0.535995
Si Si5 0.626234 0.304883 0.791320
Si Si6 0.144084 0.597671 0.777502
Si Si7 0.890280 0.093882 0.240582
Si Si8 0.367014 0.918568 0.735226
O O1 0.971031 0.194438 0.427367
O O2 0.176186 0.419719 0.684001
O O3 0.860711 0.078553 0.723886
O O4 0.634802 0.085252 0.777471
O O5 0.276484 0.198709 0.374869
O O6 0.554582 0.258013 0.322533
O O7 0.458032 0.195603 0.018256
O O8 0.407174 0.335280 0.683634
O O9 0.634840 0.412240 0.828058
O O10 0.500000 0.500000 0.000000
O O11 0.115709 0.159723 0.064895
O O12 0.500000 0.500000 0.500000
O O13 0.913296 0.429828 0.689656
O O14 0.420034 0.137309 0.684762
O O15 0.208300 0.736190 0.782399
O O16 0.000000 0.500000 0.000000
O O17 0.853893 0.139788 0.152251
O O18 0.500000 0.000000 0.500000
#
# Coordination Sequence:
#
# PCOD9043928 Si02
#       8
#     2   2   2   2   2   2   2   2
#     4  10  23  46  67 101 133 172 226 273 340 399
#     4  10  24  46  66  98 139 174 221 278 333 402
#     4  12  24  44  65  95 134 174 228 270 327 408
#     4  12  27  44  70  97 133 182 220 275 338 401
#     4  11  24  41  69  99 132 177 218 279 334 396
#     4   9  20  42  64  96 135 175 220 271 339 398
#     4  11  23  42  67  99 132 173 222 279 333 394
#     4   9  20  40  68  96 130 170 219 280 330 394
#
# _framework density 27.870311000000001
#
# number of rings (size 3 to 8) (size 9 to 14) (size 15 to 20)
#    0.000    1.500    1.250    2.625    5.250    1.500 
#    0.000    4.375    0.000    0.000    0.000    0.000 
#    0.000    0.000    0.000    0.000    0.000    0.000 
#
# Total GULP energy -89531.614051 kJ/mol
# GULP energy per Si atom -5595.725878 kJ/mol
# Density = 2.780688 g / cm^3
# Si number density = 27.870311 Si / 1000 Ang^3
#
#
#
# Elastic Constant Matrix: (Units=GPa)
#
#
# Indices 1 2 3 4 5 6 
#
# 1 114.0696 2.8311 11.3302 -4.5187 8.4825 -10.1545
# 2 2.8311 144.0342 2.8466 3.9832 11.9468 -18.6846
# 3 11.3302 2.8466 126.0670 8.2229 36.5874 -11.3811
# 4 -4.5187 3.9832 8.2229 23.6116 -10.4261 -5.9409
# 5 8.4825 11.9468 36.5874 -10.4261 38.0627 -12.7169
# 6 -10.1545 -18.6846 -11.3811 -5.9409 -12.7169 56.7734
#
#
#
# Elastic Compliance Matrix: (Units=1/GPa)
#
#
# Indices 1 2 3 4 5 6 
#
# 1 0.009099 -0.000010 -0.000833 0.002481 0.000031 0.001724
# 2 -0.000010 0.007530 0.001325 -0.003105 -0.003975 0.001527
# 3 -0.000833 0.001325 0.013983 -0.013967 -0.018324 -0.002476
# 4 0.002481 -0.003105 -0.013967 0.067138 0.036162 0.011748
# 5 0.000031 -0.003975 -0.018324 0.036162 0.059054 0.012036
# 6 0.001724 0.001527 -0.002476 0.011748 0.012036 0.021854
#
#
# Mechanical properties :
#
#
# Convention : Reuss Voigt Hill
#
# Bulk Modulus (GPa) = 31.66916 46.46516 39.06716
# Shear Modulus (GPa) = 26.56482 48.16707 37.36594
#
# Velocity S-wave (km/s) = 3.09068 4.16174 3.66554
# Velocity P-wave (km/s) = 4.91163 6.30885 5.65357
#
# Compressibility (1/GPa) = 0.03157646
#
# Stress axis : x y z
#
# Youngs Moduli (GPa) = 109.90296 132.79391 71.51707
#
# Poissons Ratio (x) = 0.00132 0.05956
# Poissons Ratio (y) = 0.00109 -0.09476
# Poissons Ratio (z) = 0.09153 -0.17595
#
# Static dielectric constant tensor:
#      x y z
#    x 2.311500 0.004920 -0.139660 
#    y 0.004920 2.270150 -0.044480 
#    z -0.139660 -0.044480 2.198310 
# 
# From -- ./inp_files/273360.got.cif
#   From: 2010.05.17/outbox.cif.g08.bks.cpg/sg2_137_cif.got.tgz:273360.got - 2010.06.03 11:33:40.
