data_PCOD9043433
_publ_section_title
;
Structure prediction by ZEFSAII (Michael W. Deem and Ramdas Pophale) SiO2 
 PCOD9043433
Probable space group: P -1
;
_chemical_formula_sum "Si O2"
_cell_formula_units_Z 16
_cell_length_a 8.721522
_cell_length_b 19.113460
_cell_length_c 4.943492
_cell_angle_alpha 62.875428
_cell_angle_beta 83.080955
_cell_angle_gamma 63.424951
_cell_volume 652.331199
_symmetry_space_group_name_H-M "P -1"
_symmetry_group_IT_number 2
_symmetry_cell_setting 'triclinic'
loop_
_space_group_symop_operation_xyz
x,y,z
-x,-y,-z
loop_
_atom_site_type_symbol
_atom_site_label
_atom_site_fract_x
_atom_site_fract_y
_atom_site_fract_z
Si Si1 0.907987 0.934815 0.149329
Si Si2 0.901288 0.235691 0.927932
Si Si3 0.375312 0.805403 0.800543
Si Si4 0.914346 0.663896 0.323949
Si Si5 0.077040 0.565740 0.959325
Si Si6 0.543504 0.697940 0.466508
Si Si7 0.377471 0.578151 0.582673
Si Si8 0.324480 0.001676 0.419161
O O1 0.034547 0.839046 0.181468
O O2 0.833151 0.939584 0.454429
O O3 0.742089 0.968093 0.923485
O O4 0.000000 0.000000 0.000000
O O5 0.762039 0.334764 0.698150
O O6 0.065556 0.252210 0.937321
O O7 0.795533 0.206403 0.211636
O O8 0.524670 0.741947 0.683091
O O9 0.345962 0.903252 0.608800
O O10 0.419727 0.772412 0.155680
O O11 0.729613 0.666307 0.352430
O O12 0.964337 0.651483 0.651085
O O13 0.042439 0.584419 0.249029
O O14 0.267948 0.546196 0.858378
O O15 0.000000 0.500000 0.000000
O O16 0.488133 0.620226 0.632952
O O17 0.500000 0.500000 0.500000
O O18 0.500000 0.000000 0.500000
#
# Coordination Sequence:
#
# PCOD9043433 Si02
#       8
#     2   2   2   2   2   2   2   2
#     4  12  26  48  75 109 146 200 244 303 364 440
#     4  10  25  44  71 101 142 185 242 292 358 433
#     4  11  24  44  67  99 145 183 234 291 354 430
#     4  11  24  42  66 100 132 183 231 291 355 423
#     4  11  23  43  67  96 136 177 234 293 352 428
#     4  11  24  42  69 100 137 186 231 291 359 424
#     4  10  23  45  71 102 140 186 235 294 360 428
#     4  12  28  45  74 110 152 190 246 303 372 437
#
# _framework density 24.527418000000001
#
# number of rings (size 3 to 8) (size 9 to 14) (size 15 to 20)
#    0.000    1.000    1.250    4.125    5.250    4.000 
#    0.000    5.625    0.000    0.000    0.000    0.000 
#    0.000    0.000    0.000    0.000    0.000    0.000 
#
# Total GULP energy -89521.075405 kJ/mol
# GULP energy per Si atom -5595.067213 kJ/mol
# Density = 2.447159 g / cm^3
# Si number density = 24.527418 Si / 1000 Ang^3
#
#
#
# Elastic Constant Matrix: (Units=GPa)
#
#
# Indices 1 2 3 4 5 6 
#
# 1 134.7509 33.9496 36.6433 -7.5296 -35.4900 -1.5190
# 2 33.9496 164.5205 29.0457 -1.0769 -26.5393 0.6437
# 3 36.6433 29.0457 70.6821 0.2763 -13.9345 10.2564
# 4 -7.5296 -1.0769 0.2763 41.5375 -2.8592 -7.0645
# 5 -35.4900 -26.5393 -13.9345 -2.8592 59.1092 3.3744
# 6 -1.5190 0.6437 10.2564 -7.0645 3.3744 38.0311
#
#
#
# Elastic Compliance Matrix: (Units=1/GPa)
#
#
# Indices 1 2 3 4 5 6 
#
# 1 0.010176 -0.000538 -0.004337 0.002469 0.004873 0.001611
# 2 -0.000538 0.006941 -0.002169 0.000305 0.002280 0.000300
# 3 -0.004337 -0.002169 0.018280 -0.001832 0.000957 -0.005492
# 4 0.002469 0.000305 -0.001832 0.025564 0.002130 0.005147
# 5 0.004873 0.002280 0.000957 0.002130 0.021287 -0.001595
# 6 0.001611 0.000300 -0.005492 0.005147 -0.001595 0.028932
#
#
# Mechanical properties :
#
#
# Convention : Reuss Voigt Hill
#
# Bulk Modulus (GPa) = 46.92853 63.24787 55.08820
# Shear Modulus (GPa) = 37.77297 45.75655 41.76476
#
# Velocity S-wave (km/s) = 3.92858 4.32386 4.13095
# Velocity P-wave (km/s) = 6.30499 7.12533 6.72767
#
# Compressibility (1/GPa) = 0.02130900
#
# Stress axis : x y z
#
# Youngs Moduli (GPa) = 98.27433 144.07734 54.70476
#
# Poissons Ratio (x) = 0.07754 0.23725
# Poissons Ratio (y) = 0.05289 0.11863
# Poissons Ratio (z) = 0.42621 0.31244
#
# Static dielectric constant tensor:
#      x y z
#    x 2.065980 -0.027850 0.034260 
#    y -0.027850 1.900260 -0.041000 
#    z 0.034260 -0.041000 1.972700 
# 
# From -- ./inp_files/46605.got.cif
#   From: 2010.05.17/outbox.cif.g08.bks.cpg/sg2_24_cif.got.tgz:46605.got - 2010.06.03 11:33:40.
