data_PCOD9043188
_publ_section_title
;
Structure prediction by ZEFSAII (Michael W. Deem and Ramdas Pophale) SiO2 
 PCOD9043188
Probable space group: P -1
;
_chemical_formula_sum "Si O2"
_cell_formula_units_Z 12
_cell_length_a 11.532350
_cell_length_b 9.429298
_cell_length_c 10.162799
_cell_angle_alpha 32.487748
_cell_angle_beta 125.275077
_cell_angle_gamma 129.055429
_cell_volume 458.122917
_symmetry_space_group_name_H-M "P -1"
_symmetry_group_IT_number 2
_symmetry_cell_setting 'triclinic'
loop_
_space_group_symop_operation_xyz
x,y,z
-x,-y,-z
loop_
_atom_site_type_symbol
_atom_site_label
_atom_site_fract_x
_atom_site_fract_y
_atom_site_fract_z
Si Si1 0.253105 0.034680 0.468695
Si Si2 0.997183 0.909350 0.919266
Si Si3 0.703542 0.661825 0.343565
Si Si4 0.110081 0.635844 0.850801
Si Si5 0.407466 0.677379 0.728041
Si Si6 0.386290 0.602602 0.226238
O O1 0.132496 0.945121 0.575576
O O2 0.294703 0.755161 0.692672
O O3 0.162653 0.085581 0.246517
O O4 0.381743 0.300171 0.397282
O O5 0.138581 0.100076 0.776095
O O6 0.000000 0.000000 0.000000
O O7 0.975720 0.583612 0.147650
O O8 0.672596 0.481347 0.329572
O O9 0.561873 0.779580 0.180322
O O10 0.678471 0.470380 0.610387
O O11 0.268815 0.667780 0.002377
O O12 0.000000 0.500000 0.000000
O O13 0.500000 0.000000 0.500000
O O14 0.500000 0.500000 0.000000
#
# Coordination Sequence:
#
# PCOD9043188 Si02
#       6
#     2   2   2   2   2   2
#     4  11  24  46  70 100 144 190 242 299 368 444
#     4  11  26  44  68 104 143 187 242 299 364 438
#     4  11  23  45  71 105 142 183 248 302 363 437
#     4  11  23  43  69  97 143 189 238 298 372 436
#     4  12  27  48  75 107 147 195 242 306 373 437
#     4  10  23  45  69 105 137 187 241 301 370 430
#
# _framework density 26.193845
#
# number of rings (size 3 to 8) (size 9 to 14) (size 15 to 20)
#    0.000    1.000    1.667    4.000    4.667    6.667 
#    3.000    5.000    0.000    0.000    0.000    0.000 
#    0.000    0.000    0.000    0.000    0.000    0.000 
#
# Total GULP energy -66977.653677 kJ/mol
# GULP energy per Si atom -5581.471140 kJ/mol
# Density = 2.613423 g / cm^3
# Si number density = 26.193845 Si / 1000 Ang^3
#
#
#
# Elastic Constant Matrix: (Units=GPa)
#
#
# Indices 1 2 3 4 5 6 
#
# 1 115.3532 31.9169 11.1983 3.8288 -13.9658 18.2828
# 2 31.9169 139.8535 17.0168 18.4704 -16.8759 7.0107
# 3 11.1983 17.0168 60.7412 20.6961 -13.0305 4.7224
# 4 3.8288 18.4704 20.6961 48.0263 -4.3505 -13.5029
# 5 -13.9658 -16.8759 -13.0305 -4.3505 48.8501 -7.0503
# 6 18.2828 7.0107 4.7224 -13.5029 -7.0503 48.3138
#
#
#
# Elastic Compliance Matrix: (Units=1/GPa)
#
#
# Indices 1 2 3 4 5 6 
#
# 1 0.009961 -0.001757 -0.000495 -0.000734 0.001546 -0.003446
# 2 -0.001757 0.008274 -0.000521 -0.002948 0.001804 -0.001046
# 3 -0.000495 -0.000521 0.021113 -0.009608 0.003889 -0.003919
# 4 -0.000734 -0.002948 -0.009608 0.028914 0.000192 0.009754
# 5 0.001546 0.001804 0.003889 0.000192 0.022903 0.002169
# 6 -0.003446 -0.001046 -0.003919 0.009754 0.002169 0.025579
#
#
# Mechanical properties :
#
#
# Convention : Reuss Voigt Hill
#
# Bulk Modulus (GPa) = 29.58368 48.46799 39.02584
# Shear Modulus (GPa) = 37.43700 46.09245 41.76473
#
# Velocity S-wave (km/s) = 3.78462 4.19939 3.99739
# Velocity P-wave (km/s) = 5.51511 6.48513 6.01969
#
# Compressibility (1/GPa) = 0.03380242
#
# Stress axis : x y z
#
# Youngs Moduli (GPa) = 100.39369 120.85903 47.36392
#
# Poissons Ratio (x) = 0.21232 0.02342
# Poissons Ratio (y) = 0.17637 0.02470
# Poissons Ratio (z) = 0.04965 0.06303
#
# Static dielectric constant tensor:
#      x y z
#    x 3.264030 -0.129760 -0.226400 
#    y -0.129760 2.090480 -0.060130 
#    z -0.226400 -0.060130 2.133300 
# 
# From -- ./inp_files/233127.got.cif
#   From: 2010.05.17/outbox.cif.g08.bks.cpg/sg2_117_cif.got.tgz:233127.got - 2010.06.03 11:33:40.
