data_PCOD9043583
_publ_section_title
;
Structure prediction by ZEFSAII (Michael W. Deem and Ramdas Pophale) SiO2 
 PCOD9043583
Probable space group: P -1
;
_chemical_formula_sum "Si O2"
_cell_formula_units_Z 12
_cell_length_a 8.091707
_cell_length_b 11.323023
_cell_length_c 10.487892
_cell_angle_alpha 59.374602
_cell_angle_beta 87.480583
_cell_angle_gamma 131.807223
_cell_volume 494.022859
_symmetry_space_group_name_H-M "P -1"
_symmetry_group_IT_number 2
_symmetry_cell_setting 'triclinic'
loop_
_space_group_symop_operation_xyz
x,y,z
-x,-y,-z
loop_
_atom_site_type_symbol
_atom_site_label
_atom_site_fract_x
_atom_site_fract_y
_atom_site_fract_z
Si Si1 0.287788 0.320615 0.987139
Si Si2 0.608897 0.885135 0.517459
Si Si3 0.354184 0.394929 0.426479
Si Si4 0.049244 0.381055 0.112611
Si Si5 0.601159 0.865133 0.836001
Si Si6 0.864780 0.293287 0.534606
O O1 0.420952 0.419484 0.791345
O O2 0.076117 0.302390 0.030409
O O3 0.500000 0.500000 0.000000
O O4 0.171866 0.092375 0.146821
O O5 0.705763 0.803644 0.502443
O O6 0.577915 0.845854 0.692653
O O7 0.324921 0.752980 0.537295
O O8 0.836013 0.152241 0.328964
O O9 0.500000 0.500000 0.500000
O O10 0.099127 0.334532 0.467086
O O11 0.336143 0.613967 0.044784
O O12 0.000000 0.500000 0.000000
O O13 0.656022 0.058947 0.753717
O O14 0.000000 0.500000 0.500000
#
# Coordination Sequence:
#
# PCOD9043583 Si02
#       6
#     2   2   2   2   2   2
#     4  10  23  45  72 113 146 196 257 308 371 448
#     4  12  25  48  79 111 151 201 251 318 379 443
#     4  12  26  50  78 106 162 203 245 318 385 452
#     4  11  23  41  72 115 150 184 253 319 375 433
#     4  11  25  47  75 113 149 194 255 320 368 450
#     4  12  27  47  76 112 150 205 252 300 392 458
#
# _framework density 24.290372999999999
#
# number of rings (size 3 to 8) (size 9 to 14) (size 15 to 20)
#    0.000    0.667    6.667    1.500    4.667    1.333 
#    0.000    5.833    0.000    0.000    0.000    0.000 
#    0.000    0.000    0.000    0.000    0.000    0.000 
#
# Total GULP energy -66922.573818 kJ/mol
# GULP energy per Si atom -5576.881152 kJ/mol
# Density = 2.423509 g / cm^3
# Si number density = 24.290373 Si / 1000 Ang^3
#
#
#
# Elastic Constant Matrix: (Units=GPa)
#
#
# Indices 1 2 3 4 5 6 
#
# 1 165.3093 52.1122 54.6272 -2.3415 20.4986 -25.0480
# 2 52.1122 132.5784 60.7222 -9.8045 12.3371 -17.8681
# 3 54.6272 60.7222 159.1028 1.3851 21.5973 2.6238
# 4 -2.3415 -9.8045 1.3851 33.3351 -9.5808 12.3068
# 5 20.4986 12.3371 21.5973 -9.5808 45.9181 -15.2926
# 6 -25.0480 -17.8681 2.6238 12.3068 -15.2926 42.7112
#
#
#
# Elastic Compliance Matrix: (Units=1/GPa)
#
#
# Indices 1 2 3 4 5 6 
#
# 1 0.007994 -0.001681 -0.002003 -0.001726 -0.001137 0.004198
# 2 -0.001681 0.010366 -0.003625 0.002190 0.001257 0.003392
# 3 -0.002003 -0.003625 0.008988 -0.001132 -0.004050 -0.004367
# 4 -0.001726 0.002190 -0.001132 0.035138 0.005297 -0.008255
# 5 -0.001137 0.001257 -0.004050 0.005297 0.027801 0.008535
# 6 0.004198 0.003392 -0.004367 -0.008255 0.008535 0.032997
#
#
# Mechanical properties :
#
#
# Convention : Reuss Voigt Hill
#
# Bulk Modulus (GPa) = 78.55140 87.99042 83.27091
# Shear Modulus (GPa) = 35.17573 43.69481 39.43527
#
# Velocity S-wave (km/s) = 3.80956 4.24589 4.03363
# Velocity P-wave (km/s) = 7.19438 7.76787 7.48662
#
# Compressibility (1/GPa) = 0.01273052
#
# Stress axis : x y z
#
# Youngs Moduli (GPa) = 125.09961 96.47218 111.25974
#
# Poissons Ratio (x) = 0.16214 0.22285
# Poissons Ratio (y) = 0.21026 0.40328
# Poissons Ratio (z) = 0.25058 0.34968
#
# Static dielectric constant tensor:
#      x y z
#    x 2.884800 0.241720 -0.193580 
#    y 0.241720 1.997570 -0.104990 
#    z -0.193580 -0.104990 1.964100 
# 
# From -- ./inp_files/175229.got.cif
#   From: 2010.05.17/outbox.cif.g08.bks.cpg/sg2_88_cif.got.tgz:175229.got - 2010.06.03 11:33:40.
