data_PCOD9043521
_publ_section_title
;
Structure prediction by ZEFSAII (Michael W. Deem and Ramdas Pophale) SiO2 
 PCOD9043521
Probable space group: P -1
;
_chemical_formula_sum "Si O2"
_cell_formula_units_Z 16
_cell_length_a 20.595564
_cell_length_b 17.093166
_cell_length_c 11.644980
_cell_angle_alpha 149.725042
_cell_angle_beta 149.374865
_cell_angle_gamma 20.588530
_cell_volume 694.748873
_symmetry_space_group_name_H-M "P -1"
_symmetry_group_IT_number 2
_symmetry_cell_setting 'triclinic'
loop_
_space_group_symop_operation_xyz
x,y,z
-x,-y,-z
loop_
_atom_site_type_symbol
_atom_site_label
_atom_site_fract_x
_atom_site_fract_y
_atom_site_fract_z
Si Si1 0.192771 0.414908 0.217103
Si Si2 0.445156 0.101976 0.833506
Si Si3 0.100155 0.251218 0.384487
Si Si4 0.501433 0.690119 0.004964
Si Si5 0.223152 0.546958 0.675823
Si Si6 0.270330 0.755230 0.370868
Si Si7 0.657616 0.552911 0.717696
Si Si8 0.159461 0.892249 0.878344
O O1 0.203605 0.464336 0.426586
O O2 0.224719 0.525363 0.316825
O O3 0.381259 0.135264 0.135685
O O4 0.000000 0.500000 0.000000
O O5 0.307848 0.105292 0.566115
O O6 0.530515 0.140779 0.917014
O O7 0.314335 0.326904 0.002967
O O8 0.000000 0.500000 0.500000
O O9 0.967009 0.303180 0.347682
O O10 0.117872 0.103515 0.127964
O O11 0.600439 0.658136 0.232226
O O12 0.652564 0.436313 0.850846
O O13 0.308139 0.777190 0.855100
O O14 0.249422 0.700796 0.870807
O O15 0.426589 0.748816 0.595158
O O16 0.288242 0.650488 0.387170
O O17 0.047625 0.995721 0.319817
#
# Coordination Sequence:
#
# PCOD9043521 Si02
#       8
#     2   2   2   2   2   2   2   2
#     4  12  28  43  69 102 145 187 240 295 347 428
#     4  11  25  44  72 101 138 193 233 296 355 424
#     4  12  24  45  73 104 144 185 233 290 361 427
#     4  11  24  46  70 110 142 178 242 290 364 418
#     4  12  26  46  68 109 146 177 239 296 355 426
#     4  10  23  45  72 100 139 186 236 292 345 425
#     4  10  23  47  66  97 142 186 237 287 349 418
#     4  12  26  41  77 104 143 189 225 297 361 418
#
# _framework density 23.029903000000001
#
# number of rings (size 3 to 8) (size 9 to 14) (size 15 to 20)
#    0.000    0.750    2.500    4.125    7.000    1.000 
#    0.000    2.500    0.000    0.000    0.000    0.000 
#    0.000    0.000    0.000    0.000    0.000    0.000 
#
# Total GULP energy -89608.603089 kJ/mol
# GULP energy per Si atom -5600.537693 kJ/mol
# Density = 2.297749 g / cm^3
# Si number density = 23.029903 Si / 1000 Ang^3
#
#
#
# Elastic Constant Matrix: (Units=GPa)
#
#
# Indices 1 2 3 4 5 6 
#
# 1 129.4344 10.9750 21.0477 -6.1864 0.4924 -20.8145
# 2 10.9750 48.9881 10.9790 -15.1436 3.2740 -12.4563
# 3 21.0477 10.9790 84.7259 -10.5851 -3.7815 0.5618
# 4 -6.1864 -15.1436 -10.5851 38.3198 -0.2204 6.9611
# 5 0.4924 3.2740 -3.7815 -0.2204 34.7284 -6.1289
# 6 -20.8145 -12.4563 0.5618 6.9611 -6.1289 32.5656
#
#
#
# Elastic Compliance Matrix: (Units=1/GPa)
#
#
# Indices 1 2 3 4 5 6 
#
# 1 0.009050 -0.000140 -0.002277 -0.000303 0.000688 0.005964
# 2 -0.000140 0.025503 -0.002380 0.007980 -0.001240 0.007767
# 3 -0.002277 -0.002380 0.013106 0.002861 0.001176 -0.002982
# 4 -0.000303 0.007980 0.002861 0.030700 -0.000935 -0.003929
# 5 0.000688 -0.001240 0.001176 -0.000935 0.030048 0.005800
# 6 0.005964 0.007767 -0.002982 -0.003929 0.005800 0.039473
#
#
# Mechanical properties :
#
#
# Convention : Reuss Voigt Hill
#
# Bulk Modulus (GPa) = 26.27046 38.79466 32.53256
# Shear Modulus (GPa) = 29.38393 35.79920 32.59157
#
# Velocity S-wave (km/s) = 3.57585 3.94695 3.76598
# Velocity P-wave (km/s) = 5.33675 6.13621 5.75039
#
# Compressibility (1/GPa) = 0.03806557
#
# Stress axis : x y z
#
# Youngs Moduli (GPa) = 110.49643 39.21174 76.29874
#
# Poissons Ratio (x) = 0.00550 0.17371
# Poissons Ratio (y) = 0.01550 0.18157
# Poissons Ratio (z) = 0.25157 0.09331
#
# Static dielectric constant tensor:
#      x y z
#    x 1.815640 0.010040 -0.014550 
#    y 0.010040 1.854590 0.002890 
#    z -0.014550 0.002890 1.885480 
# 
# From -- ./inp_files/280053.got.cif
#   From: 2010.05.17/outbox.cif.g08.bks.cpg/sg2_141_cif.got.tgz:280053.got - 2010.06.03 11:33:40.
