data_PCOD9043181
_publ_section_title
;
Structure prediction by ZEFSAII (Michael W. Deem and Ramdas Pophale) SiO2 
 PCOD9043181
Probable space group: P -1
;
_chemical_formula_sum "Si O2"
_cell_formula_units_Z 16
_cell_length_a 11.167713
_cell_length_b 11.227875
_cell_length_c 8.801241
_cell_angle_alpha 66.339237
_cell_angle_beta 112.174042
_cell_angle_gamma 69.607789
_cell_volume 756.197716
_symmetry_space_group_name_H-M "P -1"
_symmetry_group_IT_number 2
_symmetry_cell_setting 'triclinic'
loop_
_space_group_symop_operation_xyz
x,y,z
-x,-y,-z
loop_
_atom_site_type_symbol
_atom_site_label
_atom_site_fract_x
_atom_site_fract_y
_atom_site_fract_z
Si Si1 0.155362 0.728730 0.750494
Si Si2 0.439062 0.334565 0.639536
Si Si3 0.714292 0.984909 0.815761
Si Si4 0.009820 0.644667 0.465787
Si Si5 0.163378 0.953972 0.426026
Si Si6 0.664138 0.422786 0.788706
Si Si7 0.334972 0.167451 0.877186
Si Si8 0.073132 0.809503 0.189478
O O1 0.225679 0.816079 0.654657
O O2 0.101827 0.646787 0.652270
O O3 0.274293 0.603480 0.998017
O O4 0.989392 0.878972 0.668131
O O5 0.583071 0.156120 0.741187
O O6 0.506156 0.427915 0.697628
O O7 0.359240 0.432129 0.393914
O O8 0.352139 0.301103 0.745344
O O9 0.721149 0.013453 0.624277
O O10 0.689563 0.855673 0.944087
O O11 0.891936 0.919409 0.990272
O O12 0.822362 0.799866 0.296983
O O13 0.000000 0.500000 0.500000
O O14 0.092875 0.658170 0.353173
O O15 0.104763 0.887605 0.302650
O O16 0.801254 0.259590 0.849719
O O17 0.500000 0.000000 0.000000
#
# Coordination Sequence:
#
# PCOD9043181 Si02
#       8
#     2   2   2   2   2   2   2   2
#     4  10  22  35  60  94 124 151 201 263 309 340
#     4  10  21  34  59  88 126 163 196 238 307 377
#     4  10  17  33  60  85 114 157 208 245 286 355
#     4  10  21  39  62  86 116 160 206 253 298 364
#     4  10  18  33  57  92 121 145 198 259 299 344
#     4  11  20  36  60  93 122 156 195 256 308 358
#     4   9  20  37  61  86 115 160 210 238 292 371
#     4  10  18  32  63  89 110 152 208 250 297 347
#
# _framework density 21.158488999999999
#
# number of rings (size 3 to 8) (size 9 to 14) (size 15 to 20)
#    0.000    2.000    2.500    1.875    0.000    3.000 
#    0.000    3.125    2.750    3.750    0.000    0.000 
#    0.000    0.000    0.000    0.000    0.000    0.000 
#
# Total GULP energy -89108.642426 kJ/mol
# GULP energy per Si atom -5569.290152 kJ/mol
# Density = 2.111033 g / cm^3
# Si number density = 21.158489 Si / 1000 Ang^3
#
#
#
# Elastic Constant Matrix: (Units=GPa)
#
#
# Indices 1 2 3 4 5 6 
#
# 1 113.2304 4.1586 54.2463 2.1812 -44.9365 -0.4178
# 2 4.1586 26.8350 32.8840 0.0078 -15.4906 4.7147
# 3 54.2463 32.8840 153.4718 -0.9098 -30.5327 15.0749
# 4 2.1812 0.0078 -0.9098 26.3166 4.3387 -4.9261
# 5 -44.9365 -15.4906 -30.5327 4.3387 49.8404 -11.5313
# 6 -0.4178 4.7147 15.0749 -4.9261 -11.5313 23.2416
#
#
#
# Elastic Compliance Matrix: (Units=1/GPa)
#
#
# Indices 1 2 3 4 5 6 
#
# 1 0.021177 0.017419 -0.007927 -0.003445 0.022867 0.012604
# 2 0.017419 0.070142 -0.016196 -0.005058 0.030486 0.010643
# 3 -0.007927 -0.016196 0.012265 0.000684 -0.006559 -0.007922
# 4 -0.003445 -0.005058 0.000684 0.040474 -0.006414 0.005917
# 5 0.022867 0.030486 -0.006559 -0.006414 0.052000 0.022922
# 6 0.012604 0.010643 -0.007922 0.005917 0.022922 0.058859
#
#
# Mechanical properties :
#
#
# Convention : Reuss Voigt Hill
#
# Bulk Modulus (GPa) = 11.08941 52.90168 31.99554
# Shear Modulus (GPa) = 16.75683 33.36291 25.05987
#
# Velocity S-wave (km/s) = 2.81724 3.97521 3.44523
# Velocity P-wave (km/s) = 3.97932 6.79166 5.56604
#
# Compressibility (1/GPa) = 0.09017608
#
# Stress axis : x y z
#
# Youngs Moduli (GPa) = 47.22026 14.25669 81.53137
#
# Poissons Ratio (x) = -0.24833 0.64627
# Poissons Ratio (y) = -0.82251 1.32051
# Poissons Ratio (z) = 0.37430 0.23091
#
# Static dielectric constant tensor:
#      x y z
#    x 1.825010 -0.004710 -0.048760 
#    y -0.004710 1.755790 -0.061900 
#    z -0.048760 -0.061900 1.860360 
# 
# From -- ./inp_files/256461.got.cif
#   From: 2010.05.17/outbox.cif.g08.bks.cpg/sg2_129_cif.got.tgz:256461.got - 2010.06.03 11:33:40.
