data_PCOD9043537
_publ_section_title
;
Structure prediction by ZEFSAII (Michael W. Deem and Ramdas Pophale) SiO2 
 PCOD9043537
Probable space group: P -1
;
_chemical_formula_sum "Si O2"
_cell_formula_units_Z 14
_cell_length_a 7.830938
_cell_length_b 13.426683
_cell_length_c 14.493380
_cell_angle_alpha 28.954685
_cell_angle_beta 108.700063
_cell_angle_gamma 125.996284
_cell_volume 518.814689
_symmetry_space_group_name_H-M "P -1"
_symmetry_group_IT_number 2
_symmetry_cell_setting 'triclinic'
loop_
_space_group_symop_operation_xyz
x,y,z
-x,-y,-z
loop_
_atom_site_type_symbol
_atom_site_label
_atom_site_fract_x
_atom_site_fract_y
_atom_site_fract_z
Si Si1 0.588335 0.744389 0.889102
Si Si2 0.209158 0.386276 0.645666
Si Si3 0.321853 0.101381 0.020759
Si Si4 0.093052 0.367463 0.440879
Si Si5 0.827311 0.264210 0.973017
Si Si6 0.306627 0.160072 0.562340
Si Si7 0.712932 0.163422 0.326443
O O1 0.379726 0.755950 0.835675
O O2 0.500000 0.500000 0.000000
O O3 0.634235 0.723113 0.021309
O O4 0.832396 0.055829 0.651146
O O5 0.258119 0.191241 0.848165
O O6 0.245631 0.445411 0.496110
O O7 0.408146 0.659363 0.516867
O O8 0.925025 0.210307 0.748957
O O9 0.549455 0.125858 0.034551
O O10 0.088306 0.604530 0.221815
O O11 0.237255 0.344423 0.407998
O O12 0.034997 0.554804 0.824239
O O13 0.827593 0.052580 0.201475
O O14 0.245496 0.020631 0.566322
O O15 0.500000 0.000000 0.500000
#
# Coordination Sequence:
#
# PCOD9043537 Si02
#       7
#     2   2   2   2   2   2   2
#     4  11  24  45  73 103 142 190 233 288 364 414
#     4  10  24  48  70 103 145 183 245 280 351 427
#     4  10  23  45  72 101 140 187 229 298 341 417
#     4  11  25  47  71 105 146 185 234 294 348 417
#     4  12  25  44  72 104 142 181 238 288 357 412
#     4  12  26  45  75 104 142 188 235 290 352 422
#     4  12  27  47  67 107 145 176 240 295 346 432
#
# _framework density 26.984587000000001
#
# number of rings (size 3 to 8) (size 9 to 14) (size 15 to 20)
#    0.000    0.857    4.286    1.714    4.000    1.714 
#    2.571    0.000    0.000    0.000    0.000    0.000 
#    0.000    0.000    0.000    0.000    0.000    0.000 
#
# Total GULP energy -78332.447490 kJ/mol
# GULP energy per Si atom -5595.174821 kJ/mol
# Density = 2.692317 g / cm^3
# Si number density = 26.984587 Si / 1000 Ang^3
#
#
#
# Elastic Constant Matrix: (Units=GPa)
#
#
# Indices 1 2 3 4 5 6 
#
# 1 71.2587 26.7993 9.4779 -5.2910 -5.1148 10.8517
# 2 26.7993 135.9879 18.7006 -3.2276 -5.8333 14.5794
# 3 9.4779 18.7006 127.3652 6.3798 0.2567 7.9288
# 4 -5.2910 -3.2276 6.3798 55.8054 10.8633 -6.8725
# 5 -5.1148 -5.8333 0.2567 10.8633 37.5491 -8.4116
# 6 10.8517 14.5794 7.9288 -6.8725 -8.4116 55.9598
#
#
#
# Elastic Compliance Matrix: (Units=1/GPa)
#
#
# Indices 1 2 3 4 5 6 
#
# 1 0.015581 -0.002701 -0.000692 0.000967 0.000991 -0.001952
# 2 -0.002701 0.008187 -0.000918 0.000037 0.000589 -0.001386
# 3 -0.000692 -0.000918 0.008154 -0.001133 -0.000177 -0.000948
# 4 0.000967 0.000037 -0.001133 0.019328 -0.005095 0.001571
# 5 0.000991 0.000589 -0.000177 -0.005095 0.029101 0.003428
# 6 -0.001952 -0.001386 -0.000948 0.001571 0.003428 0.019452
#
#
# Mechanical properties :
#
#
# Convention : Reuss Voigt Hill
#
# Bulk Modulus (GPa) = 42.91645 49.39637 46.15641
# Shear Modulus (GPa) = 43.03250 48.50514 45.76882
#
# Velocity S-wave (km/s) = 3.99771 4.24431 4.12285
# Velocity P-wave (km/s) = 6.10307 6.50876 6.30918
#
# Compressibility (1/GPa) = 0.02330109
#
# Stress axis : x y z
#
# Youngs Moduli (GPa) = 64.17957 122.14794 122.64222
#
# Poissons Ratio (x) = 0.32989 0.08485
# Poissons Ratio (y) = 0.17333 0.11256
# Poissons Ratio (z) = 0.04440 0.11211
#
# Static dielectric constant tensor:
#      x y z
#    x 2.104090 -0.068540 -0.059680 
#    y -0.068540 2.152420 0.074580 
#    z -0.059680 0.074580 2.232590 
# 
# From -- ./inp_files/380422.got.cif
#   From: 2010.05.17/outbox.cif.g08.bks.cpg/sg2_191_cif.got.tgz:380422.got - 2010.06.03 11:33:40.
