data_PCOD9043714
_publ_section_title
;
Structure prediction by ZEFSAII (Michael W. Deem and Ramdas Pophale) SiO2 
 PCOD9043714
Probable space group: P -1
;
_chemical_formula_sum "Si O2"
_cell_formula_units_Z 14
_cell_length_a 24.105255
_cell_length_b 8.689783
_cell_length_c 5.532006
_cell_angle_alpha 123.593322
_cell_angle_beta 68.578547
_cell_angle_gamma 140.619012
_cell_volume 608.138389
_symmetry_space_group_name_H-M "P -1"
_symmetry_group_IT_number 2
_symmetry_cell_setting 'triclinic'
loop_
_space_group_symop_operation_xyz
x,y,z
-x,-y,-z
loop_
_atom_site_type_symbol
_atom_site_label
_atom_site_fract_x
_atom_site_fract_y
_atom_site_fract_z
Si Si1 0.088414 0.107858 0.347191
Si Si2 0.810057 0.336358 0.483852
Si Si3 0.848875 0.145955 0.876366
Si Si4 0.427191 0.021403 0.854676
Si Si5 0.464863 0.691515 0.561162
Si Si6 0.976260 0.634445 0.790348
Si Si7 0.685108 0.952966 0.727973
O O1 0.167086 0.434726 0.515210
O O2 0.000000 0.000000 0.500000
O O3 0.122725 0.999030 0.323099
O O4 0.056754 0.950230 0.001330
O O5 0.816517 0.150202 0.187737
O O6 0.896120 0.544905 0.700601
O O7 0.718422 0.133567 0.593382
O O8 0.932278 0.464948 0.961322
O O9 0.769187 0.022003 0.723678
O O10 0.478361 0.197386 0.680834
O O11 0.415256 0.773319 0.662681
O O12 0.480040 0.173359 0.157920
O O13 0.341023 0.950027 0.954739
O O14 0.397134 0.371135 0.430276
O O15 0.000000 0.500000 0.500000
#
# Coordination Sequence:
#
# PCOD9043714 Si02
#       7
#     2   2   2   2   2   2   2
#     4  12  23  43  71  88 129 182 232 284 337 410
#     4  11  25  41  62  99 131 176 220 283 353 408
#     4  11  25  42  61 100 132 172 222 286 348 399
#     4  10  23  45  74 106 134 183 237 274 341 420
#     4  10  23  45  74 105 137 182 231 283 336 417
#     4  11  21  43  67  88 127 170 232 283 333 410
#     4  11  26  42  68  96 144 173 220 278 350 413
#
# _framework density 23.021076999999998
#
# number of rings (size 3 to 8) (size 9 to 14) (size 15 to 20)
#    0.000    1.143    2.857    2.571    4.000    2.286 
#    2.571    0.000    0.000    0.000    0.000    0.000 
#    0.000    0.000    0.000    0.000    0.000    0.000 
#
# Total GULP energy -78154.459487 kJ/mol
# GULP energy per Si atom -5582.461392 kJ/mol
# Density = 2.296868 g / cm^3
# Si number density = 23.021077 Si / 1000 Ang^3
#
#
#
# Elastic Constant Matrix: (Units=GPa)
#
#
# Indices 1 2 3 4 5 6 
#
# 1 74.5453 19.7857 22.0396 12.3061 -24.7372 -12.5187
# 2 19.7857 138.3109 55.8972 -0.4057 -30.0785 -16.2278
# 3 22.0396 55.8972 111.4228 -11.8020 -26.8125 -2.2319
# 4 12.3061 -0.4057 -11.8020 32.0074 -3.8659 -4.5616
# 5 -24.7372 -30.0785 -26.8125 -3.8659 49.9649 0.4710
# 6 -12.5187 -16.2278 -2.2319 -4.5616 0.4710 17.4291
#
#
#
# Elastic Compliance Matrix: (Units=1/GPa)
#
#
# Indices 1 2 3 4 5 6 
#
# 1 0.020088 0.001966 -0.003160 -0.005784 0.008853 0.014101
# 2 0.001966 0.011219 -0.004560 -0.000087 0.005169 0.011112
# 3 -0.003160 -0.004560 0.013243 0.005960 0.003290 -0.003348
# 4 -0.005784 -0.000087 0.005960 0.036905 0.003080 0.006103
# 5 0.008853 0.005169 0.003290 0.003080 0.029403 0.011604
# 6 0.014101 0.011112 -0.003348 0.006103 0.011604 0.078704
#
#
# Mechanical properties :
#
#
# Convention : Reuss Voigt Hill
#
# Bulk Modulus (GPa) = 30.26363 57.74711 44.00537
# Shear Modulus (GPa) = 23.57552 34.98403 29.27978
#
# Velocity S-wave (km/s) = 3.20360 3.90250 3.57020
# Velocity P-wave (km/s) = 5.18254 6.74129 6.01264
#
# Compressibility (1/GPa) = 0.03304296
#
# Stress axis : x y z
#
# Youngs Moduli (GPa) = 49.78188 89.13242 75.50905
#
# Poissons Ratio (x) = -0.17524 0.23858
# Poissons Ratio (y) = -0.09787 0.34433
# Poissons Ratio (z) = 0.15729 0.40645
#
# Static dielectric constant tensor:
#      x y z
#    x 1.948030 -0.039620 0.037230 
#    y -0.039620 1.872490 -0.057130 
#    z 0.037230 -0.057130 1.904810 
# 
# From -- ./inp_files/43979.got.cif
#   From: 2010.05.17/outbox.cif.g08.bks.cpg/sg2_22_cif.got.tgz:43979.got - 2010.06.03 11:33:40.
