data_PCOD9043157
_publ_section_title
;
Structure prediction by ZEFSAII (Michael W. Deem and Ramdas Pophale) SiO2 
 PCOD9043157
Probable space group: P -1
;
_chemical_formula_sum "Si O2"
_cell_formula_units_Z 15
_cell_length_a 12.538793
_cell_length_b 11.589076
_cell_length_c 6.708203
_cell_angle_alpha 116.233534
_cell_angle_beta 127.461385
_cell_angle_gamma 88.184232
_cell_volume 654.418991
_symmetry_space_group_name_H-M "P -1"
_symmetry_group_IT_number 2
_symmetry_cell_setting 'triclinic'
loop_
_space_group_symop_operation_xyz
x,y,z
-x,-y,-z
loop_
_atom_site_type_symbol
_atom_site_label
_atom_site_fract_x
_atom_site_fract_y
_atom_site_fract_z
Si Si1 0.500000 0.000000 0.000000
Si Si2 0.712538 0.223737 0.161126
Si Si3 0.415608 0.202977 0.324750
Si Si4 0.781512 0.011996 0.802652
Si Si5 0.215239 0.327812 0.971964
Si Si6 0.066819 0.052204 0.403577
Si Si7 0.944752 0.338728 0.853099
Si Si8 0.731715 0.377714 0.938950
O O1 0.428397 0.856541 0.939070
O O2 0.594708 0.926810 0.923804
O O3 0.839687 0.261448 0.496037
O O4 0.724296 0.124868 0.917885
O O5 0.726243 0.361638 0.159690
O O6 0.579671 0.280062 0.614520
O O7 0.329975 0.134198 0.373873
O O8 0.345080 0.301571 0.211819
O O9 0.826430 0.018560 0.627376
O O10 0.928455 0.031005 0.097091
O O11 0.156399 0.210396 0.651089
O O12 0.087430 0.301076 0.968915
O O13 0.246149 0.472924 0.011733
O O14 0.000000 0.000000 0.500000
O O15 0.856069 0.328695 0.946517
O O16 0.000000 0.500000 0.000000
#
# Coordination Sequence:
#
# PCOD9043157 Si02
#       8
#     1   2   2   2   2   2   2   2
#     4  10  24  44  74 100 140 188 228 296 350 426
#     4  11  23  45  72 102 138 183 242 283 356 421
#     4  11  23  46  70 104 139 184 239 290 358 415
#     4  10  24  39  67 104 131 178 235 292 347 416
#     4  11  24  44  72 101 142 185 234 294 352 415
#     4  11  22  42  66 101 143 177 226 297 356 406
#     4  10  23  45  69 101 141 188 230 290 345 418
#     4  11  26  45  71 100 144 190 234 288 352 427
#
# _framework density 22.921095999999999
#
# number of rings (size 3 to 8) (size 9 to 14) (size 15 to 20)
#    0.000    1.333    4.000    0.400    1.867    6.400 
#    4.800    1.333    0.000    0.000    0.000    0.000 
#    0.000    0.000    0.000    0.000    0.000    0.000 
#
# Total GULP energy -83574.739563 kJ/mol
# GULP energy per Si atom -5571.649304 kJ/mol
# Density = 2.286893 g / cm^3
# Si number density = 22.921096 Si / 1000 Ang^3
#
#
#
# Elastic Constant Matrix: (Units=GPa)
#
#
# Indices 1 2 3 4 5 6 
#
# 1 114.6148 28.1340 22.1835 -13.8371 -11.5944 20.5656
# 2 28.1340 96.6978 23.3376 -12.1477 -10.1475 20.4109
# 3 22.1835 23.3376 35.4017 5.4780 1.6899 17.3616
# 4 -13.8371 -12.1477 5.4780 26.9956 -3.1250 -6.8995
# 5 -11.5944 -10.1475 1.6899 -3.1250 29.1021 0.3042
# 6 20.5656 20.4109 17.3616 -6.8995 0.3042 45.4662
#
#
#
# Elastic Compliance Matrix: (Units=1/GPa)
#
#
# Indices 1 2 3 4 5 6 
#
# 1 0.012326 0.000753 -0.009483 0.009115 0.006713 -0.000954
# 2 0.000753 0.015323 -0.011959 0.010279 0.007453 -0.001143
# 3 -0.009483 -0.011959 0.054217 -0.026676 -0.013804 -0.015000
# 4 0.009115 0.010279 -0.026676 0.055968 0.014672 0.009844
# 5 0.006713 0.007453 -0.013804 0.014672 0.042003 0.000834
# 6 -0.000954 -0.001143 -0.015000 0.009844 0.000834 0.030155
#
#
# Mechanical properties :
#
#
# Convention : Reuss Voigt Hill
#
# Bulk Modulus (GPa) = 24.69892 43.78050 34.23971
# Shear Modulus (GPa) = 18.87737 31.85006 25.36372
#
# Velocity S-wave (km/s) = 2.87292 3.73171 3.33012
# Velocity P-wave (km/s) = 4.66947 6.14081 5.45498
#
# Compressibility (1/GPa) = 0.04048759
#
# Stress axis : x y z
#
# Youngs Moduli (GPa) = 81.12871 65.25965 18.44447
#
# Poissons Ratio (x) = -0.04917 0.17492
# Poissons Ratio (y) = -0.06112 0.22058
# Poissons Ratio (z) = 0.76937 0.78047
#
# Static dielectric constant tensor:
#      x y z
#    x 1.881110 -0.003880 -0.052100 
#    y -0.003880 1.889390 0.005500 
#    z -0.052100 0.005500 1.896340 
# 
# From -- ./inp_files/72052.got.cif
#   From: 2010.05.17/outbox.cif.g08.bks.cpg/sg2_37_cif.got.tgz:72052.got - 2010.06.03 11:33:40.
