data_PCOD9043751
_publ_section_title
;
Structure prediction by ZEFSAII (Michael W. Deem and Ramdas Pophale) SiO2 
 PCOD9043751
Probable space group: P -1
;
_chemical_formula_sum "Si O2"
_cell_formula_units_Z 16
_cell_length_a 12.894832
_cell_length_b 9.417656
_cell_length_c 15.510700
_cell_angle_alpha 25.059359
_cell_angle_beta 63.077124
_cell_angle_gamma 69.342144
_cell_volume 703.084937
_symmetry_space_group_name_H-M "P -1"
_symmetry_group_IT_number 2
_symmetry_cell_setting 'triclinic'
loop_
_space_group_symop_operation_xyz
x,y,z
-x,-y,-z
loop_
_atom_site_type_symbol
_atom_site_label
_atom_site_fract_x
_atom_site_fract_y
_atom_site_fract_z
Si Si1 0.448562 0.709010 0.608193
Si Si2 0.440521 0.292396 0.993302
Si Si3 0.339417 0.949299 0.738707
Si Si4 0.816122 0.610973 0.550347
Si Si5 0.001581 0.189825 0.233761
Si Si6 0.290889 0.611850 0.109141
Si Si7 0.213220 0.824811 0.365667
Si Si8 0.793132 0.185360 0.440149
O O1 0.456919 0.367682 0.844075
O O2 0.313994 0.709969 0.632494
O O3 0.500000 0.000000 0.500000
O O4 0.535594 0.798932 0.445583
O O5 0.374557 0.590909 0.892762
O O6 0.567991 0.327552 0.967649
O O7 0.350742 0.957442 0.228290
O O8 0.266865 0.119366 0.600033
O O9 0.270842 0.870133 0.898083
O O10 0.762854 0.383965 0.776652
O O11 0.828770 0.392094 0.582274
O O12 0.933386 0.843255 0.409715
O O13 0.920001 0.250999 0.311744
O O14 0.132885 0.123110 0.237788
O O15 0.000000 0.500000 0.000000
O O16 0.246175 0.222409 0.312773
O O17 0.199341 0.648830 0.560230
#
# Coordination Sequence:
#
# PCOD9043751 Si02
#       8
#     2   2   2   2   2   2   2   2
#     4  10  17  33  61  99 129 164 212 271 308 365
#     4  11  19  37  68  94 131 169 224 260 313 380
#     4  11  19  37  65  96 127 168 223 258 309 388
#     4  11  26  45  63  95 140 170 207 269 342 388
#     4  11  24  47  72  91 117 171 229 271 321 382
#     4  11  20  39  69  96 126 180 216 262 315 386
#     4  12  25  42  63  96 136 168 207 279 331 380
#     4  11  21  39  68  99 124 162 228 270 316 379
#
# _framework density 22.756851999999999
#
# number of rings (size 3 to 8) (size 9 to 14) (size 15 to 20)
#    0.000    1.000    5.000    5.625    0.000    0.500 
#    4.500    1.875    0.000    0.000    0.000    0.000 
#    0.000    0.000    0.000    0.000    0.000    0.000 
#
# Total GULP energy -89393.728259 kJ/mol
# GULP energy per Si atom -5587.108016 kJ/mol
# Density = 2.270506 g / cm^3
# Si number density = 22.756852 Si / 1000 Ang^3
#
#
#
# Elastic Constant Matrix: (Units=GPa)
#
#
# Indices 1 2 3 4 5 6 
#
# 1 60.7626 14.2648 3.1751 6.2485 -8.0072 -1.0353
# 2 14.2648 91.8028 45.5781 26.2099 -7.1793 22.8000
# 3 3.1751 45.5781 81.7424 41.4099 -13.9610 0.1038
# 4 6.2485 26.2099 41.4099 26.9913 -2.2900 11.8468
# 5 -8.0072 -7.1793 -13.9610 -2.2900 30.9838 11.8904
# 6 -1.0353 22.8000 0.1038 11.8468 11.8904 20.7300
#
#
#
# Elastic Compliance Matrix: (Units=1/GPa)
#
#
# Indices 1 2 3 4 5 6 
#
# 1 0.014447 0.004029 -0.014076 0.025401 0.009193 -0.023429
# 2 0.004029 0.006975 0.029141 -0.065844 -0.000764 0.030451
# 3 -0.014076 0.029141 -0.059061 0.120545 0.031165 -0.119223
# 4 0.025401 -0.065844 0.120545 -0.183619 -0.046500 0.204690
# 5 0.009193 -0.000764 0.031165 -0.046500 0.044164 0.002385
# 6 -0.023429 0.030451 -0.119223 0.204690 0.002385 -0.104170
#
#
# Mechanical properties :
#
#
# Convention : Reuss Voigt Hill
#
# Bulk Modulus (GPa) = 1817.46107 40.03819 928.74963
# Shear Modulus (GPa) = -15.66080 27.16034 5.74977
#
# Velocity S-wave (km/s) = -2.62616 3.45846 1.59126
# Velocity P-wave (km/s) = 28.12795 5.79483 20.30716
#
# Compressibility (1/GPa) = 0.00055022
#
# Stress axis : x y z
#
# Youngs Moduli (GPa) = 69.21687 143.36590 -16.93166
#
# Poissons Ratio (x) = -0.57761 -0.23833
# Poissons Ratio (y) = -0.27887 0.49341
# Poissons Ratio (z) = 0.97428 -4.17784
#
# Static dielectric constant tensor:
#      x y z
#    x 1.852470 -0.005110 0.024810 
#    y -0.005110 1.935370 0.018920 
#    z 0.024810 0.018920 1.875750 
# 
# From -- ./inp_files/514804.got.cif
#   From: 2010.05.17/outbox.cif.g08.bks.cpg/sg2_258_cif.got.tgz:514804.got - 2010.06.03 11:33:40.
