data_PCOD9043128
_publ_section_title
;
Structure prediction by ZEFSAII (Michael W. Deem and Ramdas Pophale) SiO2 
 PCOD9043128
Probable space group: P -1
;
_chemical_formula_sum "Si O2"
_cell_formula_units_Z 16
_cell_length_a 8.944828
_cell_length_b 10.151536
_cell_length_c 11.895507
_cell_angle_alpha 84.867142
_cell_angle_beta 80.105048
_cell_angle_gamma 140.223977
_cell_volume 637.350639
_symmetry_space_group_name_H-M "P -1"
_symmetry_group_IT_number 2
_symmetry_cell_setting 'triclinic'
loop_
_space_group_symop_operation_xyz
x,y,z
-x,-y,-z
loop_
_atom_site_type_symbol
_atom_site_label
_atom_site_fract_x
_atom_site_fract_y
_atom_site_fract_z
Si Si1 0.767285 0.249741 0.095679
Si Si2 0.380536 0.100122 0.014413
Si Si3 0.153496 0.418941 0.192772
Si Si4 0.542078 0.274590 0.689153
Si Si5 0.982842 0.962053 0.825767
Si Si6 0.414309 0.578984 0.562051
Si Si7 0.827408 0.962485 0.610434
Si Si8 0.884853 0.295991 0.601906
O O1 0.881325 0.286600 0.199550
O O2 0.727503 0.097626 0.027919
O O3 0.505386 0.144622 0.115249
O O4 0.000000 0.500000 0.000000
O O5 0.621299 0.335481 0.905635
O O6 0.156589 0.046255 0.065393
O O7 0.232628 0.476550 0.309077
O O8 0.156336 0.274683 0.154017
O O9 0.507347 0.267457 0.560862
O O10 0.649912 0.202444 0.700369
O O11 0.277759 0.134537 0.786400
O O12 0.946263 0.016613 0.710915
O O13 0.500000 0.500000 0.500000
O O14 0.558215 0.706835 0.647783
O O15 0.122777 0.409317 0.633336
O O16 0.000000 0.000000 0.500000
O O17 0.804777 0.101633 0.571883
O O18 0.000000 0.500000 0.500000
#
# Coordination Sequence:
#
# PCOD9043128 Si02
#       8
#     2   2   2   2   2   2   2   2
#     4   9  21  43  71  96 135 176 228 285 344 402
#     4  10  23  45  68  99 138 181 227 288 342 403
#     4  11  24  42  68 100 138 180 230 282 340 418
#     4  11  25  40  62 101 137 177 227 279 344 403
#     4  12  26  41  68 100 139 181 232 282 347 410
#     4  11  21  43  68  93 136 178 225 283 340 409
#     4  12  24  44  72  98 136 182 232 285 346 411
#     4  10  25  42  67  98 136 177 226 287 345 410
#
# _framework density 25.103923000000002
#
# number of rings (size 3 to 8) (size 9 to 14) (size 15 to 20)
#    0.000    1.250    2.500    1.875    1.750   12.000 
#    0.000    0.000    0.000    0.000    0.000    0.000 
#    0.000    0.000    0.000    0.000    0.000    0.000 
#
# Total GULP energy -89390.368752 kJ/mol
# GULP energy per Si atom -5586.898047 kJ/mol
# Density = 2.504679 g / cm^3
# Si number density = 25.103923 Si / 1000 Ang^3
#
#
#
# Elastic Constant Matrix: (Units=GPa)
#
#
# Indices 1 2 3 4 5 6 
#
# 1 231.2083 80.5790 27.5411 13.9995 3.9360 9.0670
# 2 80.5790 153.3535 18.7093 10.4200 15.5553 3.8999
# 3 27.5411 18.7093 62.5250 4.7129 13.0842 7.1777
# 4 13.9995 10.4200 4.7129 35.9318 2.6363 12.8209
# 5 3.9360 15.5553 13.0842 2.6363 40.8345 3.5697
# 6 9.0670 3.8999 7.1777 12.8209 3.5697 53.0328
#
#
#
# Elastic Compliance Matrix: (Units=1/GPa)
#
#
# Indices 1 2 3 4 5 6 
#
# 1 0.005547 -0.002736 -0.001748 -0.001110 0.001168 -0.000321
# 2 -0.002736 0.008387 -0.000703 -0.001229 -0.002664 0.000423
# 3 -0.001748 -0.000703 0.018302 -0.000545 -0.005249 -0.001641
# 4 -0.001110 -0.001229 -0.000545 0.031296 -0.000644 -0.007169
# 5 0.001168 -0.002664 -0.005249 -0.000644 0.027199 -0.000968
# 6 -0.000321 0.000423 -0.001641 -0.007169 -0.000968 0.020900
#
#
# Mechanical properties :
#
#
# Convention : Reuss Voigt Hill
#
# Bulk Modulus (GPa) = 45.74310 77.86061 61.80185
# Shear Modulus (GPa) = 38.67153 47.31033 42.99093
#
# Velocity S-wave (km/s) = 3.92912 4.34588 4.14275
# Velocity P-wave (km/s) = 6.23258 7.50099 6.89601
#
# Compressibility (1/GPa) = 0.02186122
#
# Stress axis : x y z
#
# Youngs Moduli (GPa) = 180.28302 119.22787 54.63859
#
# Poissons Ratio (x) = 0.32622 0.09553
# Poissons Ratio (y) = 0.49328 0.03841
# Poissons Ratio (z) = 0.31521 0.08381
#
# Static dielectric constant tensor:
#      x y z
#    x 1.983150 0.020620 0.014370 
#    y 0.020620 2.018000 -0.044180 
#    z 0.014370 -0.044180 2.107200 
# 
# From -- ./inp_files/44728.got.cif
#   From: 2010.05.17/outbox.cif.g08.bks.cpg/sg2_23_cif.got.tgz:44728.got - 2010.06.03 11:33:40.
