data_PCOD9043852
_publ_section_title
;
Structure prediction by ZEFSAII (Michael W. Deem and Ramdas Pophale) SiO2 
 PCOD9043852
Probable space group: P -1
;
_chemical_formula_sum "Si O2"
_cell_formula_units_Z 14
_cell_length_a 15.588548
_cell_length_b 9.735395
_cell_length_c 12.038365
_cell_angle_alpha 121.386514
_cell_angle_beta 152.735425
_cell_angle_gamma 48.751711
_cell_volume 617.850869
_symmetry_space_group_name_H-M "P -1"
_symmetry_group_IT_number 2
_symmetry_cell_setting 'triclinic'
loop_
_space_group_symop_operation_xyz
x,y,z
-x,-y,-z
loop_
_atom_site_type_symbol
_atom_site_label
_atom_site_fract_x
_atom_site_fract_y
_atom_site_fract_z
Si Si1 0.640785 0.146011 0.190387
Si Si2 0.542124 0.058934 0.695259
Si Si3 0.357847 0.399657 0.781361
Si Si4 0.997437 0.887257 0.055413
Si Si5 0.009425 0.726396 0.405261
Si Si6 0.550405 0.205664 0.366164
Si Si7 0.908244 0.501092 0.014823
O O1 0.803307 0.227670 0.394810
O O2 0.550068 0.183919 0.225303
O O3 0.445692 0.252600 0.922327
O O4 0.796345 0.924315 0.263918
O O5 0.416590 0.271024 0.683926
O O6 0.500000 0.000000 0.500000
O O7 0.492387 0.939251 0.675108
O O8 0.795492 0.996814 0.951792
O O9 0.114287 0.573283 0.560570
O O10 0.500000 0.500000 0.000000
O O11 0.218914 0.822492 0.347322
O O12 0.989674 0.711308 0.923473
O O13 0.000000 0.000000 0.000000
O O14 0.960982 0.623704 0.208105
O O15 0.349300 0.404840 0.248580
O O16 0.000000 0.500000 0.000000
#
# Coordination Sequence:
#
# PCOD9043852 Si02
#       7
#     2   2   2   2   2   2   2
#     4  10  24  47  71 114 150 198 254 310 389 451
#     4  12  25  48  75 110 151 196 257 317 382 456
#     4  10  24  44  77 108 150 202 248 317 382 455
#     4  12  27  46  73 109 150 197 249 312 388 457
#     4  10  23  45  78 107 153 197 250 318 374 460
#     4  12  27  46  78 106 151 199 252 318 380 463
#     4  12  25  45  73 110 147 195 253 314 383 454
#
# _framework density 22.659189999999999
#
# number of rings (size 3 to 8) (size 9 to 14) (size 15 to 20)
#    0.000    0.857    2.857    3.000    6.000    4.571 
#    0.000    1.429    0.000    0.000    0.000    0.000 
#    0.000    0.000    0.000    0.000    0.000    0.000 
#
# Total GULP energy -78326.395048 kJ/mol
# GULP energy per Si atom -5594.742503 kJ/mol
# Density = 2.260762 g / cm^3
# Si number density = 22.659190 Si / 1000 Ang^3
#
#
#
# Elastic Constant Matrix: (Units=GPa)
#
#
# Indices 1 2 3 4 5 6 
#
# 1 136.5127 57.1937 49.0390 -11.8897 -11.3629 -1.6924
# 2 57.1937 164.1969 39.4556 -12.8423 -9.5595 2.1868
# 3 49.0390 39.4556 135.7332 -17.8869 -10.3040 -4.6454
# 4 -11.8897 -12.8423 -17.8869 44.3981 -0.8478 -0.5802
# 5 -11.3629 -9.5595 -10.3040 -0.8478 40.7160 -2.5183
# 6 -1.6924 2.1868 -4.6454 -0.5802 -2.5183 20.3054
#
#
#
# Elastic Compliance Matrix: (Units=1/GPa)
#
#
# Indices 1 2 3 4 5 6 
#
# 1 0.009484 -0.002576 -0.002427 0.000855 0.001490 0.000722
# 2 -0.002576 0.007379 -0.001067 0.001013 0.000694 -0.001138
# 3 -0.002427 -0.001067 0.009118 0.002775 0.001578 0.002274
# 4 0.000855 0.001013 0.002775 0.024217 0.001776 0.001509
# 5 0.001490 0.000694 0.001578 0.001776 0.025802 0.003661
# 6 0.000722 -0.001138 0.002274 0.001509 0.003661 0.050448
#
#
# Mechanical properties :
#
#
# Convention : Reuss Voigt Hill
#
# Bulk Modulus (GPa) = 72.25538 80.86884 76.56211
# Shear Modulus (GPa) = 34.91594 40.46755 37.69175
#
# Velocity S-wave (km/s) = 3.92971 4.23060 4.08293
# Velocity P-wave (km/s) = 7.24895 7.72209 7.48926
#
# Compressibility (1/GPa) = 0.01383980
#
# Stress axis : x y z
#
# Youngs Moduli (GPa) = 105.44073 135.52328 109.67731
#
# Poissons Ratio (x) = 0.34915 0.26620
# Poissons Ratio (y) = 0.27165 0.11701
# Poissons Ratio (z) = 0.25592 0.14459
#
# Static dielectric constant tensor:
#      x y z
#    x 1.819440 0.031710 0.057690 
#    y 0.031710 1.856870 0.001450 
#    z 0.057690 0.001450 1.987030 
# 
# From -- ./inp_files/448111.got.cif
#   From: 2010.05.17/outbox.cif.g08.bks.cpg/sg2_225_cif.got.tgz:448111.got - 2010.06.03 11:33:40.
