data_PCOD9043926
_publ_section_title
;
Structure prediction by ZEFSAII (Michael W. Deem and Ramdas Pophale) SiO2 
 PCOD9043926
Probable space group: P -1
;
_chemical_formula_sum "Si O2"
_cell_formula_units_Z 14
_cell_length_a 15.366470
_cell_length_b 19.015266
_cell_length_c 9.078076
_cell_angle_alpha 129.836086
_cell_angle_beta 131.806615
_cell_angle_gamma 16.977588
_cell_volume 577.293227
_symmetry_space_group_name_H-M "P -1"
_symmetry_group_IT_number 2
_symmetry_cell_setting 'triclinic'
loop_
_space_group_symop_operation_xyz
x,y,z
-x,-y,-z
loop_
_atom_site_type_symbol
_atom_site_label
_atom_site_fract_x
_atom_site_fract_y
_atom_site_fract_z
Si Si1 0.790446 0.050458 0.159103
Si Si2 0.781491 0.259938 0.401345
Si Si3 0.615014 0.482186 0.974919
Si Si4 0.629910 0.769125 0.921907
Si Si5 0.609383 0.695246 0.241943
Si Si6 0.714991 0.963339 0.400926
Si Si7 0.303337 0.192440 0.662015
O O1 0.888651 0.083149 0.335808
O O2 0.531147 0.211119 0.201056
O O3 0.633375 0.148470 0.953026
O O4 0.093347 0.770080 0.120098
O O5 0.500000 0.500000 0.500000
O O6 0.668144 0.320364 0.190423
O O7 0.029927 0.157995 0.543190
O O8 0.500000 0.500000 0.000000
O O9 0.706113 0.522265 0.165382
O O10 0.514034 0.890823 0.798719
O O11 0.508900 0.911640 0.120997
O O12 0.000000 0.500000 0.000000
O O13 0.816851 0.626100 0.306173
O O14 0.461714 0.850330 0.424543
O O15 0.872746 0.763323 0.397283
O O16 0.500000 0.000000 0.500000
#
# Coordination Sequence:
#
# PCOD9043926 Si02
#       7
#     2   2   2   2   2   2   2
#     4  10  23  46  67 100 147 182 232 294 345 422
#     4  11  25  41  68 104 141 182 229 286 360 418
#     4  11  22  41  74 103 139 186 230 287 357 420
#     4  11  25  45  68  99 140 189 236 291 352 417
#     4   9  21  44  68 103 137 180 234 288 349 418
#     4  11  22  43  71 101 141 182 233 294 350 424
#     4   9  21  46  69  94 134 181 231 291 345 411
#
# _framework density 24.251107999999999
#
# number of rings (size 3 to 8) (size 9 to 14) (size 15 to 20)
#    0.000    1.714    0.000    3.000    2.000    5.714 
#   25.714    3.571    0.000    0.000    0.000    0.000 
#    0.000    0.000    0.000    0.000    0.000    0.000 
#
# Total GULP energy -78098.459501 kJ/mol
# GULP energy per Si atom -5578.461393 kJ/mol
# Density = 2.419591 g / cm^3
# Si number density = 24.251108 Si / 1000 Ang^3
#
#
#
# Elastic Constant Matrix: (Units=GPa)
#
#
# Indices 1 2 3 4 5 6 
#
# 1 211.4348 70.5532 67.1792 6.5815 20.7182 8.2456
# 2 70.5532 72.5663 31.0968 -2.8925 13.1913 -1.5724
# 3 67.1792 31.0968 98.2279 12.1752 -10.0898 18.3441
# 4 6.5815 -2.8925 12.1752 40.3058 13.9562 4.7881
# 5 20.7182 13.1913 -10.0898 13.9562 59.1596 0.2126
# 6 8.2456 -1.5724 18.3441 4.7881 0.2126 37.2313
#
#
#
# Elastic Compliance Matrix: (Units=1/GPa)
#
#
# Indices 1 2 3 4 5 6 
#
# 1 0.008151 -0.005784 -0.003995 0.000273 -0.002310 -0.000103
# 2 -0.005784 0.022973 -0.005336 0.005553 -0.005332 0.004197
# 3 -0.003995 -0.005336 0.017497 -0.006649 0.007168 -0.007148
# 4 0.000273 0.005553 -0.006649 0.030575 -0.009679 -0.000427
# 5 -0.002310 -0.005332 0.007168 -0.009679 0.022415 -0.002128
# 6 -0.000103 0.004197 -0.007148 -0.000427 -0.002128 0.030648
#
#
# Mechanical properties :
#
#
# Convention : Reuss Voigt Hill
#
# Bulk Modulus (GPa) = 54.38027 79.98749 67.18388
# Shear Modulus (GPa) = 29.65244 41.56600 35.60922
#
# Velocity S-wave (km/s) = 3.50054 4.14452 3.83607
# Velocity P-wave (km/s) = 6.22984 7.48046 6.88361
#
# Compressibility (1/GPa) = 0.01838902
#
# Stress axis : x y z
#
# Youngs Moduli (GPa) = 122.68380 43.53021 57.15118
#
# Poissons Ratio (x) = 0.25179 0.22834
# Poissons Ratio (y) = 0.70962 0.30499
# Poissons Ratio (z) = 0.49017 0.23230
#
# Static dielectric constant tensor:
#      x y z
#    x 2.018830 0.054770 0.054860 
#    y 0.054770 1.948940 -0.011760 
#    z 0.054860 -0.011760 1.965480 
# 
# From -- ./inp_files/318107.got.cif
#   From: 2010.05.17/outbox.cif.g08.bks.cpg/sg2_160_cif.got.tgz:318107.got - 2010.06.03 11:33:40.
