data_PCOD9043043
_publ_section_title
;
Structure prediction by ZEFSAII (Michael W. Deem and Ramdas Pophale) SiO2 
 PCOD9043043
Probable space group: P -1
;
_chemical_formula_sum "Si O2"
_cell_formula_units_Z 16
_cell_length_a 5.586225
_cell_length_b 8.950215
_cell_length_c 13.145874
_cell_angle_alpha 90.253853
_cell_angle_beta 95.047192
_cell_angle_gamma 94.442435
_cell_volume 652.708946
_symmetry_space_group_name_H-M "P -1"
_symmetry_group_IT_number 2
_symmetry_cell_setting 'triclinic'
loop_
_space_group_symop_operation_xyz
x,y,z
-x,-y,-z
loop_
_atom_site_type_symbol
_atom_site_label
_atom_site_fract_x
_atom_site_fract_y
_atom_site_fract_z
Si Si1 0.347862 0.925379 0.050886
Si Si2 0.735681 0.434385 0.954004
Si Si3 0.938781 0.997756 0.127464
Si Si4 0.165028 0.256910 0.710331
Si Si5 0.106962 0.505171 0.391419
Si Si6 0.732768 0.986374 0.438355
Si Si7 0.789793 0.236910 0.269615
Si Si8 0.456605 0.471929 0.252689
O O1 0.300192 0.747745 0.038827
O O2 0.637537 0.986679 0.061936
O O3 0.239674 0.984908 0.147665
O O4 0.000000 0.000000 0.000000
O O5 0.735551 0.484059 0.836580
O O6 0.500000 0.500000 0.000000
O O7 0.000000 0.500000 0.000000
O O8 0.873845 0.854505 0.197936
O O9 0.909283 0.157079 0.180695
O O10 0.336210 0.396770 0.753938
O O11 0.936244 0.332014 0.655773
O O12 0.283675 0.170029 0.623185
O O13 0.375866 0.474752 0.367366
O O14 0.000000 0.500000 0.500000
O O15 0.958014 0.371071 0.325536
O O16 0.735303 0.115159 0.354101
O O17 0.500000 0.000000 0.500000
O O18 0.000000 0.000000 0.500000
O O19 0.553233 0.314666 0.227547
#
# Coordination Sequence:
#
# PCOD9043043 Si02
#       8
#     2   2   2   2   2   2   2   2
#     4  11  25  44  75 104 146 194 253 308 389 457
#     4  12  30  49  81 114 158 203 261 324 399 471
#     4  10  23  45  68 101 144 186 247 307 376 452
#     4  10  24  44  71 104 142 197 245 311 380 450
#     4  11  25  42  72 103 151 194 255 310 384 449
#     4  11  26  46  72 105 148 193 252 310 379 448
#     4  10  25  44  70 106 143 195 247 313 377 446
#     4  11  26  45  75 106 149 197 261 311 387 461
#
# _framework density 24.513221000000001
#
# number of rings (size 3 to 8) (size 9 to 14) (size 15 to 20)
#    0.000    1.250    0.000    3.000   17.500    2.000 
#    4.500    0.000    0.000    0.000    0.000    0.000 
#    0.000    0.000    0.000    0.000    0.000    0.000 
#
# Total GULP energy -89307.779297 kJ/mol
# GULP energy per Si atom -5581.736206 kJ/mol
# Density = 2.445743 g / cm^3
# Si number density = 24.513221 Si / 1000 Ang^3
#
#
#
# Elastic Constant Matrix: (Units=GPa)
#
#
# Indices 1 2 3 4 5 6 
#
# 1 166.2522 63.0416 63.9747 17.0274 -35.3789 -18.2537
# 2 63.0416 191.3635 66.0217 11.6664 -18.8407 -21.9868
# 3 63.9747 66.0217 116.3507 2.1908 -20.7305 -12.4090
# 4 17.0274 11.6664 2.1908 36.6607 -6.4570 0.7841
# 5 -35.3789 -18.8407 -20.7305 -6.4570 45.5507 16.9159
# 6 -18.2537 -21.9868 -12.4090 0.7841 16.9159 34.7626
#
#
#
# Elastic Compliance Matrix: (Units=1/GPa)
#
#
# Indices 1 2 3 4 5 6 
#
# 1 0.009062 -0.001102 -0.003451 -0.002912 0.004302 0.000802
# 2 -0.001102 0.007082 -0.003183 -0.001763 -0.000813 0.003200
# 3 -0.003451 -0.003183 0.012604 0.002266 0.002233 -0.000464
# 4 -0.002912 -0.001763 0.002266 0.029838 0.003908 -0.004410
# 5 0.004302 -0.000813 0.002233 0.003908 0.031268 -0.012762
# 6 0.000802 0.003200 -0.000464 -0.004410 -0.012762 0.037356
#
#
# Mechanical properties :
#
#
# Convention : Reuss Voigt Hill
#
# Bulk Modulus (GPa) = 75.31931 95.56028 85.43979
# Shear Modulus (GPa) = 33.98884 42.12335 38.05610
#
# Velocity S-wave (km/s) = 3.72768 4.14985 3.94442
# Velocity P-wave (km/s) = 7.02283 7.87588 7.46156
#
# Compressibility (1/GPa) = 0.01327681
#
# Stress axis : x y z
#
# Youngs Moduli (GPa) = 110.34643 141.20481 79.33884
#
# Poissons Ratio (x) = 0.15555 0.27379
# Poissons Ratio (y) = 0.12156 0.25256
# Poissons Ratio (z) = 0.38080 0.44949
#
# Static dielectric constant tensor:
#      x y z
#    x 1.784810 0.145530 -0.032100 
#    y 0.145530 1.782980 0.071910 
#    z -0.032100 0.071910 1.957130 
# 
# From -- ./inp_files/106746.got.cif
#   From: 2010.05.17/outbox.cif.g08.bks.cpg/sg2_54_cif.got.tgz:106746.got - 2010.06.03 11:33:40.
