data_PCOD9043049
_publ_section_title
;
Structure prediction by ZEFSAII (Michael W. Deem and Ramdas Pophale) SiO2 
 PCOD9043049
Probable space group: P -1
;
_chemical_formula_sum "Si O2"
_cell_formula_units_Z 16
_cell_length_a 9.450479
_cell_length_b 7.419439
_cell_length_c 9.281688
_cell_angle_alpha 75.118803
_cell_angle_beta 101.264326
_cell_angle_gamma 105.590069
_cell_volume 600.234724
_symmetry_space_group_name_H-M "P -1"
_symmetry_group_IT_number 2
_symmetry_cell_setting 'triclinic'
loop_
_space_group_symop_operation_xyz
x,y,z
-x,-y,-z
loop_
_atom_site_type_symbol
_atom_site_label
_atom_site_fract_x
_atom_site_fract_y
_atom_site_fract_z
Si Si1 0.921766 0.084423 0.688523
Si Si2 0.322542 0.501458 0.598020
Si Si3 0.779719 0.909639 0.409298
Si Si4 0.960621 0.743061 0.914873
Si Si5 0.936080 0.519302 0.230887
Si Si6 0.538419 0.125331 0.622941
Si Si7 0.474735 0.325798 0.918992
Si Si8 0.290003 0.918641 0.059911
O O1 0.827318 0.032199 0.536304
O O2 0.955749 0.303650 0.701545
O O3 0.663712 0.088593 0.760910
O O4 0.085647 0.053606 0.681330
O O5 0.197803 0.555367 0.668447
O O6 0.431391 0.424485 0.744745
O O7 0.246768 0.318343 0.523841
O O8 0.593188 0.334621 0.523198
O O9 0.621369 0.933656 0.317566
O O10 0.979732 0.628344 0.795968
O O11 0.882980 0.913892 0.831123
O O12 0.880828 0.609194 0.056363
O O13 0.124069 0.828748 0.994070
O O14 0.500000 0.000000 0.500000
O O15 0.615869 0.230674 0.952790
O O16 0.500000 0.500000 0.000000
O O17 0.349259 0.136708 0.974767
#
# Coordination Sequence:
#
# PCOD9043049 Si02
#       8
#     2   2   2   2   2   2   2   2
#     4  10  23  45  74  97 139 186 230 287 341 414
#     4  11  23  47  70  99 142 186 236 284 354 418
#     4  10  23  45  68 102 138 186 234 277 348 419
#     4  11  24  44  70 101 139 176 235 295 346 411
#     4  10  24  44  69 102 131 181 234 288 345 412
#     4  12  27  44  70 106 145 184 231 291 352 423
#     4  11  23  43  71 101 139 188 228 287 350 413
#     4  11  25  42  70 107 141 180 232 294 351 411
#
# _framework density 26.656236
#
# number of rings (size 3 to 8) (size 9 to 14) (size 15 to 20)
#    0.000    1.250    1.250    3.750    5.250    2.000 
#    2.250    2.500    0.000    0.000    0.000    0.000 
#    0.000    0.000    0.000    0.000    0.000    0.000 
#
# Total GULP energy -89655.835590 kJ/mol
# GULP energy per Si atom -5603.489724 kJ/mol
# Density = 2.659556 g / cm^3
# Si number density = 26.656236 Si / 1000 Ang^3
#
#
#
# Elastic Constant Matrix: (Units=GPa)
#
#
# Indices 1 2 3 4 5 6 
#
# 1 129.0606 38.6242 47.5354 -11.3193 10.4806 -12.8188
# 2 38.6242 177.8762 87.1059 6.2875 11.8238 -8.0706
# 3 47.5354 87.1059 152.2605 28.3415 9.4056 -1.2278
# 4 -11.3193 6.2875 28.3415 69.8495 -7.5061 -5.0008
# 5 10.4806 11.8238 9.4056 -7.5061 39.4356 -3.9429
# 6 -12.8188 -8.0706 -1.2278 -5.0008 -3.9429 32.7562
#
#
#
# Elastic Compliance Matrix: (Units=1/GPa)
#
#
# Indices 1 2 3 4 5 6 
#
# 1 0.009845 -0.000362 -0.003391 0.003221 -0.000682 0.004046
# 2 -0.000362 0.008072 -0.004652 0.001139 -0.000823 0.001748
# 3 -0.003391 -0.004652 0.011321 -0.005122 -0.001682 -0.003033
# 4 0.003221 0.001139 -0.005122 0.017545 0.003812 0.004486
# 5 -0.000682 -0.000823 -0.001682 0.003812 0.027245 0.003329
# 6 0.004046 0.001748 -0.003033 0.004486 0.003329 0.033514
#
#
# Mechanical properties :
#
#
# Convention : Reuss Voigt Hill
#
# Bulk Modulus (GPa) = 80.46644 89.52535 84.99590
# Shear Modulus (GPa) = 38.91139 47.47038 43.19088
#
# Velocity S-wave (km/s) = 3.82481 4.22457 4.02965
# Velocity P-wave (km/s) = 7.05392 7.57985 7.32161
#
# Compressibility (1/GPa) = 0.01242754
#
# Stress axis : x y z
#
# Youngs Moduli (GPa) = 101.56991 123.87893 88.33336
#
# Poissons Ratio (x) = 0.04485 0.29957
# Poissons Ratio (y) = 0.03677 0.41094
# Poissons Ratio (z) = 0.34446 0.57630
#
# Static dielectric constant tensor:
#      x y z
#    x 2.165120 -0.113330 -0.171840 
#    y -0.113330 2.506240 0.106800 
#    z -0.171840 0.106800 2.184480 
# 
# From -- ./inp_files/491249.got.cif
#   From: 2010.05.17/outbox.cif.g08.bks.cpg/sg2_246_cif.got.tgz:491249.got - 2010.06.03 11:33:40.
