data_PCOD9043613
_publ_section_title
;
Structure prediction by ZEFSAII (Michael W. Deem and Ramdas Pophale) SiO2 
 PCOD9043613
Probable space group: P -1
;
_chemical_formula_sum "Si O2"
_cell_formula_units_Z 16
_cell_length_a 13.363281
_cell_length_b 12.181854
_cell_length_c 12.089175
_cell_angle_alpha 85.105069
_cell_angle_beta 142.086061
_cell_angle_gamma 64.961495
_cell_volume 720.933907
_symmetry_space_group_name_H-M "P -1"
_symmetry_group_IT_number 2
_symmetry_cell_setting 'triclinic'
loop_
_space_group_symop_operation_xyz
x,y,z
-x,-y,-z
loop_
_atom_site_type_symbol
_atom_site_label
_atom_site_fract_x
_atom_site_fract_y
_atom_site_fract_z
Si Si1 0.031682 0.527023 0.400598
Si Si2 0.334407 0.816446 0.015549
Si Si3 0.313909 0.432454 0.062218
Si Si4 0.965405 0.758739 0.890999
Si Si5 0.556324 0.793642 0.600646
Si Si6 0.231489 0.108270 0.820281
Si Si7 0.750189 0.200790 0.814646
Si Si8 0.282454 0.709945 0.758285
O O1 0.903923 0.506009 0.212694
O O2 0.876939 0.724931 0.228620
O O3 0.000000 0.500000 0.500000
O O4 0.347148 0.376497 0.675725
O O5 0.215344 0.829483 0.020875
O O6 0.249959 0.810911 0.824164
O O7 0.286021 0.973450 0.955441
O O8 0.150088 0.621715 0.959497
O O9 0.401278 0.301336 0.245268
O O10 0.579341 0.314475 0.229246
O O11 0.818662 0.727784 0.810493
O O12 0.182828 0.707840 0.160971
O O13 0.704883 0.982715 0.630894
O O14 0.500381 0.733394 0.459443
O O15 0.999533 0.195000 0.525341
O O16 0.500000 0.000000 0.000000
O O17 0.000000 0.000000 0.000000
O O18 0.500000 0.500000 0.000000
#
# Coordination Sequence:
#
# PCOD9043613 Si02
#       8
#     2   2   2   2   2   2   2   2
#     4  12  24  46  66 106 150 187 240 303 362 444
#     4  12  25  47  73 103 150 192 243 303 374 443
#     4  12  25  44  74 105 145 190 246 302 366 449
#     4  10  23  45  73 102 143 196 236 311 375 422
#     4  10  24  48  69 107 143 188 255 300 366 443
#     4  12  26  45  72 108 146 197 242 297 367 448
#     4  10  24  46  72 102 143 188 247 308 364 438
#     4  12  25  47  73 109 154 188 246 303 373 446
#
# _framework density 22.193435999999998
#
# number of rings (size 3 to 8) (size 9 to 14) (size 15 to 20)
#    0.000    0.750    3.750    2.250    3.500    4.500 
#    6.750    0.000    0.000    0.000    0.000    0.000 
#    0.000    0.000    0.000    0.000    0.000    0.000 
#
# Total GULP energy -89422.509385 kJ/mol
# GULP energy per Si atom -5588.906837 kJ/mol
# Density = 2.214292 g / cm^3
# Si number density = 22.193436 Si / 1000 Ang^3
#
#
#
# Elastic Constant Matrix: (Units=GPa)
#
#
# Indices 1 2 3 4 5 6 
#
# 1 129.9752 45.1274 37.2549 16.0493 10.5836 0.5269
# 2 45.1274 141.7964 27.6831 21.7535 9.4830 -0.6966
# 3 37.2549 27.6831 78.1891 17.6807 29.2942 -6.7221
# 4 16.0493 21.7535 17.6807 44.7329 7.0893 5.5435
# 5 10.5836 9.4830 29.2942 7.0893 37.8321 1.9545
# 6 0.5269 -0.6966 -6.7221 5.5435 1.9545 31.1580
#
#
#
# Elastic Compliance Matrix: (Units=1/GPa)
#
#
# Indices 1 2 3 4 5 6 
#
# 1 0.009673 -0.002225 -0.004233 -0.000794 0.001334 -0.001069
# 2 -0.002225 0.008446 -0.001228 -0.002878 -0.000029 0.000476
# 3 -0.004233 -0.001228 0.022873 -0.005311 -0.015580 0.006901
# 4 -0.000794 -0.002878 -0.005311 0.026827 0.000338 -0.005991
# 5 0.001334 -0.000029 -0.015580 0.000338 0.038370 -0.005852
# 6 -0.001069 0.000476 0.006901 -0.005991 -0.005852 0.035045
#
#
# Mechanical properties :
#
#
# Convention : Reuss Voigt Hill
#
# Bulk Modulus (GPa) = 39.03095 63.34349 51.18722
# Shear Modulus (GPa) = 30.27631 38.73762 34.50697
#
# Velocity S-wave (km/s) = 3.69752 4.18240 3.94741
# Velocity P-wave (km/s) = 5.98780 7.20602 6.62497
#
# Compressibility (1/GPa) = 0.02562069
#
# Stress axis : x y z
#
# Youngs Moduli (GPa) = 103.37581 118.40076 43.72045
#
# Poissons Ratio (x) = 0.26341 0.18508
# Poissons Ratio (y) = 0.22998 0.05367
# Poissons Ratio (z) = 0.43762 0.14535
#
# Static dielectric constant tensor:
#      x y z
#    x 1.817600 0.004950 0.010600 
#    y 0.004950 1.853580 0.019850 
#    z 0.010600 0.019850 1.824120 
# 
# From -- ./inp_files/428255.got.cif
#   From: 2010.05.17/outbox.cif.g08.bks.cpg/sg2_215_cif.got.tgz:428255.got - 2010.06.03 11:33:40.
