data_PCOD9043605
_publ_section_title
;
Structure prediction by ZEFSAII (Michael W. Deem and Ramdas Pophale) SiO2 
 PCOD9043605
Probable space group: P -1
;
_chemical_formula_sum "Si O2"
_cell_formula_units_Z 16
_cell_length_a 10.341696
_cell_length_b 14.000734
_cell_length_c 7.491934
_cell_angle_alpha 84.043669
_cell_angle_beta 124.459598
_cell_angle_gamma 126.299926
_cell_volume 675.799028
_symmetry_space_group_name_H-M "P -1"
_symmetry_group_IT_number 2
_symmetry_cell_setting 'triclinic'
loop_
_space_group_symop_operation_xyz
x,y,z
-x,-y,-z
loop_
_atom_site_type_symbol
_atom_site_label
_atom_site_fract_x
_atom_site_fract_y
_atom_site_fract_z
Si Si1 0.813022 0.706313 0.522419
Si Si2 0.648059 0.780311 0.664514
Si Si3 0.285004 0.971397 0.311240
Si Si4 0.870767 0.233746 0.499078
Si Si5 0.228118 0.511279 0.313562
Si Si6 0.427709 0.061576 0.043964
Si Si7 0.587714 0.737714 0.041642
Si Si8 0.866025 0.498819 0.162115
O O1 0.788242 0.767959 0.655614
O O2 0.696288 0.706161 0.262979
O O3 0.986734 0.623808 0.349815
O O4 0.039637 0.774073 0.611677
O O5 0.697814 0.911197 0.641377
O O6 0.413397 0.660691 0.449205
O O7 0.662973 0.765713 0.890468
O O8 0.260922 0.965993 0.080400
O O9 0.500000 0.000000 0.500000
O O10 0.130769 0.849293 0.334891
O O11 0.636622 0.174144 0.294424
O O12 0.282027 0.433395 0.466084
O O13 0.021386 0.473484 0.244828
O O14 0.188537 0.479641 0.079084
O O15 0.370182 0.136080 0.883457
O O16 0.500000 0.000000 0.000000
O O17 0.344333 0.618184 0.887621
#
# Coordination Sequence:
#
# PCOD9043605 Si02
#       8
#     2   2   2   2   2   2   2   2
#     4  12  27  43  68 104 141 184 221 277 348 411
#     4  11  24  45  67  98 143 177 231 276 339 414
#     4   9  21  42  69  94 127 176 224 282 331 387
#     4  11  25  43  69 102 134 181 227 285 340 399
#     4  11  24  42  70 104 132 183 226 284 341 399
#     4  10  23  45  73 100 132 177 233 285 335 404
#     4  11  25  44  70 101 138 185 221 282 348 393
#     4  11  24  43  73 101 137 174 237 286 330 406
#
# _framework density 23.67568
#
# number of rings (size 3 to 8) (size 9 to 14) (size 15 to 20)
#    0.000    1.250    1.250    4.125    5.250    6.000 
#    0.000    1.250    0.000    0.000    0.000    0.000 
#    0.000    0.000    0.000    0.000    0.000    0.000 
#
# Total GULP energy -89612.035604 kJ/mol
# GULP energy per Si atom -5600.752225 kJ/mol
# Density = 2.362179 g / cm^3
# Si number density = 23.675680 Si / 1000 Ang^3
#
#
#
# Elastic Constant Matrix: (Units=GPa)
#
#
# Indices 1 2 3 4 5 6 
#
# 1 102.9639 19.7553 11.3839 -4.1226 -24.8749 7.4259
# 2 19.7553 105.2069 28.6135 -32.0464 -16.4779 -3.7458
# 3 11.3839 28.6135 84.6849 -14.9599 -8.1599 -6.0830
# 4 -4.1226 -32.0464 -14.9599 30.2039 -3.3767 -0.8359
# 5 -24.8749 -16.4779 -8.1599 -3.3767 40.3082 2.6764
# 6 7.4259 -3.7458 -6.0830 -0.8359 2.6764 36.1857
#
#
#
# Elastic Compliance Matrix: (Units=1/GPa)
#
#
# Indices 1 2 3 4 5 6 
#
# 1 0.011952 -0.000603 -0.000678 0.001386 0.007317 -0.003138
# 2 -0.000603 0.016668 -0.001600 0.017688 0.007504 0.001434
# 3 -0.000678 -0.001600 0.013731 0.005297 0.002001 0.002256
# 4 0.001386 0.017688 0.005297 0.056295 0.013694 0.002724
# 5 0.007317 0.007504 0.002001 0.013694 0.034116 -0.002595
# 6 -0.003138 0.001434 0.002256 0.002724 -0.002595 0.029062
#
#
# Mechanical properties :
#
#
# Convention : Reuss Voigt Hill
#
# Bulk Modulus (GPa) = 27.33155 45.81791 36.57473
# Shear Modulus (GPa) = 27.81130 36.87977 32.34554
#
# Velocity S-wave (km/s) = 3.43108 3.95106 3.70021
# Velocity P-wave (km/s) = 5.22165 6.34104 5.80837
#
# Compressibility (1/GPa) = 0.03658776
#
# Stress axis : x y z
#
# Youngs Moduli (GPa) = 83.66540 59.99590 72.82887
#
# Poissons Ratio (x) = 0.03620 0.04941
# Poissons Ratio (y) = 0.05048 0.11652
# Poissons Ratio (z) = 0.05676 0.09599
#
# Static dielectric constant tensor:
#      x y z
#    x 1.891260 0.003190 -0.003790 
#    y 0.003190 1.872780 -0.009900 
#    z -0.003790 -0.009900 1.907160 
# 
# From -- ./inp_files/258239.got.cif
#   From: 2010.05.17/outbox.cif.g08.bks.cpg/sg2_130_cif.got.tgz:258239.got - 2010.06.03 11:33:40.
