data_PCOD9043320
_publ_section_title
;
Structure prediction by ZEFSAII (Michael W. Deem and Ramdas Pophale) SiO2 
 PCOD9043320
Probable space group: P -1
;
_chemical_formula_sum "Si O2"
_cell_formula_units_Z 14
_cell_length_a 16.105703
_cell_length_b 7.587287
_cell_length_c 5.027934
_cell_angle_alpha 111.380216
_cell_angle_beta 101.339477
_cell_angle_gamma 64.493709
_cell_volume 515.789016
_symmetry_space_group_name_H-M "P -1"
_symmetry_group_IT_number 2
_symmetry_cell_setting 'triclinic'
loop_
_space_group_symop_operation_xyz
x,y,z
-x,-y,-z
loop_
_atom_site_type_symbol
_atom_site_label
_atom_site_fract_x
_atom_site_fract_y
_atom_site_fract_z
Si Si1 0.797277 0.775934 0.340841
Si Si2 0.601150 0.474699 0.133993
Si Si3 0.390427 0.888986 0.762587
Si Si4 0.902196 0.832921 0.933002
Si Si5 0.069023 0.841493 0.245464
Si Si6 0.253916 0.545521 0.159039
Si Si7 0.592359 0.823020 0.639020
O O1 0.854822 0.748208 0.630599
O O2 0.693790 0.953066 0.374249
O O3 0.845867 0.849004 0.174075
O O4 0.790479 0.564926 0.135673
O O5 0.619668 0.325462 0.316843
O O6 0.595906 0.706563 0.296707
O O7 0.500000 0.500000 0.000000
O O8 0.683920 0.366825 0.923960
O O9 0.489314 0.851054 0.678384
O O10 0.392918 0.985469 0.110518
O O11 0.903509 0.038597 0.908267
O O12 0.009485 0.720787 0.020473
O O13 0.167293 0.700771 0.349654
O O14 0.000000 0.000000 0.500000
O O15 0.324004 0.362326 0.273967
#
# Coordination Sequence:
#
# PCOD9043320 Si02
#       7
#     2   2   2   2   2   2   2
#     4  11  26  47  73 112 150 204 249 308 382 442
#     4  12  25  44  72 109 146 206 251 314 375 452
#     4  10  23  45  70 103 154 196 250 312 372 451
#     4  11  25  49  73 109 147 195 250 307 383 441
#     4  11  25  49  77 111 147 194 255 314 381 456
#     4  11  27  46  71 107 149 193 258 313 371 465
#     4  10  24  45  65 106 149 194 257 305 380 448
#
# _framework density 27.142882
#
# number of rings (size 3 to 8) (size 9 to 14) (size 15 to 20)
#    0.000    1.143    2.857    1.286    6.000    5.143 
#    0.000    0.000    0.000    0.000    0.000    0.000 
#    0.000    0.000    0.000    0.000    0.000    0.000 
#
# Total GULP energy -78380.296345 kJ/mol
# GULP energy per Si atom -5598.592596 kJ/mol
# Density = 2.708110 g / cm^3
# Si number density = 27.142882 Si / 1000 Ang^3
#
#
#
# Elastic Constant Matrix: (Units=GPa)
#
#
# Indices 1 2 3 4 5 6 
#
# 1 184.6469 41.0932 54.5954 12.6075 -6.5813 -30.1579
# 2 41.0932 55.2010 15.7033 16.7232 -12.2047 -8.1104
# 3 54.5954 15.7033 132.5797 5.6747 7.8695 -13.2610
# 4 12.6075 16.7232 5.6747 32.4085 -3.2314 5.8006
# 5 -6.5813 -12.2047 7.8695 -3.2314 50.4474 11.1778
# 6 -30.1579 -8.1104 -13.2610 5.8006 11.1778 53.2069
#
#
#
# Elastic Compliance Matrix: (Units=1/GPa)
#
#
# Indices 1 2 3 4 5 6 
#
# 1 0.007639 -0.004389 -0.002222 -0.000964 -0.000516 0.003321
# 2 -0.004389 0.026474 -0.000970 -0.011570 0.004902 0.001537
# 3 -0.002222 -0.000970 0.008869 -0.000653 -0.002248 0.001347
# 4 -0.000964 -0.011570 -0.000653 0.038677 0.001192 -0.006940
# 5 -0.000516 0.004902 -0.002248 0.001192 0.022466 -0.004955
# 6 0.003321 0.001537 0.001347 -0.006940 -0.004955 0.023044
#
#
# Mechanical properties :
#
#
# Convention : Reuss Voigt Hill
#
# Bulk Modulus (GPa) = 35.94641 66.13460 51.04051
# Shear Modulus (GPa) = 32.98063 44.61493 38.79778
#
# Velocity S-wave (km/s) = 3.48957 4.05866 3.78483
# Velocity P-wave (km/s) = 5.43216 6.81043 6.15996
#
# Compressibility (1/GPa) = 0.02781919
#
# Stress axis : x y z
#
# Youngs Moduli (GPa) = 130.90298 37.77333 112.75731
#
# Poissons Ratio (x) = 0.16579 0.25054
# Poissons Ratio (y) = 0.57454 0.10940
# Poissons Ratio (z) = 0.29085 0.03665
#
# Static dielectric constant tensor:
#      x y z
#    x 2.104320 0.014470 0.008010 
#    y 0.014470 2.198750 -0.093810 
#    z 0.008010 -0.093810 2.230100 
# 
# From -- ./inp_files/107625.got.cif
#   From: 2010.05.17/outbox.cif.g08.bks.cpg/sg2_54_cif.got.tgz:107625.got - 2010.06.03 11:33:40.
