data_PCOD9043822
_publ_section_title
;
Structure prediction by ZEFSAII (Michael W. Deem and Ramdas Pophale) SiO2 
 PCOD9043822
Probable space group: P -1
;
_chemical_formula_sum "Si O2"
_cell_formula_units_Z 12
_cell_length_a 7.863637
_cell_length_b 7.604015
_cell_length_c 17.835225
_cell_angle_alpha 38.122523
_cell_angle_beta 52.662224
_cell_angle_gamma 69.864610
_cell_volume 503.903410
_symmetry_space_group_name_H-M "P -1"
_symmetry_group_IT_number 2
_symmetry_cell_setting 'triclinic'
loop_
_space_group_symop_operation_xyz
x,y,z
-x,-y,-z
loop_
_atom_site_type_symbol
_atom_site_label
_atom_site_fract_x
_atom_site_fract_y
_atom_site_fract_z
Si Si1 0.746908 0.813748 0.620869
Si Si2 0.181899 0.397240 0.099379
Si Si3 0.921398 0.798493 0.424151
Si Si4 0.670399 0.224998 0.932894
Si Si5 0.041070 0.183261 0.042519
Si Si6 0.616314 0.849443 0.352361
O O1 0.743981 0.762297 0.550200
O O2 0.728338 0.514402 0.769597
O O3 0.568511 0.980014 0.639046
O O4 0.000000 0.000000 0.500000
O O5 0.356010 0.648728 0.018851
O O6 0.185513 0.303884 0.040664
O O7 0.125645 0.097962 0.265090
O O8 0.971378 0.540178 0.098200
O O9 0.792866 0.857499 0.366896
O O10 0.000000 0.500000 0.500000
O O11 0.860137 0.054969 0.943678
O O12 0.500000 0.000000 0.000000
O O13 0.783510 0.016851 0.186693
O O14 0.500000 0.500000 0.500000
#
# Coordination Sequence:
#
# PCOD9043822 Si02
#       6
#     2   2   2   2   2   2
#     4  12  24  46  70 101 145 180 236 295 354 432
#     4  10  23  45  76  94 146 185 237 297 362 415
#     4  11  23  44  73 102 137 189 239 294 357 422
#     4  12  27  43  72 109 143 185 243 295 367 426
#     4  10  24  48  70 101 144 188 241 294 361 429
#     4  11  25  43  72 102 136 189 237 290 362 421
#
# _framework density 23.814087000000001
#
# number of rings (size 3 to 8) (size 9 to 14) (size 15 to 20)
#    0.000    1.000    1.667    5.000    7.000    2.000 
#    0.000    0.000    0.000    0.000    0.000    0.000 
#    0.000    0.000    0.000    0.000    0.000    0.000 
#
# Total GULP energy -66918.230391 kJ/mol
# GULP energy per Si atom -5576.519199 kJ/mol
# Density = 2.375989 g / cm^3
# Si number density = 23.814087 Si / 1000 Ang^3
#
#
#
# Elastic Constant Matrix: (Units=GPa)
#
#
# Indices 1 2 3 4 5 6 
#
# 1 74.3300 22.9031 31.9149 -14.8020 -12.0723 9.5268
# 2 22.9031 185.9642 48.6510 -29.4104 -7.9648 -25.8644
# 3 31.9149 48.6510 114.1517 -39.5496 7.6971 -5.7069
# 4 -14.8020 -29.4104 -39.5496 44.6291 -3.2034 4.1725
# 5 -12.0723 -7.9648 7.6971 -3.2034 49.9570 -9.7010
# 6 9.5268 -25.8644 -5.7069 4.1725 -9.7010 57.5082
#
#
#
# Elastic Compliance Matrix: (Units=1/GPa)
#
#
# Indices 1 2 3 4 5 6 
#
# 1 0.016956 -0.000967 -0.004083 0.001952 0.004096 -0.003100
# 2 -0.000967 0.006883 -0.001772 0.002482 0.001922 0.003224
# 3 -0.004083 -0.001772 0.014293 0.009933 -0.002815 0.000103
# 4 0.001952 0.002482 0.009933 0.033633 0.001411 -0.000424
# 5 0.004096 0.001922 -0.002815 0.001411 0.022538 0.003606
# 6 -0.003100 0.003224 0.000103 -0.000424 0.003606 0.020002
#
#
# Mechanical properties :
#
#
# Convention : Reuss Voigt Hill
#
# Bulk Modulus (GPa) = 40.83637 64.59821 52.71729
# Shear Modulus (GPa) = 36.73435 48.48397 42.60916
#
# Velocity S-wave (km/s) = 3.93179 4.51703 4.23453
# Velocity P-wave (km/s) = 6.14794 7.37494 6.78921
#
# Compressibility (1/GPa) = 0.02448798
#
# Stress axis : x y z
#
# Youngs Moduli (GPa) = 58.97658 145.28015 69.96207
#
# Poissons Ratio (x) = 0.14049 0.28568
# Poissons Ratio (y) = 0.05703 0.12396
# Poissons Ratio (z) = 0.24083 0.25741
#
# Static dielectric constant tensor:
#      x y z
#    x 1.967180 0.047180 -0.076350 
#    y 0.047180 1.951920 0.074370 
#    z -0.076350 0.074370 2.055870 
# 
# From -- ./inp_files/586432.got.cif
#   From: 2010.05.17/outbox.cif.g08.bks.cpg/sg2_294_cif.got.tgz:586432.got - 2010.06.03 11:33:40.
