data_PCOD9043612
_publ_section_title
;
Structure prediction by ZEFSAII (Michael W. Deem and Ramdas Pophale) SiO2 
 PCOD9043612
Probable space group: P -1
;
_chemical_formula_sum "Si O2"
_cell_formula_units_Z 12
_cell_length_a 11.718498
_cell_length_b 7.976996
_cell_length_c 8.473600
_cell_angle_alpha 89.089232
_cell_angle_beta 92.988080
_cell_angle_gamma 37.909338
_cell_volume 483.911234
_symmetry_space_group_name_H-M "P -1"
_symmetry_group_IT_number 2
_symmetry_cell_setting 'triclinic'
loop_
_space_group_symop_operation_xyz
x,y,z
-x,-y,-z
loop_
_atom_site_type_symbol
_atom_site_label
_atom_site_fract_x
_atom_site_fract_y
_atom_site_fract_z
Si Si1 0.057263 0.606821 0.785826
Si Si2 0.600953 0.919792 0.345929
Si Si3 0.496658 0.608112 0.656235
Si Si4 0.273859 0.184134 0.090593
Si Si5 0.740643 0.147135 0.088914
Si Si6 0.110703 0.833963 0.197486
O O1 0.204812 0.397111 0.664456
O O2 0.876656 0.698109 0.790272
O O3 0.978903 0.885125 0.759860
O O4 0.173542 0.429661 0.959040
O O5 0.500000 0.000000 0.500000
O O6 0.635033 0.078462 0.352883
O O7 0.458171 0.038012 0.191433
O O8 0.500000 0.500000 0.500000
O O9 0.416496 0.606457 0.804991
O O10 0.707580 0.427379 0.690520
O O11 0.308267 0.971167 0.997809
O O12 0.944690 0.894404 0.187836
O O13 0.797663 0.221922 0.963795
#
# Coordination Sequence:
#
# PCOD9043612 Si02
#       6
#     2   2   2   2   2   2
#     4  10  23  45  73 102 132 175 237 287 336 399
#     4  12  29  46  69 101 143 188 226 278 346 414
#     4  12  29  47  66 103 147 185 222 278 351 415
#     4  10  23  45  76 101 133 177 240 288 338 396
#     4  10  23  45  75 102 136 176 233 284 344 396
#     4  10  25  44  74 106 134 175 234 287 343 401
#
# _framework density 24.797937000000001
#
# number of rings (size 3 to 8) (size 9 to 14) (size 15 to 20)
#    0.000    1.333    1.667    1.000   16.333    1.333 
#    0.000    0.000    0.000    0.000    0.000    0.000 
#    0.000    0.000    0.000    0.000    0.000    0.000 
#
# Total GULP energy -67144.485616 kJ/mol
# GULP energy per Si atom -5595.373801 kJ/mol
# Density = 2.474150 g / cm^3
# Si number density = 24.797937 Si / 1000 Ang^3
#
#
#
# Elastic Constant Matrix: (Units=GPa)
#
#
# Indices 1 2 3 4 5 6 
#
# 1 101.6228 45.7560 34.1887 26.4140 6.5869 -14.8980
# 2 45.7560 130.8832 37.1351 40.1433 -6.5482 -16.4503
# 3 34.1887 37.1351 60.4045 34.8243 5.9138 -17.7651
# 4 26.4140 40.1433 34.8243 39.0910 -6.4151 -4.2039
# 5 6.5869 -6.5482 5.9138 -6.4151 34.7598 0.5355
# 6 -14.8980 -16.4503 -17.7651 -4.2039 0.5355 55.0173
#
#
#
# Elastic Compliance Matrix: (Units=1/GPa)
#
#
# Indices 1 2 3 4 5 6 
#
# 1 0.013535 -0.002534 -0.002573 -0.004635 -0.003487 0.001756
# 2 -0.002534 0.011992 0.001404 -0.011534 0.000334 0.002468
# 3 -0.002573 0.001404 0.046446 -0.042314 -0.015138 0.011635
# 4 -0.004635 -0.011534 -0.042314 0.080350 0.020925 -0.012431
# 5 -0.003487 0.000334 -0.015138 0.020925 0.035999 -0.004484
# 6 0.001756 0.002468 0.011635 -0.012431 -0.004484 0.022241
#
#
# Mechanical properties :
#
#
# Convention : Reuss Voigt Hill
#
# Bulk Modulus (GPa) = 15.48739 58.56335 37.02537
# Shear Modulus (GPa) = 20.87763 37.49566 29.18665
#
# Velocity S-wave (km/s) = 2.90472 3.89272 3.43443
# Velocity P-wave (km/s) = 4.18436 6.62359 5.53989
#
# Compressibility (1/GPa) = 0.06456864
#
# Stress axis : x y z
#
# Youngs Moduli (GPa) = 73.88241 83.38716 21.53016
#
# Poissons Ratio (x) = 0.21129 0.05540
# Poissons Ratio (y) = 0.18721 -0.03024
# Poissons Ratio (z) = 0.19011 -0.11711
#
# Static dielectric constant tensor:
#      x y z
#    x 2.198950 -0.016370 -0.102490 
#    y -0.016370 2.018860 -0.076440 
#    z -0.102490 -0.076440 2.136710 
# 
# From -- ./inp_files/239838.got.cif
#   From: 2010.05.17/outbox.cif.g08.bks.cpg/sg2_120_cif.got.tgz:239838.got - 2010.06.03 11:33:40.
