data_PCOD9043247
_publ_section_title
;
Structure prediction by ZEFSAII (Michael W. Deem and Ramdas Pophale) SiO2 
 PCOD9043247
Probable space group: P -1
;
_chemical_formula_sum "Si O2"
_cell_formula_units_Z 16
_cell_length_a 9.337875
_cell_length_b 8.857405
_cell_length_c 23.352823
_cell_angle_alpha 151.882428
_cell_angle_beta 129.614377
_cell_angle_gamma 59.616881
_cell_volume 692.667114
_symmetry_space_group_name_H-M "P -1"
_symmetry_group_IT_number 2
_symmetry_cell_setting 'triclinic'
loop_
_space_group_symop_operation_xyz
x,y,z
-x,-y,-z
loop_
_atom_site_type_symbol
_atom_site_label
_atom_site_fract_x
_atom_site_fract_y
_atom_site_fract_z
Si Si1 0.569625 0.169365 0.633924
Si Si2 0.355860 0.743101 0.913424
Si Si3 0.295814 0.324808 0.410535
Si Si4 0.173038 0.975936 0.493733
Si Si5 0.710163 0.878237 0.861339
Si Si6 0.937263 0.751116 0.778787
Si Si7 0.082406 0.796439 0.582448
Si Si8 0.564630 0.763679 0.153121
O O1 0.673717 0.522428 0.761270
O O2 0.500000 0.000000 0.500000
O O3 0.676728 0.932519 0.619182
O O4 0.374559 0.190292 0.625882
O O5 0.442237 0.423863 0.850055
O O6 0.153993 0.696249 0.813860
O O7 0.500000 0.000000 0.000000
O O8 0.307156 0.892104 0.012257
O O9 0.500000 0.500000 0.500000
O O10 0.152196 0.131026 0.262357
O O11 0.201895 0.629974 0.510611
O O12 0.191194 0.601608 0.368412
O O13 0.000000 0.000000 0.500000
O O14 0.089563 0.067896 0.443530
O O15 0.895995 0.931842 0.887015
O O16 0.554552 0.950748 0.798226
O O17 0.000000 0.500000 0.500000
O O18 0.219369 0.074130 0.742408
O O19 0.500000 0.500000 0.000000
#
# Coordination Sequence:
#
# PCOD9043247 Si02
#       8
#     2   2   2   2   2   2   2   2
#     4  12  23  43  68 105 140 178 231 285 354 425
#     4  11  27  47  73 101 134 188 239 290 346 422
#     4  12  24  41  66 102 140 183 225 288 354 418
#     4  12  23  39  65  98 139 180 222 287 349 410
#     4  11  25  45  71  98 137 186 230 289 351 420
#     4  12  24  46  66  99 140 181 232 284 355 413
#     4  12  24  39  67 103 135 180 233 289 349 413
#     4  10  23  45  69  98 139 183 230 288 354 418
#
# _framework density 23.099119000000002
#
# number of rings (size 3 to 8) (size 9 to 14) (size 15 to 20)
#    0.000    0.500    5.000    3.375    1.750    4.000 
#    0.000    3.750    0.000    0.000    0.000    0.000 
#    0.000    0.000    0.000    0.000    0.000    0.000 
#
# Total GULP energy -89356.580626 kJ/mol
# GULP energy per Si atom -5584.786289 kJ/mol
# Density = 2.304654 g / cm^3
# Si number density = 23.099119 Si / 1000 Ang^3
#
#
#
# Elastic Constant Matrix: (Units=GPa)
#
#
# Indices 1 2 3 4 5 6 
#
# 1 92.7764 22.2335 12.5333 -14.0987 3.2387 4.8931
# 2 22.2335 213.8461 34.6096 -9.8944 19.4563 10.4583
# 3 12.5333 34.6096 76.8517 -10.2249 7.0564 12.9478
# 4 -14.0987 -9.8944 -10.2249 40.5890 1.9413 2.4083
# 5 3.2387 19.4563 7.0564 1.9413 39.0651 2.5761
# 6 4.8931 10.4583 12.9478 2.4083 2.5761 33.1799
#
#
#
# Elastic Compliance Matrix: (Units=1/GPa)
#
#
# Indices 1 2 3 4 5 6 
#
# 1 0.011745 -0.000805 -0.000760 0.003802 -0.000531 -0.001417
# 2 -0.000805 0.005331 -0.001849 0.000704 -0.002242 -0.000717
# 3 -0.000760 -0.001849 0.015524 0.003601 -0.001637 -0.005497
# 4 0.003802 0.000704 0.003601 0.027388 -0.002414 -0.003988
# 5 -0.000531 -0.002242 -0.001637 -0.002414 0.027208 -0.000514
# 6 -0.001417 -0.000717 -0.005497 -0.003988 -0.000514 0.033048
#
#
# Mechanical properties :
#
#
# Convention : Reuss Voigt Hill
#
# Bulk Modulus (GPa) = 38.80055 58.02523 48.41289
# Shear Modulus (GPa) = 36.85593 43.50665 40.18129
#
# Velocity S-wave (km/s) = 3.99877 4.34461 4.17528
# Velocity P-wave (km/s) = 6.17690 7.09522 6.65193
#
# Compressibility (1/GPa) = 0.02577283
#
# Stress axis : x y z
#
# Youngs Moduli (GPa) = 85.14232 187.58877 64.41535
#
# Poissons Ratio (x) = 0.15094 0.04895
# Poissons Ratio (y) = 0.06851 0.11911
# Poissons Ratio (z) = 0.06469 0.34688
#
# Static dielectric constant tensor:
#      x y z
#    x 3.290240 -0.736590 -0.425370 
#    y -0.736590 2.330460 0.180110 
#    z -0.425370 0.180110 1.968030 
# 
# From -- ./inp_files/606955.got.cif
#   From: 2010.05.17/outbox.cif.g08.bks.cpg/sg2_304_cif.got.tgz:606955.got - 2010.06.03 11:33:40.
