data_PCOD9043064
_publ_section_title
;
Structure prediction by ZEFSAII (Michael W. Deem and Ramdas Pophale) SiO2 
 PCOD9043064
Probable space group: P -1
;
_chemical_formula_sum "Si O2"
_cell_formula_units_Z 14
_cell_length_a 5.134917
_cell_length_b 19.756923
_cell_length_c 11.509837
_cell_angle_alpha 33.030343
_cell_angle_beta 110.796779
_cell_angle_gamma 98.386451
_cell_volume 567.987269
_symmetry_space_group_name_H-M "P -1"
_symmetry_group_IT_number 2
_symmetry_cell_setting 'triclinic'
loop_
_space_group_symop_operation_xyz
x,y,z
-x,-y,-z
loop_
_atom_site_type_symbol
_atom_site_label
_atom_site_fract_x
_atom_site_fract_y
_atom_site_fract_z
Si Si1 0.964351 0.512743 0.340115
Si Si2 0.640587 0.776338 0.816498
Si Si3 0.704735 0.009277 0.370208
Si Si4 0.628501 0.959330 0.950327
Si Si5 0.163737 0.798370 0.383054
Si Si6 0.389187 0.423950 0.341244
Si Si7 0.735662 0.384532 0.132626
O O1 0.760518 0.573182 0.563783
O O2 0.000000 0.500000 0.500000
O O3 0.674083 0.473416 0.323725
O O4 0.906484 0.660568 0.074077
O O5 0.530486 0.880845 0.751294
O O6 0.406579 0.708940 0.829137
O O7 0.695245 0.862136 0.595977
O O8 0.624048 0.048181 0.168084
O O9 0.000000 0.000000 0.500000
O O10 0.776535 0.066298 0.770296
O O11 0.903477 0.833125 0.198216
O O12 0.500000 0.000000 0.000000
O O13 0.468858 0.713164 0.499157
O O14 0.093722 0.713547 0.599565
O O15 0.160531 0.530752 0.070352
O O16 0.500000 0.500000 0.000000
#
# Coordination Sequence:
#
# PCOD9043064 Si02
#       7
#     2   2   2   2   2   2   2
#     4  11  25  45  68 106 145 194 245 308 384 461
#     4  10  24  44  70 100 143 191 253 304 376 451
#     4  11  26  45  71 102 144 201 252 312 374 451
#     4  11  26  42  71 106 146 201 252 322 376 449
#     4  10  23  45  68 104 153 185 252 314 384 447
#     4  10  24  43  73 106 144 194 244 309 384 455
#     4   9  19  44  73 105 140 192 245 309 376 453
#
# _framework density 24.648439
#
# number of rings (size 3 to 8) (size 9 to 14) (size 15 to 20)
#    0.000    1.714    1.429    0.429   10.000    1.143 
#    0.000    6.429    0.000    0.000    0.000    0.000 
#    0.000    0.000    0.000    0.000    0.000    0.000 
#
# Total GULP energy -78246.948618 kJ/mol
# GULP energy per Si atom -5589.067758 kJ/mol
# Density = 2.459234 g / cm^3
# Si number density = 24.648439 Si / 1000 Ang^3
#
#
#
# Elastic Constant Matrix: (Units=GPa)
#
#
# Indices 1 2 3 4 5 6 
#
# 1 89.6032 13.1088 26.3421 8.0662 1.7184 -16.9766
# 2 13.1088 81.7467 49.6416 24.2887 -0.5513 -9.6385
# 3 26.3421 49.6416 175.9808 12.4834 6.0521 -12.2017
# 4 8.0662 24.2887 12.4834 57.2247 -0.5872 -4.1729
# 5 1.7184 -0.5513 6.0521 -0.5872 22.3573 10.5550
# 6 -16.9766 -9.6385 -12.2017 -4.1729 10.5550 32.4930
#
#
#
# Elastic Compliance Matrix: (Units=1/GPa)
#
#
# Indices 1 2 3 4 5 6 
#
# 1 0.013157 -0.000245 -0.001150 -0.000986 -0.004345 0.007654
# 2 -0.000245 0.016868 -0.004129 -0.006041 0.000225 0.002476
# 3 -0.001150 -0.004129 0.007214 0.000448 -0.002833 0.001861
# 4 -0.000986 -0.006041 0.000448 0.020111 0.000147 0.000396
# 5 -0.004345 0.000225 -0.002833 0.000147 0.055953 -0.021424
# 6 0.007654 0.002476 0.001861 0.000396 -0.021424 0.043219
#
#
# Mechanical properties :
#
#
# Convention : Reuss Voigt Hill
#
# Bulk Modulus (GPa) = 38.18252 58.39064 48.28658
# Shear Modulus (GPa) = 28.36074 39.63090 33.99582
#
# Velocity S-wave (km/s) = 3.39574 4.01415 3.71782
# Velocity P-wave (km/s) = 5.55871 6.72498 6.16946
#
# Compressibility (1/GPa) = 0.02619000
#
# Stress axis : x y z
#
# Youngs Moduli (GPa) = 76.00751 59.28341 138.61811
#
# Poissons Ratio (x) = 0.01454 0.15943
# Poissons Ratio (y) = 0.01864 0.57236
# Poissons Ratio (z) = 0.08742 0.24478
#
# Static dielectric constant tensor:
#      x y z
#    x 2.011910 0.057520 0.008160 
#    y 0.057520 2.008220 0.012180 
#    z 0.008160 0.012180 1.994140 
# 
# From -- ./inp_files/370309.got.cif
#   From: 2010.05.17/outbox.cif.g08.bks.cpg/sg2_186_cif.got.tgz:370309.got - 2010.06.03 11:33:40.
