data_PCOD9043817
_publ_section_title
;
Structure prediction by ZEFSAII (Michael W. Deem and Ramdas Pophale) SiO2 
 PCOD9043817
Probable space group: P -1
;
_chemical_formula_sum "Si O2"
_cell_formula_units_Z 12
_cell_length_a 6.937099
_cell_length_b 5.050802
_cell_length_c 16.063873
_cell_angle_alpha 80.586203
_cell_angle_beta 56.742232
_cell_angle_gamma 71.457085
_cell_volume 446.181767
_symmetry_space_group_name_H-M "P -1"
_symmetry_group_IT_number 2
_symmetry_cell_setting 'triclinic'
loop_
_space_group_symop_operation_xyz
x,y,z
-x,-y,-z
loop_
_atom_site_type_symbol
_atom_site_label
_atom_site_fract_x
_atom_site_fract_y
_atom_site_fract_z
Si Si1 0.142134 0.580634 0.748774
Si Si2 0.234409 0.929186 0.257956
Si Si3 0.565101 0.974104 0.333806
Si Si4 0.522704 0.688759 0.043910
Si Si5 0.031640 0.684059 0.039923
Si Si6 0.104120 0.193725 0.525499
O O1 0.276877 0.810891 0.731226
O O2 0.096004 0.387442 0.843530
O O3 0.889289 0.766850 0.765917
O O4 0.303493 0.350465 0.661468
O O5 0.412197 0.958763 0.287636
O O6 0.365922 0.725257 0.164414
O O7 0.015241 0.837908 0.356679
O O8 0.384358 0.103590 0.444356
O O9 0.810504 0.621132 0.026990
O O10 0.679812 0.376114 0.979224
O O11 0.500000 0.000000 0.000000
O O12 0.000000 0.000000 0.000000
O O13 0.000000 0.500000 0.500000
O O14 0.000000 0.000000 0.500000
#
# Coordination Sequence:
#
# PCOD9043817 Si02
#       6
#     2   2   2   2   2   2
#     4  12  27  46  79 111 152 204 258 312 390 465
#     4  11  27  51  80 109 157 207 253 325 384 453
#     4  11  26  48  76 116 153 196 260 316 386 463
#     4  12  27  48  73 105 146 195 257 309 378 458
#     4  12  26  47  71 105 149 193 254 323 375 448
#     4  10  23  45  76 112 152 198 252 314 386 458
#
# _framework density 26.894871999999999
#
# number of rings (size 3 to 8) (size 9 to 14) (size 15 to 20)
#    0.000    0.667    1.667    5.000    2.333   12.000 
#    0.000    0.000    0.000    0.000    0.000    0.000 
#    0.000    0.000    0.000    0.000    0.000    0.000 
#
# Total GULP energy -67220.100060 kJ/mol
# GULP energy per Si atom -5601.675005 kJ/mol
# Density = 2.683366 g / cm^3
# Si number density = 26.894872 Si / 1000 Ang^3
#
#
#
# Elastic Constant Matrix: (Units=GPa)
#
#
# Indices 1 2 3 4 5 6 
#
# 1 219.1556 82.8490 34.6008 -1.3631 -3.9834 10.5339
# 2 82.8490 213.9551 90.1345 7.6235 -3.1798 -4.3506
# 3 34.6008 90.1345 174.2746 12.4606 7.7631 5.0259
# 4 -1.3631 7.6235 12.4606 59.9158 -0.1783 -12.7966
# 5 -3.9834 -3.1798 7.7631 -0.1783 39.1627 -5.7842
# 6 10.5339 -4.3506 5.0259 -12.7966 -5.7842 76.8163
#
#
#
# Elastic Compliance Matrix: (Units=1/GPa)
#
#
# Indices 1 2 3 4 5 6 
#
# 1 0.005407 -0.002123 0.000021 0.000217 0.000255 -0.000808
# 2 -0.002123 0.006889 -0.003216 -0.000046 0.001124 0.000969
# 3 0.000021 -0.003216 0.007615 -0.001407 -0.001932 -0.001063
# 4 0.000217 -0.000046 -0.001407 0.017650 0.000830 0.003062
# 5 0.000255 0.001124 -0.001932 0.000830 0.026375 0.002279
# 6 -0.000808 0.000969 -0.001063 0.003062 0.002279 0.013935
#
#
# Mechanical properties :
#
#
# Convention : Reuss Voigt Hill
#
# Bulk Modulus (GPa) = 107.82725 113.61708 110.72217
# Shear Modulus (GPa) = 54.58623 61.83236 58.20930
#
# Velocity S-wave (km/s) = 4.51001 4.80003 4.65728
# Velocity P-wave (km/s) = 8.20362 8.54734 8.37724
#
# Compressibility (1/GPa) = 0.00927409
#
# Stress axis : x y z
#
# Youngs Moduli (GPa) = 184.94479 145.16258 131.32661
#
# Poissons Ratio (x) = 0.30816 -0.00274
# Poissons Ratio (y) = 0.39262 0.42236
# Poissons Ratio (z) = -0.00385 0.46686
#
# Static dielectric constant tensor:
#      x y z
#    x 2.402030 -0.080860 -0.041950 
#    y -0.080860 2.044160 0.068070 
#    z -0.041950 0.068070 2.091370 
# 
# From -- ./inp_files/585510.got.cif
#   From: 2010.05.17/outbox.cif.g08.bks.cpg/sg2_293_cif.got.tgz:585510.got - 2010.06.03 11:33:40.
