data_PCOD9043167
_publ_section_title
;
Structure prediction by ZEFSAII (Michael W. Deem and Ramdas Pophale) SiO2 
 PCOD9043167
Probable space group: P -1
;
_chemical_formula_sum "Si O2"
_cell_formula_units_Z 8
_cell_length_a 7.785275
_cell_length_b 18.575733
_cell_length_c 6.674873
_cell_angle_alpha 43.635070
_cell_angle_beta 54.325344
_cell_angle_gamma 33.047242
_cell_volume 362.546799
_symmetry_space_group_name_H-M "P -1"
_symmetry_group_IT_number 2
_symmetry_cell_setting 'triclinic'
loop_
_space_group_symop_operation_xyz
x,y,z
-x,-y,-z
loop_
_atom_site_type_symbol
_atom_site_label
_atom_site_fract_x
_atom_site_fract_y
_atom_site_fract_z
Si Si1 0.348337 0.826128 0.613019
Si Si2 0.265868 0.173872 0.386981
Si Si3 0.288514 0.386560 0.876734
Si Si4 0.563351 0.381922 0.345608
O O1 0.591803 0.829703 0.497586
O O2 0.424840 0.729786 0.562537
O O3 0.402437 0.727519 0.962709
O O4 0.000000 0.000000 0.500000
O O5 0.906519 0.270214 0.437463
O O6 0.500000 0.000000 0.500000
O O7 0.275224 0.272481 0.037291
O O8 0.311424 0.460015 0.537093
O O9 0.000000 0.500000 0.000000
O O10 0.500000 0.500000 0.000000
#
# Coordination Sequence:
#
# PCOD9043167 Si02
#       4
#     2   2   2   2
#     4  10  23  45  69 102 142 179 233 289 353 419
#     4  10  23  45  69 102 142 179 233 289 353 419
#     4  10  25  47  67 107 145 176 245 286 332 444
#     4  12  25  45  75 101 143 192 225 290 360 402
#
# _framework density 22.066117999999999
#
# number of rings (size 3 to 8) (size 9 to 14) (size 15 to 20)
#    1.500    0.000    2.500    1.500    0.000   12.000 
#    4.500    2.500    0.000    0.000    0.000    0.000 
#    0.000    0.000    0.000    0.000    0.000    0.000 
#
# Total GULP energy -44598.410541 kJ/mol
# GULP energy per Si atom -5574.801318 kJ/mol
# Density = 2.201589 g / cm^3
# Si number density = 22.066118 Si / 1000 Ang^3
#
#
#
# Elastic Constant Matrix: (Units=GPa)
#
#
# Indices 1 2 3 4 5 6 
#
# 1 169.3890 60.6872 23.7852 5.0574 7.5736 0.9224
# 2 60.6872 151.5912 86.7023 -8.0819 -1.8061 0.8476
# 3 23.7852 86.7023 140.1478 16.7207 -5.3744 -2.3219
# 4 5.0574 -8.0819 16.7207 33.8607 -1.6270 0.0082
# 5 7.5736 -1.8061 -5.3744 -1.6270 22.4036 -11.4336
# 6 0.9224 0.8476 -2.3219 0.0082 -11.4336 34.1730
#
#
#
# Elastic Compliance Matrix: (Units=1/GPa)
#
#
# Indices 1 2 3 4 5 6 
#
# 1 0.007348 -0.003912 0.001373 -0.002864 -0.003234 -0.001089
# 2 -0.003912 0.013584 -0.008699 0.008151 0.000605 -0.000622
# 3 0.001373 -0.008699 0.013459 -0.008813 0.002390 0.001895
# 4 -0.002864 0.008151 -0.008813 0.036361 0.002144 -0.000015
# 5 -0.003234 0.000605 0.002390 0.002144 0.056227 0.019047
# 6 -0.001089 -0.000622 0.001895 -0.000015 0.019047 0.035809
#
#
# Mechanical properties :
#
#
# Convention : Reuss Voigt Hill
#
# Bulk Modulus (GPa) = 83.93782 89.27529 86.60656
# Shear Modulus (GPa) = 26.42197 37.41768 31.91983
#
# Velocity S-wave (km/s) = 3.46410 4.12236 3.80748
# Velocity P-wave (km/s) = 7.35675 7.95012 7.65919
#
# Compressibility (1/GPa) = 0.01191358
#
# Stress axis : x y z
#
# Youngs Moduli (GPa) = 136.08255 73.61835 74.30218
#
# Poissons Ratio (x) = 0.28801 -0.10200
# Poissons Ratio (y) = 0.53237 0.64636
# Poissons Ratio (z) = -0.18681 0.64041
#
# Static dielectric constant tensor:
#      x y z
#    x 1.886220 0.000770 0.003060 
#    y 0.000770 1.803580 -0.021860 
#    z 0.003060 -0.021860 1.842640 
# 
# From -- ./inp_files/4227.got.cif
#   From: 2010.05.17/outbox.cif.g08.bks.cpg/sg2_3_cif.got.tgz:4227.got - 2010.06.03 11:33:40.
