data_PCOD9043707
_publ_section_title
;
Structure prediction by ZEFSAII (Michael W. Deem and Ramdas Pophale) SiO2 
 PCOD9043707
Probable space group: P -1
;
_chemical_formula_sum "Si O2"
_cell_formula_units_Z 16
_cell_length_a 8.581518
_cell_length_b 14.203171
_cell_length_c 11.296192
_cell_angle_alpha 94.846844
_cell_angle_beta 114.705169
_cell_angle_gamma 42.450741
_cell_volume 785.951576
_symmetry_space_group_name_H-M "P -1"
_symmetry_group_IT_number 2
_symmetry_cell_setting 'triclinic'
loop_
_space_group_symop_operation_xyz
x,y,z
-x,-y,-z
loop_
_atom_site_type_symbol
_atom_site_label
_atom_site_fract_x
_atom_site_fract_y
_atom_site_fract_z
Si Si1 0.779831 0.677123 0.428195
Si Si2 0.845761 0.407528 0.630570
Si Si3 0.840470 0.119767 0.732166
Si Si4 0.768329 0.218822 0.203887
Si Si5 0.740904 0.350780 0.838589
Si Si6 0.158379 0.508750 0.970699
Si Si7 0.100244 0.625887 0.726565
Si Si8 0.305187 0.722873 0.534157
O O1 0.468426 0.783759 0.344544
O O2 0.000000 0.500000 0.500000
O O3 0.862848 0.681957 0.326675
O O4 0.870211 0.709427 0.564112
O O5 0.809870 0.375845 0.742111
O O6 0.619797 0.586286 0.577694
O O7 0.771098 0.355262 0.510483
O O8 0.869637 0.193079 0.842531
O O9 0.859783 0.151537 0.606169
O O10 0.049791 0.945956 0.795440
O O11 0.902106 0.263336 0.224655
O O12 0.726636 0.232745 0.335814
O O13 0.474394 0.344737 0.062339
O O14 0.414870 0.477837 0.766305
O O15 0.846059 0.381542 0.969531
O O16 0.939641 0.433425 0.187927
O O17 0.000000 0.500000 0.000000
#
# Coordination Sequence:
#
# PCOD9043707 Si02
#       8
#     2   2   2   2   2   2   2   2
#     4  12  21  34  63  97 128 156 213 251 306 374
#     4  10  17  33  61  93 117 162 206 256 295 360
#     4  11  24  35  63  98 130 167 194 260 329 368
#     4  11  22  43  60  92 130 166 208 254 321 372
#     4  10  20  41  64  89 126 163 213 250 313 372
#     4  11  26  43  68  91 115 168 225 260 298 368
#     4  11  22  42  64  90 126 170 212 256 298 378
#     4  10  17  34  58  89 126 161 200 248 316 368
#
# _framework density 20.357488
#
# number of rings (size 3 to 8) (size 9 to 14) (size 15 to 20)
#    0.000    1.250    6.250    2.625    3.500    0.500 
#    0.000    4.375    0.000    0.000    0.000    0.000 
#    0.000    0.000    0.000    0.000    0.000    0.000 
#
# Total GULP energy -89271.218139 kJ/mol
# GULP energy per Si atom -5579.451134 kJ/mol
# Density = 2.031115 g / cm^3
# Si number density = 20.357488 Si / 1000 Ang^3
#
#
#
# Elastic Constant Matrix: (Units=GPa)
#
#
# Indices 1 2 3 4 5 6 
#
# 1 103.2820 28.6352 24.2593 -1.6500 -8.3152 -1.8072
# 2 28.6352 136.1390 24.3465 -4.3174 2.5920 26.6171
# 3 24.2593 24.3465 43.1894 3.3476 2.1922 1.9963
# 4 -1.6500 -4.3174 3.3476 15.9972 1.2681 -5.0266
# 5 -8.3152 2.5920 2.1922 1.2681 31.3726 4.7958
# 6 -1.8072 26.6171 1.9963 -5.0266 4.7958 25.3510
#
#
#
# Elastic Compliance Matrix: (Units=1/GPa)
#
#
# Indices 1 2 3 4 5 6 
#
# 1 0.012064 -0.002097 -0.006135 0.002814 0.003150 0.003507
# 2 -0.002097 0.010752 -0.004398 0.000044 0.000572 -0.011191
# 3 -0.006135 -0.004398 0.029778 -0.007500 -0.003186 0.000951
# 4 0.002814 0.000044 -0.007500 0.069483 -0.003874 0.015255
# 5 0.003150 0.000572 -0.003186 -0.003874 0.034166 -0.007357
# 6 0.003507 -0.011191 0.000951 0.015255 -0.007357 0.055788
#
#
# Mechanical properties :
#
#
# Convention : Reuss Voigt Hill
#
# Bulk Modulus (GPa) = 36.58365 48.56582 42.57473
# Shear Modulus (GPa) = 20.29200 28.23545 24.26372
#
# Velocity S-wave (km/s) = 3.16061 3.72826 3.45611
# Velocity P-wave (km/s) = 5.59722 6.51471 6.07332
#
# Compressibility (1/GPa) = 0.02733462
#
# Stress axis : x y z
#
# Youngs Moduli (GPa) = 82.88835 93.00954 33.58186
#
# Poissons Ratio (x) = 0.19503 0.20601
# Poissons Ratio (y) = 0.17381 0.14770
# Poissons Ratio (z) = 0.50849 0.40907
#
# Static dielectric constant tensor:
#      x y z
#    x 1.771430 0.025260 -0.019670 
#    y 0.025260 1.744400 0.079030 
#    z -0.019670 0.079030 1.801760 
# 
# From -- ./inp_files/399208.got.cif
#   From: 2010.05.17/outbox.cif.g08.bks.cpg/sg2_200_cif.got.tgz:399208.got - 2010.06.03 11:33:40.
