data_PCOD9043026
_publ_section_title
;
Structure prediction by ZEFSAII (Michael W. Deem and Ramdas Pophale) SiO2 
 PCOD9043026
Probable space group: P -1
;
_chemical_formula_sum "Si O2"
_cell_formula_units_Z 16
_cell_length_a 11.622004
_cell_length_b 14.530247
_cell_length_c 10.980500
_cell_angle_alpha 49.131523
_cell_angle_beta 56.009209
_cell_angle_gamma 29.960478
_cell_volume 700.128909
_symmetry_space_group_name_H-M "P -1"
_symmetry_group_IT_number 2
_symmetry_cell_setting 'triclinic'
loop_
_space_group_symop_operation_xyz
x,y,z
-x,-y,-z
loop_
_atom_site_type_symbol
_atom_site_label
_atom_site_fract_x
_atom_site_fract_y
_atom_site_fract_z
Si Si1 0.249066 0.582658 0.043095
Si Si2 0.288220 0.051939 0.588073
Si Si3 0.412745 0.704958 0.714711
Si Si4 0.475009 0.819092 0.907362
Si Si5 0.233291 0.051256 0.093314
Si Si6 0.153051 0.280351 0.140451
Si Si7 0.844295 0.370761 0.428554
Si Si8 0.337188 0.758292 0.430002
O O1 0.282114 0.700589 0.883735
O O2 0.987877 0.740353 0.026571
O O3 0.330032 0.496355 0.207429
O O4 0.412798 0.384517 0.030749
O O5 0.033701 0.268275 0.507843
O O6 0.500000 0.000000 0.500000
O O7 0.351731 0.888806 0.610464
O O8 0.281359 0.999786 0.772600
O O9 0.353628 0.718401 0.598451
O O10 0.671464 0.784511 0.812406
O O11 0.389995 0.883312 0.040304
O O12 0.295690 0.116623 0.091187
O O13 0.186553 0.974467 0.282554
O O14 0.977717 0.309933 0.279473
O O15 0.000000 0.500000 0.000000
O O16 0.602581 0.609459 0.373764
O O17 0.757999 0.292074 0.541851
#
# Coordination Sequence:
#
# PCOD9043026 Si02
#       8
#     2   2   2   2   2   2   2   2
#     4  10  23  45  69  98 141 180 234 297 345 409
#     4  11  23  46  69 100 140 189 233 282 356 423
#     4  10  23  45  68 100 137 188 234 289 355 410
#     4  11  25  43  68 105 139 181 239 284 349 426
#     4  12  25  42  72 102 136 189 233 286 354 417
#     4  12  23  43  68  96 144 187 226 286 351 412
#     4  11  25  44  71 103 143 183 228 301 344 411
#     4  11  26  43  71 109 138 177 246 285 350 419
#
# _framework density 22.852931999999999
#
# number of rings (size 3 to 8) (size 9 to 14) (size 15 to 20)
#    0.000    1.000    2.500    3.375    5.250    1.500 
#    0.000    3.125    0.000    0.000    0.000    0.000 
#    0.000    0.000    0.000    0.000    0.000    0.000 
#
# Total GULP energy -89273.255181 kJ/mol
# GULP energy per Si atom -5579.578449 kJ/mol
# Density = 2.280092 g / cm^3
# Si number density = 22.852932 Si / 1000 Ang^3
#
#
#
# Elastic Constant Matrix: (Units=GPa)
#
#
# Indices 1 2 3 4 5 6 
#
# 1 97.0422 16.7517 9.9328 -5.0151 7.0627 -5.2328
# 2 16.7517 71.9728 25.5494 0.7148 0.5744 -5.0978
# 3 9.9328 25.5494 78.0112 -6.3993 24.2133 -6.3949
# 4 -5.0151 0.7148 -6.3993 27.4899 -6.1459 3.6028
# 5 7.0627 0.5744 24.2133 -6.1459 40.4965 -8.8864
# 6 -5.2328 -5.0978 -6.3949 3.6028 -8.8864 34.3153
#
#
#
# Elastic Compliance Matrix: (Units=1/GPa)
#
#
# Indices 1 2 3 4 5 6 
#
# 1 0.010970 -0.002542 0.000106 0.001653 -0.001526 0.000746
# 2 -0.002542 0.016944 -0.006531 -0.001747 0.004329 0.002217
# 3 0.000106 -0.006531 0.018404 0.002146 -0.010720 -0.000526
# 4 0.001653 -0.001747 0.002146 0.038401 0.003693 -0.002683
# 5 -0.001526 0.004329 -0.010720 0.003693 0.033329 0.006656
# 6 0.000746 0.002217 -0.000526 -0.002683 0.006656 0.031492
#
#
# Mechanical properties :
#
#
# Convention : Reuss Voigt Hill
#
# Bulk Modulus (GPa) = 35.23117 39.05489 37.14303
# Shear Modulus (GPa) = 28.25906 33.44649 30.85278
#
# Velocity S-wave (km/s) = 3.52029 3.82979 3.67830
# Velocity P-wave (km/s) = 5.65449 6.05666 5.85903
#
# Compressibility (1/GPa) = 0.02838395
#
# Stress axis : x y z
#
# Youngs Moduli (GPa) = 91.16183 59.01759 54.33538
#
# Poissons Ratio (x) = 0.15004 -0.00578
# Poissons Ratio (y) = 0.23176 0.35486
# Poissons Ratio (z) = -0.00970 0.38544
#
# Static dielectric constant tensor:
#      x y z
#    x 1.911880 -0.030400 0.038340 
#    y -0.030400 1.909890 -0.007350 
#    z 0.038340 -0.007350 1.902310 
# 
# From -- ./inp_files/432577.got.cif
#   From: 2010.05.17/outbox.cif.g08.bks.cpg/sg2_217_cif.got.tgz:432577.got - 2010.06.03 11:33:40.
