data_PCOD9043073
_publ_section_title
;
Structure prediction by ZEFSAII (Michael W. Deem and Ramdas Pophale) SiO2 
 PCOD9043073
Probable space group: P -1
;
_chemical_formula_sum "Si O2"
_cell_formula_units_Z 16
_cell_length_a 12.310510
_cell_length_b 9.320042
_cell_length_c 11.943042
_cell_angle_alpha 127.935918
_cell_angle_beta 47.016905
_cell_angle_gamma 136.189914
_cell_volume 673.252194
_symmetry_space_group_name_H-M "P -1"
_symmetry_group_IT_number 2
_symmetry_cell_setting 'triclinic'
loop_
_space_group_symop_operation_xyz
x,y,z
-x,-y,-z
loop_
_atom_site_type_symbol
_atom_site_label
_atom_site_fract_x
_atom_site_fract_y
_atom_site_fract_z
Si Si1 0.704563 0.610153 0.379476
Si Si2 0.849774 0.865296 0.178693
Si Si3 0.218604 0.532962 0.107636
Si Si4 0.152675 0.293281 0.264090
Si Si5 0.350726 0.917085 0.656505
Si Si6 0.598201 0.833676 0.879766
Si Si7 0.079419 0.407301 0.595433
Si Si8 0.393371 0.832537 0.829151
O O1 0.500000 0.500000 0.500000
O O2 0.755205 0.771919 0.319700
O O3 0.828114 0.686905 0.438093
O O4 0.727137 0.419146 0.224745
O O5 0.744777 0.951446 0.225703
O O6 0.854924 0.681998 0.017863
O O7 0.035663 0.069477 0.175909
O O8 0.223859 0.470871 0.203313
O O9 0.090459 0.621796 0.239839
O O10 0.407902 0.696822 0.004805
O O11 0.305806 0.289558 0.220409
O O12 0.044328 0.319102 0.451525
O O13 0.212970 0.664302 0.614910
O O14 0.430467 0.939179 0.733654
O O15 0.500000 0.000000 0.500000
O O16 0.560038 0.861113 0.792168
O O17 0.687266 0.061231 0.987386
#
# Coordination Sequence:
#
# PCOD9043073 Si02
#       8
#     2   2   2   2   2   2   2   2
#     4  11  24  46  73 106 149 188 244 290 369 438
#     4  12  26  45  75 109 144 193 236 305 363 427
#     4  12  26  46  72 108 146 191 244 296 369 425
#     4  12  27  46  72 109 152 182 249 297 368 426
#     4  11  25  43  74 104 145 190 240 291 368 428
#     4  11  25  44  77 102 144 193 239 301 357 428
#     4  11  27  45  71 104 149 189 237 307 351 436
#     4  10  23  45  68 108 137 182 247 291 348 433
#
# _framework density 23.765239000000001
#
# number of rings (size 3 to 8) (size 9 to 14) (size 15 to 20)
#    0.000    0.750    2.500    4.125    7.000    4.000 
#    0.000    0.000    0.000    0.000    0.000    0.000 
#    0.000    0.000    0.000    0.000    0.000    0.000 
#
# Total GULP energy -89619.497724 kJ/mol
# GULP energy per Si atom -5601.218608 kJ/mol
# Density = 2.371115 g / cm^3
# Si number density = 23.765239 Si / 1000 Ang^3
#
#
#
# Elastic Constant Matrix: (Units=GPa)
#
#
# Indices 1 2 3 4 5 6 
#
# 1 154.5717 20.5753 49.7848 -19.5599 7.9488 -37.7415
# 2 20.5753 65.4697 19.3179 -15.8805 7.4016 -10.0585
# 3 49.7848 19.3179 98.2868 -5.9243 4.5325 -1.1524
# 4 -19.5599 -15.8805 -5.9243 40.1787 2.8130 9.7444
# 5 7.9488 7.4016 4.5325 2.8130 48.4088 -5.7126
# 6 -37.7415 -10.0585 -1.1524 9.7444 -5.7126 36.2741
#
#
#
# Elastic Compliance Matrix: (Units=1/GPa)
#
#
# Indices 1 2 3 4 5 6 
#
# 1 0.011106 0.000315 -0.005424 0.002109 -0.000204 0.010872
# 2 0.000315 0.018464 -0.003249 0.006368 -0.002559 0.003231
# 3 -0.005424 -0.003249 0.013490 -0.000418 -0.000570 -0.006093
# 4 0.002109 0.006368 -0.000418 0.029735 -0.003552 -0.004600
# 5 -0.000204 -0.002559 -0.000570 -0.003552 0.021748 0.003439
# 6 0.010872 0.003231 -0.006093 -0.004600 0.003439 0.041359
#
#
# Mechanical properties :
#
#
# Convention : Reuss Voigt Hill
#
# Bulk Modulus (GPa) = 37.95758 55.29824 46.62791
# Shear Modulus (GPa) = 30.97905 40.21568 35.59736
#
# Velocity S-wave (km/s) = 3.61438 4.11811 3.87444
# Velocity P-wave (km/s) = 5.78143 6.77723 6.29903
#
# Compressibility (1/GPa) = 0.02634520
#
# Stress axis : x y z
#
# Youngs Moduli (GPa) = 90.03850 54.15881 74.13069
#
# Poissons Ratio (x) = -0.01705 0.40205
# Poissons Ratio (y) = -0.02834 0.24084
# Poissons Ratio (z) = 0.48833 0.17595
#
# Static dielectric constant tensor:
#      x y z
#    x 1.910590 0.010010 0.023010 
#    y 0.010010 1.902880 0.033090 
#    z 0.023010 0.033090 1.885620 
# 
# From -- ./inp_files/419701.got.cif
#   From: 2010.05.17/outbox.cif.g08.bks.cpg/sg2_210_cif.got.tgz:419701.got - 2010.06.03 11:33:40.
