data_PCOD9043517
_publ_section_title
;
Structure prediction by ZEFSAII (Michael W. Deem and Ramdas Pophale) SiO2 
 PCOD9043517
Probable space group: P -1
;
_chemical_formula_sum "Si O2"
_cell_formula_units_Z 12
_cell_length_a 8.929451
_cell_length_b 9.701294
_cell_length_c 14.106084
_cell_angle_alpha 61.436713
_cell_angle_beta 149.664086
_cell_angle_gamma 120.899337
_cell_volume 527.862545
_symmetry_space_group_name_H-M "P -1"
_symmetry_group_IT_number 2
_symmetry_cell_setting 'triclinic'
loop_
_space_group_symop_operation_xyz
x,y,z
-x,-y,-z
loop_
_atom_site_type_symbol
_atom_site_label
_atom_site_fract_x
_atom_site_fract_y
_atom_site_fract_z
Si Si1 0.078613 0.853153 0.535568
Si Si2 0.125281 0.979471 0.306953
Si Si3 0.813457 0.524359 0.109612
Si Si4 0.225113 0.150003 0.027056
Si Si5 0.325297 0.483627 0.511257
Si Si6 0.931270 0.651536 0.852689
O O1 0.419767 0.842062 0.759388
O O2 0.821312 0.694284 0.474016
O O3 0.060768 0.897694 0.401327
O O4 0.000000 0.000000 0.500000
O O5 0.034528 0.155007 0.187841
O O6 0.500000 0.000000 0.500000
O O7 0.900041 0.871625 0.142061
O O8 0.047626 0.559212 0.312070
O O9 0.892683 0.381931 0.137603
O O10 0.500000 0.500000 0.000000
O O11 0.848191 0.690451 0.018008
O O12 0.000000 0.000000 0.000000
O O13 0.500000 0.500000 0.500000
O O14 0.566378 0.591325 0.674151
O O15 0.000000 0.500000 0.000000
#
# Coordination Sequence:
#
# PCOD9043517 Si02
#       6
#     2   2   2   2   2   2
#     4  12  27  46  76 112 152 201 256 314 389 450
#     4  12  27  50  78 115 154 201 258 315 384 462
#     4  11  23  46  71 104 143 192 249 305 374 448
#     4  12  26  46  79 108 154 200 250 317 387 453
#     4  10  23  45  71  99 146 196 243 307 374 445
#     4  11  26  46  76 105 149 198 249 308 381 448
#
# _framework density 22.73319
#
# number of rings (size 3 to 8) (size 9 to 14) (size 15 to 20)
#    0.000    0.667    3.333    4.000    7.000    2.000 
#    0.000    2.500    0.000    0.000    0.000    0.000 
#    0.000    0.000    0.000    0.000    0.000    0.000 
#
# Total GULP energy -66805.303003 kJ/mol
# GULP energy per Si atom -5567.108584 kJ/mol
# Density = 2.268145 g / cm^3
# Si number density = 22.733190 Si / 1000 Ang^3
#
#
#
# Elastic Constant Matrix: (Units=GPa)
#
#
# Indices 1 2 3 4 5 6 
#
# 1 107.4496 48.5424 33.2801 -3.8399 -15.9156 18.7973
# 2 48.5424 163.8805 21.6908 -26.5893 6.2508 1.7244
# 3 33.2801 21.6908 123.0453 -3.1572 -8.2845 -12.8847
# 4 -3.8399 -26.5893 -3.1572 44.7640 2.7136 5.8224
# 5 -15.9156 6.2508 -8.2845 2.7136 43.1883 -5.3325
# 6 18.7973 1.7244 -12.8847 5.8224 -5.3325 50.4028
#
#
#
# Elastic Compliance Matrix: (Units=1/GPa)
#
#
# Indices 1 2 3 4 5 6 
#
# 1 0.013581 -0.003854 -0.003269 -0.000943 0.004353 -0.005200
# 2 -0.003854 0.008168 -0.000457 0.004643 -0.002958 0.000192
# 3 -0.003269 -0.000457 0.009565 -0.000452 0.001201 0.003860
# 4 -0.000943 0.004643 -0.000452 0.025591 -0.003110 -0.003208
# 5 0.004353 -0.002958 0.001201 -0.003110 0.025844 0.001879
# 6 -0.005200 0.000192 0.003860 -0.003208 0.001879 0.023329
#
#
# Mechanical properties :
#
#
# Convention : Reuss Voigt Hill
#
# Bulk Modulus (GPa) = 61.90937 66.82243 64.36590
# Shear Modulus (GPa) = 39.48644 47.06184 43.27414
#
# Velocity S-wave (km/s) = 4.17220 4.55486 4.36772
# Velocity P-wave (km/s) = 7.10646 7.55780 7.33560
#
# Compressibility (1/GPa) = 0.01615264
#
# Stress axis : x y z
#
# Youngs Moduli (GPa) = 73.63064 122.42193 104.54298
#
# Poissons Ratio (x) = 0.47186 0.34180
# Poissons Ratio (y) = 0.28380 0.04782
# Poissons Ratio (z) = 0.24073 0.05600
#
# Static dielectric constant tensor:
#      x y z
#    x 1.770450 -0.133790 0.008110 
#    y -0.133790 1.909360 0.028180 
#    z 0.008110 0.028180 1.920440 
# 
# From -- ./inp_files/402889.got.cif
#   From: 2010.05.17/outbox.cif.g08.bks.cpg/sg2_202_cif.got.tgz:402889.got - 2010.06.03 11:33:40.
