data_PCOD9043328
_publ_section_title
;
Structure prediction by ZEFSAII (Michael W. Deem and Ramdas Pophale) SiO2 
 PCOD9043328
Probable space group: P -1
;
_chemical_formula_sum "Si O2"
_cell_formula_units_Z 16
_cell_length_a 9.017504
_cell_length_b 15.587008
_cell_length_c 5.460822
_cell_angle_alpha 102.864238
_cell_angle_beta 84.451760
_cell_angle_gamma 122.406753
_cell_volume 631.512158
_symmetry_space_group_name_H-M "P -1"
_symmetry_group_IT_number 2
_symmetry_cell_setting 'triclinic'
loop_
_space_group_symop_operation_xyz
x,y,z
-x,-y,-z
loop_
_atom_site_type_symbol
_atom_site_label
_atom_site_fract_x
_atom_site_fract_y
_atom_site_fract_z
Si Si1 0.425101 0.435076 0.720284
Si Si2 0.128425 0.229943 0.144003
Si Si3 0.453750 0.059837 0.249503
Si Si4 0.042243 0.960663 0.224363
Si Si5 0.129675 0.602385 0.695315
Si Si6 0.054755 0.346793 0.895840
Si Si7 0.817304 0.194763 0.474956
Si Si8 0.484021 0.283315 0.369313
O O1 0.500000 0.500000 0.500000
O O2 0.215637 0.389971 0.714120
O O3 0.468505 0.343188 0.647499
O O4 0.500000 0.500000 0.000000
O O5 0.306878 0.254915 0.244532
O O6 0.954825 0.172702 0.305382
O O7 0.140221 0.332388 0.115223
O O8 0.090398 0.161270 0.865319
O O9 0.618185 0.098762 0.437539
O O10 0.475332 0.174077 0.294097
O O11 0.241964 0.990622 0.247646
O O12 0.500000 0.000000 0.000000
O O13 0.000000 0.000000 0.500000
O O14 0.000000 0.000000 0.000000
O O15 0.161135 0.704117 0.603972
O O16 0.328011 0.631443 0.719684
O O17 0.000000 0.500000 0.500000
O O18 0.035955 0.594738 0.959475
O O19 0.890420 0.238943 0.757470
#
# Coordination Sequence:
#
# PCOD9043328 Si02
#       8
#     2   2   2   2   2   2   2   2
#     4  12  27  48  78 112 151 201 262 326 388 461
#     4  11  23  45  75 106 153 195 258 321 382 456
#     4  11  24  48  76 112 156 206 252 318 390 465
#     4  12  28  48  78 114 153 198 266 321 382 459
#     4  10  24  45  69 103 149 196 251 316 390 463
#     4  11  25  45  73 102 149 202 248 321 389 458
#     4  10  23  45  70 104 148 195 255 310 389 459
#     4  11  24  46  76 113 153 199 263 317 389 463
#
# _framework density 25.336010999999999
#
# number of rings (size 3 to 8) (size 9 to 14) (size 15 to 20)
#    0.000    1.000    3.750    1.500    7.000    1.500 
#    9.000    1.250    0.000    0.000    0.000    0.000 
#    0.000    0.000    0.000    0.000    0.000    0.000 
#
# Total GULP energy -89325.580568 kJ/mol
# GULP energy per Si atom -5582.848786 kJ/mol
# Density = 2.527834 g / cm^3
# Si number density = 25.336011 Si / 1000 Ang^3
#
#
#
# Elastic Constant Matrix: (Units=GPa)
#
#
# Indices 1 2 3 4 5 6 
#
# 1 219.8421 57.2956 83.8740 11.1218 -6.6604 47.4900
# 2 57.2956 106.2641 38.7775 19.5114 -9.6412 17.1829
# 3 83.8740 38.7775 176.3806 38.2157 -15.8839 11.5254
# 4 11.1218 19.5114 38.2157 47.3002 0.1935 4.6334
# 5 -6.6604 -9.6412 -15.8839 0.1935 57.2421 0.0566
# 6 47.4900 17.1829 11.5254 4.6334 0.0566 54.9898
#
#
#
# Elastic Compliance Matrix: (Units=1/GPa)
#
#
# Indices 1 2 3 4 5 6 
#
# 1 0.007382 -0.002460 -0.003184 0.002357 -0.000442 -0.005137
# 2 -0.002460 0.011938 -0.000378 -0.003930 0.001634 -0.001197
# 3 -0.003184 -0.000378 0.008708 -0.006293 0.002002 0.001571
# 4 0.002357 -0.003930 -0.006293 0.027479 -0.002225 -0.001801
# 5 -0.000442 0.001634 0.002002 -0.002225 0.018257 -0.000380
# 6 -0.005137 -0.001197 0.001571 -0.001801 -0.000380 0.022819
#
#
# Mechanical properties :
#
#
# Convention : Reuss Voigt Hill
#
# Bulk Modulus (GPa) = 62.56411 95.82011 79.19211
# Shear Modulus (GPa) = 43.87722 53.40908 48.64315
#
# Velocity S-wave (km/s) = 4.16602 4.59631 4.38644
# Velocity P-wave (km/s) = 6.92014 8.12834 7.54845
#
# Compressibility (1/GPa) = 0.01598360
#
# Stress axis : x y z
#
# Youngs Moduli (GPa) = 135.46807 83.76322 114.83897
#
# Poissons Ratio (x) = 0.20609 0.36566
# Poissons Ratio (y) = 0.33330 0.04338
# Poissons Ratio (z) = 0.43134 0.03164
#
# Static dielectric constant tensor:
#      x y z
#    x 1.798410 0.157280 0.244630 
#    y 0.157280 1.898800 -0.283000 
#    z 0.244630 -0.283000 1.715610 
# 
# From -- ./inp_files/48932.got.cif
#   From: 2010.05.17/outbox.cif.g08.bks.cpg/sg2_25_cif.got.tgz:48932.got - 2010.06.03 11:33:40.
