data_PCOD9043236
_publ_section_title
;
Structure prediction by ZEFSAII (Michael W. Deem and Ramdas Pophale) SiO2 
 PCOD9043236
Probable space group: P -1
;
_chemical_formula_sum "Si O2"
_cell_formula_units_Z 16
_cell_length_a 7.537826
_cell_length_b 13.101869
_cell_length_c 14.426867
_cell_angle_alpha 30.899459
_cell_angle_beta 73.215465
_cell_angle_gamma 82.026752
_cell_volume 683.049358
_symmetry_space_group_name_H-M "P -1"
_symmetry_group_IT_number 2
_symmetry_cell_setting 'triclinic'
loop_
_space_group_symop_operation_xyz
x,y,z
-x,-y,-z
loop_
_atom_site_type_symbol
_atom_site_label
_atom_site_fract_x
_atom_site_fract_y
_atom_site_fract_z
Si Si1 0.118660 0.712568 0.969670
Si Si2 0.496857 0.866332 0.696002
Si Si3 0.501754 0.590279 0.198594
Si Si4 0.449833 0.970384 0.824188
Si Si5 0.996339 0.092586 0.667376
Si Si6 0.762324 0.662229 0.715464
Si Si7 0.814995 0.593990 0.461127
Si Si8 0.686663 0.367819 0.479468
O O1 0.281935 0.739384 0.844139
O O2 0.239382 0.831037 0.946916
O O3 0.967319 0.847838 0.865755
O O4 0.085291 0.474369 0.180357
O O5 0.661167 0.743290 0.753221
O O6 0.500000 0.000000 0.500000
O O7 0.531649 0.986083 0.694268
O O8 0.410753 0.480775 0.203768
O O9 0.336342 0.537298 0.342395
O O10 0.658716 0.478176 0.302007
O O11 0.546988 0.830564 0.984449
O O12 0.491358 0.204867 0.663899
O O13 0.141569 0.160769 0.507000
O O14 0.105761 0.191159 0.667033
O O15 0.833941 0.219069 0.578742
O O16 0.737675 0.549166 0.404165
O O17 0.000000 0.500000 0.500000
#
# Coordination Sequence:
#
# PCOD9043236 Si02
#       8
#     2   2   2   2   2   2   2   2
#     4   9  19  32  56  81 106 141 185 231 268 322
#     4  10  17  33  60  87 110 143 190 235 273 324
#     4  10  20  35  58  84 111 147 181 231 280 332
#     4   9  21  34  55  85 111 141 187 228 279 328
#     4  10  20  36  55  80 111 146 188 229 277 326
#     4  10  18  35  58  81 110 145 189 230 272 325
#     4   9  20  37  60  83 108 147 189 229 279 332
#     4  11  21  37  56  79 115 151 182 231 282 335
#
# _framework density 23.424368999999999
#
# number of rings (size 3 to 8) (size 9 to 14) (size 15 to 20)
#    0.750    1.500    1.250    3.000    0.000    1.500 
#    0.000    3.125    0.000   23.250    0.000    0.000 
#    0.000    0.000    0.000    0.000    0.000    0.000 
#
# Total GULP energy -89134.060559 kJ/mol
# GULP energy per Si atom -5570.878785 kJ/mol
# Density = 2.337105 g / cm^3
# Si number density = 23.424369 Si / 1000 Ang^3
#
#
#
# Elastic Constant Matrix: (Units=GPa)
#
#
# Indices 1 2 3 4 5 6 
#
# 1 54.3426 18.3822 10.5293 0.2140 23.3912 -23.1140
# 2 18.3822 60.2284 12.0498 -8.8475 15.1051 -21.8944
# 3 10.5293 12.0498 118.1835 -29.6025 36.2454 -2.9231
# 4 0.2140 -8.8475 -29.6025 19.8114 -7.6914 11.3960
# 5 23.3912 15.1051 36.2454 -7.6914 32.4433 -8.2611
# 6 -23.1140 -21.8944 -2.9231 11.3960 -8.2611 30.5537
#
#
#
# Elastic Compliance Matrix: (Units=1/GPa)
#
#
# Indices 1 2 3 4 5 6 
#
# 1 0.058723 0.005621 -0.008776 -0.059178 -0.033761 0.060556
# 2 0.005621 0.024513 -0.001015 -0.007099 -0.010534 0.021520
# 3 -0.008776 -0.001015 0.026083 0.047369 -0.018094 -0.027431
# 4 -0.059178 -0.007099 0.047369 0.186916 0.008668 -0.112697
# 5 -0.033761 -0.010534 -0.018094 0.008668 0.078021 -0.016958
# 6 0.060556 0.021520 -0.027431 -0.112697 -0.016958 0.128786
#
#
# Mechanical properties :
#
#
# Convention : Reuss Voigt Hill
#
# Bulk Modulus (GPa) = 9.90318 34.96415 22.43366
# Shear Modulus (GPa) = 9.17361 29.34788 19.26074
#
# Velocity S-wave (km/s) = 1.98110 3.54344 2.87061
# Velocity P-wave (km/s) = 3.07732 5.63029 4.53707
#
# Compressibility (1/GPa) = 0.10097767
#
# Stress axis : x y z
#
# Youngs Moduli (GPa) = 17.02914 40.79394 38.33977
#
# Poissons Ratio (x) = -0.22928 0.33647
# Poissons Ratio (y) = -0.09571 0.03892
# Poissons Ratio (z) = 0.14945 0.04142
#
# Static dielectric constant tensor:
#      x y z
#    x 2.041690 -0.021020 0.011640 
#    y -0.021020 1.880680 -0.044070 
#    z 0.011640 -0.044070 1.889520 
# 
# From -- ./inp_files/502516.got.cif
#   From: 2010.05.17/outbox.cif.g08.bks.cpg/sg2_252_cif.got.tgz:502516.got - 2010.06.03 11:33:40.
