data_PCOD9043388
_publ_section_title
;
Structure prediction by ZEFSAII (Michael W. Deem and Ramdas Pophale) SiO2 
 PCOD9043388
Probable space group: P -1
;
_chemical_formula_sum "Si O2"
_cell_formula_units_Z 16
_cell_length_a 7.809121
_cell_length_b 18.671275
_cell_length_c 14.592277
_cell_angle_alpha 150.010557
_cell_angle_beta 50.235972
_cell_angle_gamma 106.115761
_cell_volume 567.808684
_symmetry_space_group_name_H-M "P -1"
_symmetry_group_IT_number 2
_symmetry_cell_setting 'triclinic'
loop_
_space_group_symop_operation_xyz
x,y,z
-x,-y,-z
loop_
_atom_site_type_symbol
_atom_site_label
_atom_site_fract_x
_atom_site_fract_y
_atom_site_fract_z
Si Si1 0.834284 0.298104 0.710336
Si Si2 0.505463 0.868395 0.558765
Si Si3 0.731687 0.205981 0.190315
Si Si4 0.620722 0.641685 0.698662
Si Si5 0.525680 0.161024 0.660787
Si Si6 0.343411 0.253923 0.020406
Si Si7 0.421130 0.450374 0.741865
Si Si8 0.121629 0.188124 0.297501
O O1 0.834888 0.122311 0.514130
O O2 0.075154 0.230650 0.470707
O O3 0.500000 0.500000 0.000000
O O4 0.811636 0.363710 0.897101
O O5 0.615582 0.754220 0.296780
O O6 0.644074 0.689819 0.381227
O O7 0.547945 0.017526 0.707009
O O8 0.114938 0.043562 0.892849
O O9 0.626938 0.293509 0.220238
O O10 0.499569 0.408147 0.559081
O O11 0.702914 0.046332 0.035373
O O12 0.512483 0.703462 0.909171
O O13 0.726373 0.752509 0.747629
O O14 0.964964 0.405962 0.330269
O O15 0.500000 0.000000 0.500000
O O16 0.353888 0.296282 0.959278
O O17 0.770156 0.324565 0.525632
#
# Coordination Sequence:
#
# PCOD9043388 Si02
#       8
#     2   2   2   2   2   2   2   2
#     4  10  17  33  60  91 115 156 199 245 290 352
#     4  10  19  36  59  87 115 155 198 242 302 360
#     4  11  21  36  58  89 124 151 196 253 304 348
#     4  11  23  37  57  86 118 162 199 250 295 356
#     4  10  19  35  62  87 115 156 202 248 288 356
#     4  10  22  38  58  81 117 159 209 240 295 357
#     4  10  19  32  62  92 116 152 196 247 299 355
#     4  10  19  36  63  84 121 155 201 244 303 356
#
# _framework density 28.178505999999999
#
# number of rings (size 3 to 8) (size 9 to 14) (size 15 to 20)
#    0.000    1.750    3.750    4.875    0.000    1.500 
#    0.000    1.250    8.250    0.000    0.000    0.000 
#    0.000    0.000    0.000    0.000    0.000    0.000 
#
# Total GULP energy -89314.367921 kJ/mol
# GULP energy per Si atom -5582.147995 kJ/mol
# Density = 2.811437 g / cm^3
# Si number density = 28.178506 Si / 1000 Ang^3
#
#
#
# Elastic Constant Matrix: (Units=GPa)
#
#
# Indices 1 2 3 4 5 6 
#
# 1 64.1975 21.2921 58.1405 1.1798 12.1371 -11.5488
# 2 21.2921 87.9749 55.3761 -28.0499 24.2213 -15.1125
# 3 58.1405 55.3761 138.3037 -7.9302 37.7835 -24.0584
# 4 1.1798 -28.0499 -7.9302 69.2634 -10.9111 24.4806
# 5 12.1371 24.2213 37.7835 -10.9111 58.4101 -4.1703
# 6 -11.5488 -15.1125 -24.0584 24.4806 -4.1703 49.0606
#
#
#
# Elastic Compliance Matrix: (Units=1/GPa)
#
#
# Indices 1 2 3 4 5 6 
#
# 1 0.025601 -0.000092 -0.010949 -0.002129 0.001534 0.001821
# 2 -0.000092 0.017880 -0.006348 0.006561 -0.002141 -0.001083
# 3 -0.010949 -0.006348 0.016685 -0.003090 -0.006129 0.004670
# 4 -0.002129 0.006561 -0.003090 0.020814 0.002885 -0.010136
# 5 0.001534 -0.002141 -0.006129 0.002885 0.021988 -0.002874
# 6 0.001821 -0.001083 0.004670 -0.010136 -0.002874 0.027582
#
#
# Mechanical properties :
#
#
# Convention : Reuss Voigt Hill
#
# Bulk Modulus (GPa) = 39.39024 62.23260 50.81142
# Shear Modulus (GPa) = 28.77040 45.72466 37.24753
#
# Velocity S-wave (km/s) = 3.19878 4.03262 3.63966
# Velocity P-wave (km/s) = 5.25853 6.61935 5.97779
#
# Compressibility (1/GPa) = 0.02538700
#
# Stress axis : x y z
#
# Youngs Moduli (GPa) = 39.06146 55.92805 59.93559
#
# Poissons Ratio (x) = 0.00515 0.65626
# Poissons Ratio (y) = 0.00360 0.38045
# Poissons Ratio (z) = 0.42770 0.35501
#
# Static dielectric constant tensor:
#      x y z
#    x 2.288850 0.064200 0.042900 
#    y 0.064200 2.194100 -0.025320 
#    z 0.042900 -0.025320 2.212250 
# 
# From -- ./inp_files/402295.got.cif
#   From: 2010.05.17/outbox.cif.g08.bks.cpg/sg2_202_cif.got.tgz:402295.got - 2010.06.03 11:33:40.
