data_PCOD9043318
_publ_section_title
;
Structure prediction by ZEFSAII (Michael W. Deem and Ramdas Pophale) SiO2 
 PCOD9043318
Probable space group: P -1
;
_chemical_formula_sum "Si O2"
_cell_formula_units_Z 12
_cell_length_a 8.697767
_cell_length_b 9.012081
_cell_length_c 11.456217
_cell_angle_alpha 141.571468
_cell_angle_beta 62.159433
_cell_angle_gamma 97.776050
_cell_volume 448.010717
_symmetry_space_group_name_H-M "P -1"
_symmetry_group_IT_number 2
_symmetry_cell_setting 'triclinic'
loop_
_space_group_symop_operation_xyz
x,y,z
-x,-y,-z
loop_
_atom_site_type_symbol
_atom_site_label
_atom_site_fract_x
_atom_site_fract_y
_atom_site_fract_z
Si Si1 0.972516 0.742162 0.316218
Si Si2 0.327075 0.391273 0.086249
Si Si3 0.699722 0.925245 0.739329
Si Si4 0.328980 0.917732 0.529161
Si Si5 0.076711 0.146929 0.160494
Si Si6 0.351589 0.539269 0.474728
O O1 0.832755 0.740941 0.472359
O O2 0.182380 0.504069 0.097839
O O3 0.857912 0.832234 0.292538
O O4 0.000000 0.000000 0.500000
O O5 0.336500 0.653220 0.298728
O O6 0.209577 0.263826 0.123257
O O7 0.544634 0.175894 0.880755
O O8 0.822914 0.989412 0.836461
O O9 0.593647 0.771692 0.751374
O O10 0.353326 0.800429 0.576481
O O11 0.500000 0.000000 0.500000
O O12 0.874954 0.375751 0.406945
O O13 0.000000 0.000000 0.000000
O O14 0.500000 0.500000 0.500000
#
# Coordination Sequence:
#
# PCOD9043318 Si02
#       6
#     2   2   2   2   2   2
#     4  10  23  45  70 103 149 192 238 297 369 434
#     4  11  24  44  76 106 144 190 247 300 368 429
#     4  12  24  46  76 110 142 194 247 305 367 436
#     4  11  25  44  72 107 149 194 240 303 370 437
#     4  12  25  42  71 115 147 183 245 314 361 432
#     4  12  25  45  77 110 145 193 247 303 372 435
#
# _framework density 26.785074000000002
#
# number of rings (size 3 to 8) (size 9 to 14) (size 15 to 20)
#    0.000    0.667    3.333    5.000    2.333    2.667 
#    0.000    0.000    0.000   12.000    0.000    0.000 
#    0.000    0.000    0.000    0.000    0.000    0.000 
#
# Total GULP energy -66854.548027 kJ/mol
# GULP energy per Si atom -5571.212336 kJ/mol
# Density = 2.672411 g / cm^3
# Si number density = 26.785074 Si / 1000 Ang^3
#
#
#
# Elastic Constant Matrix: (Units=GPa)
#
#
# Indices 1 2 3 4 5 6 
#
# 1 226.9386 71.0510 57.2760 16.4418 -14.8319 -38.2325
# 2 71.0510 160.4333 12.9536 15.2415 -23.6797 -8.7650
# 3 57.2760 12.9536 89.2119 20.4855 -10.3234 -21.6002
# 4 16.4418 15.2415 20.4855 27.1611 -11.7162 -16.5878
# 5 -14.8319 -23.6797 -10.3234 -11.7162 64.3841 20.9787
# 6 -38.2325 -8.7650 -21.6002 -16.5878 20.9787 82.5771
#
#
#
# Elastic Compliance Matrix: (Units=1/GPa)
#
#
# Indices 1 2 3 4 5 6 
#
# 1 0.006350 -0.002616 -0.003558 0.001394 -0.000514 0.002142
# 2 -0.002616 0.007898 0.001315 -0.003679 0.002283 -0.001348
# 3 -0.003558 0.001315 0.015767 -0.010062 0.000182 0.000549
# 4 0.001394 -0.003679 -0.010062 0.051782 0.004538 0.006872
# 5 -0.000514 0.002283 0.000182 0.004538 0.018310 -0.003688
# 6 0.002142 -0.001348 0.000549 0.006872 -0.003688 0.015420
#
#
# Mechanical properties :
#
#
# Convention : Reuss Voigt Hill
#
# Bulk Modulus (GPa) = 49.26544 84.34944 66.80744
# Shear Modulus (GPa) = 37.87615 57.17802 47.52709
#
# Velocity S-wave (km/s) = 3.76450 4.62529 4.21692
# Velocity P-wave (km/s) = 6.10967 7.75139 6.97897
#
# Compressibility (1/GPa) = 0.02029820
#
# Stress axis : x y z
#
# Youngs Moduli (GPa) = 157.48562 126.60864 63.42325
#
# Poissons Ratio (x) = 0.33123 0.22565
# Poissons Ratio (y) = 0.41201 -0.08343
# Poissons Ratio (z) = 0.56030 -0.16655
#
# Static dielectric constant tensor:
#      x y z
#    x -0.243530 -8.633650 6.078530 
#    y -8.633650 -30.041750 22.825650 
#    z 6.078530 22.825650 -13.881880 
# 
# From -- ./inp_files/383653.got.cif
#   From: 2010.05.17/outbox.cif.g08.bks.cpg/sg2_192_cif.got.tgz:383653.got - 2010.06.03 11:33:40.
