data_PCOD9043319
_publ_section_title
;
Structure prediction by ZEFSAII (Michael W. Deem and Ramdas Pophale) SiO2 
 PCOD9043319
Probable space group: P -1
;
_chemical_formula_sum "Si O2"
_cell_formula_units_Z 14
_cell_length_a 15.123699
_cell_length_b 8.895729
_cell_length_c 8.613589
_cell_angle_alpha 133.082137
_cell_angle_beta 93.752081
_cell_angle_gamma 120.860916
_cell_volume 543.773846
_symmetry_space_group_name_H-M "P -1"
_symmetry_group_IT_number 2
_symmetry_cell_setting 'triclinic'
loop_
_space_group_symop_operation_xyz
x,y,z
-x,-y,-z
loop_
_atom_site_type_symbol
_atom_site_label
_atom_site_fract_x
_atom_site_fract_y
_atom_site_fract_z
Si Si1 0.964129 0.479902 0.158567
Si Si2 0.197817 0.154930 0.689487
Si Si3 0.887144 0.614788 0.712502
Si Si4 0.533566 0.339469 0.319718
Si Si5 0.656304 0.437910 0.702120
Si Si6 0.579988 0.703704 0.306434
Si Si7 0.244701 0.639082 0.824335
O O1 0.805379 0.247888 0.007205
O O2 0.024910 0.420326 0.239314
O O3 0.037513 0.825814 0.452256
O O4 0.000000 0.500000 0.000000
O O5 0.262552 0.060779 0.556911
O O6 0.222648 0.397247 0.755498
O O7 0.261244 0.296926 0.967791
O O8 0.755310 0.414053 0.673416
O O9 0.829252 0.485596 0.439955
O O10 0.000000 0.000000 0.000000
O O11 0.500000 0.500000 0.500000
O O12 0.654406 0.489877 0.555719
O O13 0.556923 0.459543 0.236022
O O14 0.593078 0.040905 0.955608
O O15 0.496297 0.222621 0.583509
O O16 0.500000 0.500000 0.000000
#
# Coordination Sequence:
#
# PCOD9043319 Si02
#       7
#     2   2   2   2   2   2   2
#     4  12  28  46  76 104 147 191 248 301 367 428
#     4  11  24  47  73 107 146 193 243 298 364 435
#     4  12  27  45  75 105 144 191 246 301 364 429
#     4  10  24  42  73 104 146 188 243 295 364 425
#     4  10  23  45  70 103 150 180 245 291 358 427
#     4   9  21  40  71 100 147 186 234 295 358 425
#     4  12  27  47  76 107 148 192 244 301 364 428
#
# _framework density 25.745998
#
# number of rings (size 3 to 8) (size 9 to 14) (size 15 to 20)
#    0.000    1.143    0.000    4.286   14.000    2.857 
#    2.571    0.000    0.000    0.000    0.000    0.000 
#    0.000    0.000    0.000    0.000    0.000    0.000 
#
# Total GULP energy -78052.093975 kJ/mol
# GULP energy per Si atom -5575.149570 kJ/mol
# Density = 2.568740 g / cm^3
# Si number density = 25.745998 Si / 1000 Ang^3
#
#
#
# Elastic Constant Matrix: (Units=GPa)
#
#
# Indices 1 2 3 4 5 6 
#
# 1 183.8834 41.3397 17.5335 -11.6586 -28.5128 4.8271
# 2 41.3397 124.8429 66.0472 -12.9914 -0.4195 -23.5004
# 3 17.5335 66.0472 106.9217 -29.2145 18.4872 -18.5258
# 4 -11.6586 -12.9914 -29.2145 54.7680 -3.2771 -6.7320
# 5 -28.5128 -0.4195 18.4872 -3.2771 40.5042 -11.3890
# 6 4.8271 -23.5004 -18.5258 -6.7320 -11.3890 52.2762
#
#
#
# Elastic Compliance Matrix: (Units=1/GPa)
#
#
# Indices 1 2 3 4 5 6 
#
# 1 0.006763 -0.001881 -0.000654 0.000880 0.004969 -0.000506
# 2 -0.001881 0.013742 -0.008352 -0.000871 0.003709 0.004088
# 3 -0.000654 -0.008352 0.018358 0.007466 -0.007734 0.002088
# 4 0.000880 -0.000871 0.007466 0.022897 0.000528 0.005237
# 5 0.004969 0.003709 -0.007734 0.000528 0.033434 0.005820
# 6 -0.000506 0.004088 0.002088 0.005237 0.005820 0.023696
#
#
# Mechanical properties :
#
#
# Convention : Reuss Voigt Hill
#
# Bulk Modulus (GPa) = 58.50840 73.94320 66.22580
# Shear Modulus (GPa) = 34.16255 48.89153 41.52704
#
# Velocity S-wave (km/s) = 3.64663 4.36247 4.02051
# Velocity P-wave (km/s) = 6.36436 7.35918 6.87977
#
# Compressibility (1/GPa) = 0.01709156
#
# Stress axis : x y z
#
# Youngs Moduli (GPa) = 147.86770 72.76736 54.47258
#
# Poissons Ratio (x) = 0.13684 0.03560
# Poissons Ratio (y) = 0.27807 0.45493
# Poissons Ratio (z) = 0.09665 0.60773
#
# Static dielectric constant tensor:
#      x y z
#    x 4.795980 0.539020 -0.638280 
#    y 0.539020 2.243370 -0.149140 
#    z -0.638280 -0.149140 2.125270 
# 
# From -- ./inp_files/293657.got.cif
#   From: 2010.05.17/outbox.cif.g08.bks.cpg/sg2_147_cif.got.tgz:293657.got - 2010.06.03 11:33:40.
