data_PCOD9043699
_publ_section_title
;
Structure prediction by ZEFSAII (Michael W. Deem and Ramdas Pophale) SiO2 
 PCOD9043699
Probable space group: P -1
;
_chemical_formula_sum "Si O2"
_cell_formula_units_Z 14
_cell_length_a 8.674918
_cell_length_b 20.570522
_cell_length_c 11.743908
_cell_angle_alpha 152.607651
_cell_angle_beta 142.801193
_cell_angle_gamma 44.021504
_cell_volume 582.397025
_symmetry_space_group_name_H-M "P -1"
_symmetry_group_IT_number 2
_symmetry_cell_setting 'triclinic'
loop_
_space_group_symop_operation_xyz
x,y,z
-x,-y,-z
loop_
_atom_site_type_symbol
_atom_site_label
_atom_site_fract_x
_atom_site_fract_y
_atom_site_fract_z
Si Si1 0.166183 0.892521 0.277757
Si Si2 0.945436 0.672550 0.529620
Si Si3 0.519438 0.662378 0.800845
Si Si4 0.237049 0.407889 0.949805
Si Si5 0.914388 0.965567 0.025787
Si Si6 0.677911 0.443262 0.124204
Si Si7 0.621922 0.909153 0.099033
O O1 0.870234 0.918652 0.182431
O O2 0.334928 0.983919 0.603433
O O3 0.250536 0.724780 0.081053
O O4 0.148472 0.954139 0.234858
O O5 0.841419 0.657319 0.317011
O O6 0.809997 0.806801 0.717208
O O7 0.918353 0.535588 0.379509
O O8 0.235463 0.709363 0.740722
O O9 0.500000 0.500000 0.500000
O O10 0.689827 0.689541 0.053297
O O11 0.629831 0.750259 0.901715
O O12 0.497766 0.484040 0.189040
O O13 0.000000 0.500000 0.000000
O O14 0.669084 0.062755 0.069353
O O15 0.000000 0.000000 0.000000
O O16 0.500000 0.500000 0.000000
#
# Coordination Sequence:
#
# PCOD9043699 Si02
#       7
#     2   2   2   2   2   2   2
#     4  11  26  49  72 103 144 192 239 298 356 420
#     4  11  24  46  68 104 141 180 237 289 358 415
#     4  12  24  41  68 103 138 180 235 290 354 416
#     4  11  24  42  67 102 139 180 225 290 354 418
#     4  12  26  46  70 106 145 189 242 292 354 431
#     4  10  23  45  74 103 140 181 235 295 355 424
#     4  11  26  46  73 101 143 191 243 291 357 428
#
# _framework density 24.038585999999999
#
# number of rings (size 3 to 8) (size 9 to 14) (size 15 to 20)
#    0.000    0.857    2.857    3.857    4.000    4.000 
#    0.000    0.000    0.000    0.000    0.000    0.000 
#    0.000    0.000    0.000    0.000    0.000    0.000 
#
# Total GULP energy -78182.797612 kJ/mol
# GULP energy per Si atom -5584.485544 kJ/mol
# Density = 2.398387 g / cm^3
# Si number density = 24.038586 Si / 1000 Ang^3
#
#
#
# Elastic Constant Matrix: (Units=GPa)
#
#
# Indices 1 2 3 4 5 6 
#
# 1 61.9716 23.4736 6.9543 -2.8377 -5.5950 -12.0924
# 2 23.4736 137.9394 29.8258 -10.3556 -8.4014 14.7821
# 3 6.9543 29.8258 67.6077 8.1905 -7.5504 9.7215
# 4 -2.8377 -10.3556 8.1905 42.6469 -1.3862 5.3767
# 5 -5.5950 -8.4014 -7.5504 -1.3862 31.7823 -6.9707
# 6 -12.0924 14.7821 9.7215 5.3767 -6.9707 31.8577
#
#
#
# Elastic Compliance Matrix: (Units=1/GPa)
#
#
# Indices 1 2 3 4 5 6 
#
# 1 0.020432 -0.004171 -0.001276 -0.000671 0.004619 0.011204
# 2 -0.004171 0.009540 -0.003401 0.003391 -0.000093 -0.005565
# 3 -0.001276 -0.003401 0.017583 -0.003819 0.002197 -0.003147
# 4 -0.000671 0.003391 -0.003819 0.025588 -0.000111 -0.005005
# 5 0.004619 -0.000093 0.002197 -0.000111 0.034685 0.008734
# 6 0.011204 -0.005565 -0.003147 -0.005005 0.008734 0.041940
#
#
# Mechanical properties :
#
#
# Convention : Reuss Voigt Hill
#
# Bulk Modulus (GPa) = 33.48854 43.11402 38.30128
# Shear Modulus (GPa) = 28.18232 35.07504 31.62868
#
# Velocity S-wave (km/s) = 3.42772 3.82398 3.63126
# Velocity P-wave (km/s) = 5.44307 6.12139 5.79217
#
# Compressibility (1/GPa) = 0.02986096
#
# Stress axis : x y z
#
# Youngs Moduli (GPa) = 48.94299 104.82398 56.87266
#
# Poissons Ratio (x) = 0.43720 0.07255
# Poissons Ratio (y) = 0.20413 0.19340
# Poissons Ratio (z) = 0.06243 0.35646
#
# Static dielectric constant tensor:
#      x y z
#    x 1.943500 -0.031710 0.009170 
#    y -0.031710 2.046340 -0.041900 
#    z 0.009170 -0.041900 1.882500 
# 
# From -- ./inp_files/405742.got.cif
#   From: 2010.05.17/outbox.cif.g08.bks.cpg/sg2_203_cif.got.tgz:405742.got - 2010.06.03 11:33:40.
