data_PCOD9043229
_publ_section_title
;
Structure prediction by ZEFSAII (Michael W. Deem and Ramdas Pophale) SiO2 
 PCOD9043229
Probable space group: P -1
;
_chemical_formula_sum "Si O2"
_cell_formula_units_Z 14
_cell_length_a 11.790545
_cell_length_b 12.022024
_cell_length_c 8.309647
_cell_angle_alpha 65.850879
_cell_angle_beta 72.303294
_cell_angle_gamma 123.975585
_cell_volume 633.121889
_symmetry_space_group_name_H-M "P -1"
_symmetry_group_IT_number 2
_symmetry_cell_setting 'triclinic'
loop_
_space_group_symop_operation_xyz
x,y,z
-x,-y,-z
loop_
_atom_site_type_symbol
_atom_site_label
_atom_site_fract_x
_atom_site_fract_y
_atom_site_fract_z
Si Si1 0.641483 0.292824 0.956115
Si Si2 0.130657 0.338863 0.880170
Si Si3 0.188988 0.099943 0.767381
Si Si4 0.450745 0.669099 0.365967
Si Si5 0.483295 0.599445 0.822321
Si Si6 0.037017 0.541224 0.770515
Si Si7 0.451653 0.919950 0.387877
O O1 0.525233 0.282799 0.139136
O O2 0.583630 0.105484 0.107164
O O3 0.601423 0.310804 0.788345
O O4 0.865239 0.469768 0.799227
O O5 0.289649 0.438589 0.612970
O O6 0.275807 0.437758 0.911767
O O7 0.072803 0.427706 0.786553
O O8 0.926261 0.110629 0.128353
O O9 0.334270 0.204660 0.793280
O O10 0.335510 0.259888 0.464704
O O11 0.000000 0.000000 0.000000
O O12 0.464360 0.786197 0.429082
O O13 0.500000 0.500000 0.000000
O O14 0.232085 0.771929 0.528320
O O15 0.000000 0.500000 0.000000
O O16 0.500000 0.000000 0.500000
#
# Coordination Sequence:
#
# PCOD9043229 Si02
#       7
#     2   2   2   2   2   2   2
#     4  12  24  40  68  98 140 170 221 287 332 403
#     4  10  23  45  69  94 135 175 225 272 336 415
#     4  11  26  46  71  93 130 185 230 275 340 406
#     4  10  25  42  65 104 137 174 217 287 345 388
#     4  11  27  45  68  99 134 178 230 282 336 392
#     4  11  21  38  67  99 127 177 216 266 344 404
#     4  11  21  39  67  97 138 175 221 266 335 413
#
# _framework density 22.112645000000001
#
# number of rings (size 3 to 8) (size 9 to 14) (size 15 to 20)
#    0.000    1.143    2.857    3.000    6.000    5.143 
#    0.000    0.000    0.000    0.000    0.000    0.000 
#    0.000    0.000    0.000    0.000    0.000    0.000 
#
# Total GULP energy -77952.193942 kJ/mol
# GULP energy per Si atom -5568.013853 kJ/mol
# Density = 2.206232 g / cm^3
# Si number density = 22.112645 Si / 1000 Ang^3
#
#
#
# Elastic Constant Matrix: (Units=GPa)
#
#
# Indices 1 2 3 4 5 6 
#
# 1 115.9987 40.9746 41.9342 1.2342 -10.1362 28.7984
# 2 40.9746 68.9084 43.6144 6.1753 -3.6721 21.3357
# 3 41.9342 43.6144 112.3602 -21.4197 -8.5047 27.0876
# 4 1.2342 6.1753 -21.4197 35.6396 6.8740 -4.4109
# 5 -10.1362 -3.6721 -8.5047 6.8740 43.3714 3.5452
# 6 28.7984 21.3357 27.0876 -4.4109 3.5452 49.8032
#
#
#
# Elastic Compliance Matrix: (Units=1/GPa)
#
#
# Indices 1 2 3 4 5 6 
#
# 1 0.012244 -0.004307 -0.001966 -0.001960 0.002793 -0.004538
# 2 -0.004307 0.025112 -0.008953 -0.010394 0.001372 -0.004416
# 3 -0.001966 -0.008953 0.015841 0.010724 0.000412 -0.002723
# 4 -0.001960 -0.010394 0.010724 0.037871 -0.005524 0.003501
# 5 0.002793 0.001372 0.000412 -0.005524 0.025167 -0.004708
# 6 -0.004538 -0.004416 -0.002723 0.003501 -0.004708 0.026721
#
#
# Mechanical properties :
#
#
# Convention : Reuss Voigt Hill
#
# Bulk Modulus (GPa) = 43.96594 61.14600 52.55597
# Shear Modulus (GPa) = 27.62587 37.14578 32.38583
#
# Velocity S-wave (km/s) = 3.53841 4.10304 3.83114
# Velocity P-wave (km/s) = 6.05142 7.08227 6.58704
#
# Compressibility (1/GPa) = 0.02274488
#
# Stress axis : x y z
#
# Youngs Moduli (GPa) = 81.66954 39.82219 63.12768
#
# Poissons Ratio (x) = 0.17151 0.12412
# Poissons Ratio (y) = 0.35173 0.56519
# Poissons Ratio (z) = 0.16058 0.35653
#
# Static dielectric constant tensor:
#      x y z
#    x 2.064790 -0.048940 -0.111420 
#    y -0.048940 1.946190 0.015950 
#    z -0.111420 0.015950 1.796580 
# 
# From -- ./inp_files/269772.got.cif
#   From: 2010.05.17/outbox.cif.g08.bks.cpg/sg2_135_cif.got.tgz:269772.got - 2010.06.03 11:33:40.
