data_PCOD9043591
_publ_section_title
;
Structure prediction by ZEFSAII (Michael W. Deem and Ramdas Pophale) SiO2 
 PCOD9043591
Probable space group: P -1
;
_chemical_formula_sum "Si O2"
_cell_formula_units_Z 16
_cell_length_a 9.831019
_cell_length_b 11.778283
_cell_length_c 9.387374
_cell_angle_alpha 123.545741
_cell_angle_beta 76.167608
_cell_angle_gamma 138.143596
_cell_volume 574.688104
_symmetry_space_group_name_H-M "P -1"
_symmetry_group_IT_number 2
_symmetry_cell_setting 'triclinic'
loop_
_space_group_symop_operation_xyz
x,y,z
-x,-y,-z
loop_
_atom_site_type_symbol
_atom_site_label
_atom_site_fract_x
_atom_site_fract_y
_atom_site_fract_z
Si Si1 0.277351 0.384958 0.910162
Si Si2 0.234928 0.384256 0.582166
Si Si3 0.844505 0.090272 0.155950
Si Si4 0.456425 0.765361 0.250268
Si Si5 0.869978 0.916210 0.790129
Si Si6 0.745959 0.291405 0.220733
Si Si7 0.170596 0.999597 0.476915
Si Si8 0.697503 0.134943 0.830210
O O1 0.268559 0.524139 0.084634
O O2 0.500000 0.500000 0.000000
O O3 0.298281 0.419147 0.757719
O O4 0.098145 0.145838 0.838810
O O5 0.273877 0.563843 0.642307
O O6 0.287065 0.279280 0.416143
O O7 0.973836 0.190270 0.508038
O O8 0.894973 0.286902 0.256874
O O9 0.647171 0.913772 0.187917
O O10 0.055963 0.158425 0.184541
O O11 0.766559 0.959061 0.938385
O O12 0.589241 0.816542 0.392703
O O13 0.346728 0.829794 0.289368
O O14 0.822357 0.089572 0.726532
O O15 0.523020 0.070090 0.183788
O O16 0.787175 0.300073 0.045995
O O17 0.000000 0.000000 0.500000
#
# Coordination Sequence:
#
# PCOD9043591 Si02
#       8
#     2   2   2   2   2   2   2   2
#     4  12  23  42  70  98 144 190 236 295 357 427
#     4  12  25  45  68 110 140 185 240 300 350 430
#     4  10  23  45  72  96 144 191 233 294 359 424
#     4  11  22  49  70 103 142 192 239 294 360 427
#     4  11  24  44  69 107 145 185 235 301 360 420
#     4  10  24  46  75  99 144 192 241 283 361 432
#     4  12  26  45  72 109 148 181 243 303 356 424
#     4  10  24  47  73 102 145 195 235 297 356 431
#
# _framework density 27.841187999999999
#
# number of rings (size 3 to 8) (size 9 to 14) (size 15 to 20)
#    0.000    1.000    3.750    2.250    3.500    2.000 
#    4.500    1.250    0.000    0.000    0.000    0.000 
#    0.000    0.000    0.000    0.000    0.000    0.000 
#
# Total GULP energy -89291.146075 kJ/mol
# GULP energy per Si atom -5580.696630 kJ/mol
# Density = 2.777782 g / cm^3
# Si number density = 27.841188 Si / 1000 Ang^3
#
#
#
# Elastic Constant Matrix: (Units=GPa)
#
#
# Indices 1 2 3 4 5 6 
#
# 1 161.1308 26.3525 42.9664 1.7150 -11.3253 -32.2753
# 2 26.3525 49.7329 22.2706 5.5654 -6.2300 -29.7732
# 3 42.9664 22.2706 133.5098 5.7865 -8.1751 -17.9251
# 4 1.7150 5.5654 5.7865 46.3095 0.1890 -10.1084
# 5 -11.3253 -6.2300 -8.1751 0.1890 48.4814 -5.8037
# 6 -32.2753 -29.7732 -17.9251 -10.1084 -5.8037 39.5543
#
#
#
# Elastic Compliance Matrix: (Units=1/GPa)
#
#
# Indices 1 2 3 4 5 6 
#
# 1 0.008141 0.001058 -0.001701 0.001391 0.002633 0.007411
# 2 0.001058 0.040948 -0.002353 0.002403 0.009000 0.032554
# 3 -0.001701 -0.002353 0.008602 -0.000576 0.000839 0.000715
# 4 0.001391 0.002403 -0.000576 0.023250 0.001505 0.008845
# 5 0.002633 0.009000 0.000839 0.001505 0.024117 0.013226
# 6 0.007411 0.032554 0.000715 0.008845 0.013226 0.060357
#
#
# Mechanical properties :
#
#
# Convention : Reuss Voigt Hill
#
# Bulk Modulus (GPa) = 19.34251 58.61696 38.97974
# Shear Modulus (GPa) = 26.50553 43.72131 35.11342
#
# Velocity S-wave (km/s) = 3.08884 3.96710 3.55520
# Velocity P-wave (km/s) = 4.43664 6.48719 5.55731
#
# Compressibility (1/GPa) = 0.05169960
#
# Stress axis : x y z
#
# Youngs Moduli (GPa) = 122.83275 24.42142 116.24806
#
# Poissons Ratio (x) = -0.02585 0.19770
# Poissons Ratio (y) = -0.13000 0.27358
# Poissons Ratio (z) = 0.20890 0.05747
#
# Static dielectric constant tensor:
#      x y z
#    x 2.275890 -0.088950 -0.031940 
#    y -0.088950 2.369400 -0.118160 
#    z -0.031940 -0.118160 2.433640 
# 
# From -- ./inp_files/499432.got.cif
#   From: 2010.05.17/outbox.cif.g08.bks.cpg/sg2_250_cif.got.tgz:499432.got - 2010.06.03 11:33:40.
