data_PCOD9043475
_publ_section_title
;
Structure prediction by ZEFSAII (Michael W. Deem and Ramdas Pophale) SiO2 
 PCOD9043475
Probable space group: P -1
;
_chemical_formula_sum "Si O2"
_cell_formula_units_Z 16
_cell_length_a 13.225519
_cell_length_b 9.228722
_cell_length_c 9.600989
_cell_angle_alpha 81.431037
_cell_angle_beta 40.153250
_cell_angle_gamma 71.450850
_cell_volume 707.845178
_symmetry_space_group_name_H-M "P -1"
_symmetry_group_IT_number 2
_symmetry_cell_setting 'triclinic'
loop_
_space_group_symop_operation_xyz
x,y,z
-x,-y,-z
loop_
_atom_site_type_symbol
_atom_site_label
_atom_site_fract_x
_atom_site_fract_y
_atom_site_fract_z
Si Si1 0.881204 0.416051 0.018533
Si Si2 0.933954 0.890201 0.982014
Si Si3 0.441063 0.874612 0.158874
Si Si4 0.353131 0.230080 0.761966
Si Si5 0.540806 0.638192 0.861797
Si Si6 0.557464 0.357876 0.349161
Si Si7 0.085975 0.368688 0.539107
Si Si8 0.934278 0.969541 0.426399
O O1 0.776571 0.593683 0.137555
O O2 0.744597 0.342400 0.116255
O O3 0.961154 0.289663 0.071340
O O4 0.018057 0.417178 0.759699
O O5 0.969178 0.955776 0.790731
O O6 0.746585 0.882429 0.170962
O O7 0.000000 0.000000 0.000000
O O8 0.573227 0.797599 0.153731
O O9 0.260964 0.945165 0.404753
O O10 0.422338 0.774572 0.059736
O O11 0.500000 0.000000 0.000000
O O12 0.506827 0.225576 0.501057
O O13 0.526571 0.619025 0.715181
O O14 0.721429 0.656066 0.683340
O O15 0.500000 0.500000 0.000000
O O16 0.500000 0.500000 0.500000
O O17 0.000000 0.500000 0.500000
O O18 0.044227 0.211025 0.583325
O O19 0.000000 0.000000 0.500000
#
# Coordination Sequence:
#
# PCOD9043475 Si02
#       8
#     2   2   2   2   2   2   2   2
#     4  11  24  46  77 108 146 193 250 303 370 446
#     4  12  26  47  74 109 150 197 247 303 377 441
#     4  12  26  48  73 107 151 199 245 302 381 438
#     4  11  25  48  75 109 150 195 248 309 366 447
#     4  12  26  45  75 108 146 194 251 306 367 444
#     4  10  23  45  71 107 144 185 246 306 366 428
#     4  12  26  47  74 109 147 193 254 305 371 441
#     4  12  29  50  74 109 154 197 246 311 378 446
#
# _framework density 22.603815000000001
#
# number of rings (size 3 to 8) (size 9 to 14) (size 15 to 20)
#    0.000    0.500    2.500    5.625    5.250    3.000 
#    0.000    1.875    0.000    0.000    0.000    0.000 
#    0.000    0.000    0.000    0.000    0.000    0.000 
#
# Total GULP energy -89288.211455 kJ/mol
# GULP energy per Si atom -5580.513216 kJ/mol
# Density = 2.255237 g / cm^3
# Si number density = 22.603815 Si / 1000 Ang^3
#
#
#
# Elastic Constant Matrix: (Units=GPa)
#
#
# Indices 1 2 3 4 5 6 
#
# 1 116.6990 40.2470 15.5796 -16.1963 20.1104 4.5256
# 2 40.2470 122.9602 39.8789 -18.0682 10.6488 -0.0906
# 3 15.5796 39.8789 105.1496 -42.5680 9.0547 7.2707
# 4 -16.1963 -18.0682 -42.5680 45.3983 1.0863 0.7849
# 5 20.1104 10.6488 9.0547 1.0863 55.5693 -9.3038
# 6 4.5256 -0.0906 7.2707 0.7849 -9.3038 31.5486
#
#
#
# Elastic Compliance Matrix: (Units=1/GPa)
#
#
# Indices 1 2 3 4 5 6 
#
# 1 0.010942 -0.003198 0.002163 0.004824 -0.004378 -0.003488
# 2 -0.003198 0.010315 -0.003784 -0.000609 0.000041 0.001388
# 3 0.002163 -0.003784 0.018078 0.016428 -0.004359 -0.006182
# 4 0.004824 -0.000609 0.016428 0.039187 -0.006296 -0.007311
# 5 -0.004378 0.000041 -0.004359 -0.006296 0.021780 0.008213
# 6 -0.003488 0.001388 -0.006182 -0.007311 0.008213 0.036230
#
#
# Mechanical properties :
#
#
# Convention : Reuss Voigt Hill
#
# Bulk Modulus (GPa) = 33.67335 59.57996 46.62665
# Shear Modulus (GPa) = 32.03691 43.11011 37.57351
#
# Velocity S-wave (km/s) = 3.76882 4.37189 4.08151
# Velocity P-wave (km/s) = 5.81964 7.20418 6.54860
#
# Compressibility (1/GPa) = 0.02969707
#
# Stress axis : x y z
#
# Youngs Moduli (GPa) = 91.38809 96.95017 55.31443
#
# Poissons Ratio (x) = 0.31000 -0.11962
# Poissons Ratio (y) = 0.29222 0.20932
# Poissons Ratio (z) = -0.19763 0.36687
#
# Static dielectric constant tensor:
#      x y z
#    x 1.907730 -0.050580 -0.161000 
#    y -0.050580 1.745110 -0.011070 
#    z -0.161000 -0.011070 1.807940 
# 
# From -- ./inp_files/243321.got.cif
#   From: 2010.05.17/outbox.cif.g08.bks.cpg/sg2_122_cif.got.tgz:243321.got - 2010.06.03 11:33:40.
