data_PCOD9043628
_publ_section_title
;
Structure prediction by ZEFSAII (Michael W. Deem and Ramdas Pophale) SiO2 
 PCOD9043628
Probable space group: P -1
;
_chemical_formula_sum "Si O2"
_cell_formula_units_Z 15
_cell_length_a 8.025553
_cell_length_b 12.316018
_cell_length_c 16.721501
_cell_angle_alpha 147.318337
_cell_angle_beta 43.589761
_cell_angle_gamma 138.742276
_cell_volume 568.745191
_symmetry_space_group_name_H-M "P -1"
_symmetry_group_IT_number 2
_symmetry_cell_setting 'triclinic'
loop_
_space_group_symop_operation_xyz
x,y,z
-x,-y,-z
loop_
_atom_site_type_symbol
_atom_site_label
_atom_site_fract_x
_atom_site_fract_y
_atom_site_fract_z
Si Si1 0.477603 0.286562 0.178395
Si Si2 0.933937 0.472725 0.695516
Si Si3 0.500000 0.500000 0.000000
Si Si4 0.269464 0.617514 0.523918
Si Si5 0.478381 0.039495 0.780153
Si Si6 0.837120 0.107215 0.044592
Si Si7 0.987121 0.970748 0.580637
Si Si8 0.366037 0.386006 0.798658
O O1 0.444932 0.483981 0.359577
O O2 0.627268 0.184536 0.121463
O O3 0.646984 0.405071 0.114761
O O4 0.203198 0.102194 0.127853
O O5 0.671531 0.423089 0.706473
O O6 0.190965 0.593893 0.629677
O O7 0.923889 0.652909 0.876931
O O8 0.963550 0.249568 0.564409
O O9 0.554848 0.277784 0.866876
O O10 0.337170 0.382025 0.900632
O O11 0.000000 0.500000 0.500000
O O12 0.390463 0.874682 0.633172
O O13 0.707444 0.981007 0.705065
O O14 0.257280 0.998523 0.900484
O O15 0.190453 0.166639 0.680933
O O16 0.000000 0.000000 0.500000
#
# Coordination Sequence:
#
# PCOD9043628 Si02
#       8
#     2   2   1   2   2   2   2   2
#     4  11  22  44  71 108 140 179 239 295 366 423
#     4  11  24  44  72 106 143 182 236 298 362 420
#     4  12  28  48  70 102 150 196 240 290 348 440
#     4  11  23  40  74 106 136 175 230 305 359 416
#     4  11  25  48  70 104 142 189 240 289 362 425
#     4  10  23  45  73 104 141 182 231 304 363 424
#     4  12  26  45  74 103 146 193 240 295 348 434
#     4  12  26  45  69 104 147 193 241 288 353 425
#
# _framework density 26.373850000000001
#
# number of rings (size 3 to 8) (size 9 to 14) (size 15 to 20)
#    0.000    0.800    2.667    4.400    1.867    4.267 
#    4.800    0.000    0.000    0.000    0.000    0.000 
#    0.000    0.000    0.000    0.000    0.000    0.000 
#
# Total GULP energy -83722.450113 kJ/mol
# GULP energy per Si atom -5581.496674 kJ/mol
# Density = 2.631382 g / cm^3
# Si number density = 26.373850 Si / 1000 Ang^3
#
#
#
# Elastic Constant Matrix: (Units=GPa)
#
#
# Indices 1 2 3 4 5 6 
#
# 1 106.6654 26.1647 57.7141 23.0872 26.6334 9.4121
# 2 26.1647 63.1316 38.8153 13.0374 3.5891 -8.7963
# 3 57.7141 38.8153 197.7840 41.7541 18.3835 5.6420
# 4 23.0872 13.0374 41.7541 62.6930 3.3521 4.4962
# 5 26.6334 3.5891 18.3835 3.3521 60.4525 11.1255
# 6 9.4121 -8.7963 5.6420 4.4962 11.1255 48.9429
#
#
#
# Elastic Compliance Matrix: (Units=1/GPa)
#
#
# Indices 1 2 3 4 5 6 
#
# 1 0.013226 -0.003642 -0.002194 -0.002288 -0.004502 -0.001712
# 2 -0.003642 0.019926 -0.002743 -0.001332 0.000481 0.004611
# 3 -0.002194 -0.002743 0.006993 -0.003210 -0.000743 -0.000413
# 4 -0.002288 -0.001332 -0.003210 0.019247 0.001270 -0.001486
# 5 -0.004502 0.000481 -0.000743 0.001270 0.019290 -0.003464
# 6 -0.001712 0.004611 -0.000413 -0.001486 -0.003464 0.022561
#
#
# Mechanical properties :
#
#
# Convention : Reuss Voigt Hill
#
# Bulk Modulus (GPa) = 43.50386 68.10766 55.80576
# Shear Modulus (GPa) = 39.66244 50.74347 45.20295
#
# Velocity S-wave (km/s) = 3.88216 4.39111 4.14446
# Velocity P-wave (km/s) = 6.05193 7.18256 6.64134
#
# Compressibility (1/GPa) = 0.02298647
#
# Stress axis : x y z
#
# Youngs Moduli (GPa) = 75.60734 50.18567 143.00025
#
# Poissons Ratio (x) = 0.18280 0.31379
# Poissons Ratio (y) = 0.27540 0.39220
# Poissons Ratio (z) = 0.16591 0.13764
#
# Static dielectric constant tensor:
#      x y z
#    x 2.022510 0.003000 0.016810 
#    y 0.003000 2.481120 -0.049780 
#    z 0.016810 -0.049780 2.179690 
# 
# From -- ./inp_files/416242.got.cif
#   From: 2010.05.17/outbox.cif.g08.bks.cpg/sg2_209_cif.got.tgz:416242.got - 2010.06.03 11:33:40.
