data_PCOD9043979
_publ_section_title
;
Structure prediction by ZEFSAII (Michael W. Deem and Ramdas Pophale) SiO2 
 PCOD9043979
Probable space group: P -1
;
_chemical_formula_sum "Si O2"
_cell_formula_units_Z 15
_cell_length_a 6.967262
_cell_length_b 10.185014
_cell_length_c 14.442993
_cell_angle_alpha 55.256611
_cell_angle_beta 95.859991
_cell_angle_gamma 125.643470
_cell_volume 642.519642
_symmetry_space_group_name_H-M "P -1"
_symmetry_group_IT_number 2
_symmetry_cell_setting 'triclinic'
loop_
_space_group_symop_operation_xyz
x,y,z
-x,-y,-z
loop_
_atom_site_type_symbol
_atom_site_label
_atom_site_fract_x
_atom_site_fract_y
_atom_site_fract_z
Si Si1 0.573330 0.779978 0.598835
Si Si2 0.214514 0.806209 0.448754
Si Si3 0.764070 0.882899 0.159243
Si Si4 0.659014 0.527641 0.584561
Si Si5 0.253374 0.536202 0.999644
Si Si6 0.269341 0.976580 0.184803
Si Si7 0.500000 0.000000 0.000000
Si Si8 0.602499 0.561666 0.130475
O O1 0.400648 0.779071 0.516272
O O2 0.708654 0.707958 0.580419
O O3 0.411048 0.597934 0.740186
O O4 0.730271 0.995910 0.575216
O O5 0.264743 0.861834 0.320600
O O6 0.927284 0.605960 0.534142
O O7 0.524869 0.689243 0.282840
O O8 0.735360 0.775585 0.103230
O O9 0.018843 0.953505 0.187669
O O10 0.705787 0.033156 0.070331
O O11 0.500000 0.500000 0.500000
O O12 0.265552 0.417103 0.965632
O O13 0.487355 0.779713 0.897070
O O14 0.326245 0.482991 0.119451
O O15 0.000000 0.500000 0.000000
O O16 0.294580 0.905110 0.115185
#
# Coordination Sequence:
#
# PCOD9043979 Si02
#       8
#     2   2   2   2   2   2   1   2
#     4  10  24  45  70 100 143 180 229 287 344 415
#     4  11  24  47  71 103 137 188 232 283 350 415
#     4  11  26  47  71 101 142 185 230 297 349 416
#     4  11  24  45  70 104 137 181 230 283 349 414
#     4  11  25  44  71 101 136 189 235 287 352 417
#     4  12  26  47  71 101 144 182 236 295 350 418
#     4  12  28  44  72 104 134 190 236 282 360 416
#     4  10  23  46  68 102 140 178 232 297 339 412
#
# _framework density 23.345590000000001
#
# number of rings (size 3 to 8) (size 9 to 14) (size 15 to 20)
#    0.000    1.067    4.000    0.800    3.733    5.867 
#    2.400    0.000    0.000    0.000    0.000    0.000 
#    0.000    0.000    0.000    0.000    0.000    0.000 
#
# Total GULP energy -83670.272967 kJ/mol
# GULP energy per Si atom -5578.018198 kJ/mol
# Density = 2.329245 g / cm^3
# Si number density = 23.345590 Si / 1000 Ang^3
#
#
#
# Elastic Constant Matrix: (Units=GPa)
#
#
# Indices 1 2 3 4 5 6 
#
# 1 97.2277 22.2981 51.4232 -0.4836 -1.4407 23.6706
# 2 22.2981 55.4902 39.7007 0.8779 -3.9040 5.6627
# 3 51.4232 39.7007 164.3041 14.8427 5.5901 14.5550
# 4 -0.4836 0.8779 14.8427 34.9424 4.8475 -2.7750
# 5 -1.4407 -3.9040 5.5901 4.8475 37.8105 6.9942
# 6 23.6706 5.6627 14.5550 -2.7750 6.9942 37.8871
#
#
#
# Elastic Compliance Matrix: (Units=1/GPa)
#
#
# Indices 1 2 3 4 5 6 
#
# 1 0.014592 -0.002483 -0.003425 0.000806 0.002139 -0.007766
# 2 -0.002483 0.022738 -0.004870 0.001022 0.002924 -0.000441
# 3 -0.003425 -0.004870 0.008740 -0.003484 -0.001388 -0.000489
# 4 0.000806 0.001022 -0.003484 0.030931 -0.003996 0.003686
# 5 0.002139 0.002924 -0.001388 -0.003996 0.028816 -0.006852
# 6 -0.007766 -0.000441 -0.000489 0.003686 -0.006852 0.033035
#
#
# Mechanical properties :
#
#
# Convention : Reuss Voigt Hill
#
# Bulk Modulus (GPa) = 40.79169 60.42956 50.61062
# Shear Modulus (GPa) = 29.65981 35.70135 32.68058
#
# Velocity S-wave (km/s) = 3.56823 3.91481 3.74553
# Velocity P-wave (km/s) = 5.87258 6.80994 6.35856
#
# Compressibility (1/GPa) = 0.02451480
#
# Stress axis : x y z
#
# Youngs Moduli (GPa) = 68.52957 43.98007 114.41657
#
# Poissons Ratio (x) = 0.10922 0.39183
# Poissons Ratio (y) = 0.17018 0.55716
# Poissons Ratio (z) = 0.23468 0.21416
#
# Static dielectric constant tensor:
#      x y z
#    x 1.964650 -0.034110 0.028010 
#    y -0.034110 1.920980 -0.021470 
#    z 0.028010 -0.021470 1.887330 
# 
# From -- ./inp_files/314749.got.cif
#   From: 2010.05.17/outbox.cif.g08.bks.cpg/sg2_158_cif.got.tgz:314749.got - 2010.06.03 11:33:40.
