data_PCOD9043455
_publ_section_title
;
Structure prediction by ZEFSAII (Michael W. Deem and Ramdas Pophale) SiO2 
 PCOD9043455
Probable space group: P -1
;
_chemical_formula_sum "Si O2"
_cell_formula_units_Z 16
_cell_length_a 19.361609
_cell_length_b 9.310880
_cell_length_c 21.053657
_cell_angle_alpha 134.961407
_cell_angle_beta 19.436992
_cell_angle_gamma 138.423058
_cell_volume 838.147424
_symmetry_space_group_name_H-M "P -1"
_symmetry_group_IT_number 2
_symmetry_cell_setting 'triclinic'
loop_
_space_group_symop_operation_xyz
x,y,z
-x,-y,-z
loop_
_atom_site_type_symbol
_atom_site_label
_atom_site_fract_x
_atom_site_fract_y
_atom_site_fract_z
Si Si1 0.426806 0.169631 0.074366
Si Si2 0.135531 0.521484 0.185757
Si Si3 0.800447 0.296572 0.082951
Si Si4 0.641070 0.857588 0.306255
Si Si5 0.394148 0.362655 0.405229
Si Si6 0.110099 0.767002 0.159476
Si Si7 0.867343 0.934879 0.998396
Si Si8 0.814177 0.761140 0.579876
O O1 0.312559 0.284148 0.258305
O O2 0.655837 0.346971 0.910238
O O3 0.248844 0.017272 0.133129
O O4 0.500000 0.000000 0.000000
O O5 0.173294 0.622102 0.112899
O O6 0.929496 0.585979 0.408882
O O7 0.117873 0.276911 0.115586
O O8 0.559895 0.317606 0.297225
O O9 0.799633 0.087749 0.056645
O O10 0.000000 0.500000 0.000000
O O11 0.843175 0.284577 0.967602
O O12 0.503284 0.612913 0.369084
O O13 0.699489 0.877999 0.186610
O O14 0.500000 0.000000 0.500000
O O15 0.884491 0.936600 0.151422
O O16 0.151510 0.294987 0.624270
O O17 0.345639 0.237139 0.340044
O O18 0.000000 0.000000 0.500000
#
# Coordination Sequence:
#
# PCOD9043455 Si02
#       8
#     2   2   2   2   2   2   2   2
#     4  10  17  33  60  95 123 154 199 263 309 361
#     4  10  21  37  65  90 128 154 208 267 310 360
#     4  12  26  42  62  86 130 176 207 247 312 383
#     4  11  23  40  69  89 121 160 214 268 315 355
#     4  11  22  39  64  94 125 159 207 264 307 372
#     4  10  22  37  63  95 122 157 213 253 310 364
#     4  11  25  43  57  94 126 163 212 259 312 376
#     4  11  18  33  63 100 117 154 207 261 311 360
#
# _framework density 19.089721000000001
#
# number of rings (size 3 to 8) (size 9 to 14) (size 15 to 20)
#    0.000    1.250    5.000    4.500    3.500    1.500 
#    0.000    0.625    0.000    1.500    0.000    0.000 
#    0.000    0.000    0.000    0.000    0.000    0.000 
#
# Total GULP energy -89284.495110 kJ/mol
# GULP energy per Si atom -5580.280944 kJ/mol
# Density = 1.904627 g / cm^3
# Si number density = 19.089721 Si / 1000 Ang^3
#
#
#
# Elastic Constant Matrix: (Units=GPa)
#
#
# Indices 1 2 3 4 5 6 
#
# 1 41.6581 45.1020 31.0094 5.5580 -13.8433 -1.3100
# 2 45.1020 111.3264 38.7948 8.9348 -24.1890 18.3598
# 3 31.0094 38.7948 100.1866 -3.1333 -10.3199 3.4451
# 4 5.5580 8.9348 -3.1333 34.3757 7.4913 -9.0912
# 5 -13.8433 -24.1890 -10.3199 7.4913 33.6295 -0.4200
# 6 -1.3100 18.3598 3.4451 -9.0912 -0.4200 21.2468
#
#
#
# Elastic Compliance Matrix: (Units=1/GPa)
#
#
# Indices 1 2 3 4 5 6 
#
# 1 0.059716 -0.025023 -0.009315 0.002651 0.003484 0.028019
# 2 -0.025023 0.029117 -0.001526 -0.015170 0.013145 -0.032687
# 3 -0.009315 -0.001526 0.013399 0.003479 -0.001595 0.000029
# 4 0.002651 -0.015170 0.003479 0.045339 -0.018456 0.031743
# 5 0.003484 0.013145 -0.001595 -0.018456 0.044023 -0.017912
# 6 0.028019 -0.032687 0.000029 0.031743 -0.017912 0.090263
#
#
# Mechanical properties :
#
#
# Convention : Reuss Voigt Hill
#
# Bulk Modulus (GPa) = 32.78402 53.66482 43.22442
# Shear Modulus (GPa) = 13.74560 27.06806 20.40683
#
# Velocity S-wave (km/s) = 2.68629 3.76964 3.27310
# Velocity P-wave (km/s) = 5.18001 6.86439 6.08080
#
# Compressibility (1/GPa) = 0.03050267
#
# Stress axis : x y z
#
# Youngs Moduli (GPa) = 16.74587 34.34475 74.63262
#
# Poissons Ratio (x) = 0.85942 0.69522
# Poissons Ratio (y) = 0.41904 0.11388
# Poissons Ratio (z) = 0.15599 0.05241
#
# Static dielectric constant tensor:
#      x y z
#    x 1.654530 0.029000 0.001410 
#    y 0.029000 1.685010 -0.006140 
#    z 0.001410 -0.006140 1.736490 
# 
# From -- ./inp_files/519022.got.cif
#   From: 2010.05.17/outbox.cif.g08.bks.cpg/sg2_260_cif.got.tgz:519022.got - 2010.06.03 11:33:40.
