data_PCOD9043396
_publ_section_title
;
Structure prediction by ZEFSAII (Michael W. Deem and Ramdas Pophale) SiO2 
 PCOD9043396
Probable space group: P -1
;
_chemical_formula_sum "Si O2"
_cell_formula_units_Z 14
_cell_length_a 10.363793
_cell_length_b 12.065960
_cell_length_c 13.560733
_cell_angle_alpha 42.156794
_cell_angle_beta 147.295686
_cell_angle_gamma 122.859600
_cell_volume 599.316623
_symmetry_space_group_name_H-M "P -1"
_symmetry_group_IT_number 2
_symmetry_cell_setting 'triclinic'
loop_
_space_group_symop_operation_xyz
x,y,z
-x,-y,-z
loop_
_atom_site_type_symbol
_atom_site_label
_atom_site_fract_x
_atom_site_fract_y
_atom_site_fract_z
Si Si1 0.463084 0.219601 0.927617
Si Si2 0.308029 0.567811 0.685334
Si Si3 0.409618 0.959899 0.661058
Si Si4 0.990616 0.890823 0.311541
Si Si5 0.153473 0.475828 0.864455
Si Si6 0.996519 0.186985 0.327604
Si Si7 0.912656 0.884882 0.936918
O O1 0.332222 0.415563 0.725096
O O2 0.273028 0.130891 0.807963
O O3 0.744418 0.212944 0.085374
O O4 0.481902 0.136566 0.105329
O O5 0.111646 0.735553 0.419523
O O6 0.217921 0.511749 0.769920
O O7 0.584741 0.586515 0.870239
O O8 0.256123 0.147892 0.464273
O O9 0.200277 0.874352 0.538672
O O10 0.619892 0.942259 0.727628
O O11 0.988475 0.058756 0.138886
O O12 0.028710 0.650707 0.724683
O O13 0.023331 0.318510 0.882589
O O14 0.000000 0.000000 0.500000
O O15 0.000000 0.000000 0.000000
#
# Coordination Sequence:
#
# PCOD9043396 Si02
#       7
#     2   2   2   2   2   2   2
#     4  10  20  37  60  93 120 151 202 251 299 350
#     4  10  17  33  60  91 117 148 207 254 288 350
#     4  11  21  40  58  88 119 160 199 241 302 353
#     4  12  22  34  64  90 121 156 198 248 302 351
#     4  10  19  37  62  89 118 161 200 245 302 347
#     4   9  20  37  63  87 121 158 197 248 298 356
#     4  12  23  40  62  88 125 158 201 250 297 357
#
# _framework density 23.359939000000001
#
# number of rings (size 3 to 8) (size 9 to 14) (size 15 to 20)
#    0.000    1.429    4.286    3.429    0.000    0.571 
#    0.000    1.429    0.000    0.000    0.000    0.000 
#    0.000    0.000    0.000    0.000    0.000    0.000 
#
# Total GULP energy -78143.889638 kJ/mol
# GULP energy per Si atom -5581.706403 kJ/mol
# Density = 2.330677 g / cm^3
# Si number density = 23.359939 Si / 1000 Ang^3
#
#
#
# Elastic Constant Matrix: (Units=GPa)
#
#
# Indices 1 2 3 4 5 6 
#
# 1 49.7625 25.6251 11.0884 -16.7230 22.1193 -8.7535
# 2 25.6251 154.2771 42.7495 -14.0808 12.2402 -2.6054
# 3 11.0884 42.7495 72.8057 -5.1968 18.9762 -2.9863
# 4 -16.7230 -14.0808 -5.1968 49.5993 -7.6573 7.0155
# 5 22.1193 12.2402 18.9762 -7.6573 34.6040 -13.6708
# 6 -8.7535 -2.6054 -2.9863 7.0155 -13.6708 26.8706
#
#
#
# Elastic Compliance Matrix: (Units=1/GPa)
#
#
# Indices 1 2 3 4 5 6 
#
# 1 0.032600 -0.004041 0.003108 0.007285 -0.020119 -0.001564
# 2 -0.004041 0.008394 -0.004900 0.000894 0.002494 -0.000011
# 3 0.003108 -0.004900 0.019171 0.000301 -0.012111 -0.003572
# 4 0.007285 0.000894 0.000301 0.023265 -0.001758 -0.004475
# 5 -0.020119 0.002494 -0.012111 -0.001758 0.055424 0.020999
# 6 -0.001564 -0.000011 -0.003572 -0.004475 0.020999 0.048159
#
#
# Mechanical properties :
#
#
# Convention : Reuss Voigt Hill
#
# Bulk Modulus (GPa) = 20.61983 48.41904 34.51944
# Shear Modulus (GPa) = 23.27240 35.37361 29.32301
#
# Velocity S-wave (km/s) = 3.15977 3.89560 3.54682
# Velocity P-wave (km/s) = 4.70727 6.40365 5.61983
#
# Compressibility (1/GPa) = 0.04849699
#
# Stress axis : x y z
#
# Youngs Moduli (GPa) = 30.67507 119.12687 52.16288
#
# Poissons Ratio (x) = 0.48141 -0.16210
# Poissons Ratio (y) = 0.12396 0.25561
# Poissons Ratio (z) = -0.09532 0.58376
#
# Static dielectric constant tensor:
#      x y z
#    x 2.014590 -0.041160 0.019520 
#    y -0.041160 1.986130 0.007720 
#    z 0.019520 0.007720 1.915600 
# 
# From -- ./inp_files/278651.got.cif
#   From: 2010.05.17/outbox.cif.g08.bks.cpg/sg2_140_cif.got.tgz:278651.got - 2010.06.03 11:33:40.
