data_PCOD9043598
_publ_section_title
;
Structure prediction by ZEFSAII (Michael W. Deem and Ramdas Pophale) SiO2 
 PCOD9043598
Probable space group: P -1
;
_chemical_formula_sum "Si O2"
_cell_formula_units_Z 14
_cell_length_a 15.970574
_cell_length_b 16.790292
_cell_length_c 8.191470
_cell_angle_alpha 51.659635
_cell_angle_beta 114.497328
_cell_angle_gamma 155.758826
_cell_volume 624.797872
_symmetry_space_group_name_H-M "P -1"
_symmetry_group_IT_number 2
_symmetry_cell_setting 'triclinic'
loop_
_space_group_symop_operation_xyz
x,y,z
-x,-y,-z
loop_
_atom_site_type_symbol
_atom_site_label
_atom_site_fract_x
_atom_site_fract_y
_atom_site_fract_z
Si Si1 0.798615 0.101752 0.963878
Si Si2 0.726288 0.718653 0.286378
Si Si3 0.827400 0.329801 0.927829
Si Si4 0.747762 0.807859 0.846147
Si Si5 0.582934 0.049998 0.678852
Si Si6 0.197947 0.545702 0.526692
Si Si7 0.555214 0.745110 0.495447
O O1 0.833878 0.233398 0.949196
O O2 0.647914 0.999419 0.826229
O O3 0.029080 0.304567 0.799470
O O4 0.692711 0.906583 0.234739
O O5 0.500000 0.500000 0.500000
O O6 0.655243 0.543205 0.355129
O O7 0.734701 0.809503 0.029976
O O8 0.990049 0.973605 0.244639
O O9 0.874266 0.480344 0.671891
O O10 0.000000 0.500000 0.000000
O O11 0.584950 0.096332 0.120089
O O12 0.718175 0.868198 0.614228
O O13 0.500000 0.500000 0.000000
O O14 0.785528 0.334753 0.508593
O O15 0.500000 0.000000 0.500000
O O16 0.437322 0.730312 0.471260
#
# Coordination Sequence:
#
# PCOD9043598 Si02
#       7
#     2   2   2   2   2   2   2
#     4  11  22  39  58  88 127 170 217 270 325 372
#     4  10  23  45  72  99 128 168 219 260 332 417
#     4  11  20  37  61  83 125 176 223 272 318 382
#     4   9  22  44  71  95 130 169 208 262 340 400
#     4  11  20  39  59  84 120 175 223 259 320 378
#     4  11  22  40  58  86 130 167 217 273 324 376
#     4  11  23  42  62  96 136 162 209 281 326 388
#
# _framework density 22.407245
#
# number of rings (size 3 to 8) (size 9 to 14) (size 15 to 20)
#    0.000    1.429    2.857    4.286    0.000    8.000 
#    7.714    0.000    0.000    0.000    0.000    0.000 
#    0.000    0.000    0.000    0.000    0.000    0.000 
#
# Total GULP energy -77950.324860 kJ/mol
# GULP energy per Si atom -5567.880347 kJ/mol
# Density = 2.235625 g / cm^3
# Si number density = 22.407245 Si / 1000 Ang^3
#
#
#
# Elastic Constant Matrix: (Units=GPa)
#
#
# Indices 1 2 3 4 5 6 
#
# 1 37.1899 30.2574 22.5780 -1.4474 -9.9651 12.7085
# 2 30.2574 146.1738 64.3046 25.0897 -8.3217 18.2991
# 3 22.5780 64.3046 184.6522 16.1706 -20.2104 16.2841
# 4 -1.4474 25.0897 16.1706 58.9172 8.1191 -4.7048
# 5 -9.9651 -8.3217 -20.2104 8.1191 38.3340 -8.6408
# 6 12.7085 18.2991 16.2841 -4.7048 -8.6408 26.4923
#
#
#
# Elastic Compliance Matrix: (Units=1/GPa)
#
#
# Indices 1 2 3 4 5 6 
#
# 1 0.037713 -0.005977 -0.001202 0.002233 0.004866 -0.011240
# 2 -0.005977 0.010181 -0.002177 -0.004118 -0.000455 -0.003707
# 3 -0.001202 -0.002177 0.006895 -0.001505 0.002830 -0.001502
# 4 0.002233 -0.004118 -0.001505 0.020174 -0.004278 0.004885
# 5 0.004866 -0.000455 0.002830 -0.004278 0.030904 0.005560
# 6 -0.011240 -0.003707 -0.001502 0.004885 0.005560 0.049304
#
#
# Mechanical properties :
#
#
# Convention : Reuss Voigt Hill
#
# Bulk Modulus (GPa) = 27.71782 66.92176 47.31979
# Shear Modulus (GPa) = 26.89497 41.47376 34.18436
#
# Velocity S-wave (km/s) = 3.46826 4.30689 3.91012
# Velocity P-wave (km/s) = 5.33248 7.39346 6.44588
#
# Compressibility (1/GPa) = 0.03607788
#
# Stress axis : x y z
#
# Youngs Moduli (GPa) = 26.51586 98.22121 145.04078
#
# Poissons Ratio (x) = 0.58708 0.17427
# Poissons Ratio (y) = 0.15849 0.31574
# Poissons Ratio (z) = 0.03186 0.21382
#
# Static dielectric constant tensor:
#      x y z
#    x 1.853690 -0.016970 0.082930 
#    y -0.016970 1.902580 0.127270 
#    z 0.082930 0.127270 1.831230 
# 
# From -- ./inp_files/315620.got.cif
#   From: 2010.05.17/outbox.cif.g08.bks.cpg/sg2_158_cif.got.tgz:315620.got - 2010.06.03 11:33:40.
