data_PCOD9043067
_publ_section_title
;
Structure prediction by ZEFSAII (Michael W. Deem and Ramdas Pophale) SiO2 
 PCOD9043067
Probable space group: P -1
;
_chemical_formula_sum "Si O2"
_cell_formula_units_Z 15
_cell_length_a 6.304017
_cell_length_b 6.619041
_cell_length_c 17.609742
_cell_angle_alpha 67.856637
_cell_angle_beta 98.573037
_cell_angle_gamma 105.656745
_cell_volume 654.420797
_symmetry_space_group_name_H-M "P -1"
_symmetry_group_IT_number 2
_symmetry_cell_setting 'triclinic'
loop_
_space_group_symop_operation_xyz
x,y,z
-x,-y,-z
loop_
_atom_site_type_symbol
_atom_site_label
_atom_site_fract_x
_atom_site_fract_y
_atom_site_fract_z
Si Si1 0.287125 0.447784 0.598714
Si Si2 0.076671 0.931177 0.892187
Si Si3 0.724913 0.221147 0.227374
Si Si4 0.114497 0.842028 0.478366
Si Si5 0.388402 0.839775 0.350648
Si Si6 0.500000 0.000000 0.000000
Si Si7 0.593904 0.701265 0.918767
Si Si8 0.033203 0.347883 0.749253
O O1 0.254934 0.700023 0.554689
O O2 0.509275 0.375734 0.597020
O O3 0.222523 0.364214 0.692758
O O4 0.094578 0.316235 0.552118
O O5 0.172153 0.881508 0.822957
O O6 0.852269 0.743564 0.914866
O O7 0.239290 0.933906 0.970109
O O8 0.046538 0.182348 0.842444
O O9 0.544796 0.337963 0.160732
O O10 0.917777 0.399513 0.253447
O O11 0.585668 0.032008 0.301169
O O12 0.278060 0.930851 0.404282
O O13 0.000000 0.000000 0.500000
O O14 0.196350 0.753032 0.291135
O O15 0.561242 0.921448 0.929285
O O16 0.500000 0.500000 0.000000
#
# Coordination Sequence:
#
# PCOD9043067 Si02
#       8
#     2   2   2   2   2   1   2   2
#     4  10  23  45  68 105 141 186 243 294 359 427
#     4  11  23  45  66 101 147 178 246 302 355 437
#     4  11  25  43  69 106 135 191 242 292 368 429
#     4  10  24  45  72 104 148 190 239 296 358 431
#     4  11  23  47  73 103 147 190 245 299 358 436
#     4  10  24  40  70  94 138 186 228 292 368 414
#     4  11  24  44  68 101 135 184 240 295 363 438
#     4  11  24  43  70 100 145 183 236 304 355 423
#
# _framework density 22.921030999999999
#
# number of rings (size 3 to 8) (size 9 to 14) (size 15 to 20)
#    0.000    1.333    2.667    1.600    1.867    4.800 
#    7.200    0.000    0.000    0.000    0.000    0.000 
#    0.000    0.000    0.000    0.000    0.000    0.000 
#
# Total GULP energy -83556.610055 kJ/mol
# GULP energy per Si atom -5570.440670 kJ/mol
# Density = 2.286886 g / cm^3
# Si number density = 22.921031 Si / 1000 Ang^3
#
#
#
# Elastic Constant Matrix: (Units=GPa)
#
#
# Indices 1 2 3 4 5 6 
#
# 1 94.3476 23.3145 22.9883 -14.0000 -21.0412 1.7752
# 2 23.3145 83.6663 30.7726 2.4796 -20.1116 3.9795
# 3 22.9883 30.7726 59.3865 -2.9813 -15.2536 7.5562
# 4 -14.0000 2.4796 -2.9813 28.3818 -2.7097 -6.3664
# 5 -21.0412 -20.1116 -15.2536 -2.7097 28.4751 1.4995
# 6 1.7752 3.9795 7.5562 -6.3664 1.4995 38.5918
#
#
#
# Elastic Compliance Matrix: (Units=1/GPa)
#
#
# Indices 1 2 3 4 5 6 
#
# 1 0.014823 -0.001267 -0.002326 0.008293 0.009554 0.000901
# 2 -0.001267 0.016415 -0.006138 -0.002259 0.007211 -0.001085
# 3 -0.002326 -0.006138 0.023215 0.001618 0.006736 -0.003800
# 4 0.008293 -0.002259 0.001618 0.041925 0.009067 0.006099
# 5 0.009554 0.007211 0.006736 0.009067 0.051902 -0.003023
# 6 0.000901 -0.001085 -0.003800 0.006099 -0.003023 0.027850
#
#
# Mechanical properties :
#
#
# Convention : Reuss Voigt Hill
#
# Bulk Modulus (GPa) = 28.57931 43.50570 36.04250
# Shear Modulus (GPa) = 24.12468 29.77808 26.95138
#
# Velocity S-wave (km/s) = 3.24776 3.60830 3.43277
# Velocity P-wave (km/s) = 5.15360 6.03172 5.60987
#
# Compressibility (1/GPa) = 0.03499035
#
# Stress axis : x y z
#
# Youngs Moduli (GPa) = 67.46165 60.91942 43.07605
#
# Poissons Ratio (x) = 0.07720 0.10018
# Poissons Ratio (y) = 0.08549 0.26442
# Poissons Ratio (z) = 0.15689 0.37395
#
# Static dielectric constant tensor:
#      x y z
#    x 1.888220 -0.074670 0.010380 
#    y -0.074670 1.926030 -0.055280 
#    z 0.010380 -0.055280 1.866260 
# 
# From -- ./inp_files/137555.got.cif
#   From: 2010.05.17/outbox.cif.g08.bks.cpg/sg2_69_cif.got.tgz:137555.got - 2010.06.03 11:33:40.
