data_PCOD9043445
_publ_section_title
;
Structure prediction by ZEFSAII (Michael W. Deem and Ramdas Pophale) SiO2 
 PCOD9043445
Probable space group: P -1
;
_chemical_formula_sum "Si O2"
_cell_formula_units_Z 16
_cell_length_a 12.320341
_cell_length_b 21.270161
_cell_length_c 9.565280
_cell_angle_alpha 31.681093
_cell_angle_beta 134.593485
_cell_angle_gamma 148.855028
_cell_volume 677.693652
_symmetry_space_group_name_H-M "P -1"
_symmetry_group_IT_number 2
_symmetry_cell_setting 'triclinic'
loop_
_space_group_symop_operation_xyz
x,y,z
-x,-y,-z
loop_
_atom_site_type_symbol
_atom_site_label
_atom_site_fract_x
_atom_site_fract_y
_atom_site_fract_z
Si Si1 0.038185 0.883037 0.064199
Si Si2 0.441960 0.416783 0.753664
Si Si3 0.939697 0.076951 0.478979
Si Si4 0.693404 0.614542 0.857418
Si Si5 0.614615 0.934756 0.212968
Si Si6 0.781170 0.399030 0.415926
Si Si7 0.387444 0.763966 0.721657
Si Si8 0.209621 0.860167 0.546488
O O1 0.975081 0.987166 0.785549
O O2 0.213304 0.959707 0.955439
O O3 0.141431 0.897422 0.276149
O O4 0.801913 0.698213 0.202030
O O5 0.500000 0.500000 0.500000
O O6 0.589819 0.571820 0.695622
O O7 0.514483 0.315656 0.019369
O O8 0.136075 0.191219 0.334344
O O9 0.944683 0.196222 0.357832
O O10 0.737755 0.968529 0.403062
O O11 0.500000 0.500000 0.000000
O O12 0.795997 0.542410 0.108163
O O13 0.418203 0.735562 0.407232
O O14 0.500000 0.000000 0.000000
O O15 0.729572 0.297921 0.417261
O O16 0.000000 0.500000 0.500000
O O17 0.235009 0.736537 0.755643
O O18 0.577368 0.963072 0.533863
#
# Coordination Sequence:
#
# PCOD9043445 Si02
#       8
#     2   2   2   2   2   2   2   2
#     4  12  25  41  72 104 137 190 242 293 350 426
#     4  11  24  46  70 103 148 186 230 292 361 429
#     4  12  23  44  71 103 140 187 244 292 348 425
#     4  11  24  42  65  99 138 182 227 289 354 411
#     4  12  25  44  70 103 140 189 245 295 351 423
#     4  11  23  47  69  99 141 183 232 295 360 424
#     4  10  23  45  71 103 142 186 234 297 352 427
#     4  11  23  43  73 103 142 180 244 294 348 421
#
# _framework density 23.609490000000001
#
# number of rings (size 3 to 8) (size 9 to 14) (size 15 to 20)
#    0.000    0.750    2.500    5.250    3.500    1.000 
#    0.000    6.875    0.000    0.000    0.000    0.000 
#    0.000    0.000    0.000    0.000    0.000    0.000 
#
# Total GULP energy -89357.672064 kJ/mol
# GULP energy per Si atom -5584.854504 kJ/mol
# Density = 2.355575 g / cm^3
# Si number density = 23.609490 Si / 1000 Ang^3
#
#
#
# Elastic Constant Matrix: (Units=GPa)
#
#
# Indices 1 2 3 4 5 6 
#
# 1 124.9092 46.7246 29.2353 15.6423 -8.9260 13.6656
# 2 46.7246 173.1512 43.8694 15.9004 -10.4983 18.7611
# 3 29.2353 43.8694 88.3108 4.0161 -15.1881 7.7845
# 4 15.6423 15.9004 4.0161 42.2722 2.1018 -11.9167
# 5 -8.9260 -10.4983 -15.1881 2.1018 33.7226 -10.0091
# 6 13.6656 18.7611 7.7845 -11.9167 -10.0091 30.2896
#
#
#
# Elastic Compliance Matrix: (Units=1/GPa)
#
#
# Indices 1 2 3 4 5 6 
#
# 1 0.010061 -0.001240 -0.002047 -0.004465 0.000165 -0.004947
# 2 -0.001240 0.007680 -0.002888 -0.003545 -0.000506 -0.005017
# 3 -0.002047 -0.002888 0.014225 0.000510 0.005226 0.000984
# 4 -0.004465 -0.003545 0.000510 0.031250 0.000950 0.016687
# 5 0.000165 -0.000506 0.005226 0.000950 0.035056 0.010854
# 6 -0.004947 -0.005017 0.000984 0.016687 0.010854 0.048253
#
#
# Mechanical properties :
#
#
# Convention : Reuss Voigt Hill
#
# Bulk Modulus (GPa) = 50.98188 69.55884 60.27036
# Shear Modulus (GPa) = 30.22720 39.02635 34.62678
#
# Velocity S-wave (km/s) = 3.58201 4.07011 3.83384
# Velocity P-wave (km/s) = 6.22482 7.18429 6.72169
#
# Compressibility (1/GPa) = 0.01961481
#
# Stress axis : x y z
#
# Youngs Moduli (GPa) = 99.39364 130.20569 70.29913
#
# Poissons Ratio (x) = 0.16150 0.14391
# Poissons Ratio (y) = 0.12328 0.20304
# Poissons Ratio (z) = 0.20347 0.37606
#
# Static dielectric constant tensor:
#      x y z
#    x 1.961340 -0.088780 -0.061270 
#    y -0.088780 1.678330 -0.131140 
#    z -0.061270 -0.131140 1.798510 
# 
# From -- ./inp_files/282806.got.cif
#   From: 2010.05.17/outbox.cif.g08.bks.cpg/sg2_142_cif.got.tgz:282806.got - 2010.06.03 11:33:40.
