data_PCOD9043510
_publ_section_title
;
Structure prediction by ZEFSAII (Michael W. Deem and Ramdas Pophale) SiO2 
 PCOD9043510
Probable space group: P -1
;
_chemical_formula_sum "Si O2"
_cell_formula_units_Z 12
_cell_length_a 10.640198
_cell_length_b 11.887224
_cell_length_c 8.458529
_cell_angle_alpha 87.068414
_cell_angle_beta 69.182347
_cell_angle_gamma 142.777157
_cell_volume 487.994681
_symmetry_space_group_name_H-M "P -1"
_symmetry_group_IT_number 2
_symmetry_cell_setting 'triclinic'
loop_
_space_group_symop_operation_xyz
x,y,z
-x,-y,-z
loop_
_atom_site_type_symbol
_atom_site_label
_atom_site_fract_x
_atom_site_fract_y
_atom_site_fract_z
Si Si1 0.258178 0.305873 0.747597
Si Si2 0.844410 0.378416 0.243505
Si Si3 0.718732 0.569208 0.949256
Si Si4 0.304514 0.805278 0.233946
Si Si5 0.744799 0.069618 0.461678
Si Si6 0.367137 0.166953 0.926540
O O1 0.500000 0.500000 0.500000
O O2 0.326046 0.238412 0.814820
O O3 0.251077 0.397407 0.879951
O O4 0.940063 0.073737 0.848597
O O5 0.775455 0.196244 0.315538
O O6 0.030258 0.561066 0.288252
O O7 0.538124 0.204297 0.391908
O O8 0.000000 0.500000 0.000000
O O9 0.588414 0.360982 0.949931
O O10 0.991863 0.806673 0.717140
O O11 0.500000 0.500000 0.000000
O O12 0.233113 0.848817 0.388449
O O13 0.490347 0.838036 0.214653
O O14 0.500000 0.000000 0.000000
#
# Coordination Sequence:
#
# PCOD9043510 Si02
#       6
#     2   2   2   2   2   2
#     4  10  24  48  73 103 134 187 244 296 357 422
#     4  11  24  45  67 103 139 186 236 288 353 423
#     4  10  23  45  71  98 137 183 234 290 357 413
#     4  12  25  44  71 105 147 191 234 287 363 432
#     4  11  25  44  70 101 143 188 231 298 359 417
#     4  10  24  46  69 101 146 179 235 299 354 422
#
# _framework density 24.590433000000001
#
# number of rings (size 3 to 8) (size 9 to 14) (size 15 to 20)
#    0.000    1.333    3.333    0.500    4.667    3.333 
#    3.000    3.333    0.000    0.000    0.000    0.000 
#    0.000    0.000    0.000    0.000    0.000    0.000 
#
# Total GULP energy -67167.049488 kJ/mol
# GULP energy per Si atom -5597.254124 kJ/mol
# Density = 2.453446 g / cm^3
# Si number density = 24.590433 Si / 1000 Ang^3
#
#
#
# Elastic Constant Matrix: (Units=GPa)
#
#
# Indices 1 2 3 4 5 6 
#
# 1 63.7442 25.2487 48.1110 -11.0524 -21.3696 8.1529
# 2 25.2487 141.7754 70.6992 -8.9980 -17.6457 28.4192
# 3 48.1110 70.6992 245.0012 -17.5446 -30.4329 23.1011
# 4 -11.0524 -8.9980 -17.5446 51.0622 8.0246 -11.2628
# 5 -21.3696 -17.6457 -30.4329 8.0246 46.3986 -11.8680
# 6 8.1529 28.4192 23.1011 -11.2628 -11.8680 31.2688
#
#
#
# Elastic Compliance Matrix: (Units=1/GPa)
#
#
# Indices 1 2 3 4 5 6 
#
# 1 0.021074 -0.001668 -0.002732 0.002566 0.007277 0.001726
# 2 -0.001668 0.009679 -0.001840 -0.000903 -0.000014 -0.007333
# 3 -0.002732 -0.001840 0.005436 0.000542 0.001269 -0.000954
# 4 0.002566 -0.000903 0.000542 0.021904 -0.000709 0.007372
# 5 0.007277 -0.000014 0.001269 -0.000709 0.027762 0.007459
# 6 0.001726 -0.007333 -0.000954 0.007372 0.007459 0.044386
#
#
# Mechanical properties :
#
#
# Convention : Reuss Voigt Hill
#
# Bulk Modulus (GPa) = 42.18018 82.07097 62.12557
# Shear Modulus (GPa) = 33.19505 46.17671 39.68588
#
# Velocity S-wave (km/s) = 3.67811 4.33810 4.02166
# Velocity P-wave (km/s) = 5.93534 7.65113 6.84719
#
# Compressibility (1/GPa) = 0.02370782
#
# Stress axis : x y z
#
# Youngs Moduli (GPa) = 47.45119 103.31499 183.97174
#
# Poissons Ratio (x) = 0.17234 0.50262
# Poissons Ratio (y) = 0.07915 0.33860
# Poissons Ratio (z) = 0.12964 0.19015
#
# Static dielectric constant tensor:
#      x y z
#    x 1.393900 -0.463610 0.773490 
#    y -0.463610 1.766450 0.575940 
#    z 0.773490 0.575940 0.930280 
# 
# From -- ./inp_files/253471.got.cif
#   From: 2010.05.17/outbox.cif.g08.bks.cpg/sg2_127_cif.got.tgz:253471.got - 2010.06.03 11:33:40.
