data_PCOD9043046
_publ_section_title
;
Structure prediction by ZEFSAII (Michael W. Deem and Ramdas Pophale) SiO2 
 PCOD9043046
Probable space group: P -1
;
_chemical_formula_sum "Si O2"
_cell_formula_units_Z 14
_cell_length_a 11.811081
_cell_length_b 11.517768
_cell_length_c 11.159332
_cell_angle_alpha 34.103340
_cell_angle_beta 53.713093
_cell_angle_gamma 37.697920
_cell_volume 511.529433
_symmetry_space_group_name_H-M "P -1"
_symmetry_group_IT_number 2
_symmetry_cell_setting 'triclinic'
loop_
_space_group_symop_operation_xyz
x,y,z
-x,-y,-z
loop_
_atom_site_type_symbol
_atom_site_label
_atom_site_fract_x
_atom_site_fract_y
_atom_site_fract_z
Si Si1 0.810517 0.247236 0.558931
Si Si2 0.224052 0.874662 0.561303
Si Si3 0.931738 0.696101 0.203192
Si Si4 0.489986 0.257329 0.302690
Si Si5 0.298438 0.404117 0.062156
Si Si6 0.099815 0.716482 0.291108
Si Si7 0.559165 0.889794 0.188814
O O1 0.738306 0.160979 0.576114
O O2 0.885102 0.123976 0.752085
O O3 0.651446 0.573250 0.404751
O O4 0.004498 0.151190 0.467259
O O5 0.336623 0.853830 0.624132
O O6 0.250042 0.605292 0.811572
O O7 0.942323 0.458615 0.463311
O O8 0.726320 0.886399 0.114744
O O9 0.109778 0.537206 0.139467
O O10 0.947037 0.852112 0.165450
O O11 0.444119 0.364340 0.101035
O O12 0.301845 0.496520 0.289722
O O13 0.500000 0.000000 0.500000
O O14 0.395480 0.106541 0.199245
O O15 0.500000 0.000000 0.000000
#
# Coordination Sequence:
#
# PCOD9043046 Si02
#       7
#     2   2   2   2   2   2   2
#     4  10  23  45  68 101 145 194 227 294 354 421
#     4  11  25  45  69 105 152 181 236 296 366 415
#     4   9  21  40  70 104 142 173 240 300 331 422
#     4  11  24  42  76 106 136 192 242 291 351 431
#     4  11  24  46  72 109 139 189 231 301 360 407
#     4   9  20  42  67 100 132 188 239 280 346 418
#     4  11  22  43  72 104 138 191 247 277 352 434
#
# _framework density 27.368904000000001
#
# number of rings (size 3 to 8) (size 9 to 14) (size 15 to 20)
#    0.000    1.714    1.429    2.143   12.000    1.143 
#    2.571    4.286    0.000    0.000    0.000    0.000 
#    0.000    0.000    0.000    0.000    0.000    0.000 
#
# Total GULP energy -78329.497255 kJ/mol
# GULP energy per Si atom -5594.964090 kJ/mol
# Density = 2.730661 g / cm^3
# Si number density = 27.368904 Si / 1000 Ang^3
#
#
#
# Elastic Constant Matrix: (Units=GPa)
#
#
# Indices 1 2 3 4 5 6 
#
# 1 223.8850 56.1353 39.8655 -0.8757 47.5935 23.1824
# 2 56.1353 153.6366 15.7329 -13.3442 16.8941 23.7461
# 3 39.8655 15.7329 73.4302 0.6115 37.0737 10.5911
# 4 -0.8757 -13.3442 0.6115 38.1651 13.8415 10.3345
# 5 47.5935 16.8941 37.0737 13.8415 59.5855 4.0786
# 6 23.1824 23.7461 10.5911 10.3345 4.0786 58.4216
#
#
#
# Elastic Compliance Matrix: (Units=1/GPa)
#
#
# Indices 1 2 3 4 5 6 
#
# 1 0.005997 -0.001216 -0.000519 0.001812 -0.004420 -0.001804
# 2 -0.001216 0.008140 0.000735 0.004746 -0.002649 -0.003614
# 3 -0.000519 0.000735 0.021527 0.006213 -0.014351 -0.004093
# 4 0.001812 0.004746 0.006213 0.035428 -0.014270 -0.009045
# 5 -0.004420 -0.002649 -0.014351 -0.014270 0.032921 0.005659
# 6 -0.001804 -0.003614 -0.004093 -0.009045 0.005659 0.021249
#
#
# Mechanical properties :
#
#
# Convention : Reuss Voigt Hill
#
# Bulk Modulus (GPa) = 29.70380 74.93547 52.31964
# Shear Modulus (GPa) = 36.10583 53.84899 44.97741
#
# Velocity S-wave (km/s) = 3.63606 4.44049 4.05826
# Velocity P-wave (km/s) = 5.33897 7.33006 6.41227
#
# Compressibility (1/GPa) = 0.03366572
#
# Stress axis : x y z
#
# Youngs Moduli (GPa) = 166.74070 122.85132 46.45405
#
# Poissons Ratio (x) = 0.14938 0.02409
# Poissons Ratio (y) = 0.20275 -0.03416
# Poissons Ratio (z) = 0.08647 -0.09035
#
# Static dielectric constant tensor:
#      x y z
#    x 2.231730 -0.003100 -0.106710 
#    y -0.003100 2.051870 0.052380 
#    z -0.106710 0.052380 2.382140 
# 
# From -- ./inp_files/424922.got.cif
#   From: 2010.05.17/outbox.cif.g08.bks.cpg/sg2_213_cif.got.tgz:424922.got - 2010.06.03 11:33:40.
