data_PCOD9043734
_publ_section_title
;
Structure prediction by ZEFSAII (Michael W. Deem and Ramdas Pophale) SiO2 
 PCOD9043734
Probable space group: P -1
;
_chemical_formula_sum "Si O2"
_cell_formula_units_Z 14
_cell_length_a 9.778133
_cell_length_b 9.237199
_cell_length_c 8.414746
_cell_angle_alpha 110.733594
_cell_angle_beta 87.288805
_cell_angle_gamma 116.115862
_cell_volume 632.894777
_symmetry_space_group_name_H-M "P -1"
_symmetry_group_IT_number 2
_symmetry_cell_setting 'triclinic'
loop_
_space_group_symop_operation_xyz
x,y,z
-x,-y,-z
loop_
_atom_site_type_symbol
_atom_site_label
_atom_site_fract_x
_atom_site_fract_y
_atom_site_fract_z
Si Si1 0.320145 0.194393 0.751128
Si Si2 0.001577 0.028383 0.192948
Si Si3 0.100890 0.415694 0.391039
Si Si4 0.446713 0.808061 0.997398
Si Si5 0.139485 0.618368 0.154216
Si Si6 0.386317 0.507476 0.641291
Si Si7 0.861620 0.044907 0.587837
O O1 0.375618 0.374697 0.729034
O O2 0.151631 0.137928 0.808621
O O3 0.281454 0.050522 0.557456
O O4 0.428628 0.189757 0.881450
O O5 0.999163 0.209169 0.298285
O O6 0.154188 0.037637 0.269254
O O7 0.000000 0.000000 0.000000
O O8 0.162096 0.501839 0.247349
O O9 0.230375 0.448780 0.527523
O O10 0.000000 0.500000 0.500000
O O11 0.430384 0.686112 0.799915
O O12 0.287420 0.723839 0.074852
O O13 0.500000 0.000000 0.000000
O O14 0.101895 0.758735 0.305072
O O15 0.000000 0.500000 0.000000
O O16 0.500000 0.500000 0.500000
O O17 0.000000 0.000000 0.500000
#
# Coordination Sequence:
#
# PCOD9043734 Si02
#       7
#     2   2   2   2   2   2   2
#     4  11  26  48  75 105 155 194 249 307 378 455
#     4  11  25  41  78 108 145 194 250 300 372 450
#     4  12  26  46  76 115 146 193 254 314 374 441
#     4  12  32  49  75 113 152 196 252 318 382 443
#     4  12  28  48  78 109 156 196 250 316 376 441
#     4  12  29  51  76 104 151 203 254 307 385 462
#     4  10  23  45  74 108 145 197 246 304 371 446
#
# _framework density 22.12058
#
# number of rings (size 3 to 8) (size 9 to 14) (size 15 to 20)
#    0.000    0.571    1.429    4.714   20.000    0.571 
#    0.000    0.000    0.000    0.000    0.000    0.000 
#    0.000    0.000    0.000    0.000    0.000    0.000 
#
# Total GULP energy -78243.623975 kJ/mol
# GULP energy per Si atom -5588.830284 kJ/mol
# Density = 2.207023 g / cm^3
# Si number density = 22.120580 Si / 1000 Ang^3
#
#
#
# Elastic Constant Matrix: (Units=GPa)
#
#
# Indices 1 2 3 4 5 6 
#
# 1 83.1928 16.4476 27.7407 -5.3405 8.0986 5.6425
# 2 16.4476 152.5906 39.0794 -8.1792 -9.2068 -3.3201
# 3 27.7407 39.0794 138.7679 6.3089 13.3873 1.1120
# 4 -5.3405 -8.1792 6.3089 56.5114 -5.5299 -2.5168
# 5 8.0986 -9.2068 13.3873 -5.5299 42.8778 -6.3877
# 6 5.6425 -3.3201 1.1120 -2.5168 -6.3877 32.8486
#
#
#
# Elastic Compliance Matrix: (Units=1/GPa)
#
#
# Indices 1 2 3 4 5 6 
#
# 1 0.013434 -0.001033 -0.002192 0.001014 -0.002349 -0.002717
# 2 -0.001033 0.007560 -0.002300 0.001624 0.003003 0.001728
# 3 -0.002192 -0.002300 0.008690 -0.001861 -0.003168 -0.000909
# 4 0.001014 0.001624 -0.001861 0.018670 0.003467 0.002158
# 5 -0.002349 0.003003 -0.003168 0.003467 0.026784 0.006288
# 6 -0.002717 0.001728 -0.000909 0.002158 0.006288 0.032503
#
#
# Mechanical properties :
#
#
# Convention : Reuss Voigt Hill
#
# Bulk Modulus (GPa) = 53.66927 60.12075 56.89501
# Shear Modulus (GPa) = 40.03194 45.86645 42.94920
#
# Velocity S-wave (km/s) = 4.25869 4.55848 4.41113
# Velocity P-wave (km/s) = 6.96396 7.41242 7.19169
#
# Compressibility (1/GPa) = 0.01863264
#
# Stress axis : x y z
#
# Youngs Moduli (GPa) = 74.44073 132.28050 115.07831
#
# Poissons Ratio (x) = 0.13664 0.25229
# Poissons Ratio (y) = 0.07690 0.26466
# Poissons Ratio (z) = 0.16320 0.30423
#
# Static dielectric constant tensor:
#      x y z
#    x 1.919000 0.015950 0.039900 
#    y 0.015950 1.872400 -0.050100 
#    z 0.039900 -0.050100 1.933860 
# 
# From -- ./inp_files/159775.got.cif
#   From: 2010.05.17/outbox.cif.g08.bks.cpg/sg2_80_cif.got.tgz:159775.got - 2010.06.03 11:33:40.
