data_PCOD9043242
_publ_section_title
;
Structure prediction by ZEFSAII (Michael W. Deem and Ramdas Pophale) SiO2 
 PCOD9043242
Probable space group: P -1
;
_chemical_formula_sum "Si O2"
_cell_formula_units_Z 14
_cell_length_a 11.998526
_cell_length_b 10.235428
_cell_length_c 6.894687
_cell_angle_alpha 71.254470
_cell_angle_beta 134.707896
_cell_angle_gamma 111.425109
_cell_volume 557.533121
_symmetry_space_group_name_H-M "P -1"
_symmetry_group_IT_number 2
_symmetry_cell_setting 'triclinic'
loop_
_space_group_symop_operation_xyz
x,y,z
-x,-y,-z
loop_
_atom_site_type_symbol
_atom_site_label
_atom_site_fract_x
_atom_site_fract_y
_atom_site_fract_z
Si Si1 0.096139 0.626185 0.433256
Si Si2 0.447153 0.668208 0.249781
Si Si3 0.298014 0.112082 0.314107
Si Si4 0.954780 0.751971 0.849986
Si Si5 0.167579 0.994774 0.814949
Si Si6 0.297851 0.494283 0.480181
Si Si7 0.684045 0.119171 0.277132
O O1 0.257946 0.588025 0.561929
O O2 0.145126 0.775024 0.529522
O O3 0.000000 0.500000 0.500000
O O4 0.992304 0.652232 0.111759
O O5 0.564961 0.756738 0.514408
O O6 0.301636 0.580175 0.240617
O O7 0.537037 0.559220 0.304458
O O8 0.411375 0.777072 0.995152
O O9 0.142038 0.136792 0.230196
O O10 0.351726 0.970659 0.526577
O O11 0.242200 0.098397 0.029478
O O12 0.839433 0.648562 0.614197
O O13 0.119502 0.840501 0.927194
O O14 0.297565 0.994334 0.809374
O O15 0.000000 0.000000 0.500000
#
# Coordination Sequence:
#
# PCOD9043242 Si02
#       7
#     2   2   2   2   2   2   2
#     4  12  24  41  70 105 138 177 231 290 352 405
#     4  10  24  46  69  96 142 187 237 274 338 414
#     4  11  24  44  67 102 140 179 229 288 340 419
#     4  11  21  43  69  98 140 172 231 293 345 410
#     4  12  23  41  70 102 139 177 223 288 358 401
#     4  10  23  45  69  98 136 187 231 291 331 410
#     4  12  24  42  67 103 138 183 232 280 344 417
#
# _framework density 25.110614000000002
#
# number of rings (size 3 to 8) (size 9 to 14) (size 15 to 20)
#    0.000    0.857    2.857    4.714    0.000    1.143 
#    2.571    0.000    0.000    0.000    0.000    0.000 
#    0.000    0.000    0.000    0.000    0.000    0.000 
#
# Total GULP energy -78315.183493 kJ/mol
# GULP energy per Si atom -5593.941678 kJ/mol
# Density = 2.505346 g / cm^3
# Si number density = 25.110614 Si / 1000 Ang^3
#
#
#
# Elastic Constant Matrix: (Units=GPa)
#
#
# Indices 1 2 3 4 5 6 
#
# 1 67.6816 23.1154 21.4495 -6.2861 -14.5818 -5.6393
# 2 23.1154 80.7513 30.9019 -0.3750 -2.4653 3.7838
# 3 21.4495 30.9019 124.0658 -9.8472 -6.3370 -17.6983
# 4 -6.2861 -0.3750 -9.8472 54.8112 -5.2571 2.4646
# 5 -14.5818 -2.4653 -6.3370 -5.2571 23.9601 -0.5746
# 6 -5.6393 3.7838 -17.6983 2.4646 -0.5746 49.0301
#
#
#
# Elastic Compliance Matrix: (Units=1/GPa)
#
#
# Indices 1 2 3 4 5 6 
#
# 1 0.019892 -0.005040 -0.000991 0.003122 0.012066 0.002304
# 2 -0.005040 0.015256 -0.003603 -0.001253 -0.002798 -0.003027
# 3 -0.000991 -0.003603 0.009893 0.001675 0.002098 0.003676
# 4 0.003122 -0.001253 0.001675 0.019511 0.006499 0.000156
# 5 0.012066 -0.002798 0.002098 0.006499 0.050835 0.002630
# 6 0.002304 -0.003027 0.003676 0.000156 0.002630 0.022244
#
#
# Mechanical properties :
#
#
# Convention : Reuss Voigt Hill
#
# Bulk Modulus (GPa) = 38.79940 47.04804 42.92372
# Shear Modulus (GPa) = 30.21332 38.69574 34.45453
#
# Velocity S-wave (km/s) = 3.47249 3.92983 3.70822
# Velocity P-wave (km/s) = 5.61806 6.27443 5.95529
#
# Compressibility (1/GPa) = 0.02577360
#
# Stress axis : x y z
#
# Youngs Moduli (GPa) = 50.27179 65.54919 101.07748
#
# Poissons Ratio (x) = 0.33037 0.10017
# Poissons Ratio (y) = 0.25337 0.36415
# Poissons Ratio (z) = 0.04982 0.23615
#
# Static dielectric constant tensor:
#      x y z
#    x 2.008940 -0.004670 0.021140 
#    y -0.004670 1.956150 -0.026290 
#    z 0.021140 -0.026290 2.016190 
# 
# From -- ./inp_files/69491.got.cif
#   From: 2010.05.17/outbox.cif.g08.bks.cpg/sg2_35_cif.got.tgz:69491.got - 2010.06.03 11:33:40.
