data_PCOD9043240
_publ_section_title
;
Structure prediction by ZEFSAII (Michael W. Deem and Ramdas Pophale) SiO2 
 PCOD9043240
Probable space group: P -1
;
_chemical_formula_sum "Si O2"
_cell_formula_units_Z 14
_cell_length_a 5.147264
_cell_length_b 18.643722
_cell_length_c 8.473487
_cell_angle_alpha 48.955196
_cell_angle_beta 80.257883
_cell_angle_gamma 75.789969
_cell_volume 594.474987
_symmetry_space_group_name_H-M "P -1"
_symmetry_group_IT_number 2
_symmetry_cell_setting 'triclinic'
loop_
_space_group_symop_operation_xyz
x,y,z
-x,-y,-z
loop_
_atom_site_type_symbol
_atom_site_label
_atom_site_fract_x
_atom_site_fract_y
_atom_site_fract_z
Si Si1 0.104531 0.391461 0.591264
Si Si2 0.571227 0.920503 0.244019
Si Si3 0.675350 0.401176 0.064311
Si Si4 0.592696 0.323704 0.852011
Si Si5 0.985952 0.077809 0.527867
Si Si6 0.630352 0.713246 0.547030
Si Si7 0.818452 0.737809 0.838897
O O1 0.403636 0.366898 0.666384
O O2 0.156295 0.371421 0.430816
O O3 0.000000 0.500000 0.500000
O O4 0.897507 0.323554 0.770867
O O5 0.629901 0.813199 0.311184
O O6 0.299827 0.917035 0.370817
O O7 0.795136 0.938699 0.325314
O O8 0.500000 0.000000 0.000000
O O9 0.634287 0.328317 0.318305
O O10 0.985689 0.367676 0.029992
O O11 0.500000 0.500000 0.000000
O O12 0.549183 0.385811 0.927894
O O13 0.432603 0.240543 0.047086
O O14 0.008731 0.178159 0.292093
O O15 0.000000 0.000000 0.500000
O O16 0.711404 0.742869 0.667139
#
# Coordination Sequence:
#
# PCOD9043240 Si02
#       7
#     2   2   2   2   2   2   2
#     4  12  26  43  64  99 141 179 227 281 339 397
#     4  11  24  47  69 104 138 180 226 282 354 428
#     4  11  22  42  71  96 133 181 229 277 332 404
#     4  11  25  43  63  96 135 176 229 276 332 398
#     4  11  24  46  74 103 135 176 228 296 348 408
#     4  10  25  41  69  97 136 183 223 279 338 407
#     4  10  23  45  69  98 136 176 236 275 340 411
#
# _framework density 23.550191000000002
#
# number of rings (size 3 to 8) (size 9 to 14) (size 15 to 20)
#    0.000    1.143    2.857    2.143    4.000    2.286 
#    2.571    0.000    0.000    0.000    0.000    0.000 
#    0.000    0.000    0.000    0.000    0.000    0.000 
#
# Total GULP energy -77942.353159 kJ/mol
# GULP energy per Si atom -5567.310940 kJ/mol
# Density = 2.349659 g / cm^3
# Si number density = 23.550191 Si / 1000 Ang^3
#
#
#
# Elastic Constant Matrix: (Units=GPa)
#
#
# Indices 1 2 3 4 5 6 
#
# 1 149.1848 20.6392 18.7004 7.7410 -13.0493 -8.1344
# 2 20.6392 80.2995 19.7076 5.4154 -12.3510 -9.8191
# 3 18.7004 19.7076 69.5517 0.9249 -12.0084 -5.5047
# 4 7.7410 5.4154 0.9249 29.5863 -12.8125 2.0624
# 5 -13.0493 -12.3510 -12.0084 -12.8125 42.4642 11.6802
# 6 -8.1344 -9.8191 -5.5047 2.0624 11.6802 19.6785
#
#
#
# Elastic Compliance Matrix: (Units=1/GPa)
#
#
# Indices 1 2 3 4 5 6 
#
# 1 0.007260 -0.001109 -0.001375 -0.001562 0.000521 0.001918
# 2 -0.001109 0.014489 -0.003206 -0.002366 0.000680 0.005719
# 3 -0.001375 -0.003206 0.016296 0.002164 0.003957 -0.000185
# 4 -0.001562 -0.002366 0.002164 0.042884 0.016678 -0.015615
# 5 0.000521 0.000680 0.003957 0.016678 0.035952 -0.021425
# 6 0.001918 0.005719 -0.000185 -0.015615 -0.021425 0.068765
#
#
# Mechanical properties :
#
#
# Convention : Reuss Voigt Hill
#
# Bulk Modulus (GPa) = 37.50265 46.34781 41.92523
# Shear Modulus (GPa) = 24.28210 34.34505 29.31358
#
# Velocity S-wave (km/s) = 3.21453 3.82301 3.53190
# Velocity P-wave (km/s) = 5.45314 6.26182 5.87142
#
# Compressibility (1/GPa) = 0.02666478
#
# Stress axis : x y z
#
# Youngs Moduli (GPa) = 137.74047 69.02004 61.36573
#
# Poissons Ratio (x) = 0.07651 0.08440
# Poissons Ratio (y) = 0.15269 0.19673
# Poissons Ratio (z) = 0.18945 0.22127
#
# Static dielectric constant tensor:
#      x y z
#    x 2.042410 0.031800 -0.015120 
#    y 0.031800 1.947150 -0.074380 
#    z -0.015120 -0.074380 2.108600 
# 
# From -- ./inp_files/136492.got.cif
#   From: 2010.05.17/outbox.cif.g08.bks.cpg/sg2_69_cif.got.tgz:136492.got - 2010.06.03 11:33:40.
