data_PCOD9043540
_publ_section_title
;
Structure prediction by ZEFSAII (Michael W. Deem and Ramdas Pophale) SiO2 
 PCOD9043540
Probable space group: P -1
;
_chemical_formula_sum "Si O2"
_cell_formula_units_Z 15
_cell_length_a 14.083156
_cell_length_b 8.583239
_cell_length_c 8.414887
_cell_angle_alpha 79.628063
_cell_angle_beta 140.060844
_cell_angle_gamma 115.924200
_cell_volume 565.691139
_symmetry_space_group_name_H-M "P -1"
_symmetry_group_IT_number 2
_symmetry_cell_setting 'triclinic'
loop_
_space_group_symop_operation_xyz
x,y,z
-x,-y,-z
loop_
_atom_site_type_symbol
_atom_site_label
_atom_site_fract_x
_atom_site_fract_y
_atom_site_fract_z
Si Si1 0.676473 0.058068 0.999968
Si Si2 0.639254 0.705951 0.145639
Si Si3 0.942287 0.662121 0.476229
Si Si4 0.200929 0.357840 0.011173
Si Si5 0.115398 0.416630 0.227872
Si Si6 0.163563 0.976474 0.094716
Si Si7 0.500000 0.500000 0.500000
Si Si8 0.610605 0.845441 0.402298
O O1 0.862707 0.193224 0.282872
O O2 0.594754 0.854071 0.992148
O O3 0.547140 0.131417 0.853783
O O4 0.709427 0.043725 0.859993
O O5 0.818352 0.750686 0.292107
O O6 0.674844 0.764893 0.363064
O O7 0.500000 0.500000 0.000000
O O8 0.865234 0.546549 0.562951
O O9 0.901691 0.584365 0.255503
O O10 0.242789 0.449152 0.233227
O O11 0.132011 0.146148 0.986614
O O12 0.396109 0.452183 0.200709
O O13 0.000000 0.500000 0.000000
O O14 0.005727 0.203463 0.118151
O O15 0.234422 0.977658 0.360773
O O16 0.560580 0.714607 0.511890
#
# Coordination Sequence:
#
# PCOD9043540 Si02
#       8
#     2   2   2   2   2   2   1   2
#     4  11  25  46  73 109 145 191 256 311 372 458
#     4  12  26  47  70 109 146 192 251 312 371 452
#     4  11  25  47  77 105 147 200 244 304 380 455
#     4  11  23  46  77  98 148 197 250 296 386 446
#     4  11  27  44  67 114 146 185 251 318 364 447
#     4  10  23  45  72 101 141 198 243 299 379 454
#     4  10  24  44  70 106 138 196 242 302 364 464
#     4  11  25  45  76 101 149 193 248 308 383 441
#
# _framework density 26.516233
#
# number of rings (size 3 to 8) (size 9 to 14) (size 15 to 20)
#    0.000    1.067    1.333    4.000    9.333    1.600 
#    2.400    0.000    0.000    0.000    0.000    0.000 
#    0.000    0.000    0.000    0.000    0.000    0.000 
#
# Total GULP energy -83538.169058 kJ/mol
# GULP energy per Si atom -5569.211271 kJ/mol
# Density = 2.645588 g / cm^3
# Si number density = 26.516233 Si / 1000 Ang^3
#
#
#
# Elastic Constant Matrix: (Units=GPa)
#
#
# Indices 1 2 3 4 5 6 
#
# 1 118.8226 17.4178 22.4429 5.2529 -6.4768 -3.4908
# 2 17.4178 82.2341 27.5197 -4.6619 9.4018 3.0008
# 3 22.4429 27.5197 159.8407 11.0797 -5.1386 -0.4694
# 4 5.2529 -4.6619 11.0797 39.3036 0.7191 -5.8260
# 5 -6.4768 9.4018 -5.1386 0.7191 45.5691 -5.5905
# 6 -3.4908 3.0008 -0.4694 -5.8260 -5.5905 31.5905
#
#
#
# Elastic Compliance Matrix: (Units=1/GPa)
#
#
# Indices 1 2 3 4 5 6 
#
# 1 0.009035 -0.001956 -0.000798 -0.001056 0.001773 0.001291
# 2 -0.001956 0.014013 -0.002429 0.002410 -0.003701 -0.001794
# 3 -0.000798 -0.002429 0.006976 -0.002161 0.001216 0.000063
# 4 -0.001056 0.002410 -0.002161 0.027159 -0.000768 0.004495
# 5 0.001773 -0.003701 0.001216 -0.000768 0.023676 0.004614
# 6 0.001291 -0.001794 0.000063 0.004495 0.004614 0.033615
#
#
# Mechanical properties :
#
#
# Convention : Reuss Voigt Hill
#
# Bulk Modulus (GPa) = 50.87367 55.07314 52.97341
# Shear Modulus (GPa) = 38.05420 42.86044 40.45732
#
# Velocity S-wave (km/s) = 3.79242 4.02479 3.91033
# Velocity P-wave (km/s) = 6.19710 6.51255 6.35678
#
# Compressibility (1/GPa) = 0.01965653
#
# Stress axis : x y z
#
# Youngs Moduli (GPa) = 110.68573 71.36248 143.35780
#
# Poissons Ratio (x) = 0.13960 0.11437
# Poissons Ratio (y) = 0.21653 0.34825
# Poissons Ratio (z) = 0.08830 0.17336
#
# Static dielectric constant tensor:
#      x y z
#    x 1.974460 -0.042680 -0.263670 
#    y -0.042680 2.088040 0.054390 
#    z -0.263670 0.054390 2.159580 
# 
# From -- ./inp_files/295360.got.cif
#   From: 2010.05.17/outbox.cif.g08.bks.cpg/sg2_148_cif.got.tgz:295360.got - 2010.06.03 11:33:40.
