data_PCOD9043199
_publ_section_title
;
Structure prediction by ZEFSAII (Michael W. Deem and Ramdas Pophale) SiO2 
 PCOD9043199
Probable space group: P -1
;
_chemical_formula_sum "Si O2"
_cell_formula_units_Z 14
_cell_length_a 7.224409
_cell_length_b 7.880690
_cell_length_c 12.424797
_cell_angle_alpha 128.931026
_cell_angle_beta 104.800905
_cell_angle_gamma 82.713235
_cell_volume 531.484280
_symmetry_space_group_name_H-M "P -1"
_symmetry_group_IT_number 2
_symmetry_cell_setting 'triclinic'
loop_
_space_group_symop_operation_xyz
x,y,z
-x,-y,-z
loop_
_atom_site_type_symbol
_atom_site_label
_atom_site_fract_x
_atom_site_fract_y
_atom_site_fract_z
Si Si1 0.439926 0.924077 0.806672
Si Si2 0.145880 0.568922 0.692834
Si Si3 0.725009 0.538527 0.723667
Si Si4 0.884847 0.881287 0.571062
Si Si5 0.152807 0.690440 0.131028
Si Si6 0.315972 0.905654 0.553176
Si Si7 0.602364 0.353687 0.042735
O O1 0.239168 0.793457 0.750475
O O2 0.602213 0.749870 0.777695
O O3 0.432724 0.993254 0.707341
O O4 0.465768 0.145110 0.966495
O O5 0.150818 0.379394 0.527796
O O6 0.939240 0.581698 0.723939
O O7 0.292419 0.522617 0.794792
O O8 0.737808 0.432282 0.803470
O O9 0.630205 0.339530 0.561325
O O10 0.091286 0.888454 0.546778
O O11 0.903664 0.078495 0.736737
O O12 0.705389 0.950311 0.498481
O O13 0.240346 0.749424 0.051431
O O14 0.000000 0.500000 0.000000
O O15 0.500000 0.500000 0.000000
#
# Coordination Sequence:
#
# PCOD9043199 Si02
#       7
#     2   2   2   2   2   2   2
#     4  12  26  42  69 106 144 184 227 293 356 416
#     4  11  24  47  70 100 150 181 230 291 348 423
#     4  10  23  45  69 106 140 183 233 288 353 414
#     4   9  21  42  74 104 129 189 239 284 344 412
#     4  11  23  44  75 102 135 183 242 288 335 413
#     4   9  20  40  70 102 141 179 234 286 343 413
#     4  12  27  46  70 102 137 188 237 288 353 416
#
# _framework density 26.341325000000001
#
# number of rings (size 3 to 8) (size 9 to 14) (size 15 to 20)
#    0.000    1.429    1.429    3.429    2.000    6.286 
#    0.000    3.571    0.000    0.000    0.000    0.000 
#    0.000    0.000    0.000    0.000    0.000    0.000 
#
# Total GULP energy -78303.721210 kJ/mol
# GULP energy per Si atom -5593.122944 kJ/mol
# Density = 2.628137 g / cm^3
# Si number density = 26.341325 Si / 1000 Ang^3
#
#
#
# Elastic Constant Matrix: (Units=GPa)
#
#
# Indices 1 2 3 4 5 6 
#
# 1 69.9811 14.5451 33.3273 18.3031 15.2366 -2.8015
# 2 14.5451 119.2409 40.2977 6.6500 -1.9112 -24.5342
# 3 33.3273 40.2977 175.9979 22.5129 6.3065 -4.7367
# 4 18.3031 6.6500 22.5129 47.9530 0.9614 4.2696
# 5 15.2366 -1.9112 6.3065 0.9614 33.8646 6.3683
# 6 -2.8015 -24.5342 -4.7367 4.2696 6.3683 47.5881
#
#
#
# Elastic Compliance Matrix: (Units=1/GPa)
#
#
# Indices 1 2 3 4 5 6 
#
# 1 0.019077 -0.000926 -0.002260 -0.006110 -0.008436 0.002098
# 2 -0.000926 0.010240 -0.001973 -0.000596 0.000434 0.005024
# 3 -0.002260 -0.001973 0.006825 -0.002040 -0.000260 -0.000253
# 4 -0.006110 -0.000596 -0.002040 0.024474 0.003054 -0.003475
# 5 -0.008436 0.000434 -0.000260 0.003054 0.034281 -0.005160
# 6 0.002098 0.005024 -0.000253 -0.003475 -0.005160 0.024704
#
#
# Mechanical properties :
#
#
# Convention : Reuss Voigt Hill
#
# Bulk Modulus (GPa) = 38.72519 60.17335 49.44927
# Shear Modulus (GPa) = 36.09349 44.35111 40.22230
#
# Velocity S-wave (km/s) = 3.70567 4.10775 3.91188
# Velocity P-wave (km/s) = 5.74826 6.73732 6.26235
#
# Compressibility (1/GPa) = 0.02582299
#
# Stress axis : x y z
#
# Youngs Moduli (GPa) = 52.41927 97.65516 146.51617
#
# Poissons Ratio (x) = 0.09044 0.33115
# Poissons Ratio (y) = 0.04854 0.28913
# Poissons Ratio (z) = 0.11848 0.19271
#
# Static dielectric constant tensor:
#      x y z
#    x 2.197020 0.059380 -0.284750 
#    y 0.059380 2.149910 0.000540 
#    z -0.284750 0.000540 4.519040 
# 
# From -- ./inp_files/490212.got.cif
#   From: 2010.05.17/outbox.cif.g08.bks.cpg/sg2_246_cif.got.tgz:490212.got - 2010.06.03 11:33:40.
