data_PCOD9043524
_publ_section_title
;
Structure prediction by ZEFSAII (Michael W. Deem and Ramdas Pophale) SiO2 
 PCOD9043524
Probable space group: P -1
;
_chemical_formula_sum "Si O2"
_cell_formula_units_Z 13
_cell_length_a 9.933516
_cell_length_b 10.964142
_cell_length_c 8.758271
_cell_angle_alpha 117.045822
_cell_angle_beta 131.367427
_cell_angle_gamma 43.878352
_cell_volume 495.765522
_symmetry_space_group_name_H-M "P -1"
_symmetry_group_IT_number 2
_symmetry_cell_setting 'triclinic'
loop_
_space_group_symop_operation_xyz
x,y,z
-x,-y,-z
loop_
_atom_site_type_symbol
_atom_site_label
_atom_site_fract_x
_atom_site_fract_y
_atom_site_fract_z
Si Si1 0.462865 0.653367 0.459231
Si Si2 0.219915 0.036407 0.652462
Si Si3 0.801639 0.160058 0.242413
Si Si4 0.092126 0.406976 0.184500
Si Si5 0.585469 0.996922 0.733958
Si Si6 0.000000 0.000000 0.000000
Si Si7 0.645137 0.480931 0.955980
O O1 0.500000 0.500000 0.500000
O O2 0.332022 0.848703 0.542194
O O3 0.727345 0.577069 0.590494
O O4 0.316115 0.668570 0.211636
O O5 0.207379 0.992489 0.792139
O O6 0.363865 0.096301 0.736690
O O7 0.955829 0.170436 0.483525
O O8 0.541458 0.332395 0.155751
O O9 0.947724 0.119449 0.177103
O O10 0.246546 0.196660 0.175642
O O11 0.000000 0.500000 0.000000
O O12 0.869849 0.461910 0.141253
O O13 0.500000 0.000000 0.500000
O O14 0.740268 0.056065 0.867924
O O15 0.500000 0.500000 0.000000
#
# Coordination Sequence:
#
# PCOD9043524 Si02
#       7
#     2   2   2   2   2   1   2
#     4  11  22  46  76  98 140 190 227 294 364 406
#     4  10  23  45  72 100 140 181 242 284 350 426
#     4  11  24  43  67 105 138 185 232 293 342 430
#     4  11  24  44  75 106 138 187 244 292 353 437
#     4  11  24  45  72 104 143 186 239 295 356 425
#     4  12  26  44  74 100 146 192 232 288 374 406
#     4  12  26  43  68 107 146 177 237 296 353 430
#
# _framework density 26.222073999999999
#
# number of rings (size 3 to 8) (size 9 to 14) (size 15 to 20)
#    0.000    0.923    4.615    1.846    4.308    1.231 
#    2.769    0.000    0.000    0.000    0.000    0.000 
#    0.000    0.000    0.000    0.000    0.000    0.000 
#
# Total GULP energy -72452.174635 kJ/mol
# GULP energy per Si atom -5573.244203 kJ/mol
# Density = 2.616239 g / cm^3
# Si number density = 26.222074 Si / 1000 Ang^3
#
#
#
# Elastic Constant Matrix: (Units=GPa)
#
#
# Indices 1 2 3 4 5 6 
#
# 1 161.7502 -2.2876 37.5617 -0.3380 55.7652 -9.8808
# 2 -2.2876 75.3649 11.7936 3.9431 6.0412 3.1564
# 3 37.5617 11.7936 83.7117 -7.9097 42.2544 1.7689
# 4 -0.3380 3.9431 -7.9097 34.9695 -15.3716 0.8182
# 5 55.7652 6.0412 42.2544 -15.3716 72.8522 -8.7846
# 6 -9.8808 3.1564 1.7689 0.8182 -8.7846 47.1093
#
#
#
# Elastic Compliance Matrix: (Units=1/GPa)
#
#
# Indices 1 2 3 4 5 6 
#
# 1 0.008839 0.001122 -0.000947 -0.003320 -0.006941 0.000578
# 2 0.001122 0.013902 -0.001899 -0.002659 -0.001577 -0.000873
# 3 -0.000947 -0.001899 0.017532 0.000015 -0.009587 -0.002518
# 4 -0.003320 -0.002659 0.000015 0.033177 0.009842 0.000740
# 5 -0.006941 -0.001577 -0.009587 0.009842 0.027280 0.003926
# 6 0.000578 -0.000873 -0.002518 0.000740 0.003926 0.022221
#
#
# Mechanical properties :
#
#
# Convention : Reuss Voigt Hill
#
# Bulk Modulus (GPa) = 27.15467 46.10692 36.63079
# Shear Modulus (GPa) = 36.05594 49.23680 42.64637
#
# Velocity S-wave (km/s) = 3.71215 4.33793 4.03718
# Velocity P-wave (km/s) = 5.36205 6.53541 5.97759
#
# Compressibility (1/GPa) = 0.03682608
#
# Stress axis : x y z
#
# Youngs Moduli (GPa) = 113.12945 71.93173 57.03960
#
# Poissons Ratio (x) = -0.08073 0.05400
# Poissons Ratio (y) = -0.12697 0.10833
# Poissons Ratio (z) = 0.10711 0.13661
#
# Static dielectric constant tensor:
#      x y z
#    x 2.194390 0.149510 -0.157900 
#    y 0.149510 1.956220 -0.076410 
#    z -0.157900 -0.076410 2.284910 
# 
# From -- ./inp_files/182002.got.cif
#   From: 2010.05.17/outbox.cif.g08.bks.cpg/sg2_92_cif.got.tgz:182002.got - 2010.06.03 11:33:40.
