data_PCOD9043417
_publ_section_title
;
Structure prediction by ZEFSAII (Michael W. Deem and Ramdas Pophale) SiO2 
 PCOD9043417
Probable space group: P -1
;
_chemical_formula_sum "Si O2"
_cell_formula_units_Z 12
_cell_length_a 5.403268
_cell_length_b 26.714943
_cell_length_c 11.477778
_cell_angle_alpha 156.861843
_cell_angle_beta 55.115534
_cell_angle_gamma 122.432051
_cell_volume 533.772864
_symmetry_space_group_name_H-M "P -1"
_symmetry_group_IT_number 2
_symmetry_cell_setting 'triclinic'
loop_
_space_group_symop_operation_xyz
x,y,z
-x,-y,-z
loop_
_atom_site_type_symbol
_atom_site_label
_atom_site_fract_x
_atom_site_fract_y
_atom_site_fract_z
Si Si1 0.179515 0.556045 0.461839
Si Si2 0.285067 0.099236 0.628120
Si Si3 0.083372 0.909733 0.637541
Si Si4 0.266092 0.277777 0.789528
Si Si5 0.742259 0.713561 0.752670
Si Si6 0.821683 0.153448 0.259513
O O1 0.439179 0.651769 0.646120
O O2 0.000000 0.500000 0.500000
O O3 0.941898 0.618348 0.572419
O O4 0.314102 0.428089 0.098170
O O5 0.589089 0.032080 0.360650
O O6 0.265648 0.209833 0.770751
O O7 0.320544 0.169993 0.893477
O O8 0.000000 0.000000 0.500000
O O9 0.055302 0.873611 0.702377
O O10 0.047900 0.776637 0.294488
O O11 0.838795 0.014840 0.896822
O O12 0.509052 0.217653 0.508356
O O13 0.958598 0.757609 0.683848
#
# Coordination Sequence:
#
# PCOD9043417 Si02
#       6
#     2   2   2   2   2   2
#     4  12  27  47  74 102 146 189 235 293 353 416
#     4  11  25  42  73 106 136 182 237 293 355 420
#     4  10  23  45  71 100 145 183 231 295 361 414
#     4  11  24  44  71  98 143 187 233 288 357 420
#     4  12  28  46  74 107 141 184 244 290 348 425
#     4  10  25  43  70 103 142 182 237 292 357 412
#
# _framework density 22.481472
#
# number of rings (size 3 to 8) (size 9 to 14) (size 15 to 20)
#    0.000    1.000    1.667    3.000    9.333    4.000 
#    0.000    0.000    0.000    0.000    0.000    0.000 
#    0.000    0.000    0.000    0.000    0.000    0.000 
#
# Total GULP energy -67055.361653 kJ/mol
# GULP energy per Si atom -5587.946804 kJ/mol
# Density = 2.243030 g / cm^3
# Si number density = 22.481472 Si / 1000 Ang^3
#
#
#
# Elastic Constant Matrix: (Units=GPa)
#
#
# Indices 1 2 3 4 5 6 
#
# 1 32.4365 -1.0288 -14.6113 -5.8989 -0.0520 -6.3038
# 2 -1.0288 141.1812 -3.3493 -15.7116 -7.6715 7.8886
# 3 -14.6113 -3.3493 69.4257 -9.6998 0.3258 -1.6649
# 4 -5.8989 -15.7116 -9.6998 25.2148 2.0520 -1.5380
# 5 -0.0520 -7.6715 0.3258 2.0520 40.1968 7.1045
# 6 -6.3038 7.8886 -1.6649 -1.5380 7.1045 24.5268
#
#
#
# Elastic Compliance Matrix: (Units=1/GPa)
#
#
# Indices 1 2 3 4 5 6 
#
# 1 0.041350 0.001481 0.011322 0.015958 -0.002822 0.012738
# 2 0.001481 0.007960 0.001416 0.005585 0.001613 -0.002200
# 3 0.011322 0.001416 0.018519 0.011050 -0.001273 0.004773
# 4 0.015958 0.005585 0.011050 0.051796 -0.002910 0.007146
# 5 -0.002822 0.001613 -0.001273 -0.002910 0.026990 -0.009331
# 6 0.012738 -0.002200 0.004773 0.007146 -0.009331 0.048228
#
#
# Mechanical properties :
#
#
# Convention : Reuss Voigt Hill
#
# Bulk Modulus (GPa) = 10.38784 22.78495 16.58640
# Shear Modulus (GPa) = 25.18960 35.45654 30.32307
#
# Velocity S-wave (km/s) = 3.35096 3.97564 3.67659
# Velocity P-wave (km/s) = 4.42748 5.58849 5.04152
#
# Compressibility (1/GPa) = 0.09626636
#
# Stress axis : x y z
#
# Youngs Moduli (GPa) = 24.18390 125.63356 53.99758
#
# Poissons Ratio (x) = -0.18604 -0.61138
# Poissons Ratio (y) = -0.03581 -0.07644
# Poissons Ratio (z) = -0.27382 -0.17785
#
# Static dielectric constant tensor:
#      x y z
#    x 1.971580 0.006440 0.022600 
#    y 0.006440 1.789560 -0.032620 
#    z 0.022600 -0.032620 1.973960 
# 
# From -- ./inp_files/28073.got.cif
#   From: 2010.05.17/outbox.cif.g08.bks.cpg/sg2_15_cif.got.tgz:28073.got - 2010.06.03 11:33:40.
