data_PCOD9043219
_publ_section_title
;
Structure prediction by ZEFSAII (Michael W. Deem and Ramdas Pophale) SiO2 
 PCOD9043219
Probable space group: P -1
;
_chemical_formula_sum "Si O2"
_cell_formula_units_Z 14
_cell_length_a 8.131569
_cell_length_b 14.198781
_cell_length_c 7.875527
_cell_angle_alpha 119.791116
_cell_angle_beta 125.249154
_cell_angle_gamma 49.045093
_cell_volume 550.355193
_symmetry_space_group_name_H-M "P -1"
_symmetry_group_IT_number 2
_symmetry_cell_setting 'triclinic'
loop_
_space_group_symop_operation_xyz
x,y,z
-x,-y,-z
loop_
_atom_site_type_symbol
_atom_site_label
_atom_site_fract_x
_atom_site_fract_y
_atom_site_fract_z
Si Si1 0.778595 0.439256 0.358080
Si Si2 0.482110 0.824040 0.085350
Si Si3 0.260663 0.611000 0.226226
Si Si4 0.870377 0.215688 0.366629
Si Si5 0.206605 0.853200 0.280513
Si Si6 0.107848 0.460052 0.819056
Si Si7 0.258916 0.026022 0.673034
O O1 0.509670 0.482655 0.262012
O O2 0.926718 0.286588 0.315486
O O3 0.789969 0.503866 0.252085
O O4 0.868834 0.484344 0.611626
O O5 0.299324 0.876029 0.180586
O O6 0.707117 0.687285 0.154610
O O7 0.568602 0.919670 0.165197
O O8 0.333546 0.805929 0.835813
O O9 0.211580 0.688052 0.438053
O O10 0.268801 0.708126 0.186248
O O11 0.080857 0.566365 0.031788
O O12 0.100156 0.095809 0.472471
O O13 0.931385 0.927208 0.245149
O O14 0.341869 0.882831 0.538097
#
# Coordination Sequence:
#
# PCOD9043219 Si02
#       7
#     2   2   2   2   2   2   2
#     4  11  21  38  58  94 129 170 212 264 319 394
#     4  12  22  43  69  97 129 177 213 267 326 387
#     4  11  22  40  60  94 134 173 205 274 321 382
#     4  11  24  38  65  96 133 169 222 263 324 386
#     4  10  23  45  69  90 134 173 215 270 327 376
#     4  11  23  36  63  94 132 170 216 256 334 389
#     4  10  24  47  65  96 130 170 221 275 314 386
#
# _framework density 25.438116000000001
#
# number of rings (size 3 to 8) (size 9 to 14) (size 15 to 20)
#    0.000    1.143    4.286    2.143    0.000    3.429 
#    0.000   10.714    0.000    0.000    0.000    0.000 
#    0.000    0.000    0.000    0.000    0.000    0.000 
#
# Total GULP energy -78260.785447 kJ/mol
# GULP energy per Si atom -5590.056103 kJ/mol
# Density = 2.538022 g / cm^3
# Si number density = 25.438116 Si / 1000 Ang^3
#
#
#
# Elastic Constant Matrix: (Units=GPa)
#
#
# Indices 1 2 3 4 5 6 
#
# 1 120.6154 7.9731 50.7831 19.5604 10.3763 16.4328
# 2 7.9731 73.4504 14.7438 8.6230 4.6288 10.8113
# 3 50.7831 14.7438 172.5198 22.3392 26.4280 6.9607
# 4 19.5604 8.6230 22.3392 38.3873 13.7064 11.1888
# 5 10.3763 4.6288 26.4280 13.7064 51.3797 12.9835
# 6 16.4328 10.8113 6.9607 11.1888 12.9835 27.5116
#
#
#
# Elastic Compliance Matrix: (Units=1/GPa)
#
#
# Indices 1 2 3 4 5 6 
#
# 1 0.010469 0.000427 -0.002750 -0.002781 0.001322 -0.005218
# 2 0.000427 0.014738 -0.001103 -0.001615 0.000994 -0.005580
# 3 -0.002750 -0.001103 0.007378 -0.002272 -0.003203 0.002645
# 4 -0.002781 -0.001615 -0.002272 0.033345 -0.004903 -0.008377
# 5 0.001322 0.000994 -0.003203 -0.004903 0.024583 -0.009978
# 6 -0.005218 -0.005580 0.002645 -0.008377 -0.009978 0.049104
#
#
# Mechanical properties :
#
#
# Convention : Reuss Voigt Hill
#
# Bulk Modulus (GPa) = 38.86194 57.06507 47.96351
# Shear Modulus (GPa) = 32.24839 42.99477 37.62158
#
# Velocity S-wave (km/s) = 3.56437 4.11563 3.84988
# Velocity P-wave (km/s) = 5.67889 6.71313 6.21755
#
# Compressibility (1/GPa) = 0.02573212
#
# Stress axis : x y z
#
# Youngs Moduli (GPa) = 95.52406 67.85185 135.53279
#
# Poissons Ratio (x) = -0.02896 0.37270
# Poissons Ratio (y) = -0.04077 0.14953
# Poissons Ratio (z) = 0.26268 0.07486
#
# Static dielectric constant tensor:
#      x y z
#    x 2.115950 0.122920 -0.055920 
#    y 0.122920 2.129560 0.016870 
#    z -0.055920 0.016870 2.032450 
# 
# From -- ./inp_files/197681.got.cif
#   From: 2010.05.17/outbox.cif.g08.bks.cpg/sg2_99_cif.got.tgz:197681.got - 2010.06.03 11:33:40.
