data_PCOD9043022
_publ_section_title
;
Structure prediction by ZEFSAII (Michael W. Deem and Ramdas Pophale) SiO2 
 PCOD9043022
Probable space group: P -1
;
_chemical_formula_sum "Si O2"
_cell_formula_units_Z 15
_cell_length_a 7.500824
_cell_length_b 19.591505
_cell_length_c 11.344138
_cell_angle_alpha 144.384625
_cell_angle_beta 38.997714
_cell_angle_gamma 127.663191
_cell_volume 609.925686
_symmetry_space_group_name_H-M "P -1"
_symmetry_group_IT_number 2
_symmetry_cell_setting 'triclinic'
loop_
_space_group_symop_operation_xyz
x,y,z
-x,-y,-z
loop_
_atom_site_type_symbol
_atom_site_label
_atom_site_fract_x
_atom_site_fract_y
_atom_site_fract_z
Si Si1 0.278560 0.062384 0.396605
Si Si2 0.352021 0.379246 0.418068
Si Si3 0.830073 0.475921 0.673767
Si Si4 0.064524 0.363194 0.768298
Si Si5 0.120856 0.866373 0.506766
Si Si6 0.402550 0.139984 0.932390
Si Si7 0.350132 0.317384 0.780923
Si Si8 0.000000 0.000000 0.000000
O O1 0.369444 0.176768 0.582032
O O2 0.166172 0.100016 0.376899
O O3 0.543200 0.967030 0.148079
O O4 0.000000 0.000000 0.500000
O O5 0.500000 0.500000 0.500000
O O6 0.330456 0.345355 0.518215
O O7 0.045645 0.417106 0.575554
O O8 0.465400 0.264903 0.128188
O O9 0.579175 0.385854 0.682510
O O10 0.000000 0.500000 0.500000
O O11 0.710208 0.602598 0.962049
O O12 0.082351 0.328669 0.846428
O O13 0.854014 0.274963 0.694255
O O14 0.000000 0.500000 0.000000
O O15 0.393018 0.893714 0.327351
O O16 0.093488 0.926314 0.728901
O O17 0.072158 0.125930 0.067026
#
# Coordination Sequence:
#
# PCOD9043022 Si02
#       8
#     2   2   2   2   2   2   2   1
#     4   9  22  45  72  97 131 187 232 280 338 406
#     4  12  25  43  72 104 134 180 232 286 347 417
#     4  11  25  46  67 103 140 178 226 286 356 407
#     4  11  20  42  71  97 135 176 233 285 332 405
#     4  10  23  45  68 100 135 183 227 282 341 404
#     4  11  25  45  68 100 139 178 228 283 346 406
#     4  10  23  45  71  98 139 182 230 288 343 407
#     4  12  24  44  64 100 142 172 228 272 348 414
#
# _framework density 24.593160000000001
#
# number of rings (size 3 to 8) (size 9 to 14) (size 15 to 20)
#    0.000    1.333    2.667    2.000    5.600    0.533 
#    7.200    0.000    0.000    0.000    0.000    0.000 
#    0.000    0.000    0.000    0.000    0.000    0.000 
#
# Total GULP energy -83515.183454 kJ/mol
# GULP energy per Si atom -5567.678897 kJ/mol
# Density = 2.453718 g / cm^3
# Si number density = 24.593160 Si / 1000 Ang^3
#
#
#
# Elastic Constant Matrix: (Units=GPa)
#
#
# Indices 1 2 3 4 5 6 
#
# 1 65.8257 13.0613 50.0640 9.7384 16.7013 -4.5040
# 2 13.0613 165.7783 85.8346 3.5695 30.2869 21.4470
# 3 50.0640 85.8346 178.2148 15.5992 38.2862 5.7627
# 4 9.7384 3.5695 15.5992 60.7741 -5.5079 7.2511
# 5 16.7013 30.2869 38.2862 -5.5079 40.5852 13.2137
# 6 -4.5040 21.4470 5.7627 7.2511 13.2137 35.0463
#
#
#
# Elastic Compliance Matrix: (Units=1/GPa)
#
#
# Indices 1 2 3 4 5 6 
#
# 1 0.021733 0.001606 -0.005038 -0.003776 -0.007996 0.006435
# 2 0.001606 0.008980 -0.004284 0.000614 -0.001942 -0.003979
# 3 -0.005038 -0.004284 0.010494 -0.002534 -0.005955 0.003019
# 4 -0.003776 0.000614 -0.002534 0.019375 0.008625 -0.007704
# 5 -0.007996 -0.001942 -0.005955 0.008625 0.041468 -0.016279
# 6 0.006435 -0.003979 0.003019 -0.007704 -0.016279 0.039031
#
#
# Mechanical properties :
#
#
# Convention : Reuss Voigt Hill
#
# Bulk Modulus (GPa) = 38.79934 78.63763 58.71848
# Shear Modulus (GPa) = 30.28374 44.67172 37.47773
#
# Velocity S-wave (km/s) = 3.51292 4.26658 3.90796
# Velocity P-wave (km/s) = 5.68022 7.50443 6.65512
#
# Compressibility (1/GPa) = 0.02577364
#
# Stress axis : x y z
#
# Youngs Moduli (GPa) = 46.01375 111.35527 95.29535
#
# Poissons Ratio (x) = -0.17886 0.48014
# Poissons Ratio (y) = -0.07391 0.40827
# Poissons Ratio (z) = 0.23184 0.47707
#
# Static dielectric constant tensor:
#      x y z
#    x 1.924750 0.046930 0.080060 
#    y 0.046930 2.252710 0.128450 
#    z 0.080060 0.128450 1.930240 
# 
# From -- ./inp_files/404998.got.cif
#   From: 2010.05.17/outbox.cif.g08.bks.cpg/sg2_203_cif.got.tgz:404998.got - 2010.06.03 11:33:40.
