data_PCOD9043370
_publ_section_title
;
Structure prediction by ZEFSAII (Michael W. Deem and Ramdas Pophale) SiO2 
 PCOD9043370
Probable space group: P -1
;
_chemical_formula_sum "Si O2"
_cell_formula_units_Z 14
_cell_length_a 9.600439
_cell_length_b 12.249357
_cell_length_c 9.011953
_cell_angle_alpha 132.922586
_cell_angle_beta 124.569896
_cell_angle_gamma 54.992456
_cell_volume 607.435920
_symmetry_space_group_name_H-M "P -1"
_symmetry_group_IT_number 2
_symmetry_cell_setting 'triclinic'
loop_
_space_group_symop_operation_xyz
x,y,z
-x,-y,-z
loop_
_atom_site_type_symbol
_atom_site_label
_atom_site_fract_x
_atom_site_fract_y
_atom_site_fract_z
Si Si1 0.890124 0.065684 0.644430
Si Si2 0.259030 0.141051 0.415742
Si Si3 0.583228 0.341037 0.567944
Si Si4 0.331590 0.352383 0.176249
Si Si5 0.340120 0.556399 0.840570
Si Si6 0.497455 0.181529 0.841389
Si Si7 0.965366 0.708217 0.860419
O O1 0.710144 0.199675 0.606892
O O2 0.836279 0.937570 0.591764
O O3 0.000000 0.000000 0.500000
O O4 0.993542 0.150376 0.894643
O O5 0.378922 0.221754 0.657874
O O6 0.123476 0.239552 0.304630
O O7 0.398089 0.001046 0.278013
O O8 0.511271 0.290957 0.326670
O O9 0.681428 0.471465 0.718105
O O10 0.402045 0.442080 0.633962
O O11 0.163784 0.349938 0.167114
O O12 0.363656 0.239517 0.949825
O O13 0.152422 0.578216 0.820203
O O14 0.500000 0.500000 0.000000
O O15 0.356086 0.728097 0.969463
#
# Coordination Sequence:
#
# PCOD9043370 Si02
#       7
#     2   2   2   2   2   2   2
#     4  12  26  45  71 103 142 181 230 292 344 414
#     4  11  25  43  69 105 141 187 231 276 354 413
#     4  10  24  48  71  97 141 189 227 281 357 408
#     4  10  25  45  71 106 134 184 236 288 342 410
#     4  11  22  45  70  95 139 185 232 284 345 405
#     4  10  23  45  70  95 144 191 225 280 346 423
#     4  12  26  42  72 108 137 178 239 293 338 409
#
# _framework density 23.047699000000001
#
# number of rings (size 3 to 8) (size 9 to 14) (size 15 to 20)
#    0.000    1.143    2.857    1.286    8.000    4.000 
#    2.571    0.000    0.000    0.000    0.000    0.000 
#    0.000    0.000    0.000    0.000    0.000    0.000 
#
# Total GULP energy -78393.203821 kJ/mol
# GULP energy per Si atom -5599.514559 kJ/mol
# Density = 2.299524 g / cm^3
# Si number density = 23.047699 Si / 1000 Ang^3
#
#
#
# Elastic Constant Matrix: (Units=GPa)
#
#
# Indices 1 2 3 4 5 6 
#
# 1 199.1654 57.3024 40.9909 10.4416 -13.0805 5.5594
# 2 57.3024 76.0193 28.0678 -10.7790 -9.0135 -7.5193
# 3 40.9909 28.0678 119.4324 -3.0222 -19.5646 -12.1950
# 4 10.4416 -10.7790 -3.0222 25.1038 2.7888 2.9507
# 5 -13.0805 -9.0135 -19.5646 2.7888 32.7126 3.9760
# 6 5.5594 -7.5193 -12.1950 2.9507 3.9760 37.0181
#
#
#
# Elastic Compliance Matrix: (Units=1/GPa)
#
#
# Indices 1 2 3 4 5 6 
#
# 1 0.007495 -0.006060 -0.001330 -0.005735 0.001322 -0.002480
# 2 -0.006060 0.020372 -0.001972 0.010545 0.000688 0.003484
# 3 -0.001330 -0.001972 0.010353 0.000106 0.004781 0.002688
# 4 -0.005735 0.010545 0.000106 0.047170 -0.003301 -0.000367
# 5 0.001322 0.000688 0.004781 -0.003301 0.034665 -0.001944
# 6 -0.002480 0.003484 0.002688 -0.000367 -0.001944 0.029217
#
#
# Mechanical properties :
#
#
# Convention : Reuss Voigt Hill
#
# Bulk Modulus (GPa) = 51.29441 71.92660 61.61050
# Shear Modulus (GPa) = 28.65381 36.85064 32.75223
#
# Velocity S-wave (km/s) = 3.52979 4.00295 3.77379
# Velocity P-wave (km/s) = 6.23832 7.25536 6.76597
#
# Compressibility (1/GPa) = 0.01949530
#
# Stress axis : x y z
#
# Youngs Moduli (GPa) = 133.42201 49.08606 96.58803
#
# Poissons Ratio (x) = 0.29748 0.12845
# Poissons Ratio (y) = 0.80858 0.19051
# Poissons Ratio (z) = 0.17744 0.09682
#
# Static dielectric constant tensor:
#      x y z
#    x 1.876490 0.055140 0.001600 
#    y 0.055140 1.873840 0.012720 
#    z 0.001600 0.012720 1.889470 
# 
# From -- ./inp_files/184774.got.cif
#   From: 2010.05.17/outbox.cif.g08.bks.cpg/sg2_93_cif.got.tgz:184774.got - 2010.06.03 11:33:40.
