data_PCOD9043116
_publ_section_title
;
Structure prediction by ZEFSAII (Michael W. Deem and Ramdas Pophale) SiO2 
 PCOD9043116
Probable space group: P -1
;
_chemical_formula_sum "Si O2"
_cell_formula_units_Z 14
_cell_length_a 21.791198
_cell_length_b 5.328605
_cell_length_c 7.106367
_cell_angle_alpha 109.420910
_cell_angle_beta 107.726020
_cell_angle_gamma 52.664701
_cell_volume 612.917114
_symmetry_space_group_name_H-M "P -1"
_symmetry_group_IT_number 2
_symmetry_cell_setting 'triclinic'
loop_
_space_group_symop_operation_xyz
x,y,z
-x,-y,-z
loop_
_atom_site_type_symbol
_atom_site_label
_atom_site_fract_x
_atom_site_fract_y
_atom_site_fract_z
Si Si1 0.664216 0.157603 0.251601
Si Si2 0.590249 0.737130 0.054782
Si Si3 0.904623 0.098336 0.254218
Si Si4 0.129998 0.256358 0.131395
Si Si5 0.787441 0.615635 0.991637
Si Si6 0.700770 0.320987 0.730796
Si Si7 0.047536 0.146094 0.365213
O O1 0.606132 0.501805 0.184550
O O2 0.684158 0.223366 0.492495
O O3 0.631386 0.930752 0.171902
O O4 0.739842 0.962572 0.136290
O O5 0.628852 0.498232 0.851550
O O6 0.500000 0.000000 0.000000
O O7 0.980912 0.079925 0.253637
O O8 0.901443 0.092314 0.474139
O O9 0.828089 0.390431 0.156375
O O10 0.908130 0.797632 0.097003
O O11 0.139795 0.525841 0.121656
O O12 0.091006 0.205374 0.256971
O O13 0.222387 0.992437 0.186195
O O14 0.727285 0.567977 0.813601
O O15 0.000000 0.500000 0.500000
#
# Coordination Sequence:
#
# PCOD9043116 Si02
#       7
#     2   2   2   2   2   2   2
#     4  11  25  44  74 105 143 187 231 284 346 419
#     4  11  25  47  72 108 148 181 229 286 342 417
#     4  10  24  43  61  92 132 176 229 289 359 412
#     4  11  23  42  65  92 132 177 226 294 345 415
#     4  10  23  45  68  98 142 178 237 295 348 414
#     4  10  25  42  69 103 136 183 231 280 349 417
#     4  11  25  41  63  93 128 177 232 287 357 423
#
# _framework density 22.841587000000001
#
# number of rings (size 3 to 8) (size 9 to 14) (size 15 to 20)
#    0.000    1.429    1.429    1.714    6.000    8.000 
#    0.000    0.000    0.000    0.000    0.000    0.000 
#    0.000    0.000    0.000    0.000    0.000    0.000 
#
# Total GULP energy -78108.190367 kJ/mol
# GULP energy per Si atom -5579.156455 kJ/mol
# Density = 2.278960 g / cm^3
# Si number density = 22.841587 Si / 1000 Ang^3
#
#
#
# Elastic Constant Matrix: (Units=GPa)
#
#
# Indices 1 2 3 4 5 6 
#
# 1 67.0522 4.2124 50.1400 1.0071 -0.4421 -4.2612
# 2 4.2124 62.9788 29.0080 -14.9720 3.7760 -0.2687
# 3 50.1400 29.0080 175.8570 -0.8343 1.0804 -9.6766
# 4 1.0071 -14.9720 -0.8343 28.1697 0.8618 -1.7862
# 5 -0.4421 3.7760 1.0804 0.8618 21.7532 -1.6615
# 6 -4.2612 -0.2687 -9.6766 -1.7862 -1.6615 27.3746
#
#
#
# Elastic Compliance Matrix: (Units=1/GPa)
#
#
# Indices 1 2 3 4 5 6 
#
# 1 0.019091 0.001239 -0.005595 -0.000141 0.000535 0.001029
# 2 0.001239 0.020238 -0.003641 0.010693 -0.003763 -0.000426
# 3 -0.005595 -0.003641 0.007975 -0.001392 0.000318 0.001841
# 4 -0.000141 0.010693 -0.001392 0.041379 -0.003269 0.002093
# 5 0.000535 -0.003763 0.000318 -0.003269 0.046962 0.002796
# 6 0.001029 -0.000426 0.001841 0.002093 0.002796 0.037643
#
#
# Mechanical properties :
#
#
# Convention : Reuss Voigt Hill
#
# Bulk Modulus (GPa) = 31.93886 52.51211 42.22548
# Shear Modulus (GPa) = 25.03524 30.29466 27.66495
#
# Velocity S-wave (km/s) = 3.31424 3.64578 3.48396
# Velocity P-wave (km/s) = 5.35338 6.38451 5.89154
#
# Compressibility (1/GPa) = 0.03130983
#
# Stress axis : x y z
#
# Youngs Moduli (GPa) = 52.38179 49.41095 125.39245
#
# Poissons Ratio (x) = -0.06121 0.70154
# Poissons Ratio (y) = -0.06489 0.45658
# Poissons Ratio (z) = 0.29306 0.17992
#
# Static dielectric constant tensor:
#      x y z
#    x 2.106090 0.262500 -0.075970 
#    y 0.262500 2.249870 0.042540 
#    z -0.075970 0.042540 1.858030 
# 
# From -- ./inp_files/10267.got.cif
#   From: 2010.05.17/outbox.cif.g08.bks.cpg/sg2_6_cif.got.tgz:10267.got - 2010.06.03 11:33:40.
