data_PCOD9043923
_publ_section_title
;
Structure prediction by ZEFSAII (Michael W. Deem and Ramdas Pophale) SiO2 
 PCOD9043923
Probable space group: P -1
;
_chemical_formula_sum "Si O2"
_cell_formula_units_Z 16
_cell_length_a 5.374205
_cell_length_b 24.991490
_cell_length_c 11.452405
_cell_angle_alpha 31.818254
_cell_angle_beta 67.684581
_cell_angle_gamma 60.979784
_cell_volume 707.378823
_symmetry_space_group_name_H-M "P -1"
_symmetry_group_IT_number 2
_symmetry_cell_setting 'triclinic'
loop_
_space_group_symop_operation_xyz
x,y,z
-x,-y,-z
loop_
_atom_site_type_symbol
_atom_site_label
_atom_site_fract_x
_atom_site_fract_y
_atom_site_fract_z
Si Si1 0.015212 0.241157 0.401513
Si Si2 0.030805 0.079735 0.504993
Si Si3 0.870702 0.775395 0.208525
Si Si4 0.974025 0.542065 0.059290
Si Si5 0.541400 0.628735 0.598423
Si Si6 0.649063 0.940091 0.748265
Si Si7 0.191387 0.069957 0.876094
Si Si8 0.362738 0.570295 0.504361
O O1 0.762152 0.314942 0.392635
O O2 0.917984 0.178566 0.431180
O O3 0.210238 0.147174 0.623618
O O4 0.136909 0.329028 0.162281
O O5 0.154429 0.109826 0.306483
O O6 0.322374 0.996866 0.662980
O O7 0.798165 0.023401 0.619456
O O8 0.701518 0.715064 0.428440
O O9 0.965112 0.852798 0.134032
O O10 0.135544 0.679058 0.293941
O O11 0.679885 0.849251 0.006828
O O12 0.783478 0.494682 0.263930
O O13 0.287876 0.485444 0.163001
O O14 0.000000 0.500000 0.000000
O O15 0.545222 0.609262 0.494912
O O16 0.500000 0.000000 0.000000
O O17 0.000000 0.000000 0.000000
O O18 0.500000 0.500000 0.500000
#
# Coordination Sequence:
#
# PCOD9043923 Si02
#       8
#     2   2   2   2   2   2   2   2
#     4  12  23  43  72 103 136 189 236 295 371 425
#     4  10  24  43  67 102 140 184 243 294 354 439
#     4  11  24  43  71  98 141 186 230 296 366 429
#     4  11  24  45  70 106 142 181 240 304 364 437
#     4  11  24  45  69 102 144 179 244 307 363 444
#     4  10  23  46  66  99 143 187 234 296 358 434
#     4  12  25  42  69 109 145 186 238 294 359 439
#     4  11  26  47  70 104 141 189 243 304 370 443
#
# _framework density 22.618715999999999
#
# number of rings (size 3 to 8) (size 9 to 14) (size 15 to 20)
#    0.000    1.000    2.500    3.375    1.750    6.000 
#    4.500    0.000    0.000    0.000    0.000    0.000 
#    0.000    0.000    0.000    0.000    0.000    0.000 
#
# Total GULP energy -89480.998007 kJ/mol
# GULP energy per Si atom -5592.562375 kJ/mol
# Density = 2.256723 g / cm^3
# Si number density = 22.618716 Si / 1000 Ang^3
#
#
#
# Elastic Constant Matrix: (Units=GPa)
#
#
# Indices 1 2 3 4 5 6 
#
# 1 94.4658 23.4769 29.0516 -8.6347 -0.4948 10.6697
# 2 23.4769 151.9570 19.3229 -9.8069 -5.9944 16.6515
# 3 29.0516 19.3229 127.8785 -1.1135 3.1084 7.1986
# 4 -8.6347 -9.8069 -1.1135 28.9824 8.2592 -0.5479
# 5 -0.4948 -5.9944 3.1084 8.2592 24.8050 -0.2331
# 6 10.6697 16.6515 7.1986 -0.5479 -0.2331 31.3355
#
#
#
# Elastic Compliance Matrix: (Units=1/GPa)
#
#
# Indices 1 2 3 4 5 6 
#
# 1 0.012232 -0.001073 -0.002398 0.003380 -0.000868 -0.002991
# 2 -0.001073 0.007362 -0.000695 0.001729 0.001238 -0.003348
# 3 -0.002398 -0.000695 0.008541 -0.000296 -0.001195 -0.000790
# 4 0.003380 0.001729 -0.000296 0.039677 -0.012702 -0.001402
# 5 -0.000868 0.001238 -0.001195 -0.012702 0.044975 0.000025
# 6 -0.002991 -0.003348 -0.000790 -0.001402 0.000025 0.034867
#
#
# Mechanical properties :
#
#
# Convention : Reuss Voigt Hill
#
# Bulk Modulus (GPa) = 50.49866 57.55601 54.02734
# Shear Modulus (GPa) = 30.75239 37.18790 33.97014
#
# Velocity S-wave (km/s) = 3.69127 4.05917 3.87959
# Velocity P-wave (km/s) = 6.36725 6.88989 6.63372
#
# Compressibility (1/GPa) = 0.01980250
#
# Stress axis : x y z
#
# Youngs Moduli (GPa) = 81.75109 135.82774 117.08679
#
# Poissons Ratio (x) = 0.14578 0.28076
# Poissons Ratio (y) = 0.08774 0.08140
# Poissons Ratio (z) = 0.19603 0.09443
#
# Static dielectric constant tensor:
#      x y z
#    x 1.929940 0.005830 -0.034250 
#    y 0.005830 1.832410 0.004170 
#    z -0.034250 0.004170 1.853880 
# 
# From -- ./inp_files/370973.got.cif
#   From: 2010.05.17/outbox.cif.g08.bks.cpg/sg2_186_cif.got.tgz:370973.got - 2010.06.03 11:33:40.
