data_PCOD9043841
_publ_section_title
;
Structure prediction by ZEFSAII (Michael W. Deem and Ramdas Pophale) SiO2 
 PCOD9043841
Probable space group: P -1
;
_chemical_formula_sum "Si O2"
_cell_formula_units_Z 15
_cell_length_a 11.742534
_cell_length_b 10.377231
_cell_length_c 11.042075
_cell_angle_alpha 151.216169
_cell_angle_beta 121.743379
_cell_angle_gamma 60.791387
_cell_volume 549.778988
_symmetry_space_group_name_H-M "P -1"
_symmetry_group_IT_number 2
_symmetry_cell_setting 'triclinic'
loop_
_space_group_symop_operation_xyz
x,y,z
-x,-y,-z
loop_
_atom_site_type_symbol
_atom_site_label
_atom_site_fract_x
_atom_site_fract_y
_atom_site_fract_z
Si Si1 0.790702 0.188409 0.797572
Si Si2 0.785944 0.714888 0.087598
Si Si3 0.203439 0.403055 0.403902
Si Si4 0.412156 0.262324 0.214313
Si Si5 0.327233 0.640643 0.903760
Si Si6 0.046973 0.914188 0.674121
Si Si7 0.405875 0.115918 0.678287
Si Si8 0.000000 0.000000 0.000000
O O1 0.833940 0.455049 0.977601
O O2 0.113760 0.056115 0.399883
O O3 0.636750 0.134720 0.632829
O O4 0.799419 0.221385 0.976531
O O5 0.682914 0.629406 0.858043
O O6 0.690925 0.898465 0.273181
O O7 0.895238 0.878487 0.216778
O O8 0.310368 0.224772 0.237471
O O9 0.289359 0.551175 0.676306
O O10 0.126637 0.631480 0.467123
O O11 0.087371 0.261736 0.291938
O O12 0.500000 0.500000 0.500000
O O13 0.500000 0.000000 0.000000
O O14 0.365395 0.373770 0.784127
O O15 0.449591 0.830491 0.143222
O O16 0.063164 0.996381 0.890986
#
# Coordination Sequence:
#
# PCOD9043841 Si02
#       8
#     2   2   2   2   2   2   2   1
#     4  11  25  46  80 114 163 219 271 333 406 488
#     4  11  26  48  73 115 160 212 274 337 411 482
#     4  12  27  50  84 116 163 211 273 345 415 496
#     4  12  28  53  83 119 164 214 273 344 420 502
#     4  10  23  49  74 117 157 213 270 340 411 486
#     4  12  26  48  75 119 161 212 277 332 407 495
#     4  10  23  45  77 109 158 207 277 338 405 485
#     4  12  26  48  80 110 168 208 270 336 410 494
#
# _framework density 27.283691999999999
#
# number of rings (size 3 to 8) (size 9 to 14) (size 15 to 20)
#    0.000    0.800    1.333    4.400    3.733    2.667 
#    4.800    0.000    0.000    0.000    0.000    0.000 
#    0.000    0.000    0.000    0.000    0.000    0.000 
#
# Total GULP energy -83920.455313 kJ/mol
# GULP energy per Si atom -5594.697021 kJ/mol
# Density = 2.722159 g / cm^3
# Si number density = 27.283692 Si / 1000 Ang^3
#
#
#
# Elastic Constant Matrix: (Units=GPa)
#
#
# Indices 1 2 3 4 5 6 
#
# 1 188.7946 36.0293 79.8059 0.7767 -9.4138 23.1606
# 2 36.0293 97.9748 35.6395 4.3783 -8.8398 14.5462
# 3 79.8059 35.6395 126.3281 -5.1536 7.3040 15.5073
# 4 0.7767 4.3783 -5.1536 53.0338 -1.3422 -7.9088
# 5 -9.4138 -8.8398 7.3040 -1.3422 61.9136 6.8887
# 6 23.1606 14.5462 15.5073 -7.9088 6.8887 41.8426
#
#
#
# Elastic Compliance Matrix: (Units=1/GPa)
#
#
# Indices 1 2 3 4 5 6 
#
# 1 0.007786 -0.000558 -0.004552 -0.000896 0.001946 -0.002919
# 2 -0.000558 0.012290 -0.002879 -0.001766 0.002374 -0.003621
# 3 -0.004552 -0.002879 0.011826 0.001362 -0.002446 -0.000202
# 4 -0.000896 -0.001766 0.001362 0.019795 -0.000615 0.004448
# 5 0.001946 0.002374 -0.002446 -0.000615 0.017506 -0.003994
# 6 -0.002919 -0.003621 -0.000202 0.004448 -0.003994 0.028347
#
#
# Mechanical properties :
#
#
# Convention : Reuss Voigt Hill
#
# Bulk Modulus (GPa) = 62.80474 79.56077 71.18276
# Shear Modulus (GPa) = 42.07425 48.79953 45.43689
#
# Velocity S-wave (km/s) = 3.93122 4.23377 4.08530
# Velocity P-wave (km/s) = 6.60872 7.28859 6.95697
#
# Compressibility (1/GPa) = 0.01592236
#
# Stress axis : x y z
#
# Youngs Moduli (GPa) = 128.42894 81.36565 84.56095
#
# Poissons Ratio (x) = 0.04544 0.38494
# Poissons Ratio (y) = 0.07172 0.24348
# Poissons Ratio (z) = 0.58464 0.23428
#
# Static dielectric constant tensor:
#      x y z
#    x 2.176810 0.052530 0.067490 
#    y 0.052530 2.034330 -0.061470 
#    z 0.067490 -0.061470 2.174460 
# 
# From -- ./inp_files/424685.got.cif
#   From: 2010.05.17/outbox.cif.g08.bks.cpg/sg2_213_cif.got.tgz:424685.got - 2010.06.03 11:33:40.
