data_PCOD9043149
_publ_section_title
;
Structure prediction by ZEFSAII (Michael W. Deem and Ramdas Pophale) SiO2 
 PCOD9043149
Probable space group: P -1
;
_chemical_formula_sum "Si O2"
_cell_formula_units_Z 16
_cell_length_a 11.628237
_cell_length_b 10.978647
_cell_length_c 7.416042
_cell_angle_alpha 83.618392
_cell_angle_beta 108.115194
_cell_angle_gamma 136.141850
_cell_volume 614.209185
_symmetry_space_group_name_H-M "P -1"
_symmetry_group_IT_number 2
_symmetry_cell_setting 'triclinic'
loop_
_space_group_symop_operation_xyz
x,y,z
-x,-y,-z
loop_
_atom_site_type_symbol
_atom_site_label
_atom_site_fract_x
_atom_site_fract_y
_atom_site_fract_z
Si Si1 0.438196 0.993128 0.673435
Si Si2 0.365619 0.088668 0.084698
Si Si3 0.720220 0.374937 0.712279
Si Si4 0.985556 0.772466 0.833737
Si Si5 0.818971 0.880345 0.747348
Si Si6 0.081873 0.671370 0.400385
Si Si7 0.100775 0.233939 0.621587
Si Si8 0.447707 0.579896 0.691292
O O1 0.505247 0.929707 0.834264
O O2 0.231099 0.842076 0.571155
O O3 0.500000 0.000000 0.500000
O O4 0.540194 0.192132 0.744190
O O5 0.255047 0.046386 0.218956
O O6 0.483821 0.298885 0.114454
O O7 0.196936 0.926409 0.913362
O O8 0.826499 0.328526 0.722327
O O9 0.651226 0.393368 0.492586
O O10 0.861684 0.565050 0.848327
O O11 0.934660 0.764618 0.604590
O O12 0.917327 0.840308 0.902647
O O13 0.626319 0.676409 0.655397
O O14 0.965316 0.033086 0.654791
O O15 0.941101 0.673152 0.301647
O O16 0.000000 0.500000 0.500000
O O17 0.311000 0.373466 0.710148
#
# Coordination Sequence:
#
# PCOD9043149 Si02
#       8
#     2   2   2   2   2   2   2   2
#     4  10  17  33  60  85 106 150 199 230 272 364
#     4  10  20  39  61  84 119 156 189 240 301 343
#     4  10  19  34  56  87 112 150 194 236 284 345
#     4  11  23  36  58  87 124 149 187 257 295 321
#     4  10  21  40  63  80 116 162 202 228 289 355
#     4  11  16  32  59  81 112 146 189 231 284 344
#     4  11  21  37  64  89 109 154 208 236 280 348
#     4   9  19  36  61  87 109 154 199 234 282 353
#
# _framework density 26.049758000000001
#
# number of rings (size 3 to 8) (size 9 to 14) (size 15 to 20)
#    0.750    1.000    5.000    3.000    0.000    2.500 
#    0.000    2.500    8.250    0.000    0.000    0.000 
#    0.000    0.000    0.000    0.000    0.000    0.000 
#
# Total GULP energy -89167.797138 kJ/mol
# GULP energy per Si atom -5572.987321 kJ/mol
# Density = 2.599047 g / cm^3
# Si number density = 26.049758 Si / 1000 Ang^3
#
#
#
# Elastic Constant Matrix: (Units=GPa)
#
#
# Indices 1 2 3 4 5 6 
#
# 1 81.1703 32.6968 13.6796 2.6700 3.8617 -4.8810
# 2 32.6968 147.7009 27.2494 32.0083 0.3720 43.2863
# 3 13.6796 27.2494 58.6497 26.9726 9.1378 3.8983
# 4 2.6700 32.0083 26.9726 33.6983 -1.2989 4.6621
# 5 3.8617 0.3720 9.1378 -1.2989 34.6620 9.9142
# 6 -4.8810 43.2863 3.8983 4.6621 9.9142 47.0740
#
#
#
# Elastic Compliance Matrix: (Units=1/GPa)
#
#
# Indices 1 2 3 4 5 6 
#
# 1 0.016070 -0.006697 -0.004008 0.007082 -0.002691 0.008022
# 2 -0.006697 0.014847 0.000379 -0.011772 0.004070 -0.014070
# 3 -0.004008 0.000379 0.030647 -0.025060 -0.008876 0.001050
# 4 0.007082 -0.011772 -0.025060 0.059716 0.006356 0.006381
# 5 -0.002691 0.004070 -0.008876 0.006356 0.034907 -0.011268
# 6 0.008022 -0.014070 0.001050 0.006381 -0.011268 0.036667
#
#
# Mechanical properties :
#
#
# Convention : Reuss Voigt Hill
#
# Bulk Modulus (GPa) = 24.44243 48.30807 36.37525
# Shear Modulus (GPa) = 22.01240 37.34654 29.67947
#
# Velocity S-wave (km/s) = 2.91007 3.79048 3.37907
# Velocity P-wave (km/s) = 4.54914 6.14343 5.40539
#
# Compressibility (1/GPa) = 0.04091245
#
# Stress axis : x y z
#
# Youngs Moduli (GPa) = 62.22650 67.35219 32.62924
#
# Poissons Ratio (x) = 0.45106 0.13077
# Poissons Ratio (y) = 0.41673 -0.01235
# Poissons Ratio (z) = 0.24939 -0.02549
#
# Static dielectric constant tensor:
#      x y z
#    x 2.105020 0.043080 -0.062430 
#    y 0.043080 2.120690 0.033410 
#    z -0.062430 0.033410 2.125340 
# 
# From -- ./inp_files/303101.got.cif
#   From: 2010.05.17/outbox.cif.g08.bks.cpg/sg2_152_cif.got.tgz:303101.got - 2010.06.03 11:33:40.
