data_PCOD9043464
_publ_section_title
;
Structure prediction by ZEFSAII (Michael W. Deem and Ramdas Pophale) SiO2 
 PCOD9043464
Probable space group: P -1
;
_chemical_formula_sum "Si O2"
_cell_formula_units_Z 16
_cell_length_a 5.166259
_cell_length_b 23.186581
_cell_length_c 11.859153
_cell_angle_alpha 30.653598
_cell_angle_beta 53.072561
_cell_angle_gamma 61.198346
_cell_volume 576.838948
_symmetry_space_group_name_H-M "P -1"
_symmetry_group_IT_number 2
_symmetry_cell_setting 'triclinic'
loop_
_space_group_symop_operation_xyz
x,y,z
-x,-y,-z
loop_
_atom_site_type_symbol
_atom_site_label
_atom_site_fract_x
_atom_site_fract_y
_atom_site_fract_z
Si Si1 0.324771 0.372442 0.458724
Si Si2 0.197963 0.890089 0.656605
Si Si3 0.509079 0.554444 0.281660
Si Si4 0.883063 0.750610 0.471558
Si Si5 0.507638 0.800456 0.941206
Si Si6 0.525539 0.855971 0.092873
Si Si7 0.340251 0.890062 0.380649
Si Si8 0.007187 0.655969 0.809618
O O1 0.311273 0.476206 0.372094
O O2 0.056133 0.341773 0.484884
O O3 0.310729 0.258760 0.730281
O O4 0.665878 0.380977 0.278748
O O5 0.382892 0.879954 0.741751
O O6 0.434502 0.890970 0.487480
O O7 0.892920 0.797036 0.875158
O O8 0.000000 0.000000 0.500000
O O9 0.500000 0.500000 0.500000
O O10 0.390233 0.677326 0.131578
O O11 0.850917 0.581533 0.077053
O O12 0.647237 0.836727 0.336287
O O13 0.764362 0.673677 0.738593
O O14 0.191397 0.833853 0.286113
O O15 0.400258 0.845681 0.013736
O O16 0.702237 0.980317 0.855892
O O17 0.069272 0.785409 0.620135
#
# Coordination Sequence:
#
# PCOD9043464 Si02
#       8
#     2   2   2   2   2   2   2   2
#     4  10  24  46  69 105 149 204 256 319 385 460
#     4  12  26  47  76 112 157 207 253 319 400 478
#     4  12  24  47  77 107 150 203 271 324 387 454
#     4  10  24  43  69 104 149 198 259 314 391 470
#     4  12  27  47  73 112 158 204 261 319 395 470
#     4  11  24  42  69 110 152 195 256 315 397 459
#     4  11  23  41  74 104 150 192 252 320 388 469
#     4  10  23  45  71 105 146 194 257 316 398 462
#
# _framework density 27.737380999999999
#
# number of rings (size 3 to 8) (size 9 to 14) (size 15 to 20)
#    0.000    1.000    3.750    1.875    1.750    6.000 
#    4.500    1.250    0.000    0.000    0.000    0.000 
#    0.000    0.000    0.000    0.000    0.000    0.000 
#
# Total GULP energy -89339.852712 kJ/mol
# GULP energy per Si atom -5583.740794 kJ/mol
# Density = 2.767425 g / cm^3
# Si number density = 27.737381 Si / 1000 Ang^3
#
#
#
# Elastic Constant Matrix: (Units=GPa)
#
#
# Indices 1 2 3 4 5 6 
#
# 1 90.1597 13.1628 42.2384 -4.4999 9.9161 16.9420
# 2 13.1628 133.3141 67.1127 -7.8072 3.7291 28.6281
# 3 42.2384 67.1127 175.2002 -8.0323 11.1943 22.2358
# 4 -4.4999 -7.8072 -8.0323 67.4667 10.2475 1.2561
# 5 9.9161 3.7291 11.1943 10.2475 44.9374 7.1255
# 6 16.9420 28.6281 22.2358 1.2561 7.1255 47.2073
#
#
#
# Elastic Compliance Matrix: (Units=1/GPa)
#
#
# Indices 1 2 3 4 5 6 
#
# 1 0.013299 0.001115 -0.002984 0.001022 -0.001917 -0.003781
# 2 0.001115 0.010310 -0.003561 0.000879 0.000387 -0.005057
# 3 -0.002984 -0.003561 0.007928 0.000503 -0.001080 -0.000355
# 4 0.001022 0.000879 0.000503 0.015653 -0.003839 -0.000974
# 5 -0.001917 0.000387 -0.001080 -0.003839 0.024199 -0.002588
# 6 -0.003781 -0.005057 -0.000355 -0.000974 -0.002588 0.026190
#
#
# Mechanical properties :
#
#
# Convention : Reuss Voigt Hill
#
# Bulk Modulus (GPa) = 48.36259 71.52241 59.94250
# Shear Modulus (GPa) = 43.35282 50.33294 46.84288
#
# Velocity S-wave (km/s) = 3.95774 4.26446 4.11396
# Velocity P-wave (km/s) = 6.19344 7.07736 6.65010
#
# Compressibility (1/GPa) = 0.02067714
#
# Stress axis : x y z
#
# Youngs Moduli (GPa) = 75.19343 96.99150 126.13224
#
# Poissons Ratio (x) = -0.10810 0.37636
# Poissons Ratio (y) = -0.08380 0.44913
# Poissons Ratio (z) = 0.22437 0.34536
#
# Static dielectric constant tensor:
#      x y z
#    x 2.239890 -0.020990 -0.079540 
#    y -0.020990 2.278670 0.093220 
#    z -0.079540 0.093220 2.234380 
# 
# From -- ./inp_files/370959.got.cif
#   From: 2010.05.17/outbox.cif.g08.bks.cpg/sg2_186_cif.got.tgz:370959.got - 2010.06.03 11:33:40.
