data_PCOD9043184
_publ_section_title
;
Structure prediction by ZEFSAII (Michael W. Deem and Ramdas Pophale) SiO2 
 PCOD9043184
Probable space group: P -1
;
_chemical_formula_sum "Si O2"
_cell_formula_units_Z 15
_cell_length_a 8.739259
_cell_length_b 5.818315
_cell_length_c 17.719542
_cell_angle_alpha 75.165063
_cell_angle_beta 46.488404
_cell_angle_gamma 87.371500
_cell_volume 620.628857
_symmetry_space_group_name_H-M "P -1"
_symmetry_group_IT_number 2
_symmetry_cell_setting 'triclinic'
loop_
_space_group_symop_operation_xyz
x,y,z
-x,-y,-z
loop_
_atom_site_type_symbol
_atom_site_label
_atom_site_fract_x
_atom_site_fract_y
_atom_site_fract_z
Si Si1 0.651532 0.185962 0.490936
Si Si2 0.961047 0.900183 0.865856
Si Si3 0.311429 0.631920 0.808113
Si Si4 0.000000 0.000000 0.500000
Si Si5 0.733505 0.624309 0.316118
Si Si6 0.572944 0.768613 0.105465
Si Si7 0.335485 0.023113 0.275153
Si Si8 0.299275 0.427961 0.130813
O O1 0.758333 0.415489 0.384479
O O2 0.482899 0.279844 0.596243
O O3 0.500000 0.000000 0.500000
O O4 0.834794 0.089267 0.483936
O O5 0.892340 0.676383 0.850593
O O6 0.141278 0.806452 0.861977
O O7 0.748558 0.936251 0.980619
O O8 0.075157 0.145008 0.767378
O O9 0.283195 0.488084 0.752133
O O10 0.309862 0.452311 0.893895
O O11 0.549206 0.793418 0.715435
O O12 0.874426 0.113972 0.601924
O O13 0.349753 0.659709 0.148463
O O14 0.501854 0.873406 0.197667
O O15 0.301624 0.198142 0.203081
O O16 0.500000 0.500000 0.000000
#
# Coordination Sequence:
#
# PCOD9043184 Si02
#       8
#     2   2   2   1   2   2   2   2
#     4  11  26  52  75 108 152 196 256 322 375 455
#     4  11  23  41  73 107 144 193 241 303 373 453
#     4  11  23  43  68 103 147 187 243 304 370 448
#     4  12  26  48  78 106 148 196 254 316 376 450
#     4  11  25  44  76 108 148 197 247 310 384 446
#     4  10  23  45  69 104 146 195 244 302 373 444
#     4  11  25  46  68 102 143 187 247 313 362 448
#     4   9  23  44  67 100 143 187 236 304 359 437
#
# _framework density 24.169034
#
# number of rings (size 3 to 8) (size 9 to 14) (size 15 to 20)
#    0.000    1.333    0.000    4.400    3.733    8.533 
#    2.400    8.667    2.933    0.000    0.000    0.000 
#    0.000    0.000    0.000    0.000    0.000    0.000 
#
# Total GULP energy -83553.676930 kJ/mol
# GULP energy per Si atom -5570.245129 kJ/mol
# Density = 2.411402 g / cm^3
# Si number density = 24.169034 Si / 1000 Ang^3
#
#
#
# Elastic Constant Matrix: (Units=GPa)
#
#
# Indices 1 2 3 4 5 6 
#
# 1 139.6731 45.4821 23.0623 3.0639 11.5787 -19.3722
# 2 45.4821 62.5013 51.4666 0.9998 -3.4005 3.3928
# 3 23.0623 51.4666 115.4860 -6.9360 9.3627 -6.5078
# 4 3.0639 0.9998 -6.9360 42.9676 -4.1130 7.4854
# 5 11.5787 -3.4005 9.3627 -4.1130 12.9622 7.6902
# 6 -19.3722 3.3928 -6.5078 7.4854 7.6902 42.8791
#
#
#
# Elastic Compliance Matrix: (Units=1/GPa)
#
#
# Indices 1 2 3 4 5 6 
#
# 1 0.034410 -0.054010 0.026414 -0.013393 -0.093733 0.042977
# 2 -0.054010 0.116693 -0.058375 0.021866 0.173945 -0.077507
# 3 0.026414 -0.058375 0.038773 -0.010524 -0.094736 0.041265
# 4 -0.013393 0.021866 -0.010524 0.030820 0.049056 -0.023556
# 5 -0.093733 0.173945 -0.094736 0.049056 0.377578 -0.146769
# 6 0.042977 -0.077507 0.041265 -0.023556 -0.146769 0.085568
#
#
# Mechanical properties :
#
#
# Convention : Reuss Voigt Hill
#
# Bulk Modulus (GPa) = 55.75650 61.96470 58.86060
# Shear Modulus (GPa) = 5.80207 32.93840 19.37023
#
# Velocity S-wave (km/s) = 1.55107 3.69566 2.83406
# Velocity P-wave (km/s) = 5.13101 6.62603 5.92586
#
# Compressibility (1/GPa) = 0.01793513
#
# Stress axis : x y z
#
# Youngs Moduli (GPa) = 29.06104 8.56951 25.79119
#
# Poissons Ratio (x) = 0.46284 -0.68126
# Poissons Ratio (y) = 1.56958 1.50557
# Poissons Ratio (z) = -0.76763 0.50025
#
# Static dielectric constant tensor:
#      x y z
#    x 1.969400 -0.006360 -0.017320 
#    y -0.006360 1.937710 -0.019720 
#    z -0.017320 -0.019720 1.952110 
# 
# From -- ./inp_files/552540.got.cif
#   From: 2010.05.17/outbox.cif.g08.bks.cpg/sg2_277_cif.got.tgz:552540.got - 2010.06.03 11:33:40.
