data_PCOD9043956
_publ_section_title
;
Structure prediction by ZEFSAII (Michael W. Deem and Ramdas Pophale) SiO2 
 PCOD9043956
Probable space group: P -1
;
_chemical_formula_sum "Si O2"
_cell_formula_units_Z 12
_cell_length_a 11.611810
_cell_length_b 6.651667
_cell_length_c 12.277520
_cell_angle_alpha 47.701709
_cell_angle_beta 51.893588
_cell_angle_gamma 52.752035
_cell_volume 521.689909
_symmetry_space_group_name_H-M "P -1"
_symmetry_group_IT_number 2
_symmetry_cell_setting 'triclinic'
loop_
_space_group_symop_operation_xyz
x,y,z
-x,-y,-z
loop_
_atom_site_type_symbol
_atom_site_label
_atom_site_fract_x
_atom_site_fract_y
_atom_site_fract_z
Si Si1 0.871192 0.814000 0.952979
Si Si2 0.245765 0.608641 0.108586
Si Si3 0.270496 0.458376 0.703500
Si Si4 0.501004 0.671491 0.108962
Si Si5 0.949358 0.769265 0.680455
Si Si6 0.523008 0.272165 0.441535
O O1 0.869099 0.888416 0.799842
O O2 0.885259 0.078857 0.918784
O O3 0.731460 0.743967 0.120310
O O4 0.000000 0.500000 0.000000
O O5 0.370023 0.633684 0.116519
O O6 0.165121 0.368257 0.262909
O O7 0.337661 0.524192 0.971409
O O8 0.414397 0.321016 0.592064
O O9 0.302416 0.745423 0.622149
O O10 0.111335 0.527853 0.706404
O O11 0.474159 0.536169 0.288492
O O12 0.500000 0.000000 0.000000
O O13 0.000000 0.000000 0.500000
O O14 0.500000 0.000000 0.500000
#
# Coordination Sequence:
#
# PCOD9043956 Si02
#       6
#     2   2   2   2   2   2
#     4  10  23  46  67  97 137 181 230 286 340 419
#     4  11  24  42  73 101 138 186 227 280 366 404
#     4  10  24  42  66  95 138 171 225 283 336 402
#     4  11  25  44  71 104 143 181 235 291 347 420
#     4  11  26  42  68 101 140 176 229 287 343 412
#     4  11  24  41  68  97 133 183 234 275 343 411
#
# _framework density 23.002171000000001
#
# number of rings (size 3 to 8) (size 9 to 14) (size 15 to 20)
#    0.000    1.333    0.000    4.000    7.000    8.667 
#    0.000    0.000    0.000    0.000    0.000    0.000 
#    0.000    0.000    0.000    0.000    0.000    0.000 
#
# Total GULP energy -66994.574400 kJ/mol
# GULP energy per Si atom -5582.881200 kJ/mol
# Density = 2.294982 g / cm^3
# Si number density = 23.002171 Si / 1000 Ang^3
#
#
#
# Elastic Constant Matrix: (Units=GPa)
#
#
# Indices 1 2 3 4 5 6 
#
# 1 83.1175 20.1016 46.1734 -7.1794 -12.9148 17.7864
# 2 20.1016 133.1030 70.2455 -5.9240 -2.9605 27.0430
# 3 46.1734 70.2455 224.3092 0.2909 -3.8159 25.6956
# 4 -7.1794 -5.9240 0.2909 38.2199 8.9808 -5.9918
# 5 -12.9148 -2.9605 -3.8159 8.9808 38.4114 -11.8388
# 6 17.7864 27.0430 25.6956 -5.9918 -11.8388 33.6939
#
#
#
# Elastic Compliance Matrix: (Units=1/GPa)
#
#
# Indices 1 2 3 4 5 6 
#
# 1 0.015023 0.000188 -0.002548 0.001409 0.002992 -0.004836
# 2 0.000188 0.010181 -0.002477 0.000969 -0.001726 -0.006816
# 3 -0.002548 -0.002477 0.005933 -0.000991 -0.000727 -0.001623
# 4 0.001409 0.000969 -0.000991 0.028230 -0.005427 0.002348
# 5 0.002992 -0.001726 -0.000727 -0.005427 0.031307 0.010395
# 6 -0.004836 -0.006816 -0.001623 0.002348 0.010395 0.043010
#
#
# Mechanical properties :
#
#
# Convention : Reuss Voigt Hill
#
# Bulk Modulus (GPa) = 46.59242 79.28562 62.93902
# Shear Modulus (GPa) = 33.21960 42.33231 37.77595
#
# Velocity S-wave (km/s) = 3.80438 4.29460 4.05690
# Velocity P-wave (km/s) = 6.29264 7.68993 7.02611
#
# Compressibility (1/GPa) = 0.02146272
#
# Stress axis : x y z
#
# Youngs Moduli (GPa) = 66.56560 98.21869 168.54234
#
# Poissons Ratio (x) = -0.01844 0.42948
# Poissons Ratio (y) = -0.01250 0.41747
# Poissons Ratio (z) = 0.16962 0.24328
#
# Static dielectric constant tensor:
#      x y z
#    x 1.785490 -0.223440 0.043910 
#    y -0.223440 1.767900 0.022370 
#    z 0.043910 0.022370 1.824970 
# 
# From -- ./inp_files/28911.got.cif
#   From: 2010.05.17/outbox.cif.g08.bks.cpg/sg2_15_cif.got.tgz:28911.got - 2010.06.03 11:33:40.
