data_PCOD9043895
_publ_section_title
;
Structure prediction by ZEFSAII (Michael W. Deem and Ramdas Pophale) SiO2 
 PCOD9043895
Probable space group: P -1
;
_chemical_formula_sum "Si O2"
_cell_formula_units_Z 16
_cell_length_a 7.910299
_cell_length_b 15.335486
_cell_length_c 8.019088
_cell_angle_alpha 83.947274
_cell_angle_beta 122.351201
_cell_angle_gamma 129.607128
_cell_volume 590.160726
_symmetry_space_group_name_H-M "P -1"
_symmetry_group_IT_number 2
_symmetry_cell_setting 'triclinic'
loop_
_space_group_symop_operation_xyz
x,y,z
-x,-y,-z
loop_
_atom_site_type_symbol
_atom_site_label
_atom_site_fract_x
_atom_site_fract_y
_atom_site_fract_z
Si Si1 0.704119 0.738594 0.439027
Si Si2 0.388079 0.923117 0.286276
Si Si3 0.913066 0.279176 0.252160
Si Si4 0.505489 0.601428 0.036618
Si Si5 0.672364 0.245630 0.472535
Si Si6 0.175526 0.153252 0.041512
Si Si7 0.896238 0.471028 0.691592
Si Si8 0.339653 0.105422 0.809604
O O1 0.898134 0.748199 0.670508
O O2 0.694661 0.674196 0.282815
O O3 0.387695 0.641318 0.347102
O O4 0.770969 0.855558 0.386230
O O5 0.280164 0.797323 0.329868
O O6 0.616189 0.971583 0.254285
O O7 0.132006 0.902823 0.091760
O O8 0.500000 0.000000 0.500000
O O9 0.097977 0.422372 0.333819
O O10 0.756396 0.218781 0.356995
O O11 0.664647 0.220110 0.004972
O O12 0.634182 0.707492 0.949397
O O13 0.500000 0.500000 0.000000
O O14 0.188061 0.532933 0.913648
O O15 0.856059 0.389712 0.535092
O O16 0.348982 0.169795 0.286506
O O17 0.189866 0.086613 0.908745
#
# Coordination Sequence:
#
# PCOD9043895 Si02
#       8
#     2   2   2   2   2   2   2   2
#     4  11  22  36  57  91 135 175 219 265 309 372
#     4  12  27  47  75  98 120 170 229 284 350 394
#     4  11  23  39  62  95 137 179 218 251 329 394
#     4  11  22  36  60  91 136 186 218 256 320 384
#     4  11  23  43  64  95 138 171 221 274 315 398
#     4  10  24  45  66  95 137 175 213 277 332 384
#     4  12  21  36  60  99 133 180 218 254 309 398
#     4  10  23  46  65  96 136 169 221 279 322 401
#
# _framework density 27.111256000000001
#
# number of rings (size 3 to 8) (size 9 to 14) (size 15 to 20)
#    0.000    1.000    5.000    4.125    3.500    1.000 
#    0.000    2.500    0.000    0.000    0.000    0.000 
#    0.000    0.000    0.000    0.000    0.000    0.000 
#
# Total GULP energy -89593.738262 kJ/mol
# GULP energy per Si atom -5599.608641 kJ/mol
# Density = 2.704955 g / cm^3
# Si number density = 27.111256 Si / 1000 Ang^3
#
#
#
# Elastic Constant Matrix: (Units=GPa)
#
#
# Indices 1 2 3 4 5 6 
#
# 1 134.9441 25.3284 60.8853 -0.4465 24.1766 -36.1510
# 2 25.3284 127.0469 27.7043 0.9303 16.2181 -19.9286
# 3 60.8853 27.7043 123.0337 -0.4073 32.1798 -5.7551
# 4 -0.4465 0.9303 -0.4073 39.6844 -6.9317 -0.3843
# 5 24.1766 16.2181 32.1798 -6.9317 66.4208 4.8223
# 6 -36.1510 -19.9286 -5.7551 -0.3843 4.8223 36.6042
#
#
#
# Elastic Compliance Matrix: (Units=1/GPa)
#
#
# Indices 1 2 3 4 5 6 
#
# 1 0.014261 0.001122 -0.005644 -0.000452 -0.003816 0.014306
# 2 0.001122 0.009305 -0.001750 -0.000573 -0.002343 0.006202
# 3 -0.005644 -0.001750 0.011906 -0.000470 -0.003026 -0.004261
# 4 -0.000452 -0.000573 -0.000470 0.025768 0.003293 -0.000995
# 5 -0.003816 -0.002343 -0.003026 0.003293 0.019410 -0.008043
# 6 0.014306 0.006202 -0.004261 -0.000995 -0.008043 0.045204
#
#
# Mechanical properties :
#
#
# Convention : Reuss Voigt Hill
#
# Bulk Modulus (GPa) = 43.61385 68.09563 55.85474
# Shear Modulus (GPa) = 34.23704 46.61566 40.42635
#
# Velocity S-wave (km/s) = 3.55749 4.15109 3.86570
# Velocity P-wave (km/s) = 5.74424 6.93880 6.36959
#
# Compressibility (1/GPa) = 0.02292850
#
# Stress axis : x y z
#
# Youngs Moduli (GPa) = 70.11971 107.46914 83.99428
#
# Poissons Ratio (x) = -0.12060 0.47409
# Poissons Ratio (y) = -0.07869 0.14696
# Poissons Ratio (z) = 0.39578 0.18803
#
# Static dielectric constant tensor:
#      x y z
#    x 2.244710 -0.044060 -0.119730 
#    y -0.044060 2.091880 0.030470 
#    z -0.119730 0.030470 2.096140 
# 
# From -- ./inp_files/188884.got.cif
#   From: 2010.05.17/outbox.cif.g08.bks.cpg/sg2_95_cif.got.tgz:188884.got - 2010.06.03 11:33:40.
