data_PCOD9043687
_publ_section_title
;
Structure prediction by ZEFSAII (Michael W. Deem and Ramdas Pophale) SiO2 
 PCOD9043687
Probable space group: P -1
;
_chemical_formula_sum "Si O2"
_cell_formula_units_Z 16
_cell_length_a 10.058177
_cell_length_b 9.109469
_cell_length_c 12.354298
_cell_angle_alpha 54.531923
_cell_angle_beta 88.565330
_cell_angle_gamma 56.568879
_cell_volume 693.330849
_symmetry_space_group_name_H-M "P -1"
_symmetry_group_IT_number 2
_symmetry_cell_setting 'triclinic'
loop_
_space_group_symop_operation_xyz
x,y,z
-x,-y,-z
loop_
_atom_site_type_symbol
_atom_site_label
_atom_site_fract_x
_atom_site_fract_y
_atom_site_fract_z
Si Si1 0.518813 0.189147 0.460211
Si Si2 0.521956 0.814713 0.284138
Si Si3 0.192269 0.719205 0.839686
Si Si4 0.528748 0.417164 0.806077
Si Si5 0.883003 0.978466 0.089889
Si Si6 0.097606 0.174627 0.361363
Si Si7 0.910494 0.582582 0.349238
Si Si8 0.196742 0.347375 0.106515
O O1 0.473441 0.242029 0.565174
O O2 0.412154 0.433424 0.291082
O O3 0.500000 0.000000 0.500000
O O4 0.722914 0.075003 0.494457
O O5 0.519465 0.649208 0.273627
O O6 0.699310 0.768666 0.281501
O O7 0.345889 0.093094 0.153821
O O8 0.365682 0.577781 0.823379
O O9 0.136266 0.932719 0.825073
O O10 0.024825 0.818749 0.724654
O O11 0.235056 0.520197 0.009249
O O12 0.687597 0.164280 0.964580
O O13 0.956570 0.712623 0.218108
O O14 0.000000 0.000000 0.000000
O O15 0.179408 0.276268 0.254945
O O16 0.976323 0.346452 0.387453
O O17 0.000000 0.500000 0.500000
O O18 0.000000 0.500000 0.000000
#
# Coordination Sequence:
#
# PCOD9043687 Si02
#       8
#     2   2   2   2   2   2   2   2
#     4  11  27  46  74 102 149 196 242 299 368 438
#     4  11  25  46  75 106 144 193 249 300 362 443
#     4  11  24  46  70 105 143 186 238 299 359 436
#     4  12  28  47  73 106 145 190 246 305 368 432
#     4  12  31  45  74 110 151 187 243 310 370 432
#     4  10  23  45  74 101 139 194 237 287 363 438
#     4  12  27  47  75 110 148 192 246 303 369 433
#     4   9  21  40  73 101 141 181 238 287 364 429
#
# _framework density 23.077006999999998
#
# number of rings (size 3 to 8) (size 9 to 14) (size 15 to 20)
#    0.000    1.000    1.250    3.000   19.250    2.500 
#    0.000    0.000    0.000    0.000    0.000    0.000 
#    0.000    0.000    0.000    0.000    0.000    0.000 
#
# Total GULP energy -89483.697186 kJ/mol
# GULP energy per Si atom -5592.731074 kJ/mol
# Density = 2.302448 g / cm^3
# Si number density = 23.077007 Si / 1000 Ang^3
#
#
#
# Elastic Constant Matrix: (Units=GPa)
#
#
# Indices 1 2 3 4 5 6 
#
# 1 87.9654 31.0595 27.6869 7.5586 10.3452 -9.5304
# 2 31.0595 118.6703 5.2487 13.3912 20.7508 -2.2309
# 3 27.6869 5.2487 96.3896 5.7084 6.5409 5.9833
# 4 7.5586 13.3912 5.7084 31.2852 11.0972 7.5953
# 5 10.3452 20.7508 6.5409 11.0972 30.0859 0.0493
# 6 -9.5304 -2.2309 5.9833 7.5953 0.0493 46.5393
#
#
#
# Elastic Compliance Matrix: (Units=1/GPa)
#
#
# Indices 1 2 3 4 5 6 
#
# 1 0.014424 -0.003098 -0.004003 -0.001856 -0.001274 0.003624
# 2 -0.003098 0.010392 0.000810 -0.001885 -0.005583 0.000073
# 3 -0.004003 0.000810 0.011750 -0.000425 -0.001576 -0.002221
# 4 -0.001856 -0.001885 -0.000425 0.039383 -0.012485 -0.006830
# 5 -0.001274 -0.005583 -0.001576 -0.012485 0.042472 0.001667
# 6 0.003624 0.000073 -0.002221 -0.006830 0.001667 0.023631
#
#
# Mechanical properties :
#
#
# Convention : Reuss Voigt Hill
#
# Bulk Modulus (GPa) = 41.69361 47.89062 44.79211
# Shear Modulus (GPa) = 30.74474 37.51742 34.13108
#
# Velocity S-wave (km/s) = 3.65398 4.03643 3.84996
# Velocity P-wave (km/s) = 5.99237 6.52084 6.26218
#
# Compressibility (1/GPa) = 0.02398449
#
# Stress axis : x y z
#
# Youngs Moduli (GPa) = 69.32982 96.22767 85.10442
#
# Poissons Ratio (x) = 0.29808 0.34067
# Poissons Ratio (y) = 0.21476 -0.06892
# Poissons Ratio (z) = 0.27753 -0.07793
#
# Static dielectric constant tensor:
#      x y z
#    x 1.824580 0.089380 -0.056920 
#    y 0.089380 1.625900 0.060920 
#    z -0.056920 0.060920 1.870450 
# 
# From -- ./inp_files/419161.got.cif
#   From: 2010.05.17/outbox.cif.g08.bks.cpg/sg2_210_cif.got.tgz:419161.got - 2010.06.03 11:33:40.
