data_PCOD9043810
_publ_section_title
;
Structure prediction by ZEFSAII (Michael W. Deem and Ramdas Pophale) SiO2 
 PCOD9043810
Probable space group: P -1
;
_chemical_formula_sum "Si O2"
_cell_formula_units_Z 12
_cell_length_a 13.536073
_cell_length_b 18.092748
_cell_length_c 7.563754
_cell_angle_alpha 34.252870
_cell_angle_beta 144.349296
_cell_angle_gamma 152.452254
_cell_volume 459.019243
_symmetry_space_group_name_H-M "P -1"
_symmetry_group_IT_number 2
_symmetry_cell_setting 'triclinic'
loop_
_space_group_symop_operation_xyz
x,y,z
-x,-y,-z
loop_
_atom_site_type_symbol
_atom_site_label
_atom_site_fract_x
_atom_site_fract_y
_atom_site_fract_z
Si Si1 0.092523 0.972488 0.359583
Si Si2 0.485932 0.080646 0.502096
Si Si3 0.751745 0.677031 0.020745
Si Si4 0.588670 0.696155 0.264790
Si Si5 0.971455 0.336118 0.842549
Si Si6 0.157785 0.461871 0.255658
O O1 0.272038 0.960741 0.559876
O O2 0.230124 0.157639 0.290066
O O3 0.933160 0.620433 0.907820
O O4 0.000000 0.000000 0.000000
O O5 0.711755 0.168928 0.765311
O O6 0.500000 0.000000 0.500000
O O7 0.474689 0.228564 0.127402
O O8 0.847526 0.662081 0.371805
O O9 0.887870 0.679961 0.055968
O O10 0.500000 0.500000 0.000000
O O11 0.500000 0.500000 0.500000
O O12 0.413556 0.645842 0.261969
O O13 0.856930 0.836463 0.393508
O O14 0.000000 0.500000 0.500000
O O15 0.000000 0.500000 0.000000
#
# Coordination Sequence:
#
# PCOD9043810 Si02
#       6
#     2   2   2   2   2   2
#     4  10  23  45  76 109 154 212 264 336 408 470
#     4  11  23  46  80 112 162 214 264 341 417 480
#     4  12  27  48  82 115 162 217 269 338 415 485
#     4  11  24  43  77 110 156 210 269 330 399 481
#     4  12  23  45  78 117 158 214 270 330 414 485
#     4  12  26  45  79 119 159 211 276 332 404 494
#
# _framework density 26.142692
#
# number of rings (size 3 to 8) (size 9 to 14) (size 15 to 20)
#    0.000    0.667    3.333    5.000    4.667    1.333 
#    0.000    0.833    7.333   17.000    0.000    0.000 
#    0.000    0.000    0.000    0.000    0.000    0.000 
#
# Total GULP energy -67110.294112 kJ/mol
# GULP energy per Si atom -5592.524509 kJ/mol
# Density = 2.608319 g / cm^3
# Si number density = 26.142692 Si / 1000 Ang^3
#
#
#
# Elastic Constant Matrix: (Units=GPa)
#
#
# Indices 1 2 3 4 5 6 
#
# 1 187.8259 116.8482 53.5522 17.5061 4.9316 24.5195
# 2 116.8482 253.3749 45.9986 0.9759 12.7048 37.4491
# 3 53.5522 45.9986 110.0461 -3.8383 -7.6661 8.1557
# 4 17.5061 0.9759 -3.8383 42.7219 0.3943 -10.3233
# 5 4.9316 12.7048 -7.6661 0.3943 57.1999 18.6342
# 6 24.5195 37.4491 8.1557 -10.3233 18.6342 72.4538
#
#
#
# Elastic Compliance Matrix: (Units=1/GPa)
#
#
# Indices 1 2 3 4 5 6 
#
# 1 0.008790 -0.003279 -0.002927 -0.004172 0.000120 -0.001576
# 2 -0.003279 0.005854 -0.000751 0.000770 -0.000614 -0.001564
# 3 -0.002927 -0.000751 0.011037 0.002181 0.001897 -0.000040
# 4 -0.004172 0.000770 0.002181 0.026485 -0.001289 0.004873
# 5 0.000120 -0.000614 0.001897 -0.001289 0.019549 -0.005148
# 6 -0.001576 -0.001564 -0.000040 0.004873 -0.005148 0.017166
#
#
# Mechanical properties :
#
#
# Convention : Reuss Voigt Hill
#
# Bulk Modulus (GPa) = 84.99300 109.33830 97.16565
# Shear Modulus (GPa) = 46.85212 56.79829 51.82521
#
# Velocity S-wave (km/s) = 4.23799 4.66620 4.45724
# Velocity P-wave (km/s) = 7.51859 8.42293 7.98357
#
# Compressibility (1/GPa) = 0.01176567
#
# Stress axis : x y z
#
# Youngs Moduli (GPa) = 113.76329 170.81049 90.60614
#
# Poissons Ratio (x) = 0.56016 0.26522
# Poissons Ratio (y) = 0.37308 0.06807
# Poissons Ratio (z) = 0.33301 0.12832
#
# Static dielectric constant tensor:
#      x y z
#    x 2.197490 -0.004080 -0.116660 
#    y -0.004080 2.187340 0.037050 
#    z -0.116660 0.037050 2.857500 
# 
# From -- ./inp_files/186118.got.cif
#   From: 2010.05.17/outbox.cif.g08.bks.cpg/sg2_94_cif.got.tgz:186118.got - 2010.06.03 11:33:40.
