data_PCOD9043753
_publ_section_title
;
Structure prediction by ZEFSAII (Michael W. Deem and Ramdas Pophale) SiO2 
 PCOD9043753
Probable space group: P -1
;
_chemical_formula_sum "Si O2"
_cell_formula_units_Z 13
_cell_length_a 11.201516
_cell_length_b 13.584854
_cell_length_c 8.474015
_cell_angle_alpha 45.130906
_cell_angle_beta 53.623545
_cell_angle_gamma 32.831941
_cell_volume 495.492105
_symmetry_space_group_name_H-M "P -1"
_symmetry_group_IT_number 2
_symmetry_cell_setting 'triclinic'
loop_
_space_group_symop_operation_xyz
x,y,z
-x,-y,-z
loop_
_atom_site_type_symbol
_atom_site_label
_atom_site_fract_x
_atom_site_fract_y
_atom_site_fract_z
Si Si1 0.902826 0.180020 0.248425
Si Si2 0.414531 0.271359 0.788584
Si Si3 0.169312 0.587322 0.345810
Si Si4 0.715420 0.943710 0.386885
Si Si5 0.261224 0.832413 0.122363
Si Si6 0.500000 0.500000 0.000000
Si Si7 0.804221 0.837649 0.794381
O O1 0.651495 0.340122 0.213012
O O2 0.969402 0.278336 0.167435
O O3 0.000000 0.000000 0.500000
O O4 0.052539 0.045767 0.129522
O O5 0.266870 0.423445 0.589200
O O6 0.535911 0.302651 0.763502
O O7 0.617131 0.047367 0.804283
O O8 0.271661 0.268192 0.013445
O O9 0.197869 0.725408 0.234200
O O10 0.315630 0.502080 0.172669
O O11 0.910316 0.737444 0.365365
O O12 0.801884 0.892884 0.555115
O O13 0.500000 0.000000 0.500000
O O14 0.679084 0.116511 0.134913
#
# Coordination Sequence:
#
# PCOD9043753 Si02
#       7
#     2   2   2   2   2   1   2
#     4  11  24  46  75 105 146 194 244 301 368 434
#     4  10  23  46  72 105 142 190 244 297 366 435
#     4  12  27  42  72 107 145 184 248 302 359 435
#     4  12  25  47  73 105 146 193 239 295 367 434
#     4  11  23  46  74 105 145 190 243 296 369 432
#     4  12  26  46  70 116 140 190 250 300 362 438
#     4  10  23  45  74  99 147 194 235 300 370 430
#
# _framework density 26.236543000000001
#
# number of rings (size 3 to 8) (size 9 to 14) (size 15 to 20)
#    0.000    0.923    3.077    3.692    4.308    1.846 
#    2.769    1.538    0.000    0.000    0.000    0.000 
#    0.000    0.000    0.000    0.000    0.000    0.000 
#
# Total GULP energy -72672.665428 kJ/mol
# GULP energy per Si atom -5590.205033 kJ/mol
# Density = 2.617683 g / cm^3
# Si number density = 26.236543 Si / 1000 Ang^3
#
#
#
# Elastic Constant Matrix: (Units=GPa)
#
#
# Indices 1 2 3 4 5 6 
#
# 1 94.1340 34.3933 7.7150 -7.0775 4.6065 -23.8205
# 2 34.3933 111.8577 20.4248 14.0702 3.4921 -30.9042
# 3 7.7150 20.4248 126.1029 26.5579 8.5890 -11.8031
# 4 -7.0775 14.0702 26.5579 37.3444 -8.1547 5.7184
# 5 4.6065 3.4921 8.5890 -8.1547 41.1590 4.3337
# 6 -23.8205 -30.9042 -11.8031 5.7184 4.3337 51.2586
#
#
#
# Elastic Compliance Matrix: (Units=1/GPa)
#
#
# Indices 1 2 3 4 5 6 
#
# 1 0.013101 -0.003326 -0.000596 0.003438 -0.000760 0.003626
# 2 -0.003326 0.013043 0.000695 -0.007918 -0.003252 0.007636
# 3 -0.000596 0.000695 0.010524 -0.009449 -0.004481 0.003998
# 4 0.003438 -0.007918 -0.009449 0.041342 0.011602 -0.010945
# 5 -0.000760 -0.003252 -0.004481 0.011602 0.028634 -0.007061
# 6 0.003626 0.007636 0.003998 -0.010945 -0.007061 0.028537
#
#
# Mechanical properties :
#
#
# Convention : Reuss Voigt Hill
#
# Bulk Modulus (GPa) = 33.09851 50.79567 41.94709
# Shear Modulus (GPa) = 32.95845 43.92316 38.44081
#
# Velocity S-wave (km/s) = 3.54814 4.09604 3.83190
# Velocity P-wave (km/s) = 5.42481 6.46319 5.96663
#
# Compressibility (1/GPa) = 0.03021284
#
# Stress axis : x y z
#
# Youngs Moduli (GPa) = 76.33249 76.66885 95.02510
#
# Poissons Ratio (x) = 0.25502 0.05661
# Poissons Ratio (y) = 0.25390 -0.06602
# Poissons Ratio (z) = 0.04547 -0.05327
#
# Static dielectric constant tensor:
#      x y z
#    x 1.979610 0.093780 -0.003680 
#    y 0.093780 2.329280 0.015860 
#    z -0.003680 0.015860 2.069710 
# 
# From -- ./inp_files/152915.got.cif
#   From: 2010.05.17/outbox.cif.g08.bks.cpg/sg2_77_cif.got.tgz:152915.got - 2010.06.03 11:33:40.
