data_PCOD9043422
_publ_section_title
;
Structure prediction by ZEFSAII (Michael W. Deem and Ramdas Pophale) SiO2 
 PCOD9043422
Probable space group: P -1
;
_chemical_formula_sum "Si O2"
_cell_formula_units_Z 16
_cell_length_a 5.126242
_cell_length_b 18.867368
_cell_length_c 24.629293
_cell_angle_alpha 18.673902
_cell_angle_beta 80.371883
_cell_angle_gamma 86.373145
_cell_volume 716.962332
_symmetry_space_group_name_H-M "P -1"
_symmetry_group_IT_number 2
_symmetry_cell_setting 'triclinic'
loop_
_space_group_symop_operation_xyz
x,y,z
-x,-y,-z
loop_
_atom_site_type_symbol
_atom_site_label
_atom_site_fract_x
_atom_site_fract_y
_atom_site_fract_z
Si Si1 0.656250 0.694928 0.237866
Si Si2 0.567748 0.853463 0.366627
Si Si3 0.750815 0.450903 0.085847
Si Si4 0.090629 0.141546 0.450907
Si Si5 0.823231 0.973690 0.825376
Si Si6 0.271738 0.562919 0.781942
Si Si7 0.340838 0.114049 0.272999
Si Si8 0.178275 0.897534 0.146155
O O1 0.519638 0.424209 0.428984
O O2 0.438889 0.803233 0.196044
O O3 0.921820 0.739066 0.235510
O O4 0.749370 0.847381 0.069354
O O5 0.408556 0.945157 0.257470
O O6 0.461834 0.939040 0.363519
O O7 0.896203 0.959045 0.268938
O O8 0.844738 0.439291 0.151501
O O9 0.518657 0.221291 0.241834
O O10 0.630211 0.667725 0.926059
O O11 0.000000 0.500000 0.000000
O O12 0.416961 0.264373 0.353155
O O13 0.929967 0.336101 0.319232
O O14 0.000000 0.000000 0.500000
O O15 0.968626 0.985575 0.620830
O O16 0.885019 0.095118 0.793695
O O17 0.729266 0.697909 0.039911
#
# Coordination Sequence:
#
# PCOD9043422 Si02
#       8
#     2   2   2   2   2   2   2   2
#     4  10  23  45  71 101 137 174 223 272 332 408
#     4  12  26  44  67 106 137 174 230 279 330 403
#     4  11  23  43  70  89 138 182 222 271 344 396
#     4  12  26  45  67  97 131 177 237 279 334 401
#     4  12  26  45  69 101 140 174 227 274 340 401
#     4  12  26  45  66  98 135 176 223 285 334 395
#     4  11  26  42  66 100 131 182 223 282 334 396
#     4  10  23  46  71 100 136 181 217 267 345 404
#
# _framework density 22.316376000000002
#
# number of rings (size 3 to 8) (size 9 to 14) (size 15 to 20)
#    0.000    0.750    2.500    4.125    5.250    3.000 
#    4.500    0.000    0.000    0.000    0.000    0.000 
#    0.000    0.000    0.000    0.000    0.000    0.000 
#
# Total GULP energy -89619.944366 kJ/mol
# GULP energy per Si atom -5601.246523 kJ/mol
# Density = 2.226558 g / cm^3
# Si number density = 22.316376 Si / 1000 Ang^3
#
#
#
# Elastic Constant Matrix: (Units=GPa)
#
#
# Indices 1 2 3 4 5 6 
#
# 1 63.3441 -24.6366 -0.3397 10.4398 -12.5532 -5.5194
# 2 -24.6366 68.8950 5.7926 11.1990 -5.5053 -14.7713
# 3 -0.3397 5.7926 100.9472 -15.7873 -2.2269 -5.4982
# 4 10.4398 11.1990 -15.7873 21.7370 -4.4416 -2.5807
# 5 -12.5532 -5.5053 -2.2269 -4.4416 42.4424 10.2921
# 6 -5.5194 -14.7713 -5.4982 -2.5807 10.2921 27.6685
#
#
#
# Elastic Compliance Matrix: (Units=1/GPa)
#
#
# Indices 1 2 3 4 5 6 
#
# 1 0.027598 0.016193 -0.003650 -0.022016 0.005507 0.009323
# 2 0.016193 0.027614 -0.004304 -0.022981 0.002319 0.014111
# 3 -0.003650 -0.004304 0.012198 0.012938 0.000230 0.000519
# 4 -0.022016 -0.022981 0.012938 0.077161 0.001025 -0.007274
# 5 0.005507 0.002319 0.000230 0.001025 0.027489 -0.007748
# 6 0.009323 0.014111 0.000519 -0.007274 -0.007748 0.047842
#
#
# Mechanical properties :
#
#
# Convention : Reuss Voigt Hill
#
# Bulk Modulus (GPa) = 11.92085 21.64654 16.78370
# Shear Modulus (GPa) = 21.60891 35.19425 28.40158
#
# Velocity S-wave (km/s) = 3.11513 3.97553 3.57133
# Velocity P-wave (km/s) = 4.27692 5.54924 4.95409
#
# Compressibility (1/GPa) = 0.08388664
#
# Stress axis : x y z
#
# Youngs Moduli (GPa) = 36.23514 36.21368 81.98274
#
# Poissons Ratio (x) = -0.58642 0.29926
# Poissons Ratio (y) = -0.58677 0.35289
# Poissons Ratio (z) = 0.13227 0.15588
#
# Static dielectric constant tensor:
#      x y z
#    x 1.831090 0.020690 0.036910 
#    y 0.020690 1.794860 0.015570 
#    z 0.036910 0.015570 1.853100 
# 
# From -- ./inp_files/322505.got.cif
#   From: 2010.05.17/outbox.cif.g08.bks.cpg/sg2_162_cif.got.tgz:322505.got - 2010.06.03 11:33:40.
