data_PCOD9043244
_publ_section_title
;
Structure prediction by ZEFSAII (Michael W. Deem and Ramdas Pophale) SiO2 
 PCOD9043244
Probable space group: P -1
;
_chemical_formula_sum "Si O2"
_cell_formula_units_Z 14
_cell_length_a 9.397054
_cell_length_b 11.894052
_cell_length_c 11.412601
_cell_angle_alpha 128.340431
_cell_angle_beta 38.932626
_cell_angle_gamma 115.756529
_cell_volume 625.721461
_symmetry_space_group_name_H-M "P -1"
_symmetry_group_IT_number 2
_symmetry_cell_setting 'triclinic'
loop_
_space_group_symop_operation_xyz
x,y,z
-x,-y,-z
loop_
_atom_site_type_symbol
_atom_site_label
_atom_site_fract_x
_atom_site_fract_y
_atom_site_fract_z
Si Si1 0.173899 0.641420 0.137396
Si Si2 0.230291 0.946150 0.378463
Si Si3 0.622990 0.141210 0.539001
Si Si4 0.381663 0.379282 0.254722
Si Si5 0.763743 0.320217 0.348959
Si Si6 0.746768 0.642232 0.949884
Si Si7 0.345208 0.241965 0.425153
O O1 0.285254 0.789988 0.187205
O O2 0.223749 0.522534 0.129692
O O3 0.903280 0.683243 0.323060
O O4 0.352040 0.584819 0.886803
O O5 0.194581 0.914419 0.516426
O O6 0.380213 0.076550 0.341135
O O7 0.000000 0.000000 0.500000
O O8 0.720835 0.207906 0.405333
O O9 0.500000 0.000000 0.500000
O O10 0.452610 0.263588 0.791506
O O11 0.245522 0.523212 0.484997
O O12 0.293662 0.357324 0.164230
O O13 0.342516 0.256573 0.295523
O O14 0.559014 0.316307 0.385892
O O15 0.020094 0.291795 0.121156
#
# Coordination Sequence:
#
# PCOD9043244 Si02
#       7
#     2   2   2   2   2   2   2
#     4  11  23  44  73 100 136 185 239 278 343 407
#     4  10  23  45  69  98 139 180 231 281 337 416
#     4  12  25  49  71  99 140 181 230 288 350 409
#     4  12  24  41  73 103 139 182 232 290 338 411
#     4  12  26  44  71 104 144 182 227 290 348 408
#     4  12  26  44  74 106 133 183 240 283 345 414
#     4  11  26  45  65 106 146 181 232 283 347 410
#
# _framework density 22.374172000000002
#
# number of rings (size 3 to 8) (size 9 to 14) (size 15 to 20)
#    0.000    0.571    5.714    2.143    4.000    2.857 
#    0.000    0.000    0.000    0.000    0.000    0.000 
#    0.000    0.000    0.000    0.000    0.000    0.000 
#
# Total GULP energy -78120.802356 kJ/mol
# GULP energy per Si atom -5580.057311 kJ/mol
# Density = 2.232325 g / cm^3
# Si number density = 22.374172 Si / 1000 Ang^3
#
#
#
# Elastic Constant Matrix: (Units=GPa)
#
#
# Indices 1 2 3 4 5 6 
#
# 1 89.7933 25.9597 22.7891 5.6682 -23.5966 -11.2670
# 2 25.9597 112.4348 23.2007 8.4328 -3.4903 -24.6004
# 3 22.7891 23.2007 52.5876 -12.7629 -23.1223 -1.6386
# 4 5.6682 8.4328 -12.7629 40.2455 6.0281 -1.4489
# 5 -23.5966 -3.4903 -23.1223 6.0281 29.2234 -6.4592
# 6 -11.2670 -24.6004 -1.6386 -1.4489 -6.4592 43.9956
#
#
#
# Elastic Compliance Matrix: (Units=1/GPa)
#
#
# Indices 1 2 3 4 5 6 
#
# 1 0.016611 -0.001727 -0.000926 -0.004256 0.014511 0.005244
# 2 -0.001727 0.012057 -0.006780 -0.003736 -0.003348 0.005432
# 3 -0.000926 -0.006780 0.035702 0.009162 0.025086 0.001286
# 4 -0.004256 -0.003736 0.009162 0.029537 -0.003244 -0.002341
# 5 0.014511 -0.003348 0.025086 -0.003244 0.068879 0.012784
# 6 0.005244 0.005432 0.001286 -0.002341 0.012784 0.028958
#
#
# Mechanical properties :
#
#
# Convention : Reuss Voigt Hill
#
# Bulk Modulus (GPa) = 21.97648 44.30164 33.13906
# Shear Modulus (GPa) = 22.14572 34.88397 28.51484
#
# Velocity S-wave (km/s) = 3.14950 3.95285 3.57382
# Velocity P-wave (km/s) = 4.80306 6.37783 5.64562
#
# Compressibility (1/GPa) = 0.04550319
#
# Stress axis : x y z
#
# Youngs Moduli (GPa) = 60.20168 82.94080 28.00967
#
# Poissons Ratio (x) = 0.14326 0.02592
# Poissons Ratio (y) = 0.10398 0.18992
# Poissons Ratio (z) = 0.05572 0.56237
#
# Static dielectric constant tensor:
#      x y z
#    x 1.875150 0.014210 0.140720 
#    y 0.014210 1.929190 -0.102770 
#    z 0.140720 -0.102770 2.785070 
# 
# From -- ./inp_files/261288.got.cif
#   From: 2010.05.17/outbox.cif.g08.bks.cpg/sg2_131_cif.got.tgz:261288.got - 2010.06.03 11:33:40.
