data_PCOD9043245
_publ_section_title
;
Structure prediction by ZEFSAII (Michael W. Deem and Ramdas Pophale) SiO2 
 PCOD9043245
Probable space group: P -1
;
_chemical_formula_sum "Si O2"
_cell_formula_units_Z 12
_cell_length_a 10.051042
_cell_length_b 8.800893
_cell_length_c 15.190924
_cell_angle_alpha 149.418533
_cell_angle_beta 62.081438
_cell_angle_gamma 109.076528
_cell_volume 595.332739
_symmetry_space_group_name_H-M "P -1"
_symmetry_group_IT_number 2
_symmetry_cell_setting 'triclinic'
loop_
_space_group_symop_operation_xyz
x,y,z
-x,-y,-z
loop_
_atom_site_type_symbol
_atom_site_label
_atom_site_fract_x
_atom_site_fract_y
_atom_site_fract_z
Si Si1 0.449931 0.229093 0.209625
Si Si2 0.093077 0.140358 0.616642
Si Si3 0.090780 0.277085 0.097789
Si Si4 0.441036 0.158935 0.506166
Si Si5 0.880448 0.429189 0.572458
Si Si6 0.438361 0.181232 0.871072
O O1 0.556539 0.483587 0.312943
O O2 0.286050 0.425663 0.337621
O O3 0.457998 0.028517 0.194635
O O4 0.500000 0.000000 0.000000
O O5 0.268039 0.115723 0.521585
O O6 0.008796 0.484098 0.818170
O O7 0.097265 0.930346 0.596122
O O8 0.000000 0.000000 0.500000
O O9 0.097791 0.422164 0.265197
O O10 0.264635 0.215043 0.977343
O O11 0.000000 0.000000 0.000000
O O12 0.500000 0.000000 0.500000
O O13 0.544325 0.995385 0.314485
O O14 0.000000 0.500000 0.500000
O O15 0.500000 0.500000 0.000000
#
# Coordination Sequence:
#
# PCOD9043245 Si02
#       6
#     2   2   2   2   2   2
#     4  12  25  46  70 102 142 181 240 294 346 420
#     4  10  23  45  69  98 139 182 227 286 350 418
#     4  11  25  45  68 102 143 182 233 286 353 421
#     4  12  25  46  74 104 138 184 238 291 354 418
#     4  11  25  43  68 100 140 183 232 286 352 416
#     4  12  26  45  72 104 141 184 234 295 355 420
#
# _framework density 20.156796
#
# number of rings (size 3 to 8) (size 9 to 14) (size 15 to 20)
#    0.000    0.667    3.333    4.500    9.333    0.000 
#    0.000    1.667    0.000    0.000    0.000    0.000 
#    0.000    0.000    0.000    0.000    0.000    0.000 
#
# Total GULP energy -67084.213605 kJ/mol
# GULP energy per Si atom -5590.351134 kJ/mol
# Density = 2.011092 g / cm^3
# Si number density = 20.156796 Si / 1000 Ang^3
#
#
#
# Elastic Constant Matrix: (Units=GPa)
#
#
# Indices 1 2 3 4 5 6 
#
# 1 116.3952 63.3840 39.8464 5.3729 -22.1795 3.3583
# 2 63.3840 180.2692 76.4625 20.4773 -8.2434 -5.2847
# 3 39.8464 76.4625 100.3379 2.5660 2.7694 -1.9213
# 4 5.3729 20.4773 2.5660 56.8030 -4.4934 -3.4297
# 5 -22.1795 -8.2434 2.7694 -4.4934 42.8061 4.3730
# 6 3.3583 -5.2847 -1.9213 -3.4297 4.3730 53.9471
#
#
#
# Elastic Compliance Matrix: (Units=1/GPa)
#
#
# Indices 1 2 3 4 5 6 
#
# 1 0.012408 -0.002941 -0.002901 0.000414 0.006262 -0.001645
# 2 -0.002941 0.009466 -0.005970 -0.002797 0.000321 0.000694
# 3 -0.002901 -0.005970 0.015739 0.001465 -0.003572 0.000539
# 4 0.000414 -0.002797 0.001465 0.018673 0.001457 0.000821
# 5 0.006262 0.000321 -0.003572 0.001457 0.027318 -0.002607
# 6 -0.001645 0.000694 0.000539 0.000821 -0.002607 0.018990
#
#
# Mechanical properties :
#
#
# Convention : Reuss Voigt Hill
#
# Bulk Modulus (GPa) = 71.48348 84.04310 77.76329
# Shear Modulus (GPa) = 38.20278 45.19852 41.70065
#
# Velocity S-wave (km/s) = 4.35820 4.74048 4.55336
# Velocity P-wave (km/s) = 7.80166 8.47042 8.14291
#
# Compressibility (1/GPa) = 0.01398925
#
# Stress axis : x y z
#
# Youngs Moduli (GPa) = 80.59522 105.63819 63.53561
#
# Poissons Ratio (x) = 0.31068 0.18432
# Poissons Ratio (y) = 0.23703 0.37930
# Poissons Ratio (z) = 0.23382 0.63065
#
# Static dielectric constant tensor:
#      x y z
#    x 1.804370 0.077330 0.015340 
#    y 0.077330 1.775690 0.045290 
#    z 0.015340 0.045290 1.711720 
# 
# From -- ./inp_files/145279.got.cif
#   From: 2010.05.17/outbox.cif.g08.bks.cpg/sg2_73_cif.got.tgz:145279.got - 2010.06.03 11:33:40.
