data_PCOD9043903
_publ_section_title
;
Structure prediction by ZEFSAII (Michael W. Deem and Ramdas Pophale) SiO2 
 PCOD9043903
Probable space group: P -1
;
_chemical_formula_sum "Si O2"
_cell_formula_units_Z 14
_cell_length_a 7.678062
_cell_length_b 17.841472
_cell_length_c 9.094708
_cell_angle_alpha 141.810579
_cell_angle_beta 48.957593
_cell_angle_gamma 127.391846
_cell_volume 569.743430
_symmetry_space_group_name_H-M "P -1"
_symmetry_group_IT_number 2
_symmetry_cell_setting 'triclinic'
loop_
_space_group_symop_operation_xyz
x,y,z
-x,-y,-z
loop_
_atom_site_type_symbol
_atom_site_label
_atom_site_fract_x
_atom_site_fract_y
_atom_site_fract_z
Si Si1 0.628857 0.309829 0.253456
Si Si2 0.949169 0.065197 0.979135
Si Si3 0.001772 0.515784 0.850211
Si Si4 0.597403 0.634501 0.227865
Si Si5 0.711350 0.243308 0.570702
Si Si6 0.474211 0.140796 0.831534
Si Si7 0.226688 0.948911 0.238964
O O1 0.769550 0.435873 0.297618
O O2 0.513494 0.344187 0.520340
O O3 0.451152 0.246895 0.126978
O O4 0.779029 0.198939 0.019542
O O5 0.824709 0.168292 0.274364
O O6 0.221256 0.104217 0.838396
O O7 0.772827 0.997671 0.846708
O O8 0.000000 0.000000 0.000000
O O9 0.865445 0.380562 0.674627
O O10 0.000000 0.500000 0.000000
O O11 0.866322 0.628959 0.083203
O O12 0.544699 0.740429 0.315579
O O13 0.500000 0.500000 0.000000
O O14 0.675257 0.192628 0.678990
O O15 0.571071 0.040149 0.727730
O O16 0.000000 0.000000 0.500000
#
# Coordination Sequence:
#
# PCOD9043903 Si02
#       7
#     2   2   2   2   2   2   2
#     4  10  23  46  66 102 146 184 229 287 351 409
#     4  12  27  46  73 102 138 180 235 296 352 417
#     4  11  23  40  70 102 141 186 229 283 344 422
#     4  10  24  41  65 101 139 188 235 282 344 411
#     4  11  23  44  65 103 141 179 237 283 347 420
#     4  10  25  44  71 101 138 182 230 288 356 413
#     4  10  23  47  70 100 137 185 234 287 351 413
#
# _framework density 24.572462999999999
#
# number of rings (size 3 to 8) (size 9 to 14) (size 15 to 20)
#    0.857    0.571    2.857    0.857    4.000    8.000 
#    0.000    0.000    0.000    0.000    0.000    0.000 
#    0.000    0.000    0.000    0.000    0.000    0.000 
#
# Total GULP energy -77950.575546 kJ/mol
# GULP energy per Si atom -5567.898253 kJ/mol
# Density = 2.451654 g / cm^3
# Si number density = 24.572463 Si / 1000 Ang^3
#
#
#
# Elastic Constant Matrix: (Units=GPa)
#
#
# Indices 1 2 3 4 5 6 
#
# 1 102.1122 16.2917 21.3187 1.3967 -0.7077 -17.4439
# 2 16.2917 77.0822 13.5413 -18.4022 7.3955 -1.4449
# 3 21.3187 13.5413 133.1886 9.8978 27.0262 10.3896
# 4 1.3967 -18.4022 9.8978 33.3105 -14.8382 -3.4792
# 5 -0.7077 7.3955 27.0262 -14.8382 37.3720 -4.2265
# 6 -17.4439 -1.4449 10.3896 -3.4792 -4.2265 27.6429
#
#
#
# Elastic Compliance Matrix: (Units=1/GPa)
#
#
# Indices 1 2 3 4 5 6 
#
# 1 0.012857 -0.001363 -0.004464 0.004186 0.006678 0.011268
# 2 -0.001363 0.016603 -0.003734 0.012944 0.004958 0.003798
# 3 -0.004464 -0.003734 0.014165 -0.014993 -0.016992 -0.012821
# 4 0.004186 0.012944 -0.014993 0.058944 0.034206 0.021602
# 5 0.006678 0.004958 -0.016992 0.034206 0.054428 0.023487
# 6 0.011268 0.003798 -0.012821 0.021602 0.023487 0.054613
#
#
# Mechanical properties :
#
#
# Convention : Reuss Voigt Hill
#
# Bulk Modulus (GPa) = 40.81507 46.07628 43.44568
# Shear Modulus (GPa) = 20.92923 37.08052 29.00487
#
# Velocity S-wave (km/s) = 2.92162 3.88883 3.43939
# Velocity P-wave (km/s) = 5.29408 6.24147 5.78719
#
# Compressibility (1/GPa) = 0.02450075
#
# Stress axis : x y z
#
# Youngs Moduli (GPa) = 77.78108 60.23003 70.59882
#
# Poissons Ratio (x) = 0.08210 0.31518
# Poissons Ratio (y) = 0.10603 0.26362
# Poissons Ratio (z) = 0.34725 0.22491
#
# Static dielectric constant tensor:
#      x y z
#    x 2.170740 -0.030890 -0.063340 
#    y -0.030890 1.880000 -0.101780 
#    z -0.063340 -0.101780 1.861450 
# 
# From -- ./inp_files/215664.got.cif
#   From: 2010.05.17/outbox.cif.g08.bks.cpg/sg2_108_cif.got.tgz:215664.got - 2010.06.03 11:33:40.
