data_PCOD9043337
_publ_section_title
;
Structure prediction by ZEFSAII (Michael W. Deem and Ramdas Pophale) SiO2 
 PCOD9043337
Probable space group: P -1
;
_chemical_formula_sum "Si O2"
_cell_formula_units_Z 13
_cell_length_a 6.760029
_cell_length_b 14.236838
_cell_length_c 13.670720
_cell_angle_alpha 150.531198
_cell_angle_beta 128.006222
_cell_angle_gamma 54.300956
_cell_volume 506.164628
_symmetry_space_group_name_H-M "P -1"
_symmetry_group_IT_number 2
_symmetry_cell_setting 'triclinic'
loop_
_space_group_symop_operation_xyz
x,y,z
-x,-y,-z
loop_
_atom_site_type_symbol
_atom_site_label
_atom_site_fract_x
_atom_site_fract_y
_atom_site_fract_z
Si Si1 0.120212 0.066998 0.392342
Si Si2 0.000000 0.500000 0.000000
Si Si3 0.428280 0.693715 0.210574
Si Si4 0.767173 0.880928 0.801289
Si Si5 0.674295 0.695853 0.804087
Si Si6 0.270982 0.115675 0.799467
Si Si7 0.112394 0.647381 0.564759
O O1 0.324044 0.216431 0.598844
O O2 0.944885 0.149196 0.325136
O O3 0.280027 0.858802 0.247351
O O4 0.929296 0.039324 0.398352
O O5 0.767886 0.365528 0.822139
O O6 0.202977 0.297884 0.875192
O O7 0.500000 0.500000 0.000000
O O8 0.654965 0.834400 0.829863
O O9 0.888237 0.681927 0.607175
O O10 0.550103 0.999643 0.778546
O O11 0.000000 0.000000 0.000000
O O12 0.396227 0.633425 0.680264
O O13 0.869321 0.516509 0.661789
O O14 0.755499 0.782264 0.008008
#
# Coordination Sequence:
#
# PCOD9043337 Si02
#       7
#     2   1   2   2   2   2   2
#     4  10  23  45  70 106 139 192 241 301 370 438
#     4  10  26  46  72 108 132 196 250 292 368 438
#     4  10  24  48  73  98 143 189 246 307 367 430
#     4  12  23  41  70 105 142 192 242 297 363 436
#     4  11  24  45  68 100 152 191 236 300 374 433
#     4  11  23  47  75 103 153 194 244 309 364 437
#     4  11  24  42  68 108 142 189 243 297 367 444
#
# _framework density 25.683344000000002
#
# number of rings (size 3 to 8) (size 9 to 14) (size 15 to 20)
#    0.000    1.231    3.077    1.846    6.462    1.231 
#    8.308    2.308    0.000    0.000    0.000    0.000 
#    0.000    0.000    0.000    0.000    0.000    0.000 
#
# Total GULP energy -72468.643509 kJ/mol
# GULP energy per Si atom -5574.511039 kJ/mol
# Density = 2.562489 g / cm^3
# Si number density = 25.683344 Si / 1000 Ang^3
#
#
#
# Elastic Constant Matrix: (Units=GPa)
#
#
# Indices 1 2 3 4 5 6 
#
# 1 152.7094 35.0595 71.5539 0.3009 16.0747 -24.5184
# 2 35.0595 82.5977 40.9324 22.0740 0.1613 -34.7537
# 3 71.5539 40.9324 138.7107 15.9661 0.5812 -17.3213
# 4 0.3009 22.0740 15.9661 25.3559 1.6944 -12.0196
# 5 16.0747 0.1613 0.5812 1.6944 69.2112 11.4871
# 6 -24.5184 -34.7537 -17.3213 -12.0196 11.4871 54.9752
#
#
#
# Elastic Compliance Matrix: (Units=1/GPa)
#
#
# Indices 1 2 3 4 5 6 
#
# 1 0.010313 -0.002120 -0.004995 0.006907 -0.003157 0.003856
# 2 -0.002120 0.021615 -0.002666 -0.012668 -0.000764 0.009269
# 3 -0.004995 -0.002666 0.010958 -0.005571 0.001543 -0.002001
# 4 0.006907 -0.012668 -0.005571 0.057338 -0.004043 0.006698
# 5 -0.003157 -0.000764 0.001543 -0.004043 0.016212 -0.005676
# 6 0.003856 0.009269 -0.002001 0.006698 -0.005676 0.027789
#
#
# Mechanical properties :
#
#
# Convention : Reuss Voigt Hill
#
# Bulk Modulus (GPa) = 42.87382 74.34550 58.60966
# Shear Modulus (GPa) = 29.14419 45.00661 37.07540
#
# Velocity S-wave (km/s) = 3.37226 4.19067 3.80354
# Velocity P-wave (km/s) = 5.64733 7.24054 6.49299
#
# Compressibility (1/GPa) = 0.02332426
#
# Stress axis : x y z
#
# Youngs Moduli (GPa) = 96.96268 46.26454 91.26148
#
# Poissons Ratio (x) = 0.09806 0.45584
# Poissons Ratio (y) = 0.20552 0.24332
# Poissons Ratio (z) = 0.48432 0.12335
#
# Static dielectric constant tensor:
#      x y z
#    x 2.106630 0.051970 -0.009810 
#    y 0.051970 2.035640 0.001320 
#    z -0.009810 0.001320 2.056700 
# 
# From -- ./inp_files/484028.got.cif
#   From: 2010.05.17/outbox.cif.g08.bks.cpg/sg2_243_cif.got.tgz:484028.got - 2010.06.03 11:33:40.
