data_PCOD9043531
_publ_section_title
;
Structure prediction by ZEFSAII (Michael W. Deem and Ramdas Pophale) SiO2 
 PCOD9043531
Probable space group: P -1
;
_chemical_formula_sum "Si O2"
_cell_formula_units_Z 14
_cell_length_a 6.297972
_cell_length_b 16.254365
_cell_length_c 6.666973
_cell_angle_alpha 72.952513
_cell_angle_beta 72.829943
_cell_angle_gamma 94.158126
_cell_volume 613.903469
_symmetry_space_group_name_H-M "P -1"
_symmetry_group_IT_number 2
_symmetry_cell_setting 'triclinic'
loop_
_space_group_symop_operation_xyz
x,y,z
-x,-y,-z
loop_
_atom_site_type_symbol
_atom_site_label
_atom_site_fract_x
_atom_site_fract_y
_atom_site_fract_z
Si Si1 0.250328 0.196585 0.118442
Si Si2 0.042951 0.900113 0.074727
Si Si3 0.309470 0.674581 0.221687
Si Si4 0.875298 0.564553 0.361379
Si Si5 0.459866 0.903390 0.662885
Si Si6 0.151581 0.792751 0.507305
Si Si7 0.494711 0.499955 0.766081
O O1 0.311765 0.117944 0.291471
O O2 0.062750 0.235984 0.266980
O O3 0.491356 0.258659 0.984200
O O4 0.151735 0.160681 0.957274
O O5 0.078918 0.858882 0.311576
O O6 0.273055 0.896933 0.893025
O O7 0.000000 0.000000 0.000000
O O8 0.418071 0.587865 0.265361
O O9 0.067319 0.646600 0.198379
O O10 0.237817 0.715558 0.418048
O O11 0.670318 0.577809 0.558267
O O12 0.756337 0.513914 0.240119
O O13 0.000000 0.500000 0.500000
O O14 0.352732 0.840648 0.557774
O O15 0.500000 0.000000 0.500000
O O16 0.500000 0.500000 0.000000
#
# Coordination Sequence:
#
# PCOD9043531 Si02
#       7
#     2   2   2   2   2   2   2
#     4  11  26  43  64 101 133 178 230 276 345 388
#     4  11  24  43  67  96 135 179 232 282 332 405
#     4  11  25  43  69 101 139 174 221 282 336 403
#     4   9  22  45  67 100 133 170 218 265 333 405
#     4  11  24  43  67  97 131 182 234 275 339 404
#     4  11  26  43  64  99 136 175 228 283 338 390
#     4  10  23  45  72 101 132 177 220 268 335 411
#
# _framework density 22.804887999999998
#
# number of rings (size 3 to 8) (size 9 to 14) (size 15 to 20)
#    0.000    1.429    1.429    1.714    8.000    5.714 
#    5.143    0.000    0.000    0.000    0.000    0.000 
#    0.000    0.000    0.000    0.000    0.000    0.000 
#
# Total GULP energy -78203.061316 kJ/mol
# GULP energy per Si atom -5585.932951 kJ/mol
# Density = 2.275298 g / cm^3
# Si number density = 22.804888 Si / 1000 Ang^3
#
#
#
# Elastic Constant Matrix: (Units=GPa)
#
#
# Indices 1 2 3 4 5 6 
#
# 1 89.6946 25.0021 37.5582 14.2354 5.0464 13.6467
# 2 25.0021 66.2611 18.5401 11.6773 -11.8525 -7.6967
# 3 37.5582 18.5401 102.5479 18.6116 4.1587 16.8991
# 4 14.2354 11.6773 18.6116 35.4901 8.8958 -6.1193
# 5 5.0464 -11.8525 4.1587 8.8958 44.1905 -6.0010
# 6 13.6467 -7.6967 16.8991 -6.1193 -6.0010 44.8482
#
#
#
# Elastic Compliance Matrix: (Units=1/GPa)
#
#
# Indices 1 2 3 4 5 6 
#
# 1 0.015462 -0.005635 -0.003130 -0.002836 -0.003131 -0.005299
# 2 -0.005635 0.020891 -0.002379 -0.004275 0.008243 0.006716
# 3 -0.003130 -0.002379 0.013267 -0.005559 -0.001139 -0.005366
# 4 -0.002836 -0.004275 -0.005559 0.036419 -0.006777 0.006286
# 5 -0.003131 0.008243 -0.001139 -0.006777 0.027422 0.005541
# 6 -0.005299 0.006716 -0.005366 0.006286 0.005541 0.028683
#
#
# Mechanical properties :
#
#
# Convention : Reuss Voigt Hill
#
# Bulk Modulus (GPa) = 36.58241 46.74493 41.66367
# Shear Modulus (GPa) = 28.81142 36.73264 32.77203
#
# Velocity S-wave (km/s) = 3.55827 4.01775 3.79497
# Velocity P-wave (km/s) = 5.74091 6.48578 6.12468
#
# Compressibility (1/GPa) = 0.02733554
#
# Stress axis : x y z
#
# Youngs Moduli (GPa) = 64.67291 47.86676 75.37363
#
# Poissons Ratio (x) = 0.26971 0.23589
# Poissons Ratio (y) = 0.36440 0.17928
# Poissons Ratio (z) = 0.20240 0.11386
#
# Static dielectric constant tensor:
#      x y z
#    x 2.033470 -0.097030 0.221030 
#    y -0.097030 1.999040 -0.274680 
#    z 0.221030 -0.274680 2.349550 
# 
# From -- ./inp_files/7518.got.cif
#   From: 2010.05.17/outbox.cif.g08.bks.cpg/sg2_4_cif.got.tgz:7518.got - 2010.06.03 11:33:40.
