data_PCOD9043462
_publ_section_title
;
Structure prediction by ZEFSAII (Michael W. Deem and Ramdas Pophale) SiO2 
 PCOD9043462
Probable space group: P -1
;
_chemical_formula_sum "Si O2"
_cell_formula_units_Z 11
_cell_length_a 9.128579
_cell_length_b 4.811351
_cell_length_c 12.361254
_cell_angle_alpha 52.565145
_cell_angle_beta 71.866766
_cell_angle_gamma 63.602342
_cell_volume 385.507717
_symmetry_space_group_name_H-M "P -1"
_symmetry_group_IT_number 2
_symmetry_cell_setting 'triclinic'
loop_
_space_group_symop_operation_xyz
x,y,z
-x,-y,-z
loop_
_atom_site_type_symbol
_atom_site_label
_atom_site_fract_x
_atom_site_fract_y
_atom_site_fract_z
Si Si1 0.291562 0.620341 0.300163
Si Si2 0.129416 0.490450 0.066653
Si Si3 0.500000 0.500000 0.500000
Si Si4 0.983472 0.536323 0.308949
Si Si5 0.416080 0.424077 0.883760
Si Si6 0.771791 0.149796 0.359124
O O1 0.370336 0.599380 0.403786
O O2 0.436264 0.435816 0.221477
O O3 0.140163 0.471238 0.363059
O O4 0.213664 0.056467 0.183207
O O5 0.036629 0.685330 0.149675
O O6 0.281804 0.609244 0.962538
O O7 0.000000 0.500000 0.000000
O O8 0.631314 0.187762 0.467185
O O9 0.930424 0.193985 0.366708
O O10 0.827175 0.820491 0.337893
O O11 0.307982 0.482564 0.785585
O O12 0.500000 0.000000 0.000000
#
# Coordination Sequence:
#
# PCOD9043462 Si02
#       6
#     2   2   1   2   2   2
#     4  10  23  45  71 105 141 188 238 288 352 417
#     4  11  21  43  73 105 145 185 232 291 351 422
#     4  10  26  54  70 104 140 192 232 300 352 422
#     4  12  24  46  72 108 137 184 240 288 355 417
#     4   9  20  43  65 104 141 189 225 290 343 424
#     4  11  25  48  72 101 141 184 240 291 352 419
#
# _framework density 28.533798999999998
#
# number of rings (size 3 to 8) (size 9 to 14) (size 15 to 20)
#    0.000    1.455    3.636    0.000    0.000    5.818 
#   22.909    0.000    0.000    0.000    0.000    0.000 
#    0.000    0.000    0.000    0.000    0.000    0.000 
#
# Total GULP energy -61459.989796 kJ/mol
# GULP energy per Si atom -5587.271800 kJ/mol
# Density = 2.846886 g / cm^3
# Si number density = 28.533799 Si / 1000 Ang^3
#
#
#
# Elastic Constant Matrix: (Units=GPa)
#
#
# Indices 1 2 3 4 5 6 
#
# 1 119.3345 42.1027 62.7284 -8.1321 6.6480 -10.6706
# 2 42.1027 139.7166 69.2146 46.7951 -14.0655 -29.5352
# 3 62.7284 69.2146 159.4874 27.0309 19.8771 -17.1907
# 4 -8.1321 46.7951 27.0309 66.6355 -24.8486 -10.1735
# 5 6.6480 -14.0655 19.8771 -24.8486 85.3650 5.4939
# 6 -10.6706 -29.5352 -17.1907 -10.1735 5.4939 56.6973
#
#
#
# Elastic Compliance Matrix: (Units=1/GPa)
#
#
# Indices 1 2 3 4 5 6 
#
# 1 0.012364 -0.003369 -0.004620 0.006288 0.001378 0.000166
# 2 -0.003369 0.012897 -0.002632 -0.007610 0.000536 0.003869
# 3 -0.004620 -0.002632 0.010492 -0.004309 -0.003806 0.000536
# 4 0.006288 -0.007610 -0.004309 0.025314 0.006640 -0.000189
# 5 0.001378 0.000536 -0.003806 0.006640 0.014568 -0.000835
# 6 0.000166 0.003869 0.000536 -0.000189 -0.000835 0.019894
#
#
# Mechanical properties :
#
#
# Convention : Reuss Voigt Hill
#
# Bulk Modulus (GPa) = 68.91834 85.18112 77.04973
# Shear Modulus (GPa) = 41.11564 58.03908 49.57736
#
# Velocity S-wave (km/s) = 3.80010 4.51493 4.17285
# Velocity P-wave (km/s) = 6.59242 7.55626 7.09073
#
# Compressibility (1/GPa) = 0.01450993
#
# Stress axis : x y z
#
# Youngs Moduli (GPa) = 80.88186 77.53645 95.31205
#
# Poissons Ratio (x) = 0.26124 0.44036
# Poissons Ratio (y) = 0.27251 0.25086
# Poissons Ratio (z) = 0.37369 0.20407
#
# Static dielectric constant tensor:
#      x y z
#    x 1.073160 -1.455720 -0.213340 
#    y -1.455720 0.238780 -0.263930 
#    z -0.213340 -0.263930 2.296220 
# 
# From -- ./inp_files/288049.got.cif
#   From: 2010.05.17/outbox.cif.g08.bks.cpg/sg2_145_cif.got.tgz:288049.got - 2010.06.03 11:33:40.
