data_PCOD9043594
_publ_section_title
;
Structure prediction by ZEFSAII (Michael W. Deem and Ramdas Pophale) SiO2 
 PCOD9043594
Probable space group: P -1
;
_chemical_formula_sum "Si O2"
_cell_formula_units_Z 16
_cell_length_a 24.637714
_cell_length_b 10.531467
_cell_length_c 23.907321
_cell_angle_alpha 31.539424
_cell_angle_beta 11.799849
_cell_angle_gamma 31.747132
_cell_volume 655.980278
_symmetry_space_group_name_H-M "P -1"
_symmetry_group_IT_number 2
_symmetry_cell_setting 'triclinic'
loop_
_space_group_symop_operation_xyz
x,y,z
-x,-y,-z
loop_
_atom_site_type_symbol
_atom_site_label
_atom_site_fract_x
_atom_site_fract_y
_atom_site_fract_z
Si Si1 0.227692 0.123018 0.254959
Si Si2 0.945687 0.139237 0.369843
Si Si3 0.776422 0.378365 0.738969
Si Si4 0.216665 0.681295 0.024944
Si Si5 0.302833 0.257405 0.414187
Si Si6 0.797404 0.227718 0.344121
Si Si7 0.626612 0.509405 0.178276
Si Si8 0.220579 0.522862 0.845365
O O1 0.196833 0.046398 0.378176
O O2 0.234198 0.405387 0.133118
O O3 0.000000 0.000000 0.500000
O O4 0.500000 0.000000 0.000000
O O5 0.147389 0.915057 0.220168
O O6 0.672814 0.346412 0.560846
O O7 0.164171 0.296850 0.115514
O O8 0.746412 0.481913 0.666098
O O9 0.000000 0.500000 0.500000
O O10 0.500000 0.500000 0.000000
O O11 0.400107 0.806946 0.835887
O O12 0.341202 0.661639 0.844715
O O13 0.901182 0.763861 0.320710
O O14 0.235496 0.054412 0.514402
O O15 0.508084 0.378998 0.591869
O O16 0.873403 0.293387 0.179297
O O17 0.011490 0.326991 0.131209
O O18 0.739281 0.374317 0.172501
#
# Coordination Sequence:
#
# PCOD9043594 Si02
#       8
#     2   2   2   2   2   2   2   2
#     4  12  21  38  59  85 124 172 219 255 296 368
#     4  12  24  39  61  93 128 176 217 260 324 372
#     4  12  28  42  58  91 133 175 220 265 313 383
#     4  12  24  41  61  95 137 174 215 264 316 396
#     4  12  26  43  65  92 134 178 215 259 331 396
#     4  10  23  46  72  95 123 170 215 271 336 390
#     4  12  25  40  67 100 131 167 221 275 324 375
#     4  10  23  45  72  98 124 157 222 283 325 386
#
# _framework density 24.390975999999998
#
# number of rings (size 3 to 8) (size 9 to 14) (size 15 to 20)
#    0.000    0.500    3.750    4.500    7.000    0.000 
#    0.000    1.250    0.000    0.000    0.000    0.000 
#    0.000    0.000    0.000    0.000    0.000    0.000 
#
# Total GULP energy -89335.308427 kJ/mol
# GULP energy per Si atom -5583.456777 kJ/mol
# Density = 2.433546 g / cm^3
# Si number density = 24.390976 Si / 1000 Ang^3
#
#
#
# Elastic Constant Matrix: (Units=GPa)
#
#
# Indices 1 2 3 4 5 6 
#
# 1 83.2132 -6.8085 15.2799 13.7138 -1.7039 0.8972
# 2 -6.8085 33.3261 1.5099 1.5879 1.4514 -1.5682
# 3 15.2799 1.5099 155.5399 21.3284 -8.7515 6.5464
# 4 13.7138 1.5879 21.3284 27.6361 8.8262 -3.1777
# 5 -1.7039 1.4514 -8.7515 8.8262 43.7026 0.1497
# 6 0.8972 -1.5682 6.5464 -3.1777 0.1497 20.7263
#
#
#
# Elastic Compliance Matrix: (Units=1/GPa)
#
#
# Indices 1 2 3 4 5 6 
#
# 1 0.013597 0.002992 -0.000152 -0.007593 0.001939 -0.001492
# 2 0.002992 0.030868 -0.000338 -0.002633 -0.000451 0.001912
# 3 -0.000152 -0.000338 0.007771 -0.007291 0.003046 -0.003613
# 4 -0.007593 -0.002633 -0.007291 0.050730 -0.011949 0.010296
# 5 0.001939 -0.000451 0.003046 -0.011949 0.026006 -0.003100
# 6 -0.001492 0.001912 -0.003613 0.010296 -0.003100 0.051199
#
#
# Mechanical properties :
#
#
# Convention : Reuss Voigt Hill
#
# Bulk Modulus (GPa) = 17.47045 32.44908 24.95976
# Shear Modulus (GPa) = 25.74025 35.88622 30.81323
#
# Velocity S-wave (km/s) = 3.25209 3.83990 3.55816
# Velocity P-wave (km/s) = 4.61299 5.74390 5.20923
#
# Compressibility (1/GPa) = 0.05723952
#
# Stress axis : x y z
#
# Youngs Moduli (GPa) = 73.54509 32.39582 128.69016
#
# Poissons Ratio (x) = -0.09692 0.01952
# Poissons Ratio (y) = -0.22004 0.04354
# Poissons Ratio (z) = 0.01116 0.01096
#
# Static dielectric constant tensor:
#      x y z
#    x 2.042080 -0.056090 0.029130 
#    y -0.056090 1.965470 0.034630 
#    z 0.029130 0.034630 1.887310 
# 
# From -- ./inp_files/621233.got.cif
#   From: 2010.05.17/outbox.cif.g08.bks.cpg/sg2_311_cif.got.tgz:621233.got - 2010.06.03 11:33:40.
