data_PCOD9043996
_publ_section_title
;
Structure prediction by ZEFSAII (Michael W. Deem and Ramdas Pophale) SiO2 
 PCOD9043996
Probable space group: P -1
;
_chemical_formula_sum "Si O2"
_cell_formula_units_Z 15
_cell_length_a 8.269804
_cell_length_b 11.970582
_cell_length_c 11.269610
_cell_angle_alpha 97.902488
_cell_angle_beta 139.752021
_cell_angle_gamma 83.807532
_cell_volume 713.951304
_symmetry_space_group_name_H-M "P -1"
_symmetry_group_IT_number 2
_symmetry_cell_setting 'triclinic'
loop_
_space_group_symop_operation_xyz
x,y,z
-x,-y,-z
loop_
_atom_site_type_symbol
_atom_site_label
_atom_site_fract_x
_atom_site_fract_y
_atom_site_fract_z
Si Si1 0.037243 0.222819 0.419798
Si Si2 0.524994 0.135280 0.545903
Si Si3 0.454980 0.985479 0.111691
Si Si4 0.000000 0.000000 0.500000
Si Si5 0.420751 0.633055 0.842454
Si Si6 0.810938 0.213037 0.942797
Si Si7 0.618953 0.781239 0.766957
Si Si8 0.637218 0.630900 0.209094
O O1 0.267533 0.185440 0.461395
O O2 0.920711 0.110412 0.393586
O O3 0.141334 0.303326 0.593680
O O4 0.823288 0.295233 0.247028
O O5 0.740346 0.166308 0.764520
O O6 0.552683 0.188618 0.438664
O O7 0.500000 0.000000 0.500000
O O8 0.363097 0.102574 0.132624
O O9 0.714417 0.949121 0.315241
O O10 0.256690 0.889159 0.020819
O O11 0.500000 0.000000 0.000000
O O12 0.510633 0.685541 0.776993
O O13 0.357181 0.501627 0.780518
O O14 0.624912 0.647357 0.062884
O O15 0.618796 0.314533 0.875591
O O16 0.098205 0.246775 0.116203
#
# Coordination Sequence:
#
# PCOD9043996 Si02
#       8
#     2   2   2   1   2   2   2   2
#     4  11  23  41  66  96 127 168 211 268 318 381
#     4  11  23  41  60  91 133 171 200 251 326 389
#     4  12  25  39  64  95 129 168 215 262 321 383
#     4  12  22  38  66  96 128 160 212 258 318 380
#     4  11  24  43  67  95 123 168 223 270 312 371
#     4  11  24  43  61  92 131 169 207 263 322 382
#     4  12  25  39  61  96 127 166 212 260 321 388
#     4  10  23  46  68  89 125 170 220 270 318 363
#
# _framework density 21.009834999999999
#
# number of rings (size 3 to 8) (size 9 to 14) (size 15 to 20)
#    0.000    0.800    5.333    2.400    1.867    2.667 
#    0.000    2.667    0.000    0.000    0.000    0.000 
#    0.000    0.000    0.000    0.000    0.000    0.000 
#
# Total GULP energy -83698.338571 kJ/mol
# GULP energy per Si atom -5579.889238 kJ/mol
# Density = 2.096202 g / cm^3
# Si number density = 21.009835 Si / 1000 Ang^3
#
#
#
# Elastic Constant Matrix: (Units=GPa)
#
#
# Indices 1 2 3 4 5 6 
#
# 1 74.5187 19.7522 21.6322 -8.2028 -18.4603 16.4205
# 2 19.7522 108.9858 20.5595 -16.8745 -25.4675 10.5103
# 3 21.6322 20.5595 82.4558 -6.3898 -16.8862 16.7059
# 4 -8.2028 -16.8745 -6.3898 30.5243 -1.5521 -5.4378
# 5 -18.4603 -25.4675 -16.8862 -1.5521 42.4617 -8.3431
# 6 16.4205 10.5103 16.7059 -5.4378 -8.3431 25.0961
#
#
#
# Elastic Compliance Matrix: (Units=1/GPa)
#
#
# Indices 1 2 3 4 5 6 
#
# 1 0.017314 -0.000407 -0.001570 0.002991 0.005252 -0.007719
# 2 -0.000407 0.012101 -0.000889 0.006658 0.006876 -0.000481
# 3 -0.001570 -0.000889 0.015002 0.001111 0.003371 -0.007225
# 4 0.002991 0.006658 0.001111 0.038914 0.008278 0.005698
# 5 0.005252 0.006876 0.003371 0.008278 0.032387 0.004000
# 6 -0.007719 -0.000481 -0.007225 0.005698 0.004000 0.052474
#
#
# Mechanical properties :
#
#
# Convention : Reuss Voigt Hill
#
# Bulk Modulus (GPa) = 25.84930 43.31647 34.58289
# Shear Modulus (GPa) = 26.76400 33.21753 29.99076
#
# Velocity S-wave (km/s) = 3.57302 3.98055 3.78228
# Velocity P-wave (km/s) = 5.41776 6.46439 5.96408
#
# Compressibility (1/GPa) = 0.03868576
#
# Stress axis : x y z
#
# Youngs Moduli (GPa) = 57.75598 82.63708 66.65986
#
# Poissons Ratio (x) = 0.03365 0.10463
# Poissons Ratio (y) = 0.02352 0.05925
# Poissons Ratio (z) = 0.09065 0.07345
#
# Static dielectric constant tensor:
#      x y z
#    x 1.783310 -0.025220 -0.024450 
#    y -0.025220 1.714110 -0.006300 
#    z -0.024450 -0.006300 1.786950 
# 
# From -- ./inp_files/352866.got.cif
#   From: 2010.05.17/outbox.cif.g08.bks.cpg/sg2_177_cif.got.tgz:352866.got - 2010.06.03 11:33:40.
