data_PCOD9043645
_publ_section_title
;
Structure prediction by ZEFSAII (Michael W. Deem and Ramdas Pophale) SiO2 
 PCOD9043645
Probable space group: P -1
;
_chemical_formula_sum "Si O2"
_cell_formula_units_Z 15
_cell_length_a 9.573127
_cell_length_b 6.529473
_cell_length_c 11.506474
_cell_angle_alpha 77.410598
_cell_angle_beta 113.310790
_cell_angle_gamma 117.696124
_cell_volume 584.337472
_symmetry_space_group_name_H-M "P -1"
_symmetry_group_IT_number 2
_symmetry_cell_setting 'triclinic'
loop_
_space_group_symop_operation_xyz
x,y,z
-x,-y,-z
loop_
_atom_site_type_symbol
_atom_site_label
_atom_site_fract_x
_atom_site_fract_y
_atom_site_fract_z
Si Si1 0.993762 0.464126 0.692870
Si Si2 0.681699 0.188348 0.111659
Si Si3 0.461030 0.216481 0.700232
Si Si4 0.993353 0.913587 0.138878
Si Si5 0.500000 0.000000 0.500000
Si Si6 0.878332 0.737368 0.458355
Si Si7 0.308357 0.264939 0.265380
Si Si8 0.653630 0.825693 0.982365
O O1 0.155198 0.661517 0.780220
O O2 0.923159 0.263264 0.789513
O O3 0.049274 0.343454 0.619580
O O4 0.874581 0.563073 0.581398
O O5 0.543917 0.290758 0.038151
O O6 0.587258 0.957842 0.186266
O O7 0.717024 0.094369 0.013182
O O8 0.476892 0.074265 0.613777
O O9 0.303879 0.280731 0.623562
O O10 0.619631 0.460625 0.733606
O O11 0.792996 0.774730 0.106040
O O12 0.105561 0.131822 0.227313
O O13 0.000000 0.000000 0.000000
O O14 0.399112 0.156073 0.394913
O O15 0.000000 0.000000 0.500000
O O16 0.337606 0.213443 0.146709
#
# Coordination Sequence:
#
# PCOD9043645 Si02
#       8
#     2   2   2   2   1   2   2   2
#     4  11  25  45  74 114 150 191 243 308 374 440
#     4  11  23  44  75 111 142 186 243 311 369 437
#     4  12  26  47  74 108 147 193 245 302 378 431
#     4  10  25  47  69 104 146 196 243 293 356 442
#     4  12  28  48  68 106 146 198 250 300 356 456
#     4  11  25  44  76 114 147 192 243 313 377 438
#     4  11  26  48  71 101 146 197 243 299 362 441
#     4  10  23  45  73 106 143 186 244 296 364 436
#
# _framework density 25.670097999999999
#
# number of rings (size 3 to 8) (size 9 to 14) (size 15 to 20)
#    0.000    1.067    2.667    2.000    3.733    5.333 
#    2.400    2.000    0.000    0.000    0.000    0.000 
#    0.000    0.000    0.000    0.000    0.000    0.000 
#
# Total GULP energy -83711.296784 kJ/mol
# GULP energy per Si atom -5580.753119 kJ/mol
# Density = 2.561167 g / cm^3
# Si number density = 25.670098 Si / 1000 Ang^3
#
#
#
# Elastic Constant Matrix: (Units=GPa)
#
#
# Indices 1 2 3 4 5 6 
#
# 1 67.1441 29.6952 26.9581 4.9934 -1.5279 -13.7262
# 2 29.6952 88.6978 35.7298 -17.1666 7.0054 11.2362
# 3 26.9581 35.7298 109.4232 -17.9838 -10.6434 -3.2086
# 4 4.9934 -17.1666 -17.9838 53.0790 -11.5030 7.5730
# 5 -1.5279 7.0054 -10.6434 -11.5030 49.8380 10.0642
# 6 -13.7262 11.2362 -3.2086 7.5730 10.0642 39.1516
#
#
#
# Elastic Compliance Matrix: (Units=1/GPa)
#
#
# Indices 1 2 3 4 5 6 
#
# 1 0.024465 -0.009759 -0.004419 -0.009782 -0.003888 0.013907
# 2 -0.009759 0.018348 -0.002612 0.007552 0.000421 -0.010470
# 3 -0.004419 -0.002612 0.012262 0.004940 0.004369 -0.001873
# 4 -0.009782 0.007552 0.004940 0.027564 0.008628 -0.012742
# 5 -0.003888 0.000421 0.004369 0.008628 0.024655 -0.009133
# 6 0.013907 -0.010470 -0.001873 -0.012742 -0.009133 0.038081
#
#
# Mechanical properties :
#
#
# Convention : Reuss Voigt Hill
#
# Bulk Modulus (GPa) = 46.51799 50.00349 48.26074
# Shear Modulus (GPa) = 26.86428 39.93917 33.40173
#
# Velocity S-wave (km/s) = 3.23851 3.94872 3.61112
# Velocity P-wave (km/s) = 5.66963 6.34913 6.01898
#
# Compressibility (1/GPa) = 0.02149706
#
# Stress axis : x y z
#
# Youngs Moduli (GPa) = 40.87406 54.50129 81.55143
#
# Poissons Ratio (x) = 0.53185 0.36038
# Poissons Ratio (y) = 0.39887 0.21300
# Poissons Ratio (z) = 0.18062 0.14235
#
# Static dielectric constant tensor:
#      x y z
#    x 2.113500 0.022380 0.013350 
#    y 0.022380 2.107700 -0.032190 
#    z 0.013350 -0.032190 1.968150 
# 
# From -- ./inp_files/410369.got.cif
#   From: 2010.05.17/outbox.cif.g08.bks.cpg/sg2_206_cif.got.tgz:410369.got - 2010.06.03 11:33:40.
