data_PCOD9043962
_publ_section_title
;
Structure prediction by ZEFSAII (Michael W. Deem and Ramdas Pophale) SiO2 
 PCOD9043962
Probable space group: P -1
;
_chemical_formula_sum "Si O2"
_cell_formula_units_Z 16
_cell_length_a 16.235565
_cell_length_b 7.938793
_cell_length_c 8.883733
_cell_angle_alpha 130.016651
_cell_angle_beta 137.761937
_cell_angle_gamma 59.721500
_cell_volume 588.602410
_symmetry_space_group_name_H-M "P -1"
_symmetry_group_IT_number 2
_symmetry_cell_setting 'triclinic'
loop_
_space_group_symop_operation_xyz
x,y,z
-x,-y,-z
loop_
_atom_site_type_symbol
_atom_site_label
_atom_site_fract_x
_atom_site_fract_y
_atom_site_fract_z
Si Si1 0.858317 0.680978 0.743103
Si Si2 0.487954 0.443438 0.124471
Si Si3 0.706293 0.654773 0.801949
Si Si4 0.697083 0.081226 0.172393
Si Si5 0.353470 0.746280 0.317802
Si Si6 0.272142 0.147682 0.621723
Si Si7 0.864271 0.153950 0.147185
Si Si8 0.023810 0.261021 0.654418
O O1 0.823546 0.736656 0.556545
O O2 0.940267 0.455188 0.734018
O O3 0.738352 0.653546 0.668505
O O4 0.907573 0.905835 0.009552
O O5 0.360316 0.326264 0.907034
O O6 0.500000 0.500000 0.000000
O O7 0.596510 0.262453 0.193499
O O8 0.466714 0.664146 0.319853
O O9 0.840533 0.684458 0.079614
O O10 0.634869 0.873087 0.892789
O O11 0.654946 0.436628 0.670821
O O12 0.778486 0.158227 0.185607
O O13 0.766815 0.997383 0.371502
O O14 0.352501 0.983038 0.527870
O O15 0.226246 0.755719 0.053742
O O16 0.980982 0.278146 0.432390
O O17 0.000000 0.000000 0.500000
#
# Coordination Sequence:
#
# PCOD9043962 Si02
#       8
#     2   2   2   2   2   2   2   2
#     4  10  24  45  66 101 137 178 224 282 332 400
#     4  12  25  45  73  98 139 177 228 282 339 405
#     4  11  25  43  71  98 141 179 226 285 335 402
#     4  11  23  45  68 101 136 182 224 282 337 400
#     4  11  25  47  66 105 138 176 227 282 339 404
#     4  11  26  45  70 101 137 179 227 276 345 404
#     4  10  23  46  67  98 143 176 227 280 335 407
#     4  12  23  41  75 101 134 185 231 269 349 399
#
# _framework density 27.183033999999999
#
# number of rings (size 3 to 8) (size 9 to 14) (size 15 to 20)
#    0.000    1.000    5.000    1.500    1.750    1.500 
#    0.000    1.250    0.000    0.000    0.000    0.000 
#    0.000    0.000    0.000    0.000    0.000    0.000 
#
# Total GULP energy -89596.992876 kJ/mol
# GULP energy per Si atom -5599.812055 kJ/mol
# Density = 2.712116 g / cm^3
# Si number density = 27.183034 Si / 1000 Ang^3
#
#
#
# Elastic Constant Matrix: (Units=GPa)
#
#
# Indices 1 2 3 4 5 6 
#
# 1 103.5862 46.1961 26.1119 0.8367 -36.9219 -0.0665
# 2 46.1961 155.9731 34.2129 14.1506 -26.7650 -21.0231
# 3 26.1119 34.2129 119.7645 1.8692 -22.9032 -11.8262
# 4 0.8367 14.1506 1.8692 53.9822 -1.9436 -20.6588
# 5 -36.9219 -26.7650 -22.9032 -1.9436 42.7469 4.6357
# 6 -0.0665 -21.0231 -11.8262 -20.6588 4.6357 53.4988
#
#
#
# Elastic Compliance Matrix: (Units=1/GPa)
#
#
# Indices 1 2 3 4 5 6 
#
# 1 0.014978 -0.002683 -0.000569 0.000092 0.011184 -0.002095
# 2 -0.002683 0.008202 -0.001143 -0.001089 0.001898 0.002382
# 3 -0.000569 -0.001143 0.009685 0.000741 0.003837 0.001645
# 4 0.000092 -0.001089 0.000741 0.021921 -0.000099 0.008209
# 5 0.011184 0.001898 0.003837 -0.000099 0.036466 -0.001590
# 6 -0.002095 0.002382 0.001645 0.008209 -0.001590 0.023297
#
#
# Mechanical properties :
#
#
# Convention : Reuss Voigt Hill
#
# Bulk Modulus (GPa) = 41.53560 65.81838 53.67699
# Shear Modulus (GPa) = 38.06232 48.23243 43.14737
#
# Velocity S-wave (km/s) = 3.74602 4.21688 3.98840
# Velocity P-wave (km/s) = 5.83295 6.92640 6.40306
#
# Compressibility (1/GPa) = 0.02407573
#
# Stress axis : x y z
#
# Youngs Moduli (GPa) = 66.76518 121.91678 103.25326
#
# Poissons Ratio (x) = 0.32710 0.05872
# Poissons Ratio (y) = 0.17913 0.11801
# Poissons Ratio (z) = 0.03797 0.13935
#
# Static dielectric constant tensor:
#      x y z
#    x 2.157770 -0.018650 0.044930 
#    y -0.018650 2.131350 -0.042550 
#    z 0.044930 -0.042550 2.194530 
# 
# From -- ./inp_files/328148.got.cif
#   From: 2010.05.17/outbox.cif.g08.bks.cpg/sg2_165_cif.got.tgz:328148.got - 2010.06.03 11:33:40.
