data_PCOD9043682
_publ_section_title
;
Structure prediction by ZEFSAII (Michael W. Deem and Ramdas Pophale) SiO2 
 PCOD9043682
Probable space group: P -1
;
_chemical_formula_sum "Si O2"
_cell_formula_units_Z 13
_cell_length_a 11.287238
_cell_length_b 15.818830
_cell_length_c 7.999232
_cell_angle_alpha 39.894443
_cell_angle_beta 43.257325
_cell_angle_gamma 48.703354
_cell_volume 610.885419
_symmetry_space_group_name_H-M "P -1"
_symmetry_group_IT_number 2
_symmetry_cell_setting 'triclinic'
loop_
_space_group_symop_operation_xyz
x,y,z
-x,-y,-z
loop_
_atom_site_type_symbol
_atom_site_label
_atom_site_fract_x
_atom_site_fract_y
_atom_site_fract_z
Si Si1 0.589331 0.118570 0.165955
Si Si2 0.701160 0.579805 0.343676
Si Si3 0.421064 0.413976 0.927079
Si Si4 0.000000 0.000000 0.000000
Si Si5 0.045695 0.577109 0.174530
Si Si6 0.075963 0.878928 0.734590
Si Si7 0.546928 0.141878 0.773806
O O1 0.500000 0.000000 0.500000
O O2 0.793170 0.081958 0.061874
O O3 0.476027 0.256809 0.154466
O O4 0.585437 0.139507 0.937257
O O5 0.596012 0.471892 0.685120
O O6 0.646520 0.583154 0.200442
O O7 0.612444 0.726926 0.287362
O O8 0.909707 0.548509 0.215292
O O9 0.252773 0.511251 0.035423
O O10 0.990656 0.063398 0.104553
O O11 0.000000 0.500000 0.500000
O O12 0.018439 0.738380 0.974838
O O13 0.286834 0.846992 0.528258
O O14 0.000000 0.000000 0.500000
O O15 0.500000 0.000000 0.000000
#
# Coordination Sequence:
#
# PCOD9043682 Si02
#       7
#     2   2   2   1   2   2   2
#     4  11  26  44  73 110 147 189 247 315 374 445
#     4  10  23  45  74 100 140 194 243 302 366 445
#     4  10  24  47  71 104 142 192 248 299 374 445
#     4  12  28  46  74 112 148 190 254 312 374 438
#     4  12  28  45  72 110 151 193 250 311 376 445
#     4  12  26  49  75 110 152 199 252 308 376 453
#     4  11  22  46  73 104 147 197 248 305 377 447
#
# _framework density 21.280584999999999
#
# number of rings (size 3 to 8) (size 9 to 14) (size 15 to 20)
#    0.000    0.923    3.077    2.308    4.308    3.077 
#    0.000    0.000    0.000    0.000    0.000    0.000 
#    0.000    0.000    0.000    0.000    0.000    0.000 
#
# Total GULP energy -72372.729071 kJ/mol
# GULP energy per Si atom -5567.133005 kJ/mol
# Density = 2.123215 g / cm^3
# Si number density = 21.280585 Si / 1000 Ang^3
#
#
#
# Elastic Constant Matrix: (Units=GPa)
#
#
# Indices 1 2 3 4 5 6 
#
# 1 87.3748 29.8670 23.6867 -12.6886 -14.5900 -7.7748
# 2 29.8670 125.2077 49.2655 -14.1172 8.8509 -0.3687
# 3 23.6867 49.2655 105.2056 -30.2444 -5.4948 4.1571
# 4 -12.6886 -14.1172 -30.2444 42.5822 -3.0410 0.0214
# 5 -14.5900 8.8509 -5.4948 -3.0410 14.2078 -2.2784
# 6 -7.7748 -0.3687 4.1571 0.0214 -2.2784 36.6327
#
#
#
# Elastic Compliance Matrix: (Units=1/GPa)
#
#
# Indices 1 2 3 4 5 6 
#
# 1 0.018998 -0.006331 0.001786 0.006717 0.026448 0.005407
# 2 -0.006331 0.012945 -0.006533 -0.003527 -0.018102 -0.001596
# 3 0.001786 -0.006533 0.016032 0.010776 0.014310 -0.000622
# 4 0.006717 -0.003527 0.010776 0.033444 0.020650 0.001432
# 5 0.026448 -0.018102 0.014310 0.020650 0.120586 0.011295
# 6 0.005407 -0.001596 -0.000622 0.001432 0.011295 0.029202
#
#
# Mechanical properties :
#
#
# Convention : Reuss Voigt Hill
#
# Bulk Modulus (GPa) = 38.73090 58.15850 48.44470
# Shear Modulus (GPa) = 19.08642 33.01579 26.05111
#
# Velocity S-wave (km/s) = 2.99807 3.94312 3.50261
# Velocity P-wave (km/s) = 5.49765 6.93683 6.25875
#
# Compressibility (1/GPa) = 0.02581918
#
# Stress axis : x y z
#
# Youngs Moduli (GPa) = 52.63826 77.25256 62.37549
#
# Poissons Ratio (x) = 0.48907 -0.11140
# Poissons Ratio (y) = 0.33324 0.40747
# Poissons Ratio (z) = -0.09401 0.50466
#
# Static dielectric constant tensor:
#      x y z
#    x 1.763810 0.000820 -0.004280 
#    y 0.000820 1.757270 0.002690 
#    z -0.004280 0.002690 1.742220 
# 
# From -- ./inp_files/266348.got.cif
#   From: 2010.05.17/outbox.cif.g08.bks.cpg/sg2_134_cif.got.tgz:266348.got - 2010.06.03 11:33:40.
