data_PCOD9043498
_publ_section_title
;
Structure prediction by ZEFSAII (Michael W. Deem and Ramdas Pophale) SiO2 
 PCOD9043498
Probable space group: P -1
;
_chemical_formula_sum "Si O2"
_cell_formula_units_Z 14
_cell_length_a 22.268629
_cell_length_b 21.478216
_cell_length_c 12.963273
_cell_angle_alpha 160.965034
_cell_angle_beta 28.905982
_cell_angle_gamma 160.617715
_cell_volume 663.414097
_symmetry_space_group_name_H-M "P -1"
_symmetry_group_IT_number 2
_symmetry_cell_setting 'triclinic'
loop_
_space_group_symop_operation_xyz
x,y,z
-x,-y,-z
loop_
_atom_site_type_symbol
_atom_site_label
_atom_site_fract_x
_atom_site_fract_y
_atom_site_fract_z
Si Si1 0.151318 0.008882 0.305453
Si Si2 0.412406 0.453127 0.765631
Si Si3 0.632790 0.328054 0.295040
Si Si4 0.767165 0.078874 0.176212
Si Si5 0.932446 0.488423 0.970213
Si Si6 0.081721 0.301803 0.366847
Si Si7 0.139894 0.401262 0.207229
O O1 0.329834 0.310902 0.555815
O O2 0.191312 0.944293 0.038640
O O3 0.000000 0.000000 0.500000
O O4 0.074925 0.778230 0.146344
O O5 0.510240 0.375345 0.538244
O O6 0.243323 0.335578 0.904255
O O7 0.566534 0.788532 0.054528
O O8 0.772831 0.521469 0.482057
O O9 0.752742 0.409148 0.140549
O O10 0.500000 0.000000 0.000000
O O11 0.795748 0.337895 0.542320
O O12 0.921625 0.150045 0.124740
O O13 0.923849 0.279905 0.594373
O O14 0.000000 0.500000 0.000000
O O15 0.176842 0.465039 0.372144
O O16 0.000000 0.000000 0.000000
#
# Coordination Sequence:
#
# PCOD9043498 Si02
#       7
#     2   2   2   2   2   2   2
#     4  12  23  44  72 102 135 187 237 283 351 422
#     4  12  25  43  72 101 142 180 237 293 344 423
#     4  11  26  46  67 105 141 183 241 294 345 419
#     4  11  24  46  66 105 136 184 233 284 357 418
#     4  10  23  45  71  96 140 188 230 286 354 415
#     4  11  24  44  73 100 133 191 235 284 360 426
#     4  11  25  45  69  99 149 175 228 292 360 419
#
# _framework density 21.102958999999998
#
# number of rings (size 3 to 8) (size 9 to 14) (size 15 to 20)
#    0.000    0.857    2.857    4.286    6.000    0.571 
#    2.571    0.000    0.000    0.000    0.000    0.000 
#    0.000    0.000    0.000    0.000    0.000    0.000 
#
# Total GULP energy -78291.364207 kJ/mol
# GULP energy per Si atom -5592.240301 kJ/mol
# Density = 2.105493 g / cm^3
# Si number density = 21.102959 Si / 1000 Ang^3
#
#
#
# Elastic Constant Matrix: (Units=GPa)
#
#
# Indices 1 2 3 4 5 6 
#
# 1 76.6040 16.7568 20.2280 -8.8489 -1.1537 18.4917
# 2 16.7568 59.6233 26.8208 -4.3658 -1.0683 20.1479
# 3 20.2280 26.8208 105.8786 -13.1915 1.3090 18.3544
# 4 -8.8489 -4.3658 -13.1915 54.5740 2.2921 -0.7058
# 5 -1.1537 -1.0683 1.3090 2.2921 34.1393 -0.0659
# 6 18.4917 20.1479 18.3544 -0.7058 -0.0659 35.0134
#
#
#
# Elastic Compliance Matrix: (Units=1/GPa)
#
#
# Indices 1 2 3 4 5 6 
#
# 1 0.015541 -0.001398 -0.001202 0.002015 0.000379 -0.006732
# 2 -0.001398 0.022259 -0.003546 0.000534 0.000730 -0.010199
# 3 -0.001202 -0.003546 0.011433 0.002274 -0.000749 -0.003274
# 4 0.002015 0.000534 0.002274 0.019269 -0.001300 -0.002178
# 5 0.000379 0.000730 -0.000749 -0.001300 0.029443 -0.000198
# 6 -0.006732 -0.010199 -0.003274 -0.002178 -0.000198 0.039657
#
#
# Mechanical properties :
#
#
# Convention : Reuss Voigt Hill
#
# Bulk Modulus (GPa) = 27.06999 41.07966 34.07483
# Shear Modulus (GPa) = 30.82512 36.63202 33.72857
#
# Velocity S-wave (km/s) = 3.82606 4.17090 4.00219
# Velocity P-wave (km/s) = 5.68979 6.53481 6.12689
#
# Compressibility (1/GPa) = 0.03694127
#
# Stress axis : x y z
#
# Youngs Moduli (GPa) = 64.34716 44.92645 87.46878
#
# Poissons Ratio (x) = 0.06280 0.10510
# Poissons Ratio (y) = 0.08995 0.31015
# Poissons Ratio (z) = 0.07732 0.15930
#
# Static dielectric constant tensor:
#      x y z
#    x 1.758500 0.003080 -0.024740 
#    y 0.003080 1.756360 0.003180 
#    z -0.024740 0.003180 1.754170 
# 
# From -- ./inp_files/258359.got.cif
#   From: 2010.05.17/outbox.cif.g08.bks.cpg/sg2_130_cif.got.tgz:258359.got - 2010.06.03 11:33:40.
