data_PCOD9043109
_publ_section_title
;
Structure prediction by ZEFSAII (Michael W. Deem and Ramdas Pophale) SiO2 
 PCOD9043109
Probable space group: P -1
;
_chemical_formula_sum "Si O2"
_cell_formula_units_Z 14
_cell_length_a 13.593416
_cell_length_b 6.619687
_cell_length_c 15.717847
_cell_angle_alpha 64.231202
_cell_angle_beta 29.419314
_cell_angle_gamma 75.870051
_cell_volume 595.993656
_symmetry_space_group_name_H-M "P -1"
_symmetry_group_IT_number 2
_symmetry_cell_setting 'triclinic'
loop_
_space_group_symop_operation_xyz
x,y,z
-x,-y,-z
loop_
_atom_site_type_symbol
_atom_site_label
_atom_site_fract_x
_atom_site_fract_y
_atom_site_fract_z
Si Si1 0.674180 0.783413 0.279208
Si Si2 0.123917 0.570361 0.205715
Si Si3 0.695971 0.539041 0.615570
Si Si4 0.461184 0.669128 0.630128
Si Si5 0.447070 0.021180 0.936799
Si Si6 0.108440 0.697625 0.008560
Si Si7 0.210989 0.207961 0.324405
O O1 0.550057 0.816565 0.451330
O O2 0.534612 0.587064 0.359001
O O3 0.770717 0.028077 0.115520
O O4 0.868508 0.689084 0.176739
O O5 0.241492 0.403902 0.192017
O O6 0.884481 0.484393 0.433349
O O7 0.131666 0.558780 0.100417
O O8 0.221573 0.840094 0.115916
O O9 0.611771 0.717211 0.589535
O O10 0.509941 0.297008 0.817553
O O11 0.790621 0.658272 0.610859
O O12 0.230044 0.645652 0.844006
O O13 0.603860 0.908343 0.789772
O O14 0.500000 0.000000 0.000000
O O15 0.000000 0.000000 0.500000
#
# Coordination Sequence:
#
# PCOD9043109 Si02
#       7
#     2   2   2   2   2   2   2
#     4  10  23  45  68  98 133 171 225 282 347 401
#     4  12  24  45  67 101 138 179 230 283 335 411
#     4  12  25  46  67 102 138 181 230 279 342 406
#     4  11  23  43  71  97 134 177 219 285 342 406
#     4  12  25  42  68  94 136 185 227 281 334 398
#     4  11  23  43  68 100 132 174 227 277 344 409
#     4  12  25  45  67  97 139 185 224 277 341 400
#
# _framework density 23.490182999999998
#
# number of rings (size 3 to 8) (size 9 to 14) (size 15 to 20)
#    0.000    0.571    4.286    4.286    2.000    0.000 
#    2.571    1.429    0.000    0.000    0.000    0.000 
#    0.000    0.000    0.000    0.000    0.000    0.000 
#
# Total GULP energy -78332.769789 kJ/mol
# GULP energy per Si atom -5595.197842 kJ/mol
# Density = 2.343672 g / cm^3
# Si number density = 23.490183 Si / 1000 Ang^3
#
#
#
# Elastic Constant Matrix: (Units=GPa)
#
#
# Indices 1 2 3 4 5 6 
#
# 1 65.3498 7.5453 27.6645 -3.8932 24.3341 -5.6256
# 2 7.5453 54.1712 24.6965 1.8113 0.8137 11.4165
# 3 27.6645 24.6965 103.3405 9.7068 15.9205 6.4936
# 4 -3.8932 1.8113 9.7068 50.9311 3.6810 -9.9670
# 5 24.3341 0.8137 15.9205 3.6810 40.1690 1.8336
# 6 -5.6256 11.4165 6.4936 -9.9670 1.8336 24.1586
#
#
#
# Elastic Compliance Matrix: (Units=1/GPa)
#
#
# Indices 1 2 3 4 5 6 
#
# 1 0.024466 -0.003829 -0.004869 0.006393 -0.013971 0.012513
# 2 -0.003829 0.023587 -0.004207 -0.003094 0.004364 -0.012515
# 3 -0.004869 -0.004207 0.012774 -0.003292 -0.001552 -0.003820
# 4 0.006393 -0.003094 -0.003292 0.024017 -0.005352 0.014150
# 5 -0.013971 0.004364 -0.001552 -0.005352 0.034820 -0.009749
# 6 0.012513 -0.012515 -0.003820 0.014150 -0.009749 0.057826
#
#
# Mechanical properties :
#
#
# Convention : Reuss Voigt Hill
#
# Bulk Modulus (GPa) = 28.55795 38.07490 33.31642
# Shear Modulus (GPa) = 23.25892 33.91543 28.58717
#
# Velocity S-wave (km/s) = 3.15009 3.80388 3.49231
# Velocity P-wave (km/s) = 5.04128 5.96126 5.52047
#
# Compressibility (1/GPa) = 0.03501652
#
# Stress axis : x y z
#
# Youngs Moduli (GPa) = 40.87331 42.39674 78.28433
#
# Poissons Ratio (x) = 0.16234 0.38116
# Poissons Ratio (y) = 0.15651 0.32935
# Poissons Ratio (z) = 0.19901 0.17836
#
# Static dielectric constant tensor:
#      x y z
#    x 1.867910 0.012610 -0.014660 
#    y 0.012610 1.915140 -0.018210 
#    z -0.014660 -0.018210 1.904650 
# 
# From -- ./inp_files/49448.got.cif
#   From: 2010.05.17/outbox.cif.g08.bks.cpg/sg2_25_cif.got.tgz:49448.got - 2010.06.03 11:33:40.
