data_PCOD9043787
_publ_section_title
;
Structure prediction by ZEFSAII (Michael W. Deem and Ramdas Pophale) SiO2 
 PCOD9043787
Probable space group: P -1
;
_chemical_formula_sum "Si O2"
_cell_formula_units_Z 11
_cell_length_a 5.728849
_cell_length_b 8.945610
_cell_length_c 13.466790
_cell_angle_alpha 46.223508
_cell_angle_beta 91.805213
_cell_angle_gamma 114.454370
_cell_volume 418.111526
_symmetry_space_group_name_H-M "P -1"
_symmetry_group_IT_number 2
_symmetry_cell_setting 'triclinic'
loop_
_space_group_symop_operation_xyz
x,y,z
-x,-y,-z
loop_
_atom_site_type_symbol
_atom_site_label
_atom_site_fract_x
_atom_site_fract_y
_atom_site_fract_z
Si Si1 0.042490 0.773186 0.097932
Si Si2 0.719958 0.358449 0.999768
Si Si3 0.312809 0.209780 0.611774
Si Si4 0.540454 0.687371 0.777558
Si Si5 0.164532 0.765968 0.325971
Si Si6 0.000000 0.000000 0.500000
O O1 0.756662 0.517362 0.179856
O O2 0.261991 0.821422 0.993083
O O3 0.141488 0.732584 0.222739
O O4 0.000000 0.000000 0.000000
O O5 0.712804 0.555448 0.838036
O O6 0.497284 0.283725 0.118721
O O7 0.000000 0.500000 0.000000
O O8 0.500000 0.500000 0.500000
O O9 0.516151 0.121560 0.686926
O O10 0.218099 0.138679 0.530545
O O11 0.029973 0.124735 0.706742
O O12 0.732159 0.929757 0.604823
O O13 0.000000 0.500000 0.500000
#
# Coordination Sequence:
#
# PCOD9043787 Si02
#       6
#     2   2   2   2   2   1
#     4  11  25  46  80 114 158 223 278 341 422 500
#     4   9  22  46  75 105 156 205 273 337 404 495
#     4  10  24  47  74 113 161 204 267 341 410 495
#     4  10  23  48  75 116 156 208 277 341 412 505
#     4  10  23  45  75 112 158 203 272 349 411 486
#     4  12  26  48  82 118 158 216 270 338 434 490
#
# _framework density 26.308769000000002
#
# number of rings (size 3 to 8) (size 9 to 14) (size 15 to 20)
#    0.000    1.818    0.000    2.182    7.636    5.818 
#   13.091    0.000    0.000    0.000    0.000    0.000 
#    0.000    0.000    0.000    0.000    0.000    0.000 
#
# Total GULP energy -61264.950676 kJ/mol
# GULP energy per Si atom -5569.540971 kJ/mol
# Density = 2.624889 g / cm^3
# Si number density = 26.308769 Si / 1000 Ang^3
#
#
#
# Elastic Constant Matrix: (Units=GPa)
#
#
# Indices 1 2 3 4 5 6 
#
# 1 170.2951 65.9314 32.1990 10.2582 0.6601 6.6879
# 2 65.9314 153.3398 58.2163 44.4948 2.2736 20.3368
# 3 32.1990 58.2163 93.2457 26.0892 -19.2418 2.4986
# 4 10.2582 44.4948 26.0892 63.6704 -0.6153 -2.2046
# 5 0.6601 2.2736 -19.2418 -0.6153 58.7556 6.2925
# 6 6.6879 20.3368 2.4986 -2.2046 6.2925 74.6726
#
#
#
# Elastic Compliance Matrix: (Units=1/GPa)
#
#
# Indices 1 2 3 4 5 6 
#
# 1 0.007191 -0.003189 -0.000975 0.001478 -0.000296 0.000326
# 2 -0.003189 0.011883 -0.004975 -0.005866 -0.001814 -0.002804
# 3 -0.000975 -0.004975 0.016081 -0.002890 0.005401 0.000364
# 4 0.001478 -0.005866 -0.002890 0.020822 -0.000758 0.002241
# 5 -0.000296 -0.001814 0.005401 -0.000758 0.018991 -0.001283
# 6 0.000326 -0.002804 0.000364 0.002241 -0.001283 0.014288
#
#
# Mechanical properties :
#
#
# Convention : Reuss Voigt Hill
#
# Bulk Modulus (GPa) = 59.26255 81.06378 70.16316
# Shear Modulus (GPa) = 44.18511 56.78866 50.48688
#
# Velocity S-wave (km/s) = 4.10259 4.65105 4.38541
# Velocity P-wave (km/s) = 6.70943 7.72803 7.23667
#
# Compressibility (1/GPa) = 0.01687406
#
# Stress axis : x y z
#
# Youngs Moduli (GPa) = 139.07016 84.15599 62.18568
#
# Poissons Ratio (x) = 0.26839 0.06065
# Poissons Ratio (y) = 0.44352 0.30940
# Poissons Ratio (z) = 0.13564 0.41872
#
# Static dielectric constant tensor:
#      x y z
#    x 1.999090 0.008180 -0.211490 
#    y 0.008180 2.060410 0.085160 
#    z -0.211490 0.085160 1.594170 
# 
# From -- ./inp_files/360037.got.cif
#   From: 2010.05.17/outbox.cif.g08.bks.cpg/sg2_181_cif.got.tgz:360037.got - 2010.06.03 11:33:40.
