data_PCOD9043581
_publ_section_title
;
Structure prediction by ZEFSAII (Michael W. Deem and Ramdas Pophale) SiO2 
 PCOD9043581
Probable space group: P -1
;
_chemical_formula_sum "Si O2"
_cell_formula_units_Z 14
_cell_length_a 9.328371
_cell_length_b 9.530858
_cell_length_c 21.293107
_cell_angle_alpha 32.805822
_cell_angle_beta 47.337152
_cell_angle_gamma 46.770187
_cell_volume 721.946089
_symmetry_space_group_name_H-M "P -1"
_symmetry_group_IT_number 2
_symmetry_cell_setting 'triclinic'
loop_
_space_group_symop_operation_xyz
x,y,z
-x,-y,-z
loop_
_atom_site_type_symbol
_atom_site_label
_atom_site_fract_x
_atom_site_fract_y
_atom_site_fract_z
Si Si1 0.666702 0.334906 0.655702
Si Si2 0.474770 0.741495 0.140633
Si Si3 0.617890 0.098889 0.483313
Si Si4 0.099243 0.663847 0.860717
Si Si5 0.052155 0.714353 0.299251
Si Si6 0.047338 0.186399 0.285524
Si Si7 0.095877 0.251159 0.380320
O O1 0.541640 0.239495 0.785235
O O2 0.525588 0.607211 0.565340
O O3 0.849413 0.389392 0.623067
O O4 0.772512 0.092326 0.669909
O O5 0.665733 0.492261 0.160815
O O6 0.253409 0.714706 0.199263
O O7 0.500000 0.000000 0.000000
O O8 0.829424 0.129756 0.381593
O O9 0.500000 0.000000 0.500000
O O10 0.687952 0.882910 0.599465
O O11 0.978249 0.675224 0.826747
O O12 0.072737 0.974328 0.772050
O O13 0.000000 0.500000 0.000000
O O14 0.970782 0.495124 0.370285
O O15 0.092611 0.338923 0.276025
O O16 0.000000 0.000000 0.500000
#
# Coordination Sequence:
#
# PCOD9043581 Si02
#       7
#     2   2   2   2   2   2   2
#     4   9  19  33  57  84 109 152 198 235 279 340
#     4  10  17  33  61  88 112 138 196 249 281 336
#     4  11  19  36  58  81 111 157 203 235 284 339
#     4  11  19  36  65  89 107 152 195 238 294 346
#     4   9  19  35  55  86 113 148 195 234 281 346
#     4  10  21  37  56  85 121 146 192 246 288 343
#     4  10  22  39  55  83 125 158 187 242 292 332
#
# _framework density 19.392029999999998
#
# number of rings (size 3 to 8) (size 9 to 14) (size 15 to 20)
#    0.857    1.143    4.286    0.000    0.000    1.143 
#    2.571    3.571    0.000    1.714    0.000    0.000 
#    0.000    0.000    0.000    0.000    0.000    0.000 
#
# Total GULP energy -77977.099788 kJ/mol
# GULP energy per Si atom -5569.792842 kJ/mol
# Density = 1.934789 g / cm^3
# Si number density = 19.392030 Si / 1000 Ang^3
#
#
#
# Elastic Constant Matrix: (Units=GPa)
#
#
# Indices 1 2 3 4 5 6 
#
# 1 64.9232 25.2963 19.9416 -4.4642 17.8733 5.5458
# 2 25.2963 121.8782 18.1118 -23.0633 11.3673 -20.6628
# 3 19.9416 18.1118 75.1868 -5.4714 18.1934 -4.1233
# 4 -4.4642 -23.0633 -5.4714 34.0071 -4.2918 5.1568
# 5 17.8733 11.3673 18.1934 -4.2918 28.9500 4.5129
# 6 5.5458 -20.6628 -4.1233 5.1568 4.5129 37.1645
#
#
#
# Elastic Compliance Matrix: (Units=1/GPa)
#
#
# Indices 1 2 3 4 5 6 
#
# 1 0.020510 -0.003933 -0.002636 -0.000866 -0.008914 -0.004337
# 2 -0.003933 0.011470 -0.000487 0.005993 -0.001864 0.006305
# 3 -0.002636 -0.000487 0.016472 0.000394 -0.008939 0.002981
# 4 -0.000866 0.005993 0.000394 0.034073 0.003237 -0.001616
# 5 -0.008914 -0.001864 -0.008939 0.003237 0.047962 -0.006971
# 6 -0.004337 0.006305 0.002981 -0.001616 -0.006971 0.032462
#
#
# Mechanical properties :
#
#
# Convention : Reuss Voigt Hill
#
# Bulk Modulus (GPa) = 29.12095 43.18753 36.15424
# Shear Modulus (GPa) = 26.52402 33.26689 29.89545
#
# Velocity S-wave (km/s) = 3.70236 4.14634 3.93063
# Velocity P-wave (km/s) = 5.77289 6.72622 6.26770
#
# Compressibility (1/GPa) = 0.03433954
#
# Stress axis : x y z
#
# Youngs Moduli (GPa) = 48.75700 87.18021 60.70925
#
# Poissons Ratio (x) = 0.34288 0.16005
# Poissons Ratio (y) = 0.19176 0.02957
# Poissons Ratio (z) = 0.12854 0.04246
#
# Static dielectric constant tensor:
#      x y z
#    x 1.719920 0.018630 -0.001660 
#    y 0.018630 1.709540 0.011860 
#    z -0.001660 0.011860 1.732180 
# 
# From -- ./inp_files/522369.got.cif
#   From: 2010.05.17/outbox.cif.g08.bks.cpg/sg2_262_cif.got.tgz:522369.got - 2010.06.03 11:33:40.
