data_PCOD9043072
_publ_section_title
;
Structure prediction by ZEFSAII (Michael W. Deem and Ramdas Pophale) SiO2 
 PCOD9043072
Probable space group: P -1
;
_chemical_formula_sum "Si O2"
_cell_formula_units_Z 16
_cell_length_a 13.364033
_cell_length_b 12.042946
_cell_length_c 9.000179
_cell_angle_alpha 109.341830
_cell_angle_beta 62.286774
_cell_angle_gamma 147.823472
_cell_volume 676.875506
_symmetry_space_group_name_H-M "P -1"
_symmetry_group_IT_number 2
_symmetry_cell_setting 'triclinic'
loop_
_space_group_symop_operation_xyz
x,y,z
-x,-y,-z
loop_
_atom_site_type_symbol
_atom_site_label
_atom_site_fract_x
_atom_site_fract_y
_atom_site_fract_z
Si Si1 0.428801 0.364849 0.644273
Si Si2 0.416313 0.334256 0.102687
Si Si3 0.131458 0.364109 0.485694
Si Si4 0.146022 0.012402 0.907424
Si Si5 0.879204 0.429927 0.204138
Si Si6 0.103749 0.424457 0.190181
Si Si7 0.764244 0.891542 0.621137
Si Si8 0.449426 0.822801 0.906896
O O1 0.427669 0.487263 0.793320
O O2 0.646437 0.492282 0.569189
O O3 0.344382 0.286183 0.501695
O O4 0.275628 0.140315 0.727259
O O5 0.213181 0.164274 0.268193
O O6 0.500000 0.500000 0.000000
O O7 0.323605 0.158750 0.973600
O O8 0.073808 0.410502 0.671436
O O9 0.137539 0.421107 0.337994
O O10 0.957364 0.118731 0.521566
O O11 0.996942 0.774557 0.906045
O O12 0.000000 0.000000 0.000000
O O13 0.657745 0.252104 0.211464
O O14 0.936823 0.381001 0.261609
O O15 0.000000 0.500000 0.000000
O O16 0.301801 0.637055 0.053308
O O17 0.621019 0.873811 0.777226
O O18 0.500000 0.000000 0.000000
#
# Coordination Sequence:
#
# PCOD9043072 Si02
#       8
#     2   2   2   2   2   2   2   2
#     4  11  25  48  70 108 150 187 248 303 369 430
#     4  10  26  44  72 101 146 188 247 300 362 437
#     4  12  25  47  73 112 148 192 244 306 369 435
#     4  11  25  47  75 109 144 193 249 300 371 440
#     4  10  23  45  68 107 145 191 242 294 363 437
#     4  11  25  44  78 103 153 193 249 308 362 440
#     4  12  25  46  74 104 150 194 242 306 373 431
#     4  11  26  45  73 107 150 194 247 304 370 441
#
# _framework density 23.638024000000001
#
# number of rings (size 3 to 8) (size 9 to 14) (size 15 to 20)
#    0.000    1.000    2.500    3.000   12.250    0.500 
#    0.000    1.875    0.000    0.000    0.000    0.000 
#    0.000    0.000    0.000    0.000    0.000    0.000 
#
# Total GULP energy -89083.951819 kJ/mol
# GULP energy per Si atom -5567.746989 kJ/mol
# Density = 2.358422 g / cm^3
# Si number density = 23.638024 Si / 1000 Ang^3
#
#
#
# Elastic Constant Matrix: (Units=GPa)
#
#
# Indices 1 2 3 4 5 6 
#
# 1 93.1606 31.9356 39.3599 -18.7405 -11.2874 2.6174
# 2 31.9356 170.7181 52.3248 4.8968 -8.4291 -14.5632
# 3 39.3599 52.3248 127.1753 -12.8326 18.8016 4.9868
# 4 -18.7405 4.8968 -12.8326 45.0312 -6.2369 -2.0502
# 5 -11.2874 -8.4291 18.8016 -6.2369 51.3817 10.6296
# 6 2.6174 -14.5632 4.9868 -2.0502 10.6296 27.7488
#
#
#
# Elastic Compliance Matrix: (Units=1/GPa)
#
#
# Indices 1 2 3 4 5 6 
#
# 1 0.015080 -0.001735 -0.004098 0.005966 0.005963 -0.003440
# 2 -0.001735 0.007594 -0.003095 -0.002118 0.000868 0.004216
# 3 -0.004098 -0.003095 0.011326 0.001088 -0.005170 -0.001212
# 4 0.005966 -0.002118 0.001088 0.025715 0.003997 -0.001501
# 5 0.005963 0.000868 -0.005170 0.003997 0.025045 -0.008477
# 6 -0.003440 0.004216 -0.001212 -0.001501 -0.008477 0.041929
#
#
# Mechanical properties :
#
#
# Convention : Reuss Voigt Hill
#
# Bulk Modulus (GPa) = 61.94095 70.92164 66.43129
# Shear Modulus (GPa) = 33.34982 42.66126 38.00554
#
# Velocity S-wave (km/s) = 3.76021 4.25287 4.01411
# Velocity P-wave (km/s) = 6.71663 7.36099 7.04618
#
# Compressibility (1/GPa) = 0.01614441
#
# Stress axis : x y z
#
# Youngs Moduli (GPa) = 66.31505 131.68308 88.29000
#
# Poissons Ratio (x) = 0.22847 0.36180
# Poissons Ratio (y) = 0.11506 0.27324
# Poissons Ratio (z) = 0.27175 0.40753
#
# Static dielectric constant tensor:
#      x y z
#    x 1.915800 0.007930 -0.024390 
#    y 0.007930 1.924780 -0.015100 
#    z -0.024390 -0.015100 1.920030 
# 
# From -- ./inp_files/307699.got.cif
#   From: 2010.05.17/outbox.cif.g08.bks.cpg/sg2_154_cif.got.tgz:307699.got - 2010.06.03 11:33:40.
