data_PCOD9043225
_publ_section_title
;
Structure prediction by ZEFSAII (Michael W. Deem and Ramdas Pophale) SiO2 
 PCOD9043225
Probable space group: P -1
;
_chemical_formula_sum "Si O2"
_cell_formula_units_Z 16
_cell_length_a 11.191678
_cell_length_b 15.865943
_cell_length_c 7.925330
_cell_angle_alpha 57.930858
_cell_angle_beta 138.299561
_cell_angle_gamma 99.419598
_cell_volume 722.538886
_symmetry_space_group_name_H-M "P -1"
_symmetry_group_IT_number 2
_symmetry_cell_setting 'triclinic'
loop_
_space_group_symop_operation_xyz
x,y,z
-x,-y,-z
loop_
_atom_site_type_symbol
_atom_site_label
_atom_site_fract_x
_atom_site_fract_y
_atom_site_fract_z
Si Si1 0.844847 0.575817 0.922049
Si Si2 0.311510 0.135241 0.781804
Si Si3 0.453117 0.215387 0.152251
Si Si4 0.443357 0.897147 0.254689
Si Si5 0.081645 0.645930 0.854285
Si Si6 0.056442 0.371445 0.698731
Si Si7 0.362651 0.626560 0.689745
Si Si8 0.414716 0.693635 0.298134
O O1 0.642223 0.633559 0.543701
O O2 0.035288 0.580978 0.030318
O O3 0.878486 0.451837 0.132960
O O4 0.813400 0.654018 0.964365
O O5 0.380991 0.117641 0.678203
O O6 0.103980 0.239126 0.462810
O O7 0.467472 0.154867 0.052816
O O8 0.303249 0.024810 0.958924
O O9 0.504075 0.138598 0.456004
O O10 0.570275 0.292068 0.219402
O O11 0.221574 0.296986 0.825362
O O12 0.357247 0.817983 0.159005
O O13 0.272244 0.669458 0.048168
O O14 0.000000 0.500000 0.500000
O O15 0.865370 0.347386 0.545397
O O16 0.396839 0.641527 0.513129
O O17 0.500000 0.500000 0.000000
#
# Coordination Sequence:
#
# PCOD9043225 Si02
#       8
#     2   2   2   2   2   2   2   2
#     4  11  21  38  58  94 133 171 209 260 329 388
#     4  11  23  44  70  96 125 175 224 267 326 384
#     4  11  23  43  68  94 132 171 216 267 326 382
#     4  10  23  45  69  93 129 172 220 276 323 375
#     4  11  23  36  63  93 130 169 216 264 319 396
#     4  12  20  37  59  90 131 173 211 255 321 391
#     4  11  22  36  62  94 131 175 212 257 322 395
#     4  11  21  41  63  92 130 176 213 267 330 380
#
# _framework density 22.144136
#
# number of rings (size 3 to 8) (size 9 to 14) (size 15 to 20)
#    0.000    1.000    6.250    1.500    0.000    0.500 
#    6.750    0.000    0.000    2.250    0.000    0.000 
#    0.000    0.000    0.000    0.000    0.000    0.000 
#
# Total GULP energy -89274.712688 kJ/mol
# GULP energy per Si atom -5579.669543 kJ/mol
# Density = 2.209373 g / cm^3
# Si number density = 22.144136 Si / 1000 Ang^3
#
#
#
# Elastic Constant Matrix: (Units=GPa)
#
#
# Indices 1 2 3 4 5 6 
#
# 1 60.9914 16.0999 16.1162 10.5440 1.3570 7.4703
# 2 16.0999 109.9975 55.0563 -12.6547 6.6568 15.5922
# 3 16.1162 55.0563 88.9553 -15.4961 4.5120 19.8172
# 4 10.5440 -12.6547 -15.4961 40.9634 12.2316 0.1457
# 5 1.3570 6.6568 4.5120 12.2316 36.8082 4.8722
# 6 7.4703 15.5922 19.8172 0.1457 4.8722 37.7456
#
#
#
# Elastic Compliance Matrix: (Units=1/GPa)
#
#
# Indices 1 2 3 4 5 6 
#
# 1 0.019271 -0.001941 -0.003429 -0.007695 0.002823 -0.001546
# 2 -0.001941 0.013598 -0.007236 0.002631 -0.002222 -0.001158
# 3 -0.003429 -0.007236 0.018925 0.006500 -0.002250 -0.006003
# 4 -0.007695 0.002631 0.006500 0.033197 -0.011811 -0.001580
# 5 0.002823 -0.002222 -0.002250 -0.011811 0.032003 -0.002545
# 6 -0.001546 -0.001158 -0.006003 -0.001580 -0.002545 0.030764
#
#
# Mechanical properties :
#
#
# Convention : Reuss Voigt Hill
#
# Bulk Modulus (GPa) = 37.61885 48.27657 42.94771
# Shear Modulus (GPa) = 27.49828 34.61489 31.05658
#
# Velocity S-wave (km/s) = 3.52772 3.95797 3.74903
# Velocity P-wave (km/s) = 5.79812 6.53726 6.17875
#
# Compressibility (1/GPa) = 0.02658242
#
# Stress axis : x y z
#
# Youngs Moduli (GPa) = 51.89125 73.54024 52.84076
#
# Poissons Ratio (x) = 0.14275 0.18119
# Poissons Ratio (y) = 0.10073 0.38233
# Poissons Ratio (z) = 0.17794 0.53210
#
# Static dielectric constant tensor:
#      x y z
#    x 1.915710 -0.049510 -0.088380 
#    y -0.049510 1.834970 0.027250 
#    z -0.088380 0.027250 1.881000 
# 
# From -- ./inp_files/271960.got.cif
#   From: 2010.05.17/outbox.cif.g08.bks.cpg/sg2_136_cif.got.tgz:271960.got - 2010.06.03 11:33:40.
