data_PCOD9043959
_publ_section_title
;
Structure prediction by ZEFSAII (Michael W. Deem and Ramdas Pophale) SiO2 
 PCOD9043959
Probable space group: P -1
;
_chemical_formula_sum "Si O2"
_cell_formula_units_Z 14
_cell_length_a 12.364575
_cell_length_b 14.876703
_cell_length_c 8.178320
_cell_angle_alpha 64.948243
_cell_angle_beta 121.149681
_cell_angle_gamma 153.941973
_cell_volume 562.138500
_symmetry_space_group_name_H-M "P -1"
_symmetry_group_IT_number 2
_symmetry_cell_setting 'triclinic'
loop_
_space_group_symop_operation_xyz
x,y,z
-x,-y,-z
loop_
_atom_site_type_symbol
_atom_site_label
_atom_site_fract_x
_atom_site_fract_y
_atom_site_fract_z
Si Si1 0.983355 0.889824 0.678770
Si Si2 0.714523 0.224855 0.433164
Si Si3 0.386842 0.325398 0.137396
Si Si4 0.464183 0.226633 0.019872
Si Si5 0.863044 0.161824 0.365635
Si Si6 0.382118 0.690353 0.461999
Si Si7 0.083892 0.444103 0.100333
O O1 0.795900 0.767473 0.783368
O O2 0.913696 0.758090 0.591273
O O3 0.000000 0.000000 0.500000
O O4 0.269772 0.065567 0.845079
O O5 0.895118 0.271780 0.438757
O O6 0.796311 0.347325 0.560523
O O7 0.500000 0.000000 0.500000
O O8 0.560952 0.196726 0.217783
O O9 0.569306 0.368056 0.334458
O O10 0.500000 0.500000 0.000000
O O11 0.298843 0.192926 0.021446
O O12 0.741292 0.462599 0.990585
O O13 0.834417 0.207615 0.140775
O O14 0.644900 0.936028 0.437666
O O15 0.286801 0.580208 0.303718
O O16 0.000000 0.500000 0.000000
#
# Coordination Sequence:
#
# PCOD9043959 Si02
#       7
#     2   2   2   2   2   2   2
#     4  12  24  44  72  96 138 186 228 280 341 404
#     4   9  21  41  66  95 132 178 222 281 345 403
#     4  11  24  47  68 101 136 181 235 281 337 406
#     4  11  23  44  67 100 139 174 230 288 334 411
#     4  11  22  42  69  96 135 176 229 271 350 392
#     4  10  23  46  67  97 143 175 226 285 340 407
#     4  12  24  41  69 107 135 177 226 280 344 413
#
# _framework density 24.904896000000001
#
# number of rings (size 3 to 8) (size 9 to 14) (size 15 to 20)
#    0.000    1.143    4.286    1.286    0.000    5.143 
#    7.714    2.857    0.000    0.000    0.000    0.000 
#    0.000    0.000    0.000    0.000    0.000    0.000 
#
# Total GULP energy -78003.004540 kJ/mol
# GULP energy per Si atom -5571.643181 kJ/mol
# Density = 2.484821 g / cm^3
# Si number density = 24.904896 Si / 1000 Ang^3
#
#
#
# Elastic Constant Matrix: (Units=GPa)
#
#
# Indices 1 2 3 4 5 6 
#
# 1 229.8677 58.8752 30.9364 -27.2311 -23.1109 -11.6323
# 2 58.8752 76.9670 53.8162 -29.3463 0.3873 -4.1160
# 3 30.9364 53.8162 124.0095 -39.5925 7.0894 -16.5892
# 4 -27.2311 -29.3463 -39.5925 50.8169 1.1428 -11.0276
# 5 -23.1109 0.3873 7.0894 1.1428 43.0411 -18.3787
# 6 -11.6323 -4.1160 -16.5892 -11.0276 -18.3787 59.8565
#
#
#
# Elastic Compliance Matrix: (Units=1/GPa)
#
#
# Indices 1 2 3 4 5 6 
#
# 1 0.006240 -0.004737 0.001364 0.002229 0.004402 0.003027
# 2 -0.004737 0.023795 -0.007518 0.005161 -0.002112 -0.001066
# 3 0.001364 -0.007518 0.014555 0.008932 0.000556 0.005598
# 4 0.002229 0.005161 0.008932 0.032981 0.003213 0.010326
# 5 0.004402 -0.002112 0.000556 0.003213 0.029994 0.010666
# 6 0.003027 -0.001066 0.005598 0.010326 0.010666 0.023950
#
#
# Mechanical properties :
#
#
# Convention : Reuss Voigt Hill
#
# Bulk Modulus (GPa) = 43.84748 79.78887 61.81817
# Shear Modulus (GPa) = 31.07513 49.89065 40.48289
#
# Velocity S-wave (km/s) = 3.53619 4.48062 4.03612
# Velocity P-wave (km/s) = 5.85807 7.67300 6.82612
#
# Compressibility (1/GPa) = 0.02280633
#
# Stress axis : x y z
#
# Youngs Moduli (GPa) = 160.25913 42.02570 68.70452
#
# Poissons Ratio (x) = 0.19910 -0.09372
# Poissons Ratio (y) = 0.75922 0.51655
# Poissons Ratio (z) = -0.21861 0.31597
#
# Static dielectric constant tensor:
#      x y z
#    x 1.754010 0.329440 0.596450 
#    y 0.329440 1.836400 -0.671220 
#    z 0.596450 -0.671220 0.609690 
# 
# From -- ./inp_files/259266.got.cif
#   From: 2010.05.17/outbox.cif.g08.bks.cpg/sg2_130_cif.got.tgz:259266.got - 2010.06.03 11:33:40.
