data_PCOD9043306
_publ_section_title
;
Structure prediction by ZEFSAII (Michael W. Deem and Ramdas Pophale) SiO2 
 PCOD9043306
Probable space group: P -1
;
_chemical_formula_sum "Si O2"
_cell_formula_units_Z 14
_cell_length_a 9.387270
_cell_length_b 9.424675
_cell_length_c 17.210747
_cell_angle_alpha 120.024876
_cell_angle_beta 125.217116
_cell_angle_gamma 106.553788
_cell_volume 630.509863
_symmetry_space_group_name_H-M "P -1"
_symmetry_group_IT_number 2
_symmetry_cell_setting 'triclinic'
loop_
_space_group_symop_operation_xyz
x,y,z
-x,-y,-z
loop_
_atom_site_type_symbol
_atom_site_label
_atom_site_fract_x
_atom_site_fract_y
_atom_site_fract_z
Si Si1 0.188816 0.811370 0.811314
Si Si2 0.735241 0.161314 0.495559
Si Si3 0.175580 0.158207 0.901446
Si Si4 0.693153 0.170006 0.314198
Si Si5 0.919556 0.416854 0.859730
Si Si6 0.930141 0.116993 0.965652
Si Si7 0.145044 0.326466 0.793550
O O1 0.282006 0.910158 0.778527
O O2 0.936164 0.479800 0.648199
O O3 0.089087 0.912085 0.835741
O O4 0.500000 0.000000 0.000000
O O5 0.700571 0.079659 0.372600
O O6 0.906530 0.170886 0.608725
O O7 0.392082 0.912217 0.342595
O O8 0.067198 0.120051 0.770725
O O9 0.042662 0.175898 0.929187
O O10 0.533286 0.444978 0.083264
O O11 0.000000 0.500000 0.500000
O O12 0.414729 0.084341 0.199389
O O13 0.143505 0.481376 0.895042
O O14 0.000000 0.500000 0.000000
O O15 0.908047 0.594970 0.873631
O O16 0.000000 0.000000 0.000000
#
# Coordination Sequence:
#
# PCOD9043306 Si02
#       7
#     2   2   2   2   2   2   2
#     4  11  22  43  75 100 141 191 237 289 361 430
#     4  11  24  42  73 101 136 191 244 279 356 436
#     4  11  24  43  71 109 141 182 236 305 357 413
#     4  10  23  45  70 103 140 186 238 288 353 433
#     4  12  24  48  71  96 142 195 234 291 361 429
#     4  12  26  44  74 104 142 185 241 297 356 421
#     4  11  24  44  71 104 143 184 240 289 363 432
#
# _framework density 22.204253000000001
#
# number of rings (size 3 to 8) (size 9 to 14) (size 15 to 20)
#    0.000    0.857    4.286    2.143    4.000    0.000 
#    5.143    5.000    0.000    0.000    0.000    0.000 
#    0.000    0.000    0.000    0.000    0.000    0.000 
#
# Total GULP energy -78153.538778 kJ/mol
# GULP energy per Si atom -5582.395627 kJ/mol
# Density = 2.215371 g / cm^3
# Si number density = 22.204253 Si / 1000 Ang^3
#
#
#
# Elastic Constant Matrix: (Units=GPa)
#
#
# Indices 1 2 3 4 5 6 
#
# 1 112.4454 13.2659 25.1983 -0.3450 12.2611 -2.4108
# 2 13.2659 110.3356 40.8796 -9.1770 2.4003 -12.9442
# 3 25.1983 40.8796 120.5453 7.1363 15.9908 3.5905
# 4 -0.3450 -9.1770 7.1363 50.6164 9.7051 -0.5267
# 5 12.2611 2.4003 15.9908 9.7051 30.5899 3.8704
# 6 -2.4108 -12.9442 3.5905 -0.5267 3.8704 38.4506
#
#
#
# Elastic Compliance Matrix: (Units=1/GPa)
#
#
# Indices 1 2 3 4 5 6 
#
# 1 0.009678 -0.000327 -0.001536 0.000897 -0.003462 0.001001
# 2 -0.000327 0.011319 -0.004051 0.002668 -0.000018 0.004207
# 3 -0.001536 -0.004051 0.010659 -0.001523 -0.003891 -0.002085
# 4 0.000897 0.002668 -0.001523 0.021817 -0.006960 0.002096
# 5 -0.003462 -0.000018 -0.003891 -0.006960 0.038810 -0.003862
# 6 0.001001 0.004207 -0.002085 0.002096 -0.003862 0.028098
#
#
# Mechanical properties :
#
#
# Convention : Reuss Voigt Hill
#
# Bulk Modulus (GPa) = 50.43396 55.77934 53.10665
# Shear Modulus (GPa) = 36.01791 41.53022 38.77406
#
# Velocity S-wave (km/s) = 4.03192 4.32947 4.18334
# Velocity P-wave (km/s) = 6.66619 7.08294 6.87772
#
# Compressibility (1/GPa) = 0.01982791
#
# Stress axis : x y z
#
# Youngs Moduli (GPa) = 103.33097 88.34371 93.81765
#
# Poissons Ratio (x) = 0.02891 0.14408
# Poissons Ratio (y) = 0.03381 0.38007
# Poissons Ratio (z) = 0.15869 0.35789
#
# Static dielectric constant tensor:
#      x y z
#    x 1.892640 0.041160 0.010290 
#    y 0.041160 1.884580 -0.008020 
#    z 0.010290 -0.008020 1.824230 
# 
# From -- ./inp_files/557514.got.cif
#   From: 2010.05.17/outbox.cif.g08.bks.cpg/sg2_279_cif.got.tgz:557514.got - 2010.06.03 11:33:40.
