data_PCOD9043875
_publ_section_title
;
Structure prediction by ZEFSAII (Michael W. Deem and Ramdas Pophale) SiO2 
 PCOD9043875
Probable space group: P -1
;
_chemical_formula_sum "Si O2"
_cell_formula_units_Z 15
_cell_length_a 12.331831
_cell_length_b 19.398056
_cell_length_c 8.840490
_cell_angle_alpha 143.811888
_cell_angle_beta 62.466168
_cell_angle_gamma 143.086453
_cell_volume 642.342729
_symmetry_space_group_name_H-M "P -1"
_symmetry_group_IT_number 2
_symmetry_cell_setting 'triclinic'
loop_
_space_group_symop_operation_xyz
x,y,z
-x,-y,-z
loop_
_atom_site_type_symbol
_atom_site_label
_atom_site_fract_x
_atom_site_fract_y
_atom_site_fract_z
Si Si1 0.000000 0.500000 0.000000
Si Si2 0.503806 0.312839 0.754521
Si Si3 0.941031 0.561574 0.851019
Si Si4 0.666102 0.626023 0.828960
Si Si5 0.751022 0.180875 0.173766
Si Si6 0.860612 0.009621 0.821491
Si Si7 0.474750 0.841224 0.251454
Si Si8 0.360001 0.225849 0.177751
O O1 0.015636 0.621385 0.080450
O O2 0.774518 0.374730 0.985264
O O3 0.731559 0.476683 0.819500
O O4 0.512804 0.579101 0.953742
O O5 0.311064 0.157068 0.487433
O O6 0.474667 0.181877 0.660294
O O7 0.848371 0.357978 0.528266
O O8 0.124202 0.719207 0.889735
O O9 0.570391 0.428074 0.491878
O O10 0.674171 0.709020 0.818113
O O11 0.900972 0.807951 0.063996
O O12 0.500000 0.000000 0.000000
O O13 0.804255 0.097814 0.060182
O O14 0.822664 0.908683 0.819428
O O15 0.500000 0.000000 0.500000
O O16 0.601934 0.869010 0.092603
#
# Coordination Sequence:
#
# PCOD9043875 Si02
#       8
#     1   2   2   2   2   2   2   2
#     4  10  24  36  66  94 126 180 214 260 338 396
#     4  10  23  46  64 101 134 174 226 278 332 392
#     4  10  24  44  63  98 138 177 222 271 339 400
#     4  10  24  49  66  94 135 177 227 278 327 400
#     4  11  25  42  66  98 142 174 219 274 339 405
#     4  12  25  39  72  99 128 181 225 277 334 396
#     4  10  24  42  66  97 136 171 215 279 333 400
#     4  10  25  44  69  95 132 173 227 276 336 393
#
# _framework density 23.35202
#
# number of rings (size 3 to 8) (size 9 to 14) (size 15 to 20)
#    0.000    1.600    1.333    0.800   11.200    0.533 
#    2.400    2.667    0.000    0.000    0.000    0.000 
#    0.000    0.000    0.000    0.000    0.000    0.000 
#
# Total GULP energy -83620.434516 kJ/mol
# GULP energy per Si atom -5574.695634 kJ/mol
# Density = 2.329887 g / cm^3
# Si number density = 23.352020 Si / 1000 Ang^3
#
#
#
# Elastic Constant Matrix: (Units=GPa)
#
#
# Indices 1 2 3 4 5 6 
#
# 1 60.3011 8.7877 23.2895 -5.1750 9.4546 6.6381
# 2 8.7877 75.8723 26.9292 -1.9097 -11.2937 0.9600
# 3 23.2895 26.9292 75.9643 -0.6326 -6.0953 4.9088
# 4 -5.1750 -1.9097 -0.6326 18.4388 7.1266 2.0330
# 5 9.4546 -11.2937 -6.0953 7.1266 33.5310 5.9824
# 6 6.6381 0.9600 4.9088 2.0330 5.9824 34.2615
#
#
#
# Elastic Compliance Matrix: (Units=1/GPa)
#
#
# Indices 1 2 3 4 5 6 
#
# 1 0.021978 -0.001269 -0.006834 0.009731 -0.009551 -0.002153
# 2 -0.001269 0.015755 -0.004777 -0.000793 0.005025 -0.000341
# 3 -0.006834 -0.004777 0.017389 -0.003371 0.004484 -0.001616
# 4 0.009731 -0.000793 -0.003371 0.063473 -0.016717 -0.002228
# 5 -0.009551 0.005025 0.004484 -0.016717 0.039438 -0.004827
# 6 -0.002153 -0.000341 -0.001616 -0.002228 -0.004827 0.030821
#
#
# Mechanical properties :
#
#
# Convention : Reuss Voigt Hill
#
# Bulk Modulus (GPa) = 34.05992 36.68339 35.37166
# Shear Modulus (GPa) = 22.28145 27.45502 24.86824
#
# Velocity S-wave (km/s) = 3.09229 3.43257 3.26686
# Velocity P-wave (km/s) = 5.23133 5.60830 5.42309
#
# Compressibility (1/GPa) = 0.02936002
#
# Stress axis : x y z
#
# Youngs Moduli (GPa) = 45.50099 63.47170 57.50757
#
# Poissons Ratio (x) = 0.08057 0.39302
# Poissons Ratio (y) = 0.05776 0.27473
# Poissons Ratio (z) = 0.31096 0.30322
#
# Static dielectric constant tensor:
#      x y z
#    x 1.911610 -0.057960 0.022530 
#    y -0.057960 1.903990 -0.006010 
#    z 0.022530 -0.006010 1.910790 
# 
# From -- ./inp_files/280092.got.cif
#   From: 2010.05.17/outbox.cif.g08.bks.cpg/sg2_141_cif.got.tgz:280092.got - 2010.06.03 11:33:40.
