data_PCOD9043258
_publ_section_title
;
Structure prediction by ZEFSAII (Michael W. Deem and Ramdas Pophale) SiO2 
 PCOD9043258
Probable space group: P -1
;
_chemical_formula_sum "Si O2"
_cell_formula_units_Z 16
_cell_length_a 12.617393
_cell_length_b 13.780770
_cell_length_c 5.023380
_cell_angle_alpha 107.513730
_cell_angle_beta 84.858170
_cell_angle_gamma 129.732575
_cell_volume 634.262386
_symmetry_space_group_name_H-M "P -1"
_symmetry_group_IT_number 2
_symmetry_cell_setting 'triclinic'
loop_
_space_group_symop_operation_xyz
x,y,z
-x,-y,-z
loop_
_atom_site_type_symbol
_atom_site_label
_atom_site_fract_x
_atom_site_fract_y
_atom_site_fract_z
Si Si1 0.792596 0.215465 0.233736
Si Si2 0.520753 0.766373 0.211516
Si Si3 0.926488 0.648607 0.030872
Si Si4 0.887364 0.847340 0.329666
Si Si5 0.636562 0.493227 0.650239
Si Si6 0.253120 0.601430 0.836823
Si Si7 0.700803 0.755840 0.794029
Si Si8 0.642303 0.039802 0.614788
O O1 0.685388 0.097269 0.949667
O O2 0.945325 0.287756 0.142704
O O3 0.769019 0.322357 0.305470
O O4 0.762122 0.152275 0.478485
O O5 0.481375 0.641427 0.281677
O O6 0.609567 0.900732 0.471021
O O7 0.368622 0.713772 0.111675
O O8 0.609970 0.792340 0.953616
O O9 0.942238 0.765592 0.276416
O O10 0.891917 0.529422 0.121947
O O11 0.781183 0.571325 0.843456
O O12 0.763811 0.790368 0.517214
O O13 0.830170 0.827624 0.029247
O O14 0.000000 0.000000 0.500000
O O15 0.673005 0.453181 0.344268
O O16 0.613619 0.598291 0.717601
O O17 0.500000 0.000000 0.500000
#
# Coordination Sequence:
#
# PCOD9043258 Si02
#       8
#     2   2   2   2   2   2   2   2
#     4  12  28  44  75  98 138 183 230 281 339 408
#     4  11  26  41  72 101 137 182 228 276 348 403
#     4  10  25  45  68 104 133 182 230 280 341 400
#     4  11  25  45  68  97 144 178 224 281 338 402
#     4  10  23  45  69  99 144 175 226 290 329 404
#     4  11  23  45  71  97 140 180 225 291 333 399
#     4  11  25  44  69 104 132 180 230 276 339 409
#     4  12  27  48  67 102 142 179 229 283 340 404
#
# _framework density 25.226151999999999
#
# number of rings (size 3 to 8) (size 9 to 14) (size 15 to 20)
#    0.000    1.000    2.500    2.250   10.500    1.000 
#    0.000    0.000    0.000    0.000    0.000    0.000 
#    0.000    0.000    0.000    0.000    0.000    0.000 
#
# Total GULP energy -89694.295896 kJ/mol
# GULP energy per Si atom -5605.893494 kJ/mol
# Density = 2.516874 g / cm^3
# Si number density = 25.226152 Si / 1000 Ang^3
#
#
#
# Elastic Constant Matrix: (Units=GPa)
#
#
# Indices 1 2 3 4 5 6 
#
# 1 73.7712 30.4123 12.5313 3.7542 -14.3125 7.3669
# 2 30.4123 117.9899 2.7519 9.9885 -8.1822 -3.5599
# 3 12.5313 2.7519 72.8435 6.7683 -8.5227 -4.1474
# 4 3.7542 9.9885 6.7683 49.5839 5.0939 -12.2605
# 5 -14.3125 -8.1822 -8.5227 5.0939 38.3646 -3.2222
# 6 7.3669 -3.5599 -4.1474 -12.2605 -3.2222 25.2814
#
#
#
# Elastic Compliance Matrix: (Units=1/GPa)
#
#
# Indices 1 2 3 4 5 6 
#
# 1 0.017353 -0.004087 -0.002428 -0.002265 0.004816 -0.006515
# 2 -0.004087 0.009765 0.000707 -0.001327 0.001074 0.002175
# 3 -0.002428 0.000707 0.014776 -0.001578 0.002976 0.002845
# 4 -0.002265 -0.001327 -0.001578 0.024019 -0.003711 0.011390
# 5 0.004816 0.001074 0.002976 -0.003711 0.029344 0.001176
# 6 -0.006515 0.002175 0.002845 0.011390 0.001176 0.047900
#
#
# Mechanical properties :
#
#
# Convention : Reuss Voigt Hill
#
# Bulk Modulus (GPa) = 33.02770 39.55509 36.29139
# Shear Modulus (GPa) = 30.32781 37.23991 33.78386
#
# Velocity S-wave (km/s) = 3.47109 3.84636 3.66353
# Velocity P-wave (km/s) = 5.40238 5.95317 5.68445
#
# Compressibility (1/GPa) = 0.03027762
#
# Stress axis : x y z
#
# Youngs Moduli (GPa) = 57.62697 102.41036 67.67834
#
# Poissons Ratio (x) = 0.41855 0.16431
# Poissons Ratio (y) = 0.23552 -0.04784
# Poissons Ratio (z) = 0.13991 -0.07240
#
# Static dielectric constant tensor:
#      x y z
#    x 2.019180 -0.015650 0.031880 
#    y -0.015650 1.974960 -0.009620 
#    z 0.031880 -0.009620 2.014960 
# 
# From -- ./inp_files/95250.got.cif
#   From: 2010.05.17/outbox.cif.g08.bks.cpg/sg2_48_cif.got.tgz:95250.got - 2010.06.03 11:33:40.
