data_PCOD9043960
_publ_section_title
;
Structure prediction by ZEFSAII (Michael W. Deem and Ramdas Pophale) SiO2 
 PCOD9043960
Probable space group: P -1
;
_chemical_formula_sum "Si O2"
_cell_formula_units_Z 14
_cell_length_a 5.498441
_cell_length_b 18.201151
_cell_length_c 9.442109
_cell_angle_alpha 64.465566
_cell_angle_beta 84.144310
_cell_angle_gamma 49.046311
_cell_volume 620.953837
_symmetry_space_group_name_H-M "P -1"
_symmetry_group_IT_number 2
_symmetry_cell_setting 'triclinic'
loop_
_space_group_symop_operation_xyz
x,y,z
-x,-y,-z
loop_
_atom_site_type_symbol
_atom_site_label
_atom_site_fract_x
_atom_site_fract_y
_atom_site_fract_z
Si Si1 0.119656 0.560090 0.504205
Si Si2 0.724246 0.999487 0.381753
Si Si3 0.841412 0.564435 0.805141
Si Si4 0.152516 0.054171 0.904513
Si Si5 0.001831 0.365087 0.836051
Si Si6 0.294179 0.822713 0.697714
Si Si7 0.742529 0.246833 0.971836
O O1 0.500000 0.500000 0.500000
O O2 0.000000 0.500000 0.500000
O O3 0.050606 0.567542 0.669641
O O4 0.929962 0.658952 0.317550
O O5 0.774721 0.960459 0.252673
O O6 0.088359 0.903863 0.510685
O O7 0.500000 0.000000 0.500000
O O8 0.564382 0.125726 0.289638
O O9 0.535721 0.694367 0.747748
O O10 0.772548 0.494192 0.788216
O O11 0.000000 0.500000 0.000000
O O12 0.896954 0.178857 0.874757
O O13 0.500000 0.000000 0.000000
O O14 0.000000 0.000000 0.000000
O O15 0.354373 0.308543 0.934562
O O16 0.817664 0.324464 0.923099
O O17 0.091144 0.835330 0.834922
#
# Coordination Sequence:
#
# PCOD9043960 Si02
#       7
#     2   2   2   2   2   2   2
#     4  10  23  46  67  97 148 192 241 297 354 438
#     4  11  27  50  74 110 150 197 255 319 380 446
#     4  11  24  46  74 111 148 199 246 304 375 450
#     4  12  26  47  79 107 144 195 256 310 374 442
#     4  11  25  46  71 105 155 189 249 296 378 451
#     4  11  26  47  75 105 157 193 252 313 384 442
#     4  12  25  46  75 110 146 201 239 315 373 449
#
# _framework density 22.545960999999998
#
# number of rings (size 3 to 8) (size 9 to 14) (size 15 to 20)
#    0.000    0.857    2.857    3.429    6.000    1.714 
#   10.286    0.000    0.000    0.000    0.000    0.000 
#    0.000    0.000    0.000    0.000    0.000    0.000 
#
# Total GULP energy -78030.875837 kJ/mol
# GULP energy per Si atom -5573.633988 kJ/mol
# Density = 2.249465 g / cm^3
# Si number density = 22.545961 Si / 1000 Ang^3
#
#
#
# Elastic Constant Matrix: (Units=GPa)
#
#
# Indices 1 2 3 4 5 6 
#
# 1 135.2247 48.2931 46.1924 2.1297 -8.7629 13.0886
# 2 48.2931 157.1273 37.6737 7.1914 -6.9036 19.8307
# 3 46.1924 37.6737 155.1421 30.7083 -8.3262 13.8082
# 4 2.1297 7.1914 30.7083 52.1120 3.0530 -6.8531
# 5 -8.7629 -6.9036 -8.3262 3.0530 47.9887 -8.2596
# 6 13.0886 19.8307 13.8082 -6.8531 -8.2596 30.3029
#
#
#
# Elastic Compliance Matrix: (Units=1/GPa)
#
#
# Indices 1 2 3 4 5 6 
#
# 1 0.009058 -0.002127 -0.002262 0.001076 0.000706 -0.001054
# 2 -0.002127 0.007746 -0.000659 -0.001133 -0.000024 -0.004113
# 3 -0.002262 -0.000659 0.008723 -0.005474 0.000733 -0.003605
# 4 0.001076 -0.001133 -0.005474 0.023619 -0.001073 0.007820
# 5 0.000706 -0.000024 0.000733 -0.001073 0.022044 0.005143
# 6 -0.001054 -0.004113 -0.003605 0.007820 0.005143 0.040960
#
#
# Mechanical properties :
#
#
# Convention : Reuss Voigt Hill
#
# Bulk Modulus (GPa) = 64.79994 79.09028 71.94511
# Shear Modulus (GPa) = 39.25008 47.10303 43.17656
#
# Velocity S-wave (km/s) = 4.17693 4.57574 4.38087
# Velocity P-wave (km/s) = 7.21567 7.94180 7.58743
#
# Compressibility (1/GPa) = 0.01543211
#
# Stress axis : x y z
#
# Youngs Moduli (GPa) = 110.39794 129.10230 114.64308
#
# Poissons Ratio (x) = 0.27459 0.25930
# Poissons Ratio (y) = 0.23481 0.07550
# Poissons Ratio (z) = 0.24970 0.08502
#
# Static dielectric constant tensor:
#      x y z
#    x 1.774720 -0.014850 0.034690 
#    y -0.014850 1.880200 -0.095470 
#    z 0.034690 -0.095470 2.118720 
# 
# From -- ./inp_files/138708.got.cif
#   From: 2010.05.17/outbox.cif.g08.bks.cpg/sg2_70_cif.got.tgz:138708.got - 2010.06.03 11:33:40.
