data_PCOD9043220
_publ_section_title
;
Structure prediction by ZEFSAII (Michael W. Deem and Ramdas Pophale) SiO2 
 PCOD9043220
Probable space group: P -1
;
_chemical_formula_sum "Si O2"
_cell_formula_units_Z 16
_cell_length_a 14.630827
_cell_length_b 11.351068
_cell_length_c 8.879174
_cell_angle_alpha 109.970204
_cell_angle_beta 82.472233
_cell_angle_gamma 145.747182
_cell_volume 747.491166
_symmetry_space_group_name_H-M "P -1"
_symmetry_group_IT_number 2
_symmetry_cell_setting 'triclinic'
loop_
_space_group_symop_operation_xyz
x,y,z
-x,-y,-z
loop_
_atom_site_type_symbol
_atom_site_label
_atom_site_fract_x
_atom_site_fract_y
_atom_site_fract_z
Si Si1 0.387039 0.912066 0.841467
Si Si2 0.666499 0.637792 0.101849
Si Si3 0.331978 0.640018 0.506201
Si Si4 0.636871 0.348902 0.844023
Si Si5 0.881885 0.480758 0.053867
Si Si6 0.507639 0.627798 0.662536
Si Si7 0.978728 0.105230 0.365133
Si Si8 0.113620 0.976008 0.304623
O O1 0.389227 0.835169 0.653719
O O2 0.207539 0.672450 0.843502
O O3 0.458248 0.128465 0.874615
O O4 0.500000 0.000000 0.000000
O O5 0.603974 0.522773 0.230859
O O6 0.820124 0.911093 0.201905
O O7 0.500000 0.500000 0.000000
O O8 0.717595 0.573341 0.968761
O O9 0.387949 0.689115 0.343960
O O10 0.423394 0.645025 0.598159
O O11 0.130495 0.377641 0.432626
O O12 0.752765 0.370175 0.898278
O O13 0.975475 0.717224 0.171924
O O14 0.000000 0.500000 0.000000
O O15 0.500000 0.500000 0.500000
O O16 0.710630 0.869652 0.741277
O O17 0.893782 0.031617 0.514789
O O18 0.066224 0.066482 0.318775
#
# Coordination Sequence:
#
# PCOD9043220 Si02
#       8
#     2   2   2   2   2   2   2   2
#     4  10  23  45  69  92 129 181 227 279 334 402
#     4  12  26  44  67 103 141 177 227 285 346 408
#     4  12  24  44  70  97 136 182 227 281 345 407
#     4  11  26  45  65  99 138 179 229 285 341 404
#     4  11  24  44  68  99 131 182 229 282 341 405
#     4  12  22  38  66  97 130 178 223 270 338 409
#     4  11  22  42  69  98 138 178 222 288 345 399
#     4  11  22  39  68  99 135 174 231 281 337 412
#
# _framework density 21.404934000000001
#
# number of rings (size 3 to 8) (size 9 to 14) (size 15 to 20)
#    0.000    0.750    5.000    3.375    5.250    1.500 
#    0.000    0.625    0.000    0.000    0.000    0.000 
#    0.000    0.000    0.000    0.000    0.000    0.000 
#
# Total GULP energy -89277.652519 kJ/mol
# GULP energy per Si atom -5579.853282 kJ/mol
# Density = 2.135622 g / cm^3
# Si number density = 21.404934 Si / 1000 Ang^3
#
#
#
# Elastic Constant Matrix: (Units=GPa)
#
#
# Indices 1 2 3 4 5 6 
#
# 1 49.4893 -14.7493 7.6752 5.6457 8.7831 5.2900
# 2 -14.7493 82.8179 18.8247 17.8115 5.5546 2.5444
# 3 7.6752 18.8247 106.0910 7.0331 -2.2438 -2.8673
# 4 5.6457 17.8115 7.0331 45.1517 -3.6146 -1.3847
# 5 8.7831 5.5546 -2.2438 -3.6146 32.3328 3.4157
# 6 5.2900 2.5444 -2.8673 -1.3847 3.4157 24.9979
#
#
#
# Elastic Compliance Matrix: (Units=1/GPa)
#
#
# Indices 1 2 3 4 5 6 
#
# 1 0.025807 0.007466 -0.003095 -0.006558 -0.008633 -0.005760
# 2 0.007466 0.016167 -0.003125 -0.007364 -0.005503 -0.003240
# 3 -0.003095 -0.003125 0.010281 0.000230 0.001916 0.001903
# 4 -0.006558 -0.007364 0.000230 0.026381 0.005711 0.002845
# 5 -0.008633 -0.005503 0.001916 0.005711 0.035189 -0.001885
# 6 -0.005760 -0.003240 0.001903 0.002845 -0.001885 0.042186
#
#
# Mechanical properties :
#
#
# Convention : Reuss Voigt Hill
#
# Bulk Modulus (GPa) = 18.26567 29.09992 23.68280
# Shear Modulus (GPa) = 29.10896 35.60631 32.35764
#
# Velocity S-wave (km/s) = 3.69171 4.08298 3.89226
# Velocity P-wave (km/s) = 5.16948 5.98766 5.59355
#
# Compressibility (1/GPa) = 0.05474750
#
# Stress axis : x y z
#
# Youngs Moduli (GPa) = 38.74867 61.85428 97.26740
#
# Poissons Ratio (x) = -0.46180 0.30107
# Poissons Ratio (y) = -0.28930 0.30392
# Poissons Ratio (z) = 0.11994 0.19327
#
# Static dielectric constant tensor:
#      x y z
#    x 1.656060 0.092740 -0.063910 
#    y 0.092740 1.812710 0.085270 
#    z -0.063910 0.085270 1.887170 
# 
# From -- ./inp_files/308025.got.cif
#   From: 2010.05.17/outbox.cif.g08.bks.cpg/sg2_155_cif.got.tgz:308025.got - 2010.06.03 11:33:40.
