data_PCOD9043427
_publ_section_title
;
Structure prediction by ZEFSAII (Michael W. Deem and Ramdas Pophale) SiO2 
 PCOD9043427
Probable space group: P -1
;
_chemical_formula_sum "Si O2"
_cell_formula_units_Z 14
_cell_length_a 8.693702
_cell_length_b 9.322326
_cell_length_c 16.899350
_cell_angle_alpha 134.369683
_cell_angle_beta 37.154646
_cell_angle_gamma 126.705343
_cell_volume 588.731792
_symmetry_space_group_name_H-M "P -1"
_symmetry_group_IT_number 2
_symmetry_cell_setting 'triclinic'
loop_
_space_group_symop_operation_xyz
x,y,z
-x,-y,-z
loop_
_atom_site_type_symbol
_atom_site_label
_atom_site_fract_x
_atom_site_fract_y
_atom_site_fract_z
Si Si1 0.524059 0.643462 0.678491
Si Si2 0.473796 0.190103 0.505922
Si Si3 0.146175 0.076312 0.841332
Si Si4 0.671619 0.372709 0.826158
Si Si5 0.918431 0.006234 0.627001
Si Si6 0.439735 0.361938 0.742868
Si Si7 0.000867 0.260645 0.133383
O O1 0.526133 0.426016 0.550291
O O2 0.785280 0.789910 0.625056
O O3 0.449235 0.569539 0.770583
O O4 0.293759 0.756341 0.780380
O O5 0.624224 0.048315 0.333802
O O6 0.560947 0.219075 0.573069
O O7 0.174819 0.112123 0.601934
O O8 0.705275 0.162928 0.773018
O O9 0.944662 0.888888 0.874560
O O10 0.158963 0.254942 0.840552
O O11 0.587260 0.367529 0.767404
O O12 0.938039 0.511707 0.776764
O O13 0.500000 0.500000 0.000000
O O14 0.152765 0.192574 0.967533
O O15 0.000000 0.000000 0.500000
#
# Coordination Sequence:
#
# PCOD9043427 Si02
#       7
#     2   2   2   2   2   2   2
#     4  10  25  46  69 108 140 186 235 288 363 412
#     4  10  24  47  72 102 144 183 229 304 345 415
#     4  11  23  43  73 100 139 188 237 285 358 410
#     4  12  24  45  70 105 140 186 239 289 346 434
#     4  12  26  45  75 104 143 189 239 286 351 425
#     4  10  23  45  71 101 146 178 238 292 359 414
#     4  11  24  43  72 104 141 188 234 296 343 427
#
# _framework density 23.779927000000001
#
# number of rings (size 3 to 8) (size 9 to 14) (size 15 to 20)
#    0.857    0.286    2.857    3.000    4.000    2.857 
#    2.571    4.286    0.000    0.000    0.000    0.000 
#    0.000    0.000    0.000    0.000    0.000    0.000 
#
# Total GULP energy -77965.796652 kJ/mol
# GULP energy per Si atom -5568.985475 kJ/mol
# Density = 2.372580 g / cm^3
# Si number density = 23.779927 Si / 1000 Ang^3
#
#
#
# Elastic Constant Matrix: (Units=GPa)
#
#
# Indices 1 2 3 4 5 6 
#
# 1 80.8319 29.8617 36.2153 0.6334 21.4723 6.7195
# 2 29.8617 178.6031 29.6888 -23.5121 14.8797 -2.5960
# 3 36.2153 29.6888 109.7927 -0.0457 20.2461 -1.6955
# 4 0.6334 -23.5121 -0.0457 47.5796 -7.9398 13.2412
# 5 21.4723 14.8797 20.2461 -7.9398 29.6515 -5.7170
# 6 6.7195 -2.5960 -1.6955 13.2412 -5.7170 44.0761
#
#
#
# Elastic Compliance Matrix: (Units=1/GPa)
#
#
# Indices 1 2 3 4 5 6 
#
# 1 0.017795 -0.001802 -0.003437 -0.001889 -0.010873 -0.003794
# 2 -0.001802 0.006548 -0.001103 0.003308 -0.000425 -0.000431
# 3 -0.003437 -0.001103 0.011486 -0.001531 -0.005075 0.000702
# 4 -0.001889 0.003308 -0.001531 0.025522 0.006350 -0.006420
# 5 -0.010873 -0.000425 -0.005075 0.006350 0.048089 0.005767
# 6 -0.003794 -0.000431 0.000702 -0.006420 0.005767 0.025945
#
#
# Mechanical properties :
#
#
# Convention : Reuss Voigt Hill
#
# Bulk Modulus (GPa) = 43.20490 62.30660 52.75575
# Shear Modulus (GPa) = 32.09548 42.49224 37.29386
#
# Velocity S-wave (km/s) = 3.67780 4.23175 3.96446
# Velocity P-wave (km/s) = 6.02022 7.08062 6.57184
#
# Compressibility (1/GPa) = 0.02314552
#
# Stress axis : x y z
#
# Youngs Moduli (GPa) = 56.19417 152.71158 87.06204
#
# Poissons Ratio (x) = 0.27519 0.29923
# Poissons Ratio (y) = 0.10126 0.09604
# Poissons Ratio (z) = 0.19314 0.16847
#
# Static dielectric constant tensor:
#      x y z
#    x 2.024410 0.115190 0.072330 
#    y 0.115190 2.249970 0.094670 
#    z 0.072330 0.094670 2.078880 
# 
# From -- ./inp_files/348574.got.cif
#   From: 2010.05.17/outbox.cif.g08.bks.cpg/sg2_175_cif.got.tgz:348574.got - 2010.06.03 11:33:40.
