data_PCOD9043717
_publ_section_title
;
Structure prediction by ZEFSAII (Michael W. Deem and Ramdas Pophale) SiO2 
 PCOD9043717
Probable space group: P -1
;
_chemical_formula_sum "Si O2"
_cell_formula_units_Z 16
_cell_length_a 10.473118
_cell_length_b 15.635708
_cell_length_c 9.278322
_cell_angle_alpha 51.459792
_cell_angle_beta 140.532461
_cell_angle_gamma 132.161950
_cell_volume 697.916776
_symmetry_space_group_name_H-M "P -1"
_symmetry_group_IT_number 2
_symmetry_cell_setting 'triclinic'
loop_
_space_group_symop_operation_xyz
x,y,z
-x,-y,-z
loop_
_atom_site_type_symbol
_atom_site_label
_atom_site_fract_x
_atom_site_fract_y
_atom_site_fract_z
Si Si1 0.755309 0.166815 0.339392
Si Si2 0.017022 0.876928 0.691187
Si Si3 0.853291 0.680171 0.357950
Si Si4 0.274450 0.404007 0.959613
Si Si5 0.331717 0.609197 0.996028
Si Si6 0.435628 0.260672 0.448998
Si Si7 0.294551 0.526130 0.353840
Si Si8 0.409220 0.950136 0.136036
O O1 0.854322 0.167597 0.265925
O O2 0.704651 0.279975 0.218905
O O3 0.969592 0.187994 0.600592
O O4 0.530442 0.053745 0.247281
O O5 0.773771 0.781989 0.584765
O O6 0.151713 0.901938 0.931896
O O7 0.000000 0.000000 0.500000
O O8 0.883654 0.636500 0.271178
O O9 0.868830 0.592242 0.590407
O O10 0.596914 0.656045 0.172783
O O11 0.222880 0.480742 0.959283
O O12 0.500000 0.500000 0.000000
O O13 0.335801 0.296397 0.183263
O O14 0.244491 0.588008 0.106131
O O15 0.619041 0.378825 0.544025
O O16 0.522483 0.156223 0.641798
O O17 0.500000 0.500000 0.500000
O O18 0.500000 0.000000 0.000000
#
# Coordination Sequence:
#
# PCOD9043717 Si02
#       8
#     2   2   2   2   2   2   2   2
#     4  11  23  37  63  94 129 165 211 264 326 372
#     4  11  22  38  65  96 130 165 207 266 329 373
#     4  10  22  40  62  90 127 174 209 257 322 379
#     4  10  21  43  64  92 130 181 210 254 324 378
#     4  10  21  37  61  93 132 159 212 271 314 380
#     4  12  20  39  66  92 135 167 210 263 317 385
#     4  10  17  33  61  93 124 155 204 260 315 372
#     4  10  22  39  59  97 126 163 213 263 321 378
#
# _framework density 22.925367999999999
#
# number of rings (size 3 to 8) (size 9 to 14) (size 15 to 20)
#    0.000    1.500    6.250    3.000    1.750    1.000 
#    2.250    3.125    0.000    3.750    0.000    0.000 
#    0.000    0.000    0.000    0.000    0.000    0.000 
#
# Total GULP energy -89172.399223 kJ/mol
# GULP energy per Si atom -5573.274951 kJ/mol
# Density = 2.287319 g / cm^3
# Si number density = 22.925368 Si / 1000 Ang^3
#
#
#
# Elastic Constant Matrix: (Units=GPa)
#
#
# Indices 1 2 3 4 5 6 
#
# 1 10.2979 2.4977 13.2595 2.5790 6.4622 -3.0625
# 2 2.4977 114.8705 42.6706 24.2715 10.5882 -11.4174
# 3 13.2595 42.6706 91.6687 -3.6423 4.1907 -18.2644
# 4 2.5790 24.2715 -3.6423 57.6842 -1.4145 0.6922
# 5 6.4622 10.5882 4.1907 -1.4145 30.5785 6.3113
# 6 -3.0625 -11.4174 -18.2644 0.6922 6.3113 15.9171
#
#
#
# Elastic Compliance Matrix: (Units=1/GPa)
#
#
# Indices 1 2 3 4 5 6 
#
# 1 0.167234 0.016574 -0.023205 -0.017488 -0.046250 0.036536
# 2 0.016574 0.014450 -0.007032 -0.007625 -0.009906 0.009744
# 3 -0.023205 -0.007032 0.020126 0.005173 0.002246 0.012469
# 4 -0.017488 -0.007625 0.005173 0.021936 0.008100 -0.007064
# 5 -0.046250 -0.009906 0.002246 0.008100 0.053169 -0.034861
# 6 0.036536 0.009744 0.012469 -0.007064 -0.034861 0.105283
#
#
# Mechanical properties :
#
#
# Convention : Reuss Voigt Hill
#
# Bulk Modulus (GPa) = 5.73124 37.07696 21.40410
# Shear Modulus (GPa) = 10.69089 31.39657 21.04373
#
# Velocity S-wave (km/s) = 2.16182 3.70471 3.03301
# Velocity P-wave (km/s) = 2.95579 5.87434 4.64997
#
# Compressibility (1/GPa) = 0.17448237
#
# Stress axis : x y z
#
# Youngs Moduli (GPa) = 5.97963 69.20388 49.68671
#
# Poissons Ratio (x) = -1.14696 1.15300
# Poissons Ratio (y) = -0.09910 0.34941
# Poissons Ratio (z) = 0.13876 0.48666
#
# Static dielectric constant tensor:
#      x y z
#    x 1.938870 -0.040610 0.022100 
#    y -0.040610 2.092110 -0.020150 
#    z 0.022100 -0.020150 1.988940 
# 
# From -- ./inp_files/271995.got.cif
#   From: 2010.05.17/outbox.cif.g08.bks.cpg/sg2_136_cif.got.tgz:271995.got - 2010.06.03 11:33:40.
