data_PCOD9043587
_publ_section_title
;
Structure prediction by ZEFSAII (Michael W. Deem and Ramdas Pophale) SiO2 
 PCOD9043587
Probable space group: P -1
;
_chemical_formula_sum "Si O2"
_cell_formula_units_Z 16
_cell_length_a 11.314484
_cell_length_b 9.299445
_cell_length_c 9.967611
_cell_angle_alpha 136.123987
_cell_angle_beta 94.446840
_cell_angle_gamma 94.587582
_cell_volume 710.570907
_symmetry_space_group_name_H-M "P -1"
_symmetry_group_IT_number 2
_symmetry_cell_setting 'triclinic'
loop_
_space_group_symop_operation_xyz
x,y,z
-x,-y,-z
loop_
_atom_site_type_symbol
_atom_site_label
_atom_site_fract_x
_atom_site_fract_y
_atom_site_fract_z
Si Si1 0.141271 0.367745 0.487801
Si Si2 0.628966 0.606428 0.878608
Si Si3 0.969070 0.087657 0.763133
Si Si4 0.024162 0.667217 0.814773
Si Si5 0.564962 0.820211 0.447308
Si Si6 0.836025 0.329813 0.712484
Si Si7 0.607429 0.701249 0.645111
Si Si8 0.237491 0.105439 0.697331
O O1 0.138903 0.585543 0.711723
O O2 0.273831 0.358568 0.447462
O O3 0.062118 0.345167 0.329512
O O4 0.077173 0.162386 0.428065
O O5 0.510752 0.418274 0.746026
O O6 0.735471 0.471443 0.808950
O O7 0.632498 0.738883 0.829757
O O8 0.661686 0.777387 0.112952
O O9 0.105202 0.152487 0.757774
O O10 0.876376 0.211891 0.766094
O O11 0.962881 0.132781 0.952503
O O12 0.956797 0.483517 0.781689
O O13 0.574125 0.858128 0.634512
O O14 0.695309 0.835017 0.398722
O O15 0.500000 0.000000 0.500000
O O16 0.788361 0.149147 0.477333
O O17 0.500000 0.500000 0.500000
#
# Coordination Sequence:
#
# PCOD9043587 Si02
#       8
#     2   2   2   2   2   2   2   2
#     4  11  23  42  66  97 133 174 213 265 335 388
#     4  11  24  46  68  95 134 176 220 268 330 388
#     4  12  25  38  67 100 134 170 216 268 331 389
#     4  11  24  41  65  97 136 171 217 266 326 397
#     4  11  24  43  72  97 130 172 226 276 325 385
#     4  12  23  40  65  96 132 171 212 269 324 387
#     4  10  23  45  72  93 132 178 216 273 327 386
#     4  12  24  42  71  95 135 175 219 272 328 390
#
# _framework density 22.517105999999998
#
# number of rings (size 3 to 8) (size 9 to 14) (size 15 to 20)
#    0.000    0.750    5.000    2.250    1.750    0.000 
#    0.000    0.625    2.750    0.000    0.000    0.000 
#    0.000    0.000    0.000    0.000    0.000    0.000 
#
# Total GULP energy -89295.221066 kJ/mol
# GULP energy per Si atom -5580.951317 kJ/mol
# Density = 2.246586 g / cm^3
# Si number density = 22.517106 Si / 1000 Ang^3
#
#
#
# Elastic Constant Matrix: (Units=GPa)
#
#
# Indices 1 2 3 4 5 6 
#
# 1 126.5004 -31.5773 -9.9877 -20.5824 -26.4099 23.2509
# 2 -31.5773 161.9390 59.7847 -18.3736 40.9742 -21.2999
# 3 -9.9877 59.7847 117.3519 11.0729 20.3866 -7.9883
# 4 -20.5824 -18.3736 11.0729 36.9149 9.3291 2.5136
# 5 -26.4099 40.9742 20.3866 9.3291 46.3738 -7.9461
# 6 23.2509 -21.2999 -7.9883 2.5136 -7.9461 34.5672
#
#
#
# Elastic Compliance Matrix: (Units=1/GPa)
#
#
# Indices 1 2 3 4 5 6 
#
# 1 0.011346 0.002238 -0.001809 0.007784 0.002575 -0.006645
# 2 0.002238 0.012575 -0.005530 0.011395 -0.009357 0.001986
# 3 -0.001809 -0.005530 0.011916 -0.007499 0.000329 0.001184
# 4 0.007784 0.011395 -0.007499 0.042762 -0.011935 -0.005801
# 5 0.002575 -0.009357 0.000329 -0.011935 0.033761 0.001207
# 6 -0.006645 0.001986 0.001184 -0.005801 0.001207 0.035595
#
#
# Mechanical properties :
#
#
# Convention : Reuss Voigt Hill
#
# Bulk Modulus (GPa) = 39.00897 49.13675 44.07286
# Shear Modulus (GPa) = 29.99372 49.40928 39.70150
#
# Velocity S-wave (km/s) = 3.65367 4.68942 4.20357
# Velocity P-wave (km/s) = 5.92966 7.15473 6.57081
#
# Compressibility (1/GPa) = 0.02563513
#
# Stress axis : x y z
#
# Youngs Moduli (GPa) = 88.13295 79.52434 83.92260
#
# Poissons Ratio (x) = -0.17796 0.15178
# Poissons Ratio (y) = -0.19723 0.46411
# Poissons Ratio (z) = 0.15940 0.43979
#
# Static dielectric constant tensor:
#      x y z
#    x 1.845480 -0.023100 -0.009650 
#    y -0.023100 1.893370 -0.043990 
#    z -0.009650 -0.043990 1.862900 
# 
# From -- ./inp_files/246089.got.cif
#   From: 2010.05.17/outbox.cif.g08.bks.cpg/sg2_124_cif.got.tgz:246089.got - 2010.06.03 11:33:40.
