data_PCOD9043779
_publ_section_title
;
Structure prediction by ZEFSAII (Michael W. Deem and Ramdas Pophale) SiO2 
 PCOD9043779
Probable space group: P -1
;
_chemical_formula_sum "Si O2"
_cell_formula_units_Z 13
_cell_length_a 11.203485
_cell_length_b 10.587456
_cell_length_c 5.069859
_cell_angle_alpha 101.661986
_cell_angle_beta 98.685736
_cell_angle_gamma 59.365947
_cell_volume 505.936306
_symmetry_space_group_name_H-M "P -1"
_symmetry_group_IT_number 2
_symmetry_cell_setting 'triclinic'
loop_
_space_group_symop_operation_xyz
x,y,z
-x,-y,-z
loop_
_atom_site_type_symbol
_atom_site_label
_atom_site_fract_x
_atom_site_fract_y
_atom_site_fract_z
Si Si1 0.572516 0.323013 0.521679
Si Si2 0.000000 0.000000 0.000000
Si Si3 0.776067 0.554265 0.077184
Si Si4 0.007864 0.368713 0.702619
Si Si5 0.586520 0.837387 0.832163
Si Si6 0.263733 0.709512 0.925050
Si Si7 0.861732 0.823833 0.812521
O O1 0.500000 0.500000 0.500000
O O2 0.490192 0.234829 0.389196
O O3 0.704719 0.253011 0.337608
O O4 0.626110 0.299611 0.827613
O O5 0.866081 0.972365 0.932507
O O6 0.107148 0.823339 0.010226
O O7 0.899672 0.552568 0.287906
O O8 0.721723 0.452958 0.141797
O O9 0.657796 0.717719 0.040376
O O10 0.852156 0.476191 0.792339
O O11 0.040394 0.251109 0.438268
O O12 0.084038 0.277349 0.953785
O O13 0.710706 0.842657 0.716418
O O14 0.500000 0.000000 0.000000
#
# Coordination Sequence:
#
# PCOD9043779 Si02
#       7
#     2   1   2   2   2   2   2
#     4  12  28  50  79 109 154 206 259 299 371 454
#     4  12  28  50  76 114 154 186 256 314 396 434
#     4  10  23  45  75 108 151 190 253 305 379 445
#     4  10  24  44  73 110 141 192 243 309 378 445
#     4  11  26  49  75 110 154 203 252 303 372 451
#     4  12  28  47  79 112 149 202 247 322 369 450
#     4  11  26  46  76 107 149 192 243 313 373 446
#
# _framework density 25.694935000000001
#
# number of rings (size 3 to 8) (size 9 to 14) (size 15 to 20)
#    0.000    0.923    3.077    1.385    4.308   11.692 
#    0.000    4.615    0.000    0.000    0.000    0.000 
#    0.000    0.000    0.000    0.000    0.000    0.000 
#
# Total GULP energy -72589.831501 kJ/mol
# GULP energy per Si atom -5583.833192 kJ/mol
# Density = 2.563645 g / cm^3
# Si number density = 25.694935 Si / 1000 Ang^3
#
#
#
# Elastic Constant Matrix: (Units=GPa)
#
#
# Indices 1 2 3 4 5 6 
#
# 1 140.6289 28.2437 28.1818 15.9700 24.0902 30.3267
# 2 28.2437 118.8183 22.0762 29.2646 15.1562 -12.1369
# 3 28.1818 22.0762 94.9921 10.2546 10.5720 -0.2803
# 4 15.9700 29.2646 10.2546 22.9931 5.4830 9.0559
# 5 24.0902 15.1562 10.5720 5.4830 53.2210 14.8190
# 6 30.3267 -12.1369 -0.2803 9.0559 14.8190 45.6525
#
#
#
# Elastic Compliance Matrix: (Units=1/GPa)
#
#
# Indices 1 2 3 4 5 6 
#
# 1 0.009708 -0.002521 -0.002207 0.000449 -0.001400 -0.006767
# 2 -0.002521 0.016463 -0.000073 -0.022836 -0.004536 0.012053
# 3 -0.002207 -0.000073 0.011875 -0.004427 -0.001705 0.002951
# 4 0.000449 -0.022836 -0.004427 0.082580 0.005512 -0.024567
# 5 -0.001400 -0.004536 -0.001705 0.005512 0.022944 -0.008828
# 6 -0.006767 0.012053 0.002951 -0.024567 -0.008828 0.037361
#
#
# Mechanical properties :
#
#
# Convention : Reuss Voigt Hill
#
# Bulk Modulus (GPa) = 35.15497 56.82698 45.99098
# Shear Modulus (GPa) = 24.99836 42.76915 33.88375
#
# Velocity S-wave (km/s) = 3.12250 4.08425 3.63532
# Velocity P-wave (km/s) = 5.16831 6.66375 5.96309
#
# Compressibility (1/GPa) = 0.02844548
#
# Stress axis : x y z
#
# Youngs Moduli (GPa) = 103.01256 60.74138 84.20976
#
# Poissons Ratio (x) = 0.15312 0.18584
# Poissons Ratio (y) = 0.25968 0.00611
# Poissons Ratio (z) = 0.22733 0.00441
#
# Static dielectric constant tensor:
#      x y z
#    x 2.463750 -0.147350 0.196620 
#    y -0.147350 2.114280 -0.042650 
#    z 0.196620 -0.042650 2.123810 
# 
# From -- ./inp_files/65009.got.cif
#   From: 2010.05.17/outbox.cif.g08.bks.cpg/sg2_33_cif.got.tgz:65009.got - 2010.06.03 11:33:40.
