data_PCOD9043771
_publ_section_title
;
Structure prediction by ZEFSAII (Michael W. Deem and Ramdas Pophale) SiO2 
 PCOD9043771
Probable space group: P -1
;
_chemical_formula_sum "Si O2"
_cell_formula_units_Z 12
_cell_length_a 16.267310
_cell_length_b 11.096833
_cell_length_c 9.092220
_cell_angle_alpha 51.313566
_cell_angle_beta 56.307052
_cell_angle_gamma 23.057552
_cell_volume 500.654719
_symmetry_space_group_name_H-M "P -1"
_symmetry_group_IT_number 2
_symmetry_cell_setting 'triclinic'
loop_
_space_group_symop_operation_xyz
x,y,z
-x,-y,-z
loop_
_atom_site_type_symbol
_atom_site_label
_atom_site_fract_x
_atom_site_fract_y
_atom_site_fract_z
Si Si1 0.834033 0.839894 0.818968
Si Si2 0.450335 0.919791 0.872905
Si Si3 0.084011 0.747664 0.006238
Si Si4 0.328884 0.854557 0.831596
Si Si5 0.443279 0.722308 0.490871
Si Si6 0.812698 0.419483 0.300861
O O1 0.967210 0.813158 0.683495
O O2 0.727004 0.945489 0.689701
O O3 0.000000 0.500000 0.000000
O O4 0.633027 0.107887 0.922321
O O5 0.380566 0.957485 0.753467
O O6 0.338818 0.221876 0.821210
O O7 0.696079 0.605274 0.874308
O O8 0.138907 0.710028 0.811233
O O9 0.000000 0.000000 0.000000
O O10 0.901015 0.873954 0.090273
O O11 0.340256 0.823319 0.669842
O O12 0.500000 0.500000 0.000000
O O13 0.500000 0.500000 0.500000
O O14 0.664479 0.503972 0.467494
#
# Coordination Sequence:
#
# PCOD9043771 Si02
#       6
#     2   2   2   2   2   2
#     4  10  23  45  75 106 141 191 239 296 366 434
#     4  11  23  44  75 105 144 193 243 296 370 433
#     4  12  23  40  75 104 139 193 240 297 366 424
#     4  12  26  46  69 107 152 189 239 306 364 432
#     4  12  27  46  71 110 150 188 249 307 361 437
#     4  11  25  44  76 104 142 196 247 294 366 444
#
# _framework density 23.968616000000001
#
# number of rings (size 3 to 8) (size 9 to 14) (size 15 to 20)
#    0.000    0.667    5.000    2.500    2.333    2.667 
#    0.000    5.833    0.000    0.000    0.000    0.000 
#    0.000    0.000    0.000    0.000    0.000    0.000 
#
# Total GULP energy -67054.794312 kJ/mol
# GULP energy per Si atom -5587.899526 kJ/mol
# Density = 2.391406 g / cm^3
# Si number density = 23.968616 Si / 1000 Ang^3
#
#
#
# Elastic Constant Matrix: (Units=GPa)
#
#
# Indices 1 2 3 4 5 6 
#
# 1 79.6490 36.3466 -3.0146 -4.5200 0.5621 -22.7972
# 2 36.3466 149.1580 32.6898 -0.4145 0.6835 -15.9673
# 3 -3.0146 32.6898 56.3482 -3.7567 20.3312 5.2224
# 4 -4.5200 -0.4145 -3.7567 33.0467 -3.2050 4.5763
# 5 0.5621 0.6835 20.3312 -3.2050 38.9439 18.3354
# 6 -22.7972 -15.9673 5.2224 4.5763 18.3354 52.8017
#
#
#
# Elastic Compliance Matrix: (Units=1/GPa)
#
#
# Indices 1 2 3 4 5 6 
#
# 1 0.017070 -0.004441 0.005153 0.001194 -0.006347 0.007618
# 2 -0.004441 0.009350 -0.006923 -0.001054 0.003148 0.000593
# 3 0.005153 -0.006923 0.027465 0.001894 -0.015351 0.002581
# 4 0.001194 -0.001054 0.001894 0.031503 0.003450 -0.003919
# 5 -0.006347 0.003148 -0.015351 0.003450 0.040980 -0.014799
# 6 0.007618 0.000593 0.002581 -0.003919 -0.014799 0.027630
#
#
# Mechanical properties :
#
#
# Convention : Reuss Voigt Hill
#
# Bulk Modulus (GPa) = 24.11811 46.35543 35.23677
# Shear Modulus (GPa) = 27.74083 39.56734 33.65409
#
# Velocity S-wave (km/s) = 3.40572 4.06741 3.75118
# Velocity P-wave (km/s) = 5.05465 6.43743 5.78748
#
# Compressibility (1/GPa) = 0.04146263
#
# Stress axis : x y z
#
# Youngs Moduli (GPa) = 58.58354 106.95360 36.41059
#
# Poissons Ratio (x) = 0.47499 -0.18764
# Poissons Ratio (y) = 0.26017 0.25207
# Poissons Ratio (z) = -0.30190 0.74044
#
# Static dielectric constant tensor:
#      x y z
#    x 2.008920 0.034000 -0.051830 
#    y 0.034000 1.927580 -0.058390 
#    z -0.051830 -0.058390 1.946320 
# 
# From -- ./inp_files/183693.got.cif
#   From: 2010.05.17/outbox.cif.g08.bks.cpg/sg2_92_cif.got.tgz:183693.got - 2010.06.03 11:33:40.
