data_PCOD9043400
_publ_section_title
;
Structure prediction by ZEFSAII (Michael W. Deem and Ramdas Pophale) SiO2 
 PCOD9043400
Probable space group: P -1
;
_chemical_formula_sum "Si O2"
_cell_formula_units_Z 16
_cell_length_a 15.746598
_cell_length_b 9.643657
_cell_length_c 17.498912
_cell_angle_alpha 39.442367
_cell_angle_beta 153.234896
_cell_angle_gamma 143.068528
_cell_volume 701.994222
_symmetry_space_group_name_H-M "P -1"
_symmetry_group_IT_number 2
_symmetry_cell_setting 'triclinic'
loop_
_space_group_symop_operation_xyz
x,y,z
-x,-y,-z
loop_
_atom_site_type_symbol
_atom_site_label
_atom_site_fract_x
_atom_site_fract_y
_atom_site_fract_z
Si Si1 0.729448 0.972924 0.380348
Si Si2 0.998047 0.234908 0.209727
Si Si3 0.313668 0.076380 0.340446
Si Si4 0.760875 0.393377 0.334336
Si Si5 0.366596 0.309655 0.128142
Si Si6 0.304275 0.786215 0.899855
Si Si7 0.868441 0.851820 0.137848
Si Si8 0.385989 0.505672 0.328003
O O1 0.883515 0.873398 0.588664
O O2 0.515465 0.754016 0.288456
O O3 0.704733 0.152895 0.345561
O O4 0.786904 0.111456 0.287296
O O5 0.158646 0.447544 0.199770
O O6 0.850040 0.303943 0.115055
O O7 0.887760 0.035296 0.143005
O O8 0.267257 0.184077 0.179498
O O9 0.385451 0.290218 0.367501
O O10 0.500000 0.000000 0.500000
O O11 0.100472 0.890252 0.282491
O O12 0.605636 0.353817 0.296079
O O13 0.743193 0.594758 0.180576
O O14 0.000000 0.500000 0.500000
O O15 0.351978 0.564877 0.002996
O O16 0.252936 0.140565 0.038873
O O17 0.500000 0.000000 0.000000
O O18 0.500000 0.500000 0.500000
#
# Coordination Sequence:
#
# PCOD9043400 Si02
#       8
#     2   2   2   2   2   2   2   2
#     4  11  23  44  72 101 137 186 237 283 342 413
#     4  10  23  45  70  99 140 186 235 278 336 419
#     4  11  25  47  72 101 140 182 234 291 338 418
#     4  12  24  44  73 100 136 183 237 289 346 416
#     4  12  27  45  68 104 139 180 231 287 358 413
#     4  12  26  43  66 103 146 181 226 291 348 408
#     4  11  23  45  68 103 137 180 234 280 354 411
#     4   9  22  44  68 101 131 176 233 276 340 399
#
# _framework density 22.792210000000001
#
# number of rings (size 3 to 8) (size 9 to 14) (size 15 to 20)
#    0.000    1.000    2.500    3.375    5.250    2.000 
#    9.000    1.875    0.000    0.000    0.000    0.000 
#    0.000    0.000    0.000    0.000    0.000    0.000 
#
# Total GULP energy -89491.090879 kJ/mol
# GULP energy per Si atom -5593.193180 kJ/mol
# Density = 2.274033 g / cm^3
# Si number density = 22.792210 Si / 1000 Ang^3
#
#
#
# Elastic Constant Matrix: (Units=GPa)
#
#
# Indices 1 2 3 4 5 6 
#
# 1 132.5305 26.8070 30.1205 7.6543 16.3821 -5.7356
# 2 26.8070 83.7288 20.8305 8.3922 17.7930 1.1394
# 3 30.1205 20.8305 69.6370 18.0689 -3.3747 -12.9453
# 4 7.6543 8.3922 18.0689 15.3754 3.2260 -12.7854
# 5 16.3821 17.7930 -3.3747 3.2260 48.5902 6.8212
# 6 -5.7356 1.1394 -12.9453 -12.7854 6.8212 26.9924
#
#
#
# Elastic Compliance Matrix: (Units=1/GPa)
#
#
# Indices 1 2 3 4 5 6 
#
# 1 0.009145 -0.001621 -0.004276 0.004625 -0.003521 0.003041
# 2 -0.001621 0.014798 -0.003042 -0.006657 -0.004000 -0.004570
# 3 -0.004276 -0.003042 0.024507 -0.031134 0.007106 -0.005570
# 4 0.004625 -0.006657 -0.031134 0.166557 -0.022289 0.070857
# 5 -0.003521 -0.004000 0.007106 -0.022289 0.027257 -0.014617
# 6 0.003041 -0.004570 -0.005570 0.070857 -0.014617 0.072472
#
#
# Mechanical properties :
#
#
# Convention : Reuss Voigt Hill
#
# Bulk Modulus (GPa) = 32.70831 49.04580 40.87706
# Shear Modulus (GPa) = 14.58560 32.06746 23.32653
#
# Velocity S-wave (km/s) = 2.53244 3.75500 3.20260
# Velocity P-wave (km/s) = 4.78882 6.35338 5.62576
#
# Compressibility (1/GPa) = 0.03057327
#
# Stress axis : x y z
#
# Youngs Moduli (GPa) = 109.35234 67.57448 40.80479
#
# Poissons Ratio (x) = 0.10953 0.17447
# Poissons Ratio (y) = 0.17724 0.12412
# Poissons Ratio (z) = 0.46757 0.20555
#
# Static dielectric constant tensor:
#      x y z
#    x 1.799410 0.045600 -0.017600 
#    y 0.045600 1.803350 0.014850 
#    z -0.017600 0.014850 1.916550 
# 
# From -- ./inp_files/188465.got.cif
#   From: 2010.05.17/outbox.cif.g08.bks.cpg/sg2_95_cif.got.tgz:188465.got - 2010.06.03 11:33:40.
