data_PCOD9043614
_publ_section_title
;
Structure prediction by ZEFSAII (Michael W. Deem and Ramdas Pophale) SiO2 
 PCOD9043614
Probable space group: P -1
;
_chemical_formula_sum "Si O2"
_cell_formula_units_Z 15
_cell_length_a 17.658683
_cell_length_b 8.600276
_cell_length_c 11.625116
_cell_angle_alpha 54.412614
_cell_angle_beta 147.732480
_cell_angle_gamma 135.910602
_cell_volume 654.276390
_symmetry_space_group_name_H-M "P -1"
_symmetry_group_IT_number 2
_symmetry_cell_setting 'triclinic'
loop_
_space_group_symop_operation_xyz
x,y,z
-x,-y,-z
loop_
_atom_site_type_symbol
_atom_site_label
_atom_site_fract_x
_atom_site_fract_y
_atom_site_fract_z
Si Si1 0.532686 0.896210 0.475057
Si Si2 0.927504 0.159790 0.857520
Si Si3 0.068351 0.368097 0.713371
Si Si4 0.609227 0.246935 0.985802
Si Si5 0.500000 0.500000 0.000000
Si Si6 0.396054 0.448011 0.624698
Si Si7 0.010232 0.131387 0.226830
Si Si8 0.700048 0.032707 0.022716
O O1 0.458770 0.641696 0.526751
O O2 0.430970 0.928619 0.231416
O O3 0.500000 0.000000 0.500000
O O4 0.728941 0.023040 0.649589
O O5 0.008596 0.335676 0.783239
O O6 0.977624 0.226396 0.025599
O O7 0.000000 0.000000 0.000000
O O8 0.000000 0.500000 0.500000
O O9 0.267282 0.528271 0.881291
O O10 0.013962 0.115956 0.713932
O O11 0.474606 0.303124 0.744329
O O12 0.738347 0.206662 0.098901
O O13 0.500000 0.000000 0.000000
O O14 0.461135 0.546480 0.794207
O O15 0.607045 0.771547 0.048149
O O16 0.196971 0.299525 0.434649
O O17 0.866377 0.097049 0.142195
#
# Coordination Sequence:
#
# PCOD9043614 Si02
#       8
#     2   2   2   2   1   2   2   2
#     4  12  25  47  75 109 147 199 249 305 379 437
#     4  10  23  45  73 102 146 197 239 303 363 437
#     4  11  26  48  76 109 152 195 248 310 371 443
#     4  12  27  49  73 112 146 197 252 306 377 450
#     4  12  24  50  76 104 148 196 242 310 372 444
#     4  12  27  48  76 108 151 195 252 311 370 457
#     4  11  26  50  72 110 150 195 250 306 380 440
#     4  12  28  47  76 108 150 196 251 309 375 448
#
# _framework density 22.926089000000001
#
# number of rings (size 3 to 8) (size 9 to 14) (size 15 to 20)
#    0.000    0.533    4.000    3.200    7.467    2.667 
#    2.400    0.000    0.000    0.000    0.000    0.000 
#    0.000    0.000    0.000    0.000    0.000    0.000 
#
# Total GULP energy -83548.070412 kJ/mol
# GULP energy per Si atom -5569.871361 kJ/mol
# Density = 2.287391 g / cm^3
# Si number density = 22.926089 Si / 1000 Ang^3
#
#
#
# Elastic Constant Matrix: (Units=GPa)
#
#
# Indices 1 2 3 4 5 6 
#
# 1 65.2073 36.4728 26.2627 -3.1055 27.0070 7.0931
# 2 36.4728 149.7253 62.3598 -12.0852 11.0296 21.1335
# 3 26.2627 62.3598 119.3279 0.3691 28.1637 22.2271
# 4 -3.1055 -12.0852 0.3691 52.3911 7.5977 -3.4537
# 5 27.0070 11.0296 28.1637 7.5977 42.6904 0.7380
# 6 7.0931 21.1335 22.2271 -3.4537 0.7380 34.9589
#
#
#
# Elastic Compliance Matrix: (Units=1/GPa)
#
#
# Indices 1 2 3 4 5 6 
#
# 1 0.024185 -0.004745 0.001155 0.002392 -0.015224 -0.002215
# 2 -0.004745 0.009878 -0.004488 0.001429 0.003192 -0.002081
# 3 0.001155 -0.004488 0.013565 -0.000243 -0.008373 -0.005993
# 4 0.002392 0.001429 -0.000243 0.020401 -0.005369 0.000934
# 5 -0.015224 0.003192 -0.008373 -0.005369 0.038621 0.005137
# 6 -0.002215 -0.002081 -0.005993 0.000934 0.005137 0.034107
#
#
# Mechanical properties :
#
#
# Convention : Reuss Voigt Hill
#
# Bulk Modulus (GPa) = 31.77464 64.93903 48.35684
# Shear Modulus (GPa) = 29.86808 39.95241 34.91025
#
# Velocity S-wave (km/s) = 3.61335 4.17905 3.90645
# Velocity P-wave (km/s) = 5.59447 7.18838 6.44092
#
# Compressibility (1/GPa) = 0.03147164
#
# Stress axis : x y z
#
# Youngs Moduli (GPa) = 41.34850 101.23499 73.72054
#
# Poissons Ratio (x) = 0.48039 -0.08518
# Poissons Ratio (y) = 0.19621 0.33085
# Poissons Ratio (z) = -0.04777 0.45434
#
# Static dielectric constant tensor:
#      x y z
#    x 2.011240 0.096180 -0.069960 
#    y 0.096180 1.112330 -0.137980 
#    z -0.069960 -0.137980 1.856330 
# 
# From -- ./inp_files/461970.got.cif
#   From: 2010.05.17/outbox.cif.g08.bks.cpg/sg2_231_cif.got.tgz:461970.got - 2010.06.03 11:33:40.
