data_PCOD9043831
_publ_section_title
;
Structure prediction by ZEFSAII (Michael W. Deem and Ramdas Pophale) SiO2 
 PCOD9043831
Probable space group: P -1
;
_chemical_formula_sum "Si O2"
_cell_formula_units_Z 16
_cell_length_a 23.970198
_cell_length_b 5.450059
_cell_length_c 17.313206
_cell_angle_alpha 121.032814
_cell_angle_beta 158.985061
_cell_angle_gamma 58.036859
_cell_volume 686.429212
_symmetry_space_group_name_H-M "P -1"
_symmetry_group_IT_number 2
_symmetry_cell_setting 'triclinic'
loop_
_space_group_symop_operation_xyz
x,y,z
-x,-y,-z
loop_
_atom_site_type_symbol
_atom_site_label
_atom_site_fract_x
_atom_site_fract_y
_atom_site_fract_z
Si Si1 0.408784 0.358345 0.171119
Si Si2 0.571735 0.054953 0.019345
Si Si3 0.224260 0.619904 0.344463
Si Si4 0.011874 0.151275 0.227647
Si Si5 0.259715 0.479720 0.677849
Si Si6 0.974671 0.330342 0.049366
Si Si7 0.091364 0.753272 0.633785
Si Si8 0.233848 0.996042 0.003083
O O1 0.591769 0.385055 0.420585
O O2 0.386893 0.171175 0.033981
O O3 0.326756 0.686921 0.102632
O O4 0.345212 0.205614 0.140620
O O5 0.420293 0.280305 0.827357
O O6 0.720299 0.195683 0.267113
O O7 0.500000 0.000000 0.000000
O O8 0.154600 0.531895 0.158109
O O9 0.148306 0.938657 0.326079
O O10 0.144111 0.429623 0.271703
O O11 0.900465 0.955762 0.095493
O O12 0.103752 0.356003 0.431815
O O13 0.924201 0.337181 0.074333
O O14 0.245925 0.559720 0.763743
O O15 0.000000 0.000000 0.000000
O O16 0.135099 0.925652 0.790807
O O17 0.000000 0.500000 0.500000
O O18 0.000000 0.000000 0.500000
#
# Coordination Sequence:
#
# PCOD9043831 Si02
#       8
#     2   2   2   2   2   2   2   2
#     4  12  27  47  71 103 150 193 232 293 367 420
#     4  11  25  39  62  97 138 189 239 300 334 417
#     4  10  23  45  77 103 135 184 239 296 361 425
#     4  11  24  42  73 103 138 187 242 296 348 430
#     4  11  24  39  62  97 134 182 246 284 342 399
#     4   9  22  44  75 105 134 172 244 302 352 425
#     4  12  25  43  65  91 139 194 237 280 342 403
#     4  12  28  46  66 108 151 189 235 295 357 426
#
# _framework density 23.309031999999998
#
# number of rings (size 3 to 8) (size 9 to 14) (size 15 to 20)
#    0.000    1.000    3.750    1.500   10.500    0.000 
#    0.000    1.250    0.000    0.000    0.000    0.000 
#    0.000    0.000    0.000    0.000    0.000    0.000 
#
# Total GULP energy -89139.695630 kJ/mol
# GULP energy per Si atom -5571.230977 kJ/mol
# Density = 2.325598 g / cm^3
# Si number density = 23.309032 Si / 1000 Ang^3
#
#
#
# Elastic Constant Matrix: (Units=GPa)
#
#
# Indices 1 2 3 4 5 6 
#
# 1 120.9054 24.6994 53.5119 2.6219 7.8490 25.3337
# 2 24.6994 76.9413 45.4496 1.6469 11.3501 19.6725
# 3 53.5119 45.4496 113.8093 11.6972 16.7600 9.4089
# 4 2.6219 1.6469 11.6972 43.2082 -0.2175 10.0224
# 5 7.8490 11.3501 16.7600 -0.2175 36.4632 10.9760
# 6 25.3337 19.6725 9.4089 10.0224 10.9760 45.3514
#
#
#
# Elastic Compliance Matrix: (Units=1/GPa)
#
#
# Indices 1 2 3 4 5 6 
#
# 1 0.012005 0.001185 -0.006086 0.002504 0.001962 -0.006985
# 2 0.001185 0.019303 -0.007901 0.003199 -0.000188 -0.008057
# 3 -0.006086 -0.007901 0.015589 -0.004956 -0.005217 0.005951
# 4 0.002504 0.003199 -0.004956 0.026170 0.003419 -0.008369
# 5 0.001962 -0.000188 -0.005217 0.003419 0.032019 -0.008437
# 6 -0.006985 -0.008057 0.005951 -0.008369 -0.008437 0.032104
#
#
# Mechanical properties :
#
#
# Convention : Reuss Voigt Hill
#
# Bulk Modulus (GPa) = 46.96634 62.10862 54.53748
# Shear Modulus (GPa) = 29.43039 37.53757 33.48398
#
# Velocity S-wave (km/s) = 3.55719 4.01737 3.79426
# Velocity P-wave (km/s) = 6.08807 6.94425 6.53021
#
# Compressibility (1/GPa) = 0.02129184
#
# Stress axis : x y z
#
# Youngs Moduli (GPa) = 83.30057 51.80563 64.14706
#
# Poissons Ratio (x) = -0.06136 0.39042
# Poissons Ratio (y) = -0.09867 0.50680
# Poissons Ratio (z) = 0.50700 0.40930
#
# Static dielectric constant tensor:
#      x y z
#    x 2.185900 0.115660 0.123120 
#    y 0.115660 2.043290 0.003050 
#    z 0.123120 0.003050 1.955350 
# 
# From -- ./inp_files/483824.got.cif
#   From: 2010.05.17/outbox.cif.g08.bks.cpg/sg2_242_cif.got.tgz:483824.got - 2010.06.03 11:33:40.
