data_PCOD9043833
_publ_section_title
;
Structure prediction by ZEFSAII (Michael W. Deem and Ramdas Pophale) SiO2 
 PCOD9043833
Probable space group: P -1
;
_chemical_formula_sum "Si O2"
_cell_formula_units_Z 10
_cell_length_a 10.884278
_cell_length_b 5.865221
_cell_length_c 7.531821
_cell_angle_alpha 63.595051
_cell_angle_beta 61.290849
_cell_angle_gamma 62.764088
_cell_volume 359.030915
_symmetry_space_group_name_H-M "P -1"
_symmetry_group_IT_number 2
_symmetry_cell_setting 'triclinic'
loop_
_space_group_symop_operation_xyz
x,y,z
-x,-y,-z
loop_
_atom_site_type_symbol
_atom_site_label
_atom_site_fract_x
_atom_site_fract_y
_atom_site_fract_z
Si Si1 0.822250 0.812067 0.858791
Si Si2 0.823221 0.571604 0.604574
Si Si3 0.905860 0.201781 0.143487
Si Si4 0.553111 0.672790 0.552541
Si Si5 0.332553 0.764704 0.933763
O O1 0.775911 0.828202 0.680702
O O2 0.980153 0.865991 0.750196
O O3 0.867772 0.512233 0.010180
O O4 0.688341 0.976254 0.020349
O O5 0.731427 0.587223 0.482564
O O6 0.000000 0.500000 0.500000
O O7 0.766866 0.368704 0.833764
O O8 0.750963 0.155730 0.228276
O O9 0.000000 0.000000 0.000000
O O10 0.500000 0.500000 0.500000
O O11 0.489541 0.595625 0.809223
O O12 0.500000 0.000000 0.500000
#
# Coordination Sequence:
#
# PCOD9043833 Si02
#       5
#     2   2   2   2   2
#     4   9  19  35  69 103 148 191 259 306 391 449
#     4  11  27  48  78 115 154 207 266 329 389 478
#     4   8  16  33  62 107 140 191 241 313 377 455
#     4  12  32  53  79 117 163 209 264 328 404 471
#     4  10  23  45  77 105 154 205 261 325 395 469
#
# _framework density 27.852755999999999
#
# number of rings (size 3 to 8) (size 9 to 14) (size 15 to 20)
#    0.000    2.000    0.000    0.600   11.200    9.600 
#    0.000    0.000    0.000    0.000    0.000    0.000 
#    0.000    0.000    0.000    0.000    0.000    0.000 
#
# Total GULP energy -55684.331676 kJ/mol
# GULP energy per Si atom -5568.433168 kJ/mol
# Density = 2.778936 g / cm^3
# Si number density = 27.852756 Si / 1000 Ang^3
#
#
#
# Elastic Constant Matrix: (Units=GPa)
#
#
# Indices 1 2 3 4 5 6 
#
# 1 204.9563 48.9104 43.1752 15.9105 0.3967 19.7432
# 2 48.9104 118.3328 60.0355 25.0757 -9.0676 18.3686
# 3 43.1752 60.0355 126.6405 5.8716 -3.3986 5.8830
# 4 15.9105 25.0757 5.8716 49.5969 2.5894 -5.2636
# 5 0.3967 -9.0676 -3.3986 2.5894 52.7144 16.5889
# 6 19.7432 18.3686 5.8830 -5.2636 16.5889 37.2229
#
#
#
# Elastic Compliance Matrix: (Units=1/GPa)
#
#
# Indices 1 2 3 4 5 6 
#
# 1 0.005775 -0.000842 -0.001335 -0.001627 0.000750 -0.003001
# 2 -0.000842 0.015710 -0.006144 -0.008332 0.005916 -0.010150
# 3 -0.001335 -0.006144 0.010964 0.002630 -0.001416 0.003010
# 4 -0.001627 -0.008332 0.002630 0.026053 -0.005961 0.010899
# 5 0.000750 0.005916 -0.001416 -0.005961 0.024917 -0.015041
# 6 -0.003001 -0.010150 0.003010 0.010899 -0.015041 0.041234
#
#
# Mechanical properties :
#
#
# Convention : Reuss Voigt Hill
#
# Bulk Modulus (GPa) = 63.25825 83.79687 73.52756
# Shear Modulus (GPa) = 34.11451 47.76072 40.93762
#
# Velocity S-wave (km/s) = 3.50353 4.14546 3.83794
# Velocity P-wave (km/s) = 6.25518 7.28451 6.78938
#
# Compressibility (1/GPa) = 0.01580821
#
# Stress axis : x y z
#
# Youngs Moduli (GPa) = 173.15792 63.65274 91.20443
#
# Poissons Ratio (x) = 0.05358 0.12175
# Poissons Ratio (y) = 0.14575 0.56037
# Poissons Ratio (z) = 0.23115 0.39109
#
# Static dielectric constant tensor:
#      x y z
#    x 3.357830 -0.700740 0.223720 
#    y -0.700740 3.108890 -0.284690 
#    z 0.223720 -0.284690 2.293420 
# 
# From -- ./inp_files/229528.got.cif
#   From: 2010.05.17/outbox.cif.g08.bks.cpg/sg2_115_cif.got.tgz:229528.got - 2010.06.03 11:33:40.
