data_PCOD9043322
_publ_section_title
;
Structure prediction by ZEFSAII (Michael W. Deem and Ramdas Pophale) SiO2 
 PCOD9043322
Probable space group: P -1
;
_chemical_formula_sum "Si O2"
_cell_formula_units_Z 12
_cell_length_a 14.055908
_cell_length_b 10.750080
_cell_length_c 18.882321
_cell_angle_alpha 147.938752
_cell_angle_beta 20.432154
_cell_angle_gamma 135.773466
_cell_volume 480.161512
_symmetry_space_group_name_H-M "P -1"
_symmetry_group_IT_number 2
_symmetry_cell_setting 'triclinic'
loop_
_space_group_symop_operation_xyz
x,y,z
-x,-y,-z
loop_
_atom_site_type_symbol
_atom_site_label
_atom_site_fract_x
_atom_site_fract_y
_atom_site_fract_z
Si Si1 0.328311 0.044550 0.345688
Si Si2 0.837573 0.879797 0.236360
Si Si3 0.685131 0.650625 0.367785
Si Si4 0.308048 0.418987 0.431622
Si Si5 0.217557 0.604000 0.436099
Si Si6 0.729032 0.428427 0.891070
O O1 0.440881 0.153786 0.385645
O O2 0.422560 0.137522 0.251758
O O3 0.966517 0.219062 0.679244
O O4 0.376467 0.751528 0.170482
O O5 0.832142 0.773172 0.267593
O O6 0.500000 0.000000 0.500000
O O7 0.932544 0.114705 0.288125
O O8 0.062489 0.626301 0.916012
O O9 0.444500 0.582680 0.460183
O O10 0.378396 0.420097 0.301150
O O11 0.948922 0.528152 0.746306
O O12 0.000000 0.500000 0.500000
O O13 0.453905 0.614098 0.218704
#
# Coordination Sequence:
#
# PCOD9043322 Si02
#       6
#     2   2   2   2   2   2
#     4   9  21  43  68 103 136 182 239 286 347 417
#     4  11  25  45  67 112 145 182 243 289 346 425
#     4  11  23  44  77  99 144 194 231 291 356 420
#     4  10  23  45  70 104 135 191 241 283 361 414
#     4  12  27  45  69 104 145 187 235 295 359 418
#     4   9  23  44  66 102 145 178 239 292 341 423
#
# _framework density 24.991591
#
# number of rings (size 3 to 8) (size 9 to 14) (size 15 to 20)
#    1.000    0.667    1.667    1.500    7.000    1.333 
#    0.000    1.667    0.000    0.000    0.000    0.000 
#    0.000    0.000    0.000    0.000    0.000    0.000 
#
# Total GULP energy -67125.039051 kJ/mol
# GULP energy per Si atom -5593.753254 kJ/mol
# Density = 2.493471 g / cm^3
# Si number density = 24.991591 Si / 1000 Ang^3
#
#
#
# Elastic Constant Matrix: (Units=GPa)
#
#
# Indices 1 2 3 4 5 6 
#
# 1 105.4561 41.3479 22.2731 2.9329 0.0631 28.5547
# 2 41.3479 130.0867 15.8233 13.0604 6.5038 18.8427
# 3 22.2731 15.8233 88.1173 5.6325 -3.4318 11.0468
# 4 2.9329 13.0604 5.6325 40.3079 3.7330 3.4305
# 5 0.0631 6.5038 -3.4318 3.7330 34.8528 -9.6005
# 6 28.5547 18.8427 11.0468 3.4305 -9.6005 50.6749
#
#
#
# Elastic Compliance Matrix: (Units=1/GPa)
#
#
# Indices 1 2 3 4 5 6 
#
# 1 0.012642 -0.002938 -0.002042 0.000951 -0.001408 -0.005917
# 2 -0.002938 0.009313 -0.000620 -0.002364 -0.002065 -0.001903
# 3 -0.002042 -0.000620 0.012233 -0.001390 0.001208 -0.000963
# 4 0.000951 -0.002364 -0.001390 0.026117 -0.002958 -0.001683
# 5 -0.001408 -0.002065 0.001208 -0.002958 0.031576 0.007480
# 6 -0.005917 -0.001903 -0.000963 -0.001683 0.007480 0.025517
#
#
# Mechanical properties :
#
#
# Convention : Reuss Voigt Hill
#
# Bulk Modulus (GPa) = 43.50237 53.61652 48.55944
# Shear Modulus (GPa) = 36.69444 41.44816 39.07130
#
# Velocity S-wave (km/s) = 3.83596 4.07687 3.95825
# Velocity P-wave (km/s) = 6.08802 6.60769 6.35317
#
# Compressibility (1/GPa) = 0.02298725
#
# Stress axis : x y z
#
# Youngs Moduli (GPa) = 79.09834 107.38008 81.74918
#
# Poissons Ratio (x) = 0.31549 0.16692
# Poissons Ratio (y) = 0.23240 0.05072
# Poissons Ratio (z) = 0.16150 0.06662
#
# Static dielectric constant tensor:
#      x y z
#    x 1.985780 -0.003250 -0.065870 
#    y -0.003250 1.953630 0.003050 
#    z -0.065870 0.003050 1.987750 
# 
# From -- ./inp_files/597603.got.cif
#   From: 2010.05.17/outbox.cif.g08.bks.cpg/sg2_299_cif.got.tgz:597603.got - 2010.06.03 11:33:40.
