data_PCOD9043308
_publ_section_title
;
Structure prediction by ZEFSAII (Michael W. Deem and Ramdas Pophale) SiO2 
 PCOD9043308
Probable space group: P -1
;
_chemical_formula_sum "Si O2"
_cell_formula_units_Z 15
_cell_length_a 11.900930
_cell_length_b 11.712921
_cell_length_c 11.784537
_cell_angle_alpha 23.500176
_cell_angle_beta 106.472488
_cell_angle_gamma 115.491677
_cell_volume 562.374693
_symmetry_space_group_name_H-M "P -1"
_symmetry_group_IT_number 2
_symmetry_cell_setting 'triclinic'
loop_
_space_group_symop_operation_xyz
x,y,z
-x,-y,-z
loop_
_atom_site_type_symbol
_atom_site_label
_atom_site_fract_x
_atom_site_fract_y
_atom_site_fract_z
Si Si1 0.975427 0.975735 0.249543
Si Si2 0.428983 0.796997 0.011548
Si Si3 0.425556 0.597449 0.791342
Si Si4 0.000000 0.500000 0.500000
Si Si5 0.671963 0.062953 0.361500
Si Si6 0.946135 0.367004 0.229305
Si Si7 0.696481 0.356531 0.502986
Si Si8 0.321204 0.236995 0.666966
O O1 0.975960 0.766915 0.548188
O O2 0.002627 0.800804 0.308830
O O3 0.834030 0.970315 0.203101
O O4 0.066299 0.347445 0.965372
O O5 0.326815 0.750751 0.921343
O O6 0.574500 0.998223 0.813982
O O7 0.396765 0.023467 0.882758
O O8 0.381012 0.478649 0.360430
O O9 0.373962 0.797805 0.672548
O O10 0.312621 0.492261 0.758797
O O11 0.547778 0.726489 0.622126
O O12 0.500000 0.500000 0.000000
O O13 0.839951 0.376038 0.545873
O O14 0.806189 0.074493 0.427998
O O15 0.000000 0.500000 0.000000
O O16 0.670013 0.567415 0.396758
#
# Coordination Sequence:
#
# PCOD9043308 Si02
#       8
#     2   2   2   1   2   2   2   2
#     4  11  25  44  72 103 148 197 245 307 369 452
#     4  11  24  43  73 105 145 183 244 309 375 444
#     4  10  23  45  70 103 141 190 248 303 365 437
#     4  10  24  50  74 106 150 196 254 304 374 454
#     4  10  24  42  66 103 138 194 240 305 366 436
#     4  12  25  44  70 107 147 195 248 302 378 449
#     4  10  23  45  72 109 142 195 242 309 374 445
#     4  11  23  45  70 107 142 188 241 308 376 443
#
# _framework density 26.672608
#
# number of rings (size 3 to 8) (size 9 to 14) (size 15 to 20)
#    0.000    1.333    0.000    4.400    5.600    0.533 
#    4.800    5.333    0.000    0.000    0.000    0.000 
#    0.000    0.000    0.000    0.000    0.000    0.000 
#
# Total GULP energy -83556.505009 kJ/mol
# GULP energy per Si atom -5570.433667 kJ/mol
# Density = 2.661190 g / cm^3
# Si number density = 26.672608 Si / 1000 Ang^3
#
#
#
# Elastic Constant Matrix: (Units=GPa)
#
#
# Indices 1 2 3 4 5 6 
#
# 1 163.5169 45.0872 8.4503 -0.0210 2.5485 9.0990
# 2 45.0872 130.3415 13.8653 10.2968 -11.7549 -2.9534
# 3 8.4503 13.8653 67.6203 10.2627 10.8120 0.3258
# 4 -0.0210 10.2968 10.2627 43.0233 4.9555 -3.6711
# 5 2.5485 -11.7549 10.8120 4.9555 23.8930 -6.9485
# 6 9.0990 -2.9534 0.3258 -3.6711 -6.9485 53.6251
#
#
#
# Elastic Compliance Matrix: (Units=1/GPa)
#
#
# Indices 1 2 3 4 5 6 
#
# 1 0.007017 -0.002784 0.000018 0.000845 -0.002781 -0.001647
# 2 -0.002784 0.009784 -0.002456 -0.002439 0.007251 0.001799
# 3 0.000018 -0.002456 0.017111 -0.002606 -0.008869 -0.001570
# 4 0.000845 -0.002439 -0.002606 0.025103 -0.005085 0.000798
# 5 -0.002781 0.007251 -0.008869 -0.005085 0.052948 0.007438
# 6 -0.001647 0.001799 -0.001570 0.000798 0.007438 0.020054
#
#
# Mechanical properties :
#
#
# Convention : Reuss Voigt Hill
#
# Bulk Modulus (GPa) = 42.61107 55.14270 48.87689
# Shear Modulus (GPa) = 33.27024 43.71335 38.49179
#
# Velocity S-wave (km/s) = 3.53562 4.05271 3.80296
# Velocity P-wave (km/s) = 5.71645 6.52825 6.13579
#
# Compressibility (1/GPa) = 0.02346808
#
# Stress axis : x y z
#
# Youngs Moduli (GPa) = 142.50258 102.20913 58.44187
#
# Poissons Ratio (x) = 0.28457 -0.00106
# Poissons Ratio (y) = 0.39676 0.14354
# Poissons Ratio (z) = -0.00260 0.25104
#
# Static dielectric constant tensor:
#      x y z
#    x 1.985910 -0.068710 -0.003960 
#    y -0.068710 1.980550 -0.037890 
#    z -0.003960 -0.037890 2.267690 
# 
# From -- ./inp_files/424825.got.cif
#   From: 2010.05.17/outbox.cif.g08.bks.cpg/sg2_213_cif.got.tgz:424825.got - 2010.06.03 11:33:40.
