data_PCOD9043657
_publ_section_title
;
Structure prediction by ZEFSAII (Michael W. Deem and Ramdas Pophale) SiO2 
 PCOD9043657
Probable space group: P -1
;
_chemical_formula_sum "Si O2"
_cell_formula_units_Z 10
_cell_length_a 16.932324
_cell_length_b 5.139152
_cell_length_c 10.991322
_cell_angle_alpha 81.925256
_cell_angle_beta 27.513093
_cell_angle_gamma 68.200153
_cell_volume 368.304180
_symmetry_space_group_name_H-M "P -1"
_symmetry_group_IT_number 2
_symmetry_cell_setting 'triclinic'
loop_
_space_group_symop_operation_xyz
x,y,z
-x,-y,-z
loop_
_atom_site_type_symbol
_atom_site_label
_atom_site_fract_x
_atom_site_fract_y
_atom_site_fract_z
Si Si1 0.775156 0.625874 0.752917
Si Si2 0.814523 0.184920 0.923346
Si Si3 0.935587 0.218976 0.193043
Si Si4 0.419548 0.337416 0.212358
Si Si5 0.281667 0.258975 0.826440
O O1 0.763821 0.626228 0.623118
O O2 0.000000 0.500000 0.500000
O O3 0.500000 0.500000 0.000000
O O4 0.586495 0.971308 0.017835
O O5 0.759767 0.357726 0.858916
O O6 0.707159 0.463342 0.150155
O O7 0.027366 0.988521 0.719793
O O8 0.760372 0.927272 0.002997
O O9 0.697749 0.487180 0.514612
O O10 0.099732 0.322455 0.979445
O O11 0.000000 0.000000 0.000000
O O12 0.500000 0.000000 0.500000
#
# Coordination Sequence:
#
# PCOD9043657 Si02
#       5
#     2   2   2   2   2
#     4  11  25  47  79 111 156 206 265 329 398 474
#     4  10  24  43  77 108 150 205 264 317 396 463
#     4  10  25  46  74 113 162 204 262 323 398 471
#     4  11  26  46  77 116 157 202 264 328 400 471
#     4  10  23  45  73 108 150 209 265 316 392 468
#
# _framework density 27.151471000000001
#
# number of rings (size 3 to 8) (size 9 to 14) (size 15 to 20)
#    1.200    0.400    0.000    3.000    2.800    7.200 
#    0.000    0.000    0.000    0.000    0.000    0.000 
#    0.000    0.000    0.000    0.000    0.000    0.000 
#
# Total GULP energy -55770.785605 kJ/mol
# GULP energy per Si atom -5577.078560 kJ/mol
# Density = 2.708967 g / cm^3
# Si number density = 27.151471 Si / 1000 Ang^3
#
#
#
# Elastic Constant Matrix: (Units=GPa)
#
#
# Indices 1 2 3 4 5 6 
#
# 1 148.3711 29.7497 35.3080 17.0312 -28.0907 5.0442
# 2 29.7497 74.0506 49.5733 35.7798 -2.2527 -8.4297
# 3 35.3080 49.5733 153.6060 34.1280 10.3495 7.6802
# 4 17.0312 35.7798 34.1280 59.5629 8.1341 4.2824
# 5 -28.0907 -2.2527 10.3495 8.1341 41.4381 14.8530
# 6 5.0442 -8.4297 7.6802 4.2824 14.8530 61.6266
#
#
#
# Elastic Compliance Matrix: (Units=1/GPa)
#
#
# Indices 1 2 3 4 5 6 
#
# 1 0.009235 -0.002077 -0.001536 -0.001382 0.007741 -0.002618
# 2 -0.002077 0.023724 -0.004997 -0.011354 0.001783 0.004397
# 3 -0.001536 -0.004997 0.008998 -0.001242 -0.003005 -0.000868
# 4 -0.001382 -0.011354 -0.001242 0.025612 -0.005662 -0.001700
# 5 0.007741 0.001783 -0.003005 -0.005662 0.034154 -0.007853
# 6 -0.002618 0.004397 -0.000868 -0.001700 -0.007853 0.019162
#
#
# Mechanical properties :
#
#
# Convention : Reuss Voigt Hill
#
# Bulk Modulus (GPa) = 40.42299 67.25440 53.83869
# Shear Modulus (GPa) = 34.16490 49.95197 42.05843
#
# Velocity S-wave (km/s) = 3.55111 4.29389 3.94004
# Velocity P-wave (km/s) = 5.63331 7.02902 6.36951
#
# Compressibility (1/GPa) = 0.02473840
#
# Stress axis : x y z
#
# Youngs Moduli (GPa) = 108.28389 42.15055 111.14040
#
# Poissons Ratio (x) = 0.08753 0.17073
# Poissons Ratio (y) = 0.22486 0.55532
# Poissons Ratio (z) = 0.16635 0.21061
#
# Static dielectric constant tensor:
#      x y z
#    x 2.414490 -0.064740 0.276810 
#    y -0.064740 1.932250 0.208400 
#    z 0.276810 0.208400 2.176370 
# 
# From -- ./inp_files/536193.got.cif
#   From: 2010.05.17/outbox.cif.g08.bks.cpg/sg2_269_cif.got.tgz:536193.got - 2010.06.03 11:33:40.
