data_PCOD9043965
_publ_section_title
;
Structure prediction by ZEFSAII (Michael W. Deem and Ramdas Pophale) SiO2 
 PCOD9043965
Probable space group: P -1
;
_chemical_formula_sum "Si O2"
_cell_formula_units_Z 14
_cell_length_a 12.065728
_cell_length_b 22.772264
_cell_length_c 8.274730
_cell_angle_alpha 44.041764
_cell_angle_beta 35.806761
_cell_angle_gamma 26.856462
_cell_volume 600.821595
_symmetry_space_group_name_H-M "P -1"
_symmetry_group_IT_number 2
_symmetry_cell_setting 'triclinic'
loop_
_space_group_symop_operation_xyz
x,y,z
-x,-y,-z
loop_
_atom_site_type_symbol
_atom_site_label
_atom_site_fract_x
_atom_site_fract_y
_atom_site_fract_z
Si Si1 0.288964 0.126762 0.384158
Si Si2 0.760400 0.408161 0.596271
Si Si3 0.660795 0.576527 0.103706
Si Si4 0.823203 0.531108 0.490309
Si Si5 0.740529 0.181353 0.321528
Si Si6 0.853250 0.141012 0.895851
Si Si7 0.367529 0.960205 0.162469
O O1 0.070989 0.263913 0.461469
O O2 0.066124 0.132242 0.567073
O O3 0.500000 0.000000 0.500000
O O4 0.472354 0.108080 0.063754
O O5 0.669920 0.514947 0.371552
O O6 0.511703 0.422407 0.828299
O O7 0.801458 0.439049 0.658661
O O8 0.468098 0.727354 0.049220
O O9 0.981554 0.491491 0.835059
O O10 0.501298 0.675593 0.604984
O O11 0.000000 0.500000 0.500000
O O12 0.605233 0.132825 0.578636
O O13 0.837328 0.168785 0.050125
O O14 0.026627 0.086704 0.279558
O O15 0.000000 0.000000 0.000000
O O16 0.500000 0.000000 0.000000
#
# Coordination Sequence:
#
# PCOD9043965 Si02
#       7
#     2   2   2   2   2   2   2
#     4  11  23  43  70  99 133 180 233 280 352 414
#     4  10  25  44  69  99 137 184 236 290 339 427
#     4  10  23  46  68 100 136 183 237 280 356 410
#     4  12  25  42  68  99 140 186 227 282 352 415
#     4  11  25  44  64 106 139 174 240 280 348 428
#     4  11  23  42  71 101 137 177 233 291 344 419
#     4  11  25  45  72 100 140 182 227 294 355 410
#
# _framework density 23.301424999999998
#
# number of rings (size 3 to 8) (size 9 to 14) (size 15 to 20)
#    0.000    1.143    2.857    2.143    2.000    8.571 
#    0.000    0.000    0.000    0.000    0.000    0.000 
#    0.000    0.000    0.000    0.000    0.000    0.000 
#
# Total GULP energy -78297.443973 kJ/mol
# GULP energy per Si atom -5592.674569 kJ/mol
# Density = 2.324839 g / cm^3
# Si number density = 23.301425 Si / 1000 Ang^3
#
#
#
# Elastic Constant Matrix: (Units=GPa)
#
#
# Indices 1 2 3 4 5 6 
#
# 1 85.6846 32.2637 7.3542 -0.6895 -24.5728 17.7890
# 2 32.2637 177.3687 16.2596 16.1671 -10.7188 12.5898
# 3 7.3542 16.2596 84.4786 8.2442 -17.3483 3.4999
# 4 -0.6895 16.1671 8.2442 44.9905 -5.5024 -0.5865
# 5 -24.5728 -10.7188 -17.3483 -5.5024 34.9116 -10.5725
# 6 17.7890 12.5898 3.4999 -0.5865 -10.5725 28.1048
#
#
#
# Elastic Compliance Matrix: (Units=1/GPa)
#
#
# Indices 1 2 3 4 5 6 
#
# 1 0.016529 -0.002276 0.001106 0.002024 0.010062 -0.005753
# 2 -0.002276 0.006412 -0.000942 -0.002310 -0.000991 -0.001736
# 3 0.001106 -0.000942 0.013495 -0.001224 0.007224 0.000734
# 4 0.002024 -0.002310 -0.001224 0.023891 0.004509 0.002101
# 5 0.010062 -0.000991 0.007224 0.004509 0.042529 0.009268
# 6 -0.005753 -0.001736 0.000734 0.002101 0.009268 0.043439
#
#
# Mechanical properties :
#
#
# Convention : Reuss Voigt Hill
#
# Bulk Modulus (GPa) = 31.04432 51.03188 41.03810
# Shear Modulus (GPa) = 31.00640 41.04501 36.02571
#
# Velocity S-wave (km/s) = 3.65179 4.20155 3.93628
# Velocity P-wave (km/s) = 5.57966 6.74431 6.18944
#
# Compressibility (1/GPa) = 0.03221201
#
# Stress axis : x y z
#
# Youngs Moduli (GPa) = 60.49964 155.95140 74.10131
#
# Poissons Ratio (x) = 0.35497 -0.08197
# Poissons Ratio (y) = 0.13771 0.06982
# Poissons Ratio (z) = -0.06693 0.14694
#
# Static dielectric constant tensor:
#      x y z
#    x 1.937020 0.026270 -0.006470 
#    y 0.026270 1.876250 -0.015620 
#    z -0.006470 -0.015620 1.864380 
# 
# From -- ./inp_files/282830.got.cif
#   From: 2010.05.17/outbox.cif.g08.bks.cpg/sg2_142_cif.got.tgz:282830.got - 2010.06.03 11:33:40.
