data_PCOD9043468
_publ_section_title
;
Structure prediction by ZEFSAII (Michael W. Deem and Ramdas Pophale) SiO2 
 PCOD9043468
Probable space group: P -1
;
_chemical_formula_sum "Si O2"
_cell_formula_units_Z 16
_cell_length_a 14.678689
_cell_length_b 9.870042
_cell_length_c 8.912543
_cell_angle_alpha 38.263270
_cell_angle_beta 79.883907
_cell_angle_gamma 103.351995
_cell_volume 626.786272
_symmetry_space_group_name_H-M "P -1"
_symmetry_group_IT_number 2
_symmetry_cell_setting 'triclinic'
loop_
_space_group_symop_operation_xyz
x,y,z
-x,-y,-z
loop_
_atom_site_type_symbol
_atom_site_label
_atom_site_fract_x
_atom_site_fract_y
_atom_site_fract_z
Si Si1 0.791448 0.766572 0.698547
Si Si2 0.388798 0.126000 0.265884
Si Si3 0.860569 0.749826 0.012365
Si Si4 0.947196 0.622224 0.502946
Si Si5 0.035861 0.664741 0.998808
Si Si6 0.388490 0.705104 0.424348
Si Si7 0.286851 0.466802 0.371220
Si Si8 0.571221 0.721046 0.552847
O O1 0.718513 0.859969 0.710263
O O2 0.849296 0.729478 0.852355
O O3 0.712340 0.511979 0.829569
O O4 0.884132 0.016370 0.346719
O O5 0.407194 0.101610 0.459141
O O6 0.372662 0.897057 0.363247
O O7 0.492686 0.415006 0.912880
O O8 0.922344 0.609360 0.155820
O O9 0.731738 0.597062 0.245186
O O10 0.946575 0.064257 0.763965
O O11 0.838095 0.606775 0.488433
O O12 0.000000 0.500000 0.500000
O O13 0.907489 0.437675 0.825093
O O14 0.000000 0.500000 0.000000
O O15 0.380543 0.716673 0.236283
O O16 0.497328 0.730585 0.437408
O O17 0.316859 0.249774 0.567058
#
# Coordination Sequence:
#
# PCOD9043468 Si02
#       8
#     2   2   2   2   2   2   2   2
#     4  11  22  45  66  99 144 181 232 286 342 407
#     4  10  23  45  71 106 134 185 233 282 349 425
#     4  12  25  44  71  99 147 184 236 290 343 419
#     4  12  28  46  67 104 145 188 233 289 356 413
#     4  12  23  41  70  98 131 188 235 284 342 409
#     4  12  25  43  74 105 137 185 232 285 358 414
#     4  11  26  45  69 104 143 180 230 295 344 410
#     4  10  23  49  73  97 144 179 231 292 348 412
#
# _framework density 25.527042999999999
#
# number of rings (size 3 to 8) (size 9 to 14) (size 15 to 20)
#    0.000    0.750    3.750    3.375    3.500    1.500 
#    4.500    0.000    0.000    0.000    0.000    0.000 
#    0.000    0.000    0.000    0.000    0.000    0.000 
#
# Total GULP energy -89531.026976 kJ/mol
# GULP energy per Si atom -5595.689186 kJ/mol
# Density = 2.546894 g / cm^3
# Si number density = 25.527043 Si / 1000 Ang^3
#
#
#
# Elastic Constant Matrix: (Units=GPa)
#
#
# Indices 1 2 3 4 5 6 
#
# 1 195.4784 88.5780 22.4801 13.3959 -0.7885 4.5756
# 2 88.5780 219.9414 14.9782 -7.0064 15.5630 -3.1004
# 3 22.4801 14.9782 68.1652 4.8358 7.8478 5.6049
# 4 13.3959 -7.0064 4.8358 21.2555 -3.6049 -1.8543
# 5 -0.7885 15.5630 7.8478 -3.6049 22.1857 14.2863
# 6 4.5756 -3.1004 5.6049 -1.8543 14.2863 55.2602
#
#
#
# Elastic Compliance Matrix: (Units=1/GPa)
#
#
# Indices 1 2 3 4 5 6 
#
# 1 0.007104 -0.003162 -0.001557 -0.004748 0.003292 -0.001618
# 2 -0.003162 0.006346 -0.000155 0.003402 -0.005324 0.002124
# 3 -0.001557 -0.000155 0.016215 -0.003827 -0.006287 -0.000027
# 4 -0.004748 0.003402 -0.003827 0.053274 0.006812 0.000999
# 5 0.003292 -0.005324 -0.006287 0.006812 0.062466 -0.015854
# 6 -0.001618 0.002124 -0.000027 0.000999 -0.015854 0.022484
#
#
# Mechanical properties :
#
#
# Convention : Reuss Voigt Hill
#
# Bulk Modulus (GPa) = 50.20683 81.73974 65.97328
# Shear Modulus (GPa) = 27.13321 43.57684 35.35503
#
# Velocity S-wave (km/s) = 3.26378 4.13617 3.72560
# Velocity P-wave (km/s) = 5.82356 7.40951 6.66389
#
# Compressibility (1/GPa) = 0.01991761
#
# Stress axis : x y z
#
# Youngs Moduli (GPa) = 140.76425 157.58709 61.66995
#
# Poissons Ratio (x) = 0.49829 0.09603
# Poissons Ratio (y) = 0.44510 0.00953
# Poissons Ratio (z) = 0.21919 0.02436
#
# Static dielectric constant tensor:
#      x y z
#    x 1.997550 0.003020 -0.071830 
#    y 0.003020 2.084130 0.053750 
#    z -0.071830 0.053750 2.078550 
# 
# From -- ./inp_files/297445.got.cif
#   From: 2010.05.17/outbox.cif.g08.bks.cpg/sg2_149_cif.got.tgz:297445.got - 2010.06.03 11:33:40.
