data_PCOD9043281
_publ_section_title
;
Structure prediction by ZEFSAII (Michael W. Deem and Ramdas Pophale) SiO2 
 PCOD9043281
Probable space group: P -1
;
_chemical_formula_sum "Si O2"
_cell_formula_units_Z 16
_cell_length_a 7.139364
_cell_length_b 20.541233
_cell_length_c 7.794747
_cell_angle_alpha 72.471912
_cell_angle_beta 60.786083
_cell_angle_gamma 47.538579
_cell_volume 735.330760
_symmetry_space_group_name_H-M "P -1"
_symmetry_group_IT_number 2
_symmetry_cell_setting 'triclinic'
loop_
_space_group_symop_operation_xyz
x,y,z
-x,-y,-z
loop_
_atom_site_type_symbol
_atom_site_label
_atom_site_fract_x
_atom_site_fract_y
_atom_site_fract_z
Si Si1 0.311794 0.563253 0.879386
Si Si2 0.714058 0.706482 0.956399
Si Si3 0.385391 0.103084 0.686019
Si Si4 0.488098 0.391990 0.774392
Si Si5 0.410273 0.902081 0.038256
Si Si6 0.294502 0.403908 0.475457
Si Si7 0.790507 0.994471 0.291351
Si Si8 0.134387 0.290429 0.500651
O O1 0.322755 0.495291 0.803687
O O2 0.465208 0.599019 0.714160
O O3 0.992872 0.642670 0.995678
O O4 0.500000 0.500000 0.000000
O O5 0.823355 0.713471 0.719984
O O6 0.573956 0.659958 0.032818
O O7 0.515189 0.803232 0.050870
O O8 0.429258 0.095197 0.877219
O O9 0.654907 0.027578 0.512591
O O10 0.295180 0.195134 0.588472
O O11 0.166510 0.091314 0.726534
O O12 0.376467 0.387093 0.649282
O O13 0.810559 0.347025 0.649793
O O14 0.415568 0.933281 0.820159
O O15 0.085630 0.971128 0.176195
O O16 0.260147 0.335160 0.477494
O O17 0.000000 0.500000 0.500000
#
# Coordination Sequence:
#
# PCOD9043281 Si02
#       8
#     2   2   2   2   2   2   2   2
#     4  12  25  44  68  99 137 188 233 286 348 410
#     4  12  25  45  67 104 140 180 235 291 341 418
#     4  11  23  43  72 100 136 182 225 285 349 420
#     4  12  25  45  68  94 140 184 230 292 343 406
#     4  11  23  44  69 102 139 176 228 287 346 418
#     4  12  23  43  69  94 133 186 230 286 347 406
#     4  10  23  45  70 101 135 179 226 281 360 410
#     4  12  25  45  69 104 139 182 236 286 349 412
#
# _framework density 21.758915999999999
#
# number of rings (size 3 to 8) (size 9 to 14) (size 15 to 20)
#    0.000    0.500    3.750    5.250    1.750    0.000 
#    2.250    1.250    0.000    0.000    0.000    0.000 
#    0.000    0.000    0.000    0.000    0.000    0.000 
#
# Total GULP energy -89474.195954 kJ/mol
# GULP energy per Si atom -5592.137247 kJ/mol
# Density = 2.170939 g / cm^3
# Si number density = 21.758916 Si / 1000 Ang^3
#
#
#
# Elastic Constant Matrix: (Units=GPa)
#
#
# Indices 1 2 3 4 5 6 
#
# 1 71.6689 31.2079 19.1608 -0.8642 4.0995 7.2050
# 2 31.2079 108.1238 13.6590 -10.9762 -2.9687 14.1887
# 3 19.1608 13.6590 69.3692 -12.6273 -14.6713 -10.0336
# 4 -0.8642 -10.9762 -12.6273 30.0062 3.9726 -4.2674
# 5 4.0995 -2.9687 -14.6713 3.9726 36.3321 -6.4508
# 6 7.2050 14.1887 -10.0336 -4.2674 -6.4508 29.3775
#
#
#
# Elastic Compliance Matrix: (Units=1/GPa)
#
#
# Indices 1 2 3 4 5 6 
#
# 1 0.018808 -0.004144 -0.007546 -0.004339 -0.006313 -0.007205
# 2 -0.004144 0.011506 -0.001315 0.002913 -0.000263 -0.004625
# 3 -0.007546 -0.001315 0.022978 0.009472 0.011515 0.014238
# 4 -0.004339 0.002913 0.009472 0.039288 0.001856 0.009006
# 5 -0.006313 -0.000263 0.011515 0.001856 0.035073 0.013579
# 6 -0.007205 -0.004625 0.014238 0.009006 0.013579 0.047194
#
#
# Mechanical properties :
#
#
# Convention : Reuss Voigt Hill
#
# Bulk Modulus (GPa) = 36.65454 41.91303 39.28379
# Shear Modulus (GPa) = 23.81504 31.48543 27.65024
#
# Velocity S-wave (km/s) = 3.31191 3.80809 3.56863
# Velocity P-wave (km/s) = 5.61313 6.21608 5.92229
#
# Compressibility (1/GPa) = 0.02728175
#
# Stress axis : x y z
#
# Youngs Moduli (GPa) = 53.16889 86.90970 43.51980
#
# Poissons Ratio (x) = 0.36011 0.32841
# Poissons Ratio (y) = 0.22031 0.05725
# Poissons Ratio (z) = 0.40123 0.11432
#
# Static dielectric constant tensor:
#      x y z
#    x 1.734850 -0.035840 0.019180 
#    y -0.035840 1.721220 -0.022630 
#    z 0.019180 -0.022630 1.906970 
# 
# From -- ./inp_files/135381.got.cif
#   From: 2010.05.17/outbox.cif.g08.bks.cpg/sg2_68_cif.got.tgz:135381.got - 2010.06.03 11:33:40.
