data_PCOD9043238
_publ_section_title
;
Structure prediction by ZEFSAII (Michael W. Deem and Ramdas Pophale) SiO2 
 PCOD9043238
Probable space group: P -1
;
_chemical_formula_sum "Si O2"
_cell_formula_units_Z 13
_cell_length_a 11.366363
_cell_length_b 9.874864
_cell_length_c 5.277132
_cell_angle_alpha 88.795019
_cell_angle_beta 103.613795
_cell_angle_gamma 121.847610
_cell_volume 485.172844
_symmetry_space_group_name_H-M "P -1"
_symmetry_group_IT_number 2
_symmetry_cell_setting 'triclinic'
loop_
_space_group_symop_operation_xyz
x,y,z
-x,-y,-z
loop_
_atom_site_type_symbol
_atom_site_label
_atom_site_fract_x
_atom_site_fract_y
_atom_site_fract_z
Si Si1 0.171338 0.572805 0.105664
Si Si2 0.170695 0.927854 0.930199
Si Si3 0.564089 0.890727 0.600128
Si Si4 0.850841 0.329794 0.413070
Si Si5 0.776298 0.826755 0.410904
Si Si6 0.370991 0.517027 0.531168
Si Si7 0.000000 0.000000 0.000000
O O1 0.211450 0.706771 0.337493
O O2 0.248931 0.490267 0.268060
O O3 0.230102 0.640338 0.856018
O O4 0.000000 0.500000 0.000000
O O5 0.135904 0.808223 0.693238
O O6 0.147537 0.070665 0.812641
O O7 0.044721 0.861068 0.069271
O O8 0.325911 0.016289 0.119625
O O9 0.654733 0.867747 0.421950
O O10 0.453585 0.705673 0.633282
O O11 0.500000 0.000000 0.500000
O O12 0.000000 0.500000 0.500000
O O13 0.711746 0.640195 0.326927
O O14 0.876738 0.884235 0.704107
O O15 0.500000 0.500000 0.500000
#
# Coordination Sequence:
#
# PCOD9043238 Si02
#       7
#     2   2   2   2   2   2   1
#     4  10  23  46  71 107 140 191 251 305 371 443
#     4  11  24  43  70 103 140 192 245 308 372 449
#     4  10  23  45  69  97 141 187 246 305 363 441
#     4  10  24  42  72 107 145 188 247 309 373 444
#     4  10  24  43  66 103 140 188 239 298 380 442
#     4  10  23  47  70 103 149 194 244 307 375 448
#     4  10  24  42  66 100 144 184 234 310 368 444
#
# _framework density 26.794577
#
# number of rings (size 3 to 8) (size 9 to 14) (size 15 to 20)
#    0.000    1.846    0.000    1.385   10.769    2.462 
#   13.846    0.000    0.000    0.000    0.000    0.000 
#    0.000    0.000    0.000    0.000    0.000    0.000 
#
# Total GULP energy -72368.632744 kJ/mol
# GULP energy per Si atom -5566.817903 kJ/mol
# Density = 2.673359 g / cm^3
# Si number density = 26.794577 Si / 1000 Ang^3
#
#
#
# Elastic Constant Matrix: (Units=GPa)
#
#
# Indices 1 2 3 4 5 6 
#
# 1 156.4114 70.9877 62.8841 4.4801 26.3687 -17.2984
# 2 70.9877 208.2174 60.7372 8.5275 14.7300 -10.5855
# 3 62.8841 60.7372 151.1281 16.3487 3.6271 -13.7109
# 4 4.4801 8.5275 16.3487 41.9810 -10.1587 1.2931
# 5 26.3687 14.7300 3.6271 -10.1587 47.4519 -10.7705
# 6 -17.2984 -10.5855 -13.7109 1.2931 -10.7705 47.5863
#
#
#
# Elastic Compliance Matrix: (Units=1/GPa)
#
#
# Indices 1 2 3 4 5 6 
#
# 1 0.009259 -0.001963 -0.002796 -0.000546 -0.004168 0.001195
# 2 -0.001963 0.005992 -0.001504 -0.000611 -0.000779 0.000026
# 3 -0.002796 -0.001504 0.008774 -0.002584 0.001139 0.001505
# 4 -0.000546 -0.000611 -0.002584 0.026542 0.006287 -0.000377
# 5 -0.004168 -0.000779 0.001139 0.006287 0.025872 0.004325
# 6 0.001195 0.000026 0.001505 -0.000377 0.004325 0.022877
#
#
# Mechanical properties :
#
#
# Convention : Reuss Voigt Hill
#
# Bulk Modulus (GPa) = 86.97315 100.55277 93.76296
# Shear Modulus (GPa) = 43.22429 48.81372 46.01900
#
# Velocity S-wave (km/s) = 4.02079 4.27286 4.14874
# Velocity P-wave (km/s) = 7.35428 7.87095 7.61699
#
# Compressibility (1/GPa) = 0.01149780
#
# Stress axis : x y z
#
# Youngs Moduli (GPa) = 108.00391 166.88358 113.97825
#
# Poissons Ratio (x) = 0.32760 0.31871
# Poissons Ratio (y) = 0.21202 0.17144
# Poissons Ratio (z) = 0.30200 0.25102
#
# Static dielectric constant tensor:
#      x y z
#    x 2.353930 -0.073310 -0.114800 
#    y -0.073310 2.081560 -0.028960 
#    z -0.114800 -0.028960 2.172970 
# 
# From -- ./inp_files/60847.got.cif
#   From: 2010.05.17/outbox.cif.g08.bks.cpg/sg2_31_cif.got.tgz:60847.got - 2010.06.03 11:33:40.
