data_PCOD9043439
_publ_section_title
;
Structure prediction by ZEFSAII (Michael W. Deem and Ramdas Pophale) SiO2 
 PCOD9043439
Probable space group: P -1
;
_chemical_formula_sum "Si O2"
_cell_formula_units_Z 15
_cell_length_a 9.730517
_cell_length_b 12.068375
_cell_length_c 8.904419
_cell_angle_alpha 87.679347
_cell_angle_beta 139.086598
_cell_angle_gamma 87.253744
_cell_volume 679.316294
_symmetry_space_group_name_H-M "P -1"
_symmetry_group_IT_number 2
_symmetry_cell_setting 'triclinic'
loop_
_space_group_symop_operation_xyz
x,y,z
-x,-y,-z
loop_
_atom_site_type_symbol
_atom_site_label
_atom_site_fract_x
_atom_site_fract_y
_atom_site_fract_z
Si Si1 0.159330 0.154406 0.756675
Si Si2 0.000000 0.500000 0.500000
Si Si3 0.919035 0.476662 0.103042
Si Si4 0.066903 0.953400 0.894948
Si Si5 0.181986 0.251236 0.328623
Si Si6 0.244497 0.700184 0.705060
Si Si7 0.632918 0.691178 0.839789
Si Si8 0.512770 0.186968 0.842845
O O1 0.359060 0.117209 0.816968
O O2 0.975940 0.222314 0.503697
O O3 0.239029 0.241457 0.937686
O O4 0.073685 0.052877 0.776671
O O5 0.962234 0.482788 0.654067
O O6 0.813258 0.423558 0.310930
O O7 0.977095 0.343035 0.164201
O O8 0.000000 0.500000 0.000000
O O9 0.699727 0.558207 0.919813
O O10 0.900673 0.868362 0.721855
O O11 0.303625 0.887412 0.090836
O O12 0.000000 0.000000 0.000000
O O13 0.298566 0.268180 0.267278
O O14 0.352426 0.262629 0.598559
O O15 0.388150 0.714535 0.677413
O O16 0.377280 0.740328 0.950144
#
# Coordination Sequence:
#
# PCOD9043439 Si02
#       8
#     2   1   2   2   2   2   2   2
#     4  11  23  48  70 104 146 185 243 297 357 433
#     4  12  22  46  72 100 144 186 246 292 360 438
#     4  10  23  45  71 102 148 188 235 305 356 438
#     4  12  26  44  76 105 143 192 241 307 360 429
#     4  11  25  47  70 110 146 186 246 302 360 438
#     4  11  26  46  74 107 143 193 237 303 361 441
#     4  10  23  46  72 104 145 190 240 290 371 430
#     4  11  26  46  72 108 142 191 241 298 369 435
#
# _framework density 22.081026000000001
#
# number of rings (size 3 to 8) (size 9 to 14) (size 15 to 20)
#    0.000    1.067    2.667    2.800    3.733    5.333 
#    7.200    1.333    0.000    0.000    0.000    0.000 
#    0.000    0.000    0.000    0.000    0.000    0.000 
#
# Total GULP energy -83541.453862 kJ/mol
# GULP energy per Si atom -5569.430257 kJ/mol
# Density = 2.203077 g / cm^3
# Si number density = 22.081026 Si / 1000 Ang^3
#
#
#
# Elastic Constant Matrix: (Units=GPa)
#
#
# Indices 1 2 3 4 5 6 
#
# 1 168.9264 34.1593 50.8881 7.8924 0.0451 2.5213
# 2 34.1593 57.9306 22.7626 3.5855 6.8150 18.5026
# 3 50.8881 22.7626 96.8596 4.6033 -4.0664 17.3476
# 4 7.8924 3.5855 4.6033 26.6552 -0.0733 1.9862
# 5 0.0451 6.8150 -4.0664 -0.0733 40.8738 -0.2671
# 6 2.5213 18.5026 17.3476 1.9862 -0.2671 32.7513
#
#
#
# Elastic Compliance Matrix: (Units=1/GPa)
#
#
# Indices 1 2 3 4 5 6 
#
# 1 0.007959 -0.004442 -0.003768 -0.001404 0.000380 0.003981
# 2 -0.004442 0.025195 -0.001377 -0.000869 -0.004420 -0.013146
# 3 -0.003768 -0.001377 0.013835 -0.000621 0.001568 -0.006210
# 4 -0.001404 -0.000869 -0.000621 0.038260 0.000144 -0.001391
# 5 0.000380 -0.004420 0.001568 0.000144 0.025370 0.001835
# 6 0.003981 -0.013146 -0.006210 -0.001391 0.001835 0.041042
#
#
# Mechanical properties :
#
#
# Convention : Reuss Voigt Hill
#
# Bulk Modulus (GPa) = 35.95203 59.92628 47.93916
# Shear Modulus (GPa) = 27.76135 34.44983 31.10559
#
# Velocity S-wave (km/s) = 3.54962 3.95417 3.75734
# Velocity P-wave (km/s) = 5.75473 6.93148 6.37034
#
# Compressibility (1/GPa) = 0.02781484
#
# Stress axis : x y z
#
# Youngs Moduli (GPa) = 125.64234 39.69078 72.28063
#
# Poissons Ratio (x) = 0.17630 0.27235
# Poissons Ratio (y) = 0.55809 0.09954
# Poissons Ratio (z) = 0.47341 0.05466
#
# Static dielectric constant tensor:
#      x y z
#    x 1.859450 0.004890 -0.029480 
#    y 0.004890 1.805070 -0.022980 
#    z -0.029480 -0.022980 1.762040 
# 
# From -- ./inp_files/116946.got.cif
#   From: 2010.05.17/outbox.cif.g08.bks.cpg/sg2_59_cif.got.tgz:116946.got - 2010.06.03 11:33:40.
