data_PCOD9043515
_publ_section_title
;
Structure prediction by ZEFSAII (Michael W. Deem and Ramdas Pophale) SiO2 
 PCOD9043515
Probable space group: P -1
;
_chemical_formula_sum "Si O2"
_cell_formula_units_Z 13
_cell_length_a 8.731702
_cell_length_b 9.397983
_cell_length_c 15.075091
_cell_angle_alpha 35.336188
_cell_angle_beta 124.909487
_cell_angle_gamma 124.317069
_cell_volume 574.359068
_symmetry_space_group_name_H-M "P -1"
_symmetry_group_IT_number 2
_symmetry_cell_setting 'triclinic'
loop_
_space_group_symop_operation_xyz
x,y,z
-x,-y,-z
loop_
_atom_site_type_symbol
_atom_site_label
_atom_site_fract_x
_atom_site_fract_y
_atom_site_fract_z
Si Si1 0.821461 0.069557 0.957268
Si Si2 0.269898 0.491470 0.419421
Si Si3 0.000000 0.000000 0.500000
Si Si4 0.516589 0.232614 0.100509
Si Si5 0.708285 0.764021 0.675009
Si Si6 0.359805 0.870427 0.392363
Si Si7 0.809232 0.299546 0.019249
O O1 0.774358 0.322199 0.768295
O O2 0.841017 0.109605 0.048958
O O3 0.645889 0.850240 0.984342
O O4 0.000000 0.000000 0.000000
O O5 0.500000 0.500000 0.500000
O O6 0.228173 0.632425 0.423906
O O7 0.134701 0.224092 0.493856
O O8 0.880452 0.865640 0.614386
O O9 0.474006 0.036748 0.266349
O O10 0.500000 0.500000 0.000000
O O11 0.710359 0.216124 0.122447
O O12 0.515417 0.791110 0.547893
O O13 0.681326 0.478471 0.841538
O O14 0.739306 0.942359 0.680446
O O15 0.000000 0.500000 0.000000
#
# Coordination Sequence:
#
# PCOD9043515 Si02
#       7
#     2   2   1   2   2   2   2
#     4  11  25  45  69 106 148 184 241 303 357 442
#     4  11  23  46  75 102 146 186 243 298 360 427
#     4  12  24  42  76 102 136 192 238 290 364 418
#     4  11  23  43  73  99 139 191 234 288 373 420
#     4  11  24  43  69 103 138 183 240 293 350 432
#     4  10  23  45  71  99 141 181 239 298 351 426
#     4  12  25  43  68 104 144 187 239 295 359 439
#
# _framework density 22.633925000000001
#
# number of rings (size 3 to 8) (size 9 to 14) (size 15 to 20)
#    0.000    0.923    4.615    1.385    4.308    1.846 
#    0.000    1.538    0.000    0.000    0.000    0.000 
#    0.000    0.000    0.000    0.000    0.000    0.000 
#
# Total GULP energy -72381.339509 kJ/mol
# GULP energy per Si atom -5567.795347 kJ/mol
# Density = 2.258241 g / cm^3
# Si number density = 22.633925 Si / 1000 Ang^3
#
#
#
# Elastic Constant Matrix: (Units=GPa)
#
#
# Indices 1 2 3 4 5 6 
#
# 1 107.0620 34.9684 14.4475 -2.2639 -19.5315 -26.8937
# 2 34.9684 197.8150 4.4915 -13.2816 -3.4526 -25.6625
# 3 14.4475 4.4915 65.8798 -5.0701 2.8259 -8.7129
# 4 -2.2639 -13.2816 -5.0701 29.1484 -0.5948 -8.0970
# 5 -19.5315 -3.4526 2.8259 -0.5948 33.4941 5.7901
# 6 -26.8937 -25.6625 -8.7129 -8.0970 5.7901 50.9418
#
#
#
# Elastic Compliance Matrix: (Units=1/GPa)
#
#
# Indices 1 2 3 4 5 6 
#
# 1 0.012559 -0.001287 -0.002147 0.001572 0.006514 0.005124
# 2 -0.001287 0.005885 0.000578 0.003506 -0.000652 0.003015
# 3 -0.002147 0.000578 0.016407 0.003692 -0.003011 0.002893
# 4 0.001572 0.003506 0.003692 0.039301 0.000027 0.009471
# 5 0.006514 -0.000652 -0.003011 0.000027 0.034062 -0.001271
# 6 0.005124 0.003015 0.002893 0.009471 -0.001271 0.025999
#
#
# Mechanical properties :
#
#
# Convention : Reuss Voigt Hill
#
# Bulk Modulus (GPa) = 34.32099 53.17464 43.74781
# Shear Modulus (GPa) = 33.41381 43.84017 38.62699
#
# Velocity S-wave (km/s) = 3.84640 4.40582 4.13558
# Velocity P-wave (km/s) = 5.90955 7.03037 6.49418
#
# Compressibility (1/GPa) = 0.02913669
#
# Stress axis : x y z
#
# Youngs Moduli (GPa) = 79.62124 169.92697 60.95112
#
# Poissons Ratio (x) = 0.21877 0.13088
# Poissons Ratio (y) = 0.10251 -0.03521
# Poissons Ratio (z) = 0.17097 -0.09816
#
# Static dielectric constant tensor:
#      x y z
#    x 2.019550 -0.033020 0.086920 
#    y -0.033020 1.862790 0.032480 
#    z 0.086920 0.032480 1.910200 
# 
# From -- ./inp_files/436255.got.cif
#   From: 2010.05.17/outbox.cif.g08.bks.cpg/sg2_219_cif.got.tgz:436255.got - 2010.06.03 11:33:40.
