data_PCOD9043213
_publ_section_title
;
Structure prediction by ZEFSAII (Michael W. Deem and Ramdas Pophale) SiO2 
 PCOD9043213
Probable space group: P -1
;
_chemical_formula_sum "Si O2"
_cell_formula_units_Z 16
_cell_length_a 15.465094
_cell_length_b 11.820905
_cell_length_c 5.269478
_cell_angle_alpha 66.219551
_cell_angle_beta 96.749227
_cell_angle_gamma 132.858356
_cell_volume 628.305777
_symmetry_space_group_name_H-M "P -1"
_symmetry_group_IT_number 2
_symmetry_cell_setting 'triclinic'
loop_
_space_group_symop_operation_xyz
x,y,z
-x,-y,-z
loop_
_atom_site_type_symbol
_atom_site_label
_atom_site_fract_x
_atom_site_fract_y
_atom_site_fract_z
Si Si1 0.681305 0.551767 0.544216
Si Si2 0.652819 0.310608 0.390247
Si Si3 0.727869 0.826978 0.610975
Si Si4 0.726360 0.150289 0.840109
Si Si5 0.127160 0.416934 0.114477
Si Si6 0.865876 0.217182 0.315482
Si Si7 0.462343 0.218142 0.079988
Si Si8 0.935016 0.886758 0.834334
O O1 0.656268 0.454977 0.363330
O O2 0.697843 0.713784 0.456561
O O3 0.801776 0.600654 0.646490
O O4 0.566258 0.397457 0.814037
O O5 0.665736 0.223113 0.695583
O O6 0.768631 0.410332 0.158120
O O7 0.530341 0.181460 0.304948
O O8 0.614034 0.771718 0.766198
O O9 0.799295 0.804864 0.842207
O O10 0.820357 0.031392 0.417691
O O11 0.808778 0.199022 0.580338
O O12 0.625648 0.942139 0.996957
O O13 0.806305 0.228097 0.047710
O O14 0.068342 0.263513 0.032169
O O15 0.011275 0.369594 0.233355
O O16 0.000000 0.000000 0.500000
O O17 0.000000 0.000000 0.000000
#
# Coordination Sequence:
#
# PCOD9043213 Si02
#       8
#     2   2   2   2   2   2   2   2
#     4  10  24  44  70 102 141 186 228 292 353 423
#     4  11  26  46  70 101 139 190 238 290 352 411
#     4  10  23  45  69 109 142 178 233 287 355 421
#     4  11  28  47  74 102 138 187 243 295 348 409
#     4  10  25  42  67 103 142 183 232 284 358 415
#     4  11  26  46  73 106 140 187 234 292 350 419
#     4  10  24  46  69 103 137 184 239 293 348 415
#     4  11  24  40  70 102 143 185 220 281 345 427
#
# _framework density 25.465309999999999
#
# number of rings (size 3 to 8) (size 9 to 14) (size 15 to 20)
#    0.000    1.500    1.250    0.750   15.750    2.000 
#    9.000    0.000    0.000    0.000    0.000    0.000 
#    0.000    0.000    0.000    0.000    0.000    0.000 
#
# Total GULP energy -89665.109072 kJ/mol
# GULP energy per Si atom -5604.069317 kJ/mol
# Density = 2.540735 g / cm^3
# Si number density = 25.465310 Si / 1000 Ang^3
#
#
#
# Elastic Constant Matrix: (Units=GPa)
#
#
# Indices 1 2 3 4 5 6 
#
# 1 100.2939 50.3419 40.2082 -15.4195 -20.5920 6.9118
# 2 50.3419 104.0420 21.4683 14.0441 -23.2822 -11.9412
# 3 40.2082 21.4683 80.0835 10.8721 -18.8789 1.6159
# 4 -15.4195 14.0441 10.8721 32.2223 -1.1379 2.8838
# 5 -20.5920 -23.2822 -18.8789 -1.1379 29.9859 -8.7009
# 6 6.9118 -11.9412 1.6159 2.8838 -8.7009 49.8799
#
#
#
# Elastic Compliance Matrix: (Units=1/GPa)
#
#
# Indices 1 2 3 4 5 6 
#
# 1 0.026621 -0.015298 -0.013272 0.024560 -0.003625 -0.008974
# 2 -0.015298 0.022621 0.007477 -0.020181 0.014172 0.010932
# 3 -0.013272 0.007477 0.022116 -0.017191 0.011687 0.005945
# 4 0.024560 -0.020181 -0.017191 0.058151 -0.011190 -0.012992
# 5 -0.003625 0.014172 0.011687 -0.011190 0.052671 0.013351
# 6 -0.008974 0.010932 0.005945 -0.012992 0.013351 0.026796
#
#
# Mechanical properties :
#
#
# Convention : Reuss Voigt Hill
#
# Bulk Modulus (GPa) = 34.28231 56.49512 45.38872
# Shear Modulus (GPa) = 19.16543 33.91102 26.53823
#
# Velocity S-wave (km/s) = 2.74635 3.65314 3.23171
# Velocity P-wave (km/s) = 4.85264 6.32671 5.63806
#
# Compressibility (1/GPa) = 0.02916956
#
# Stress axis : x y z
#
# Youngs Moduli (GPa) = 37.56490 44.20636 45.21711
#
# Poissons Ratio (x) = 0.67629 0.60014
# Poissons Ratio (y) = 0.57468 -0.33809
# Poissons Ratio (z) = 0.49857 -0.33053
#
# Static dielectric constant tensor:
#      x y z
#    x 2.028200 -0.030420 0.014800 
#    y -0.030420 2.014330 -0.018480 
#    z 0.014800 -0.018480 2.001870 
# 
# From -- ./inp_files/94650.got.cif
#   From: 2010.05.17/outbox.cif.g08.bks.cpg/sg2_48_cif.got.tgz:94650.got - 2010.06.03 11:33:40.
