data_PCOD9043298
_publ_section_title
;
Structure prediction by ZEFSAII (Michael W. Deem and Ramdas Pophale) SiO2 
 PCOD9043298
Probable space group: P -1
;
_chemical_formula_sum "Si O2"
_cell_formula_units_Z 14
_cell_length_a 8.683098
_cell_length_b 17.214742
_cell_length_c 11.807623
_cell_angle_alpha 34.211249
_cell_angle_beta 50.591222
_cell_angle_gamma 33.759953
_cell_volume 543.569834
_symmetry_space_group_name_H-M "P -1"
_symmetry_group_IT_number 2
_symmetry_cell_setting 'triclinic'
loop_
_space_group_symop_operation_xyz
x,y,z
-x,-y,-z
loop_
_atom_site_type_symbol
_atom_site_label
_atom_site_fract_x
_atom_site_fract_y
_atom_site_fract_z
Si Si1 0.792495 0.505795 0.659251
Si Si2 0.613914 0.230806 0.040493
Si Si3 0.634181 0.332671 0.543263
Si Si4 0.773511 0.946774 0.482093
Si Si5 0.840816 0.928503 0.017860
Si Si6 0.660012 0.881351 0.837784
Si Si7 0.726111 0.504183 0.926077
O O1 0.549559 0.588534 0.581513
O O2 0.705910 0.612115 0.693148
O O3 0.000000 0.500000 0.500000
O O4 0.969757 0.280594 0.881666
O O5 0.491140 0.167941 0.100598
O O6 0.354538 0.427993 0.986703
O O7 0.755693 0.104740 0.242996
O O8 0.879988 0.161309 0.932240
O O9 0.500000 0.500000 0.500000
O O10 0.693089 0.143919 0.784056
O O11 0.935230 0.251111 0.465997
O O12 0.757261 0.948139 0.622095
O O13 0.500000 0.000000 0.500000
O O14 0.583540 0.965493 0.144600
O O15 0.945392 0.684677 0.989998
O O16 0.500000 0.500000 0.000000
#
# Coordination Sequence:
#
# PCOD9043298 Si02
#       7
#     2   2   2   2   2   2   2
#     4  12  29  48  72 108 152 193 245 297 366 438
#     4  10  23  45  70 102 143 187 239 299 365 421
#     4  11  27  48  80 107 144 195 244 300 370 431
#     4   9  22  42  67 109 139 178 236 297 359 421
#     4  11  26  48  75 110 145 189 246 306 363 431
#     4  11  24  41  75 103 139 191 239 300 364 422
#     4  12  25  46  67 103 146 192 239 295 355 442
#
# _framework density 25.755659999999999
#
# number of rings (size 3 to 8) (size 9 to 14) (size 15 to 20)
#    0.000    1.143    1.429    2.571   10.000    5.714 
#    0.000    2.143    0.000    0.000    0.000    0.000 
#    0.000    0.000    0.000    0.000    0.000    0.000 
#
# Total GULP energy -77953.181747 kJ/mol
# GULP energy per Si atom -5568.084411 kJ/mol
# Density = 2.569704 g / cm^3
# Si number density = 25.755660 Si / 1000 Ang^3
#
#
#
# Elastic Constant Matrix: (Units=GPa)
#
#
# Indices 1 2 3 4 5 6 
#
# 1 -119.3084 32.1868 -51.4232 -32.9923 -5.3644 -2.1528
# 2 32.1868 179.6932 31.4124 4.3355 7.8639 -34.5226
# 3 -51.4232 31.4124 79.5162 -11.3453 5.6900 4.4900
# 4 -32.9923 4.3355 -11.3453 39.0144 -3.2925 -9.1401
# 5 -5.3644 7.8639 5.6900 -3.2925 29.6054 2.2857
# 6 -2.1528 -34.5226 4.4900 -9.1401 2.2857 43.5528
#
#
#
# Elastic Compliance Matrix: (Units=1/GPa)
#
#
# Indices 1 2 3 4 5 6 
#
# 1 -0.004512 0.001875 -0.004363 -0.005228 -0.001111 0.000674
# 2 0.001875 0.006633 -0.001397 0.001711 -0.001421 0.005928
# 3 -0.004363 -0.001397 0.010435 -0.001297 -0.002373 -0.002546
# 4 -0.005228 0.001711 -0.001297 0.022079 0.000853 0.005820
# 5 -0.001111 -0.001421 -0.002373 0.000853 0.034704 -0.002579
# 6 0.000674 0.005928 -0.002546 0.005820 -0.002579 0.029312
#
#
# Mechanical properties :
#
#
# Convention : Reuss Voigt Hill
#
# Bulk Modulus (GPa) = 208.89644 18.25035 113.57339
# Shear Modulus (GPa) = 46.28947 30.94951 38.61949
#
# Velocity S-wave (km/s) = 4.24400 3.47026 3.87648
# Velocity P-wave (km/s) = 10.26151 4.81230 8.01426
#
# Compressibility (1/GPa) = 0.00478706
#
# Stress axis : x y z
#
# Youngs Moduli (GPa) = -221.64488 150.75820 95.83373
#
# Poissons Ratio (x) = -0.28269 0.41813
# Poissons Ratio (y) = 0.41561 0.13384
# Poissons Ratio (z) = -0.96705 0.21055
#
# Static dielectric constant tensor:
#      x y z
#    x 2.126710 0.110580 -0.123480 
#    y 0.110580 2.276240 0.038650 
#    z -0.123480 0.038650 2.327850 
# 
# From -- ./inp_files/402808.got.cif
#   From: 2010.05.17/outbox.cif.g08.bks.cpg/sg2_202_cif.got.tgz:402808.got - 2010.06.03 11:33:40.
