data_PCOD9043472
_publ_section_title
;
Structure prediction by ZEFSAII (Michael W. Deem and Ramdas Pophale) SiO2 
 PCOD9043472
Probable space group: P -1
;
_chemical_formula_sum "Si O2"
_cell_formula_units_Z 16
_cell_length_a 10.800563
_cell_length_b 8.904600
_cell_length_c 14.260513
_cell_angle_alpha 63.955037
_cell_angle_beta 42.065549
_cell_angle_gamma 47.549955
_cell_volume 672.657532
_symmetry_space_group_name_H-M "P -1"
_symmetry_group_IT_number 2
_symmetry_cell_setting 'triclinic'
loop_
_space_group_symop_operation_xyz
x,y,z
-x,-y,-z
loop_
_atom_site_type_symbol
_atom_site_label
_atom_site_fract_x
_atom_site_fract_y
_atom_site_fract_z
Si Si1 0.728082 0.025938 0.114180
Si Si2 0.369404 0.949455 0.306238
Si Si3 0.414597 0.363258 0.558322
Si Si4 0.160055 0.798831 0.157667
Si Si5 0.529594 0.787379 0.065140
Si Si6 0.968791 0.782060 0.445132
Si Si7 0.971337 0.420182 0.837954
Si Si8 0.613854 0.673018 0.630359
O O1 0.511226 0.045477 0.184954
O O2 0.882697 0.798444 0.131549
O O3 0.604100 0.201916 0.214445
O O4 0.867666 0.060037 0.951932
O O5 0.468683 0.815936 0.381289
O O6 0.424017 0.817167 0.219501
O O7 0.111312 0.115304 0.435726
O O8 0.500000 0.500000 0.500000
O O9 0.464601 0.295888 0.441033
O O10 0.146128 0.468461 0.691196
O O11 0.397907 0.733548 0.083899
O O12 0.139103 0.623354 0.175273
O O13 0.991623 0.897698 0.313947
O O14 0.789541 0.598826 0.959439
O O15 0.500000 0.000000 0.000000
O O16 0.773675 0.751940 0.533614
O O17 0.211783 0.565656 0.376834
#
# Coordination Sequence:
#
# PCOD9043472 Si02
#       8
#     2   2   2   2   2   2   2   2
#     4  10  24  45  75 105 150 188 247 299 369 442
#     4  10  25  49  66 107 147 194 244 302 358 444
#     4  11  26  46  73 103 148 196 248 300 367 436
#     4  12  25  46  76 114 142 198 244 307 364 440
#     4  12  28  48  74 105 155 191 245 305 365 438
#     4  10  24  42  76 101 147 189 247 302 366 422
#     4  11  27  48  73 109 147 195 246 302 368 440
#     4  10  23  45  71 106 144 192 240 307 360 436
#
# _framework density 23.786248000000001
#
# number of rings (size 3 to 8) (size 9 to 14) (size 15 to 20)
#    0.000    1.250    2.500    0.750    8.750    5.000 
#    2.250    0.000    0.000    0.000    0.000    0.000 
#    0.000    0.000    0.000    0.000    0.000    0.000 
#
# Total GULP energy -89501.930443 kJ/mol
# GULP energy per Si atom -5593.870653 kJ/mol
# Density = 2.373211 g / cm^3
# Si number density = 23.786248 Si / 1000 Ang^3
#
#
#
# Elastic Constant Matrix: (Units=GPa)
#
#
# Indices 1 2 3 4 5 6 
#
# 1 101.4834 45.6601 51.0401 1.2974 12.8011 11.3556
# 2 45.6601 90.4777 69.8612 17.5877 -6.3236 0.5145
# 3 51.0401 69.8612 152.8179 12.2562 8.5670 -4.2859
# 4 1.2974 17.5877 12.2562 50.6403 8.6808 -6.7801
# 5 12.8011 -6.3236 8.5670 8.6808 45.1789 -10.3200
# 6 11.3556 0.5145 -4.2859 -6.7801 -10.3200 33.1667
#
#
#
# Elastic Compliance Matrix: (Units=1/GPa)
#
#
# Indices 1 2 3 4 5 6 
#
# 1 0.015973 -0.007716 -0.001834 0.003023 -0.007508 -0.007304
# 2 -0.007716 0.022898 -0.007747 -0.007043 0.008804 0.002585
# 3 -0.001834 -0.007747 0.010817 0.000739 -0.002404 0.001549
# 4 0.003023 -0.007043 0.000739 0.023237 -0.005977 0.002060
# 5 -0.007508 0.008804 -0.002404 -0.005977 0.029393 0.010047
# 6 -0.007304 0.002585 0.001549 0.002060 0.010047 0.036359
#
#
# Mechanical properties :
#
#
# Convention : Reuss Voigt Hill
#
# Bulk Modulus (GPa) = 66.25075 75.32242 70.78658
# Shear Modulus (GPa) = 28.04232 37.67838 32.86035
#
# Velocity S-wave (km/s) = 3.43728 3.98432 3.72087
# Velocity P-wave (km/s) = 6.60804 7.27334 6.94866
#
# Compressibility (1/GPa) = 0.01509417
#
# Stress axis : x y z
#
# Youngs Moduli (GPa) = 62.60371 43.67284 92.44884
#
# Poissons Ratio (x) = 0.33697 0.16957
# Poissons Ratio (y) = 0.48303 0.71619
# Poissons Ratio (z) = 0.11483 0.33833
#
# Static dielectric constant tensor:
#      x y z
#    x 1.949490 -0.010330 -0.010660 
#    y -0.010330 1.942810 0.002300 
#    z -0.010660 0.002300 1.911460 
# 
# From -- ./inp_files/515304.got.cif
#   From: 2010.05.17/outbox.cif.g08.bks.cpg/sg2_258_cif.got.tgz:515304.got - 2010.06.03 11:33:40.
