data_PCOD9043641
_publ_section_title
;
Structure prediction by ZEFSAII (Michael W. Deem and Ramdas Pophale) SiO2 
 PCOD9043641
Probable space group: P -1
;
_chemical_formula_sum "Si O2"
_cell_formula_units_Z 12
_cell_length_a 12.415835
_cell_length_b 8.496809
_cell_length_c 9.749791
_cell_angle_alpha 103.787243
_cell_angle_beta 50.987385
_cell_angle_gamma 138.620443
_cell_volume 470.283062
_symmetry_space_group_name_H-M "P -1"
_symmetry_group_IT_number 2
_symmetry_cell_setting 'triclinic'
loop_
_space_group_symop_operation_xyz
x,y,z
-x,-y,-z
loop_
_atom_site_type_symbol
_atom_site_label
_atom_site_fract_x
_atom_site_fract_y
_atom_site_fract_z
Si Si1 0.089614 0.262640 0.453822
Si Si2 0.382848 0.037100 0.185236
Si Si3 0.554824 0.398615 0.528374
Si Si4 0.619107 0.165785 0.296235
Si Si5 0.236427 0.357706 0.050092
Si Si6 0.871847 0.088042 0.067564
O O1 0.321592 0.482958 0.400014
O O2 0.139027 0.328426 0.266879
O O3 0.000000 0.000000 0.500000
O O4 0.889611 0.195202 0.653641
O O5 0.437797 0.044116 0.300484
O O6 0.512335 0.326387 0.100971
O O7 0.500000 0.000000 0.000000
O O8 0.500000 0.500000 0.500000
O O9 0.718829 0.429763 0.320130
O O10 0.301770 0.107220 0.707111
O O11 0.500000 0.000000 0.500000
O O12 0.786606 0.184715 0.108817
O O13 0.183906 0.114546 0.031250
O O14 0.106431 0.300491 0.007439
#
# Coordination Sequence:
#
# PCOD9043641 Si02
#       6
#     2   2   2   2   2   2
#     4  12  27  46  79 112 152 203 252 316 387 454
#     4  12  30  49  74 117 158 199 255 316 388 459
#     4  11  23  45  76 106 150 197 253 315 380 455
#     4  10  23  45  73 105 149 198 253 306 376 445
#     4  11  26  48  78 109 157 198 260 311 384 454
#     4  10  23  45  74 108 145 203 251 314 372 452
#
# _framework density 25.516548
#
# number of rings (size 3 to 8) (size 9 to 14) (size 15 to 20)
#    0.000    1.000    0.000    6.000    9.333    4.000 
#    0.000    2.500    0.000    0.000    0.000    0.000 
#    0.000    0.000    0.000    0.000    0.000    0.000 
#
# Total GULP energy -67062.683476 kJ/mol
# GULP energy per Si atom -5588.556956 kJ/mol
# Density = 2.545847 g / cm^3
# Si number density = 25.516548 Si / 1000 Ang^3
#
#
#
# Elastic Constant Matrix: (Units=GPa)
#
#
# Indices 1 2 3 4 5 6 
#
# 1 99.6999 32.9260 35.0749 16.4970 -11.1877 3.5984
# 2 32.9260 63.9580 29.3262 17.9154 -5.1932 9.4792
# 3 35.0749 29.3262 139.2203 16.0516 3.4212 4.7951
# 4 16.4970 17.9154 16.0516 45.8521 -9.1443 -8.3421
# 5 -11.1877 -5.1932 3.4212 -9.1443 53.6281 11.7837
# 6 3.5984 9.4792 4.7951 -8.3421 11.7837 35.7727
#
#
#
# Elastic Compliance Matrix: (Units=1/GPa)
#
#
# Indices 1 2 3 4 5 6 
#
# 1 0.012949 -0.004933 -0.002050 -0.001722 0.002251 -0.000863
# 2 -0.004933 0.022549 -0.002468 -0.007174 0.001711 -0.007385
# 3 -0.002050 -0.002468 0.008441 -0.001570 -0.001437 -0.000164
# 4 -0.001722 -0.007174 -0.001570 0.027647 0.001985 0.008078
# 5 0.002251 0.001711 -0.001437 0.001985 0.021256 -0.007026
# 6 -0.000863 -0.007385 -0.000164 0.008078 -0.007026 0.034218
#
#
# Mechanical properties :
#
#
# Convention : Reuss Voigt Hill
#
# Bulk Modulus (GPa) = 39.94007 55.28138 47.61073
# Shear Modulus (GPa) = 32.40252 40.75401 36.57826
#
# Velocity S-wave (km/s) = 3.56738 4.00078 3.79028
# Velocity P-wave (km/s) = 5.71444 6.56153 6.15258
#
# Compressibility (1/GPa) = 0.02503751
#
# Stress axis : x y z
#
# Youngs Moduli (GPa) = 77.22467 44.34717 118.46760
#
# Poissons Ratio (x) = 0.21877 0.24289
# Poissons Ratio (y) = 0.38096 0.29233
# Poissons Ratio (z) = 0.15833 0.10943
#
# Static dielectric constant tensor:
#      x y z
#    x 1.978480 -0.157810 -0.037600 
#    y -0.157810 2.146740 0.045770 
#    z -0.037600 0.045770 2.014690 
# 
# From -- ./inp_files/244480.got.cif
#   From: 2010.05.17/outbox.cif.g08.bks.cpg/sg2_123_cif.got.tgz:244480.got - 2010.06.03 11:33:40.
