data_PCOD9043331
_publ_section_title
;
Structure prediction by ZEFSAII (Michael W. Deem and Ramdas Pophale) SiO2 
 PCOD9043331
Probable space group: P -1
;
_chemical_formula_sum "Si O2"
_cell_formula_units_Z 14
_cell_length_a 11.778702
_cell_length_b 15.346482
_cell_length_c 8.706956
_cell_angle_alpha 62.961529
_cell_angle_beta 128.562832
_cell_angle_gamma 152.385977
_cell_volume 549.276693
_symmetry_space_group_name_H-M "P -1"
_symmetry_group_IT_number 2
_symmetry_cell_setting 'triclinic'
loop_
_space_group_symop_operation_xyz
x,y,z
-x,-y,-z
loop_
_atom_site_type_symbol
_atom_site_label
_atom_site_fract_x
_atom_site_fract_y
_atom_site_fract_z
Si Si1 0.703404 0.087515 0.465837
Si Si2 0.835187 0.709665 0.064890
Si Si3 0.207391 0.991891 0.613739
Si Si4 0.135350 0.039889 0.832790
Si Si5 0.961985 0.532826 0.606729
Si Si6 0.244195 0.526028 0.004253
Si Si7 0.282530 0.457109 0.415006
O O1 0.557040 0.921321 0.365760
O O2 0.971053 0.192533 0.699314
O O3 0.779730 0.238221 0.344119
O O4 0.500000 0.000000 0.500000
O O5 0.500000 0.500000 0.000000
O O6 0.878737 0.643301 0.041282
O O7 0.954547 0.873505 0.939638
O O8 0.249980 0.039748 0.788187
O O9 0.989796 0.771990 0.603746
O O10 0.066554 0.000488 0.397122
O O11 0.431483 0.263900 0.959349
O O12 0.699171 0.455447 0.494993
O O13 0.000000 0.500000 0.500000
O O14 0.038626 0.495831 0.822291
O O15 0.270576 0.521453 0.209537
O O16 0.500000 0.500000 0.500000
#
# Coordination Sequence:
#
# PCOD9043331 Si02
#       7
#     2   2   2   2   2   2   2
#     4  11  25  48  70 102 151 200 251 311 383 456
#     4  12  27  45  75 109 152 198 254 321 380 456
#     4  10  23  45  70 105 144 194 250 312 371 457
#     4  11  24  45  73 109 145 196 250 308 382 451
#     4  11  25  45  69 105 149 198 252 305 384 453
#     4  12  24  45  72 109 148 195 255 311 379 452
#     4  11  23  45  75 106 149 194 251 313 381 456
#
# _framework density 25.488064999999999
#
# number of rings (size 3 to 8) (size 9 to 14) (size 15 to 20)
#    0.000    0.857    4.286    2.143    2.000    4.571 
#    2.571    2.143    0.000    0.000    0.000    0.000 
#    0.000    0.000    0.000    0.000    0.000    0.000 
#
# Total GULP energy -78128.528129 kJ/mol
# GULP energy per Si atom -5580.609152 kJ/mol
# Density = 2.543005 g / cm^3
# Si number density = 25.488065 Si / 1000 Ang^3
#
#
#
# Elastic Constant Matrix: (Units=GPa)
#
#
# Indices 1 2 3 4 5 6 
#
# 1 182.3365 13.5661 31.8638 -7.4566 -12.9898 -25.6795
# 2 13.5661 143.3195 61.7986 -28.5983 6.2344 -1.7956
# 3 31.8638 61.7986 100.2345 -31.1158 1.7764 11.2210
# 4 -7.4566 -28.5983 -31.1158 39.1473 -3.5803 1.1828
# 5 -12.9898 6.2344 1.7764 -3.5803 33.4659 4.5944
# 6 -25.6795 -1.7956 11.2210 1.1828 4.5944 35.4896
#
#
#
# Elastic Compliance Matrix: (Units=1/GPa)
#
#
# Indices 1 2 3 4 5 6 
#
# 1 0.007030 0.000721 -0.003746 -0.001128 0.001834 0.006108
# 2 0.000721 0.010093 -0.005977 0.002538 -0.001426 0.003023
# 3 -0.003746 -0.005977 0.019181 0.010554 0.001084 -0.009570
# 4 -0.001128 0.002538 0.010554 0.036031 0.003157 -0.005634
# 5 0.001834 -0.001426 0.001084 0.003157 0.031590 -0.003283
# 6 0.006108 0.003023 -0.009570 -0.005634 -0.003283 0.036388
#
#
# Mechanical properties :
#
#
# Convention : Reuss Voigt Hill
#
# Bulk Modulus (GPa) = 54.64452 71.14971 62.89711
# Shear Modulus (GPa) = 30.41048 42.86470 36.63759
#
# Velocity S-wave (km/s) = 3.45791 4.10537 3.79547
# Velocity P-wave (km/s) = 6.11790 7.10265 6.62859
#
# Compressibility (1/GPa) = 0.01830010
#
# Stress axis : x y z
#
# Youngs Moduli (GPa) = 142.24623 99.08056 52.13473
#
# Poissons Ratio (x) = -0.07149 0.19530
# Poissons Ratio (y) = -0.10263 0.31162
# Poissons Ratio (z) = 0.53288 0.59223
#
# Static dielectric constant tensor:
#      x y z
#    x 2.494250 0.231560 0.084140 
#    y 0.231560 2.099700 0.086850 
#    z 0.084140 0.086850 1.907000 
# 
# From -- ./inp_files/272240.got.cif
#   From: 2010.05.17/outbox.cif.g08.bks.cpg/sg2_137_cif.got.tgz:272240.got - 2010.06.03 11:33:40.
