data_PCOD9043922
_publ_section_title
;
Structure prediction by ZEFSAII (Michael W. Deem and Ramdas Pophale) SiO2 
 PCOD9043922
Probable space group: P -1
;
_chemical_formula_sum "Si O2"
_cell_formula_units_Z 16
_cell_length_a 9.916100
_cell_length_b 5.364119
_cell_length_c 12.743311
_cell_angle_alpha 84.162895
_cell_angle_beta 79.068303
_cell_angle_gamma 69.194275
_cell_volume 621.696500
_symmetry_space_group_name_H-M "P -1"
_symmetry_group_IT_number 2
_symmetry_cell_setting 'triclinic'
loop_
_space_group_symop_operation_xyz
x,y,z
-x,-y,-z
loop_
_atom_site_type_symbol
_atom_site_label
_atom_site_fract_x
_atom_site_fract_y
_atom_site_fract_z
Si Si1 0.820154 0.783422 0.453632
Si Si2 0.625728 0.760126 0.895256
Si Si3 0.073523 0.275118 0.910476
Si Si4 0.736834 0.586651 0.671411
Si Si5 0.562905 0.290398 0.405877
Si Si6 0.679685 0.195132 0.017147
Si Si7 0.047133 0.907961 0.270473
Si Si8 0.814540 0.439368 0.271506
O O1 0.841555 0.667525 0.571979
O O2 0.940651 0.890919 0.382932
O O3 0.817253 0.562130 0.379930
O O4 0.663702 0.016698 0.455674
O O5 0.721551 0.720348 0.779739
O O6 0.673354 0.488104 0.969764
O O7 0.643939 0.015102 0.938313
O O8 0.459139 0.785426 0.890186
O O9 0.979441 0.238680 0.825693
O O10 0.199686 0.357018 0.829134
O O11 0.000000 0.500000 0.000000
O O12 0.161556 0.983491 0.957172
O O13 0.579965 0.691598 0.637212
O O14 0.796241 0.269475 0.700287
O O15 0.500000 0.500000 0.500000
O O16 0.676705 0.345306 0.305093
O O17 0.972890 0.215120 0.239033
#
# Coordination Sequence:
#
# PCOD9043922 Si02
#       8
#     2   2   2   2   2   2   2   2
#     4  10  23  46  66  99 139 180 230 282 355 426
#     4  10  25  43  70 105 140 181 241 292 372 419
#     4  11  25  43  75  95 136 189 238 292 352 424
#     4  12  24  42  72 101 138 181 230 299 345 430
#     4  11  24  43  68 103 136 183 232 285 353 427
#     4  10  24  47  66 102 144 184 233 305 356 429
#     4  10  25  45  65 103 136 182 235 280 364 423
#     4  10  24  44  67 100 138 177 237 282 350 435
#
# _framework density 25.73603
#
# number of rings (size 3 to 8) (size 9 to 14) (size 15 to 20)
#    0.000    1.500    1.250    1.500    8.750    4.000 
#    4.500    0.000    0.000    0.000    0.000    0.000 
#    0.000    0.000    0.000    0.000    0.000    0.000 
#
# Total GULP energy -89533.159773 kJ/mol
# GULP energy per Si atom -5595.822486 kJ/mol
# Density = 2.567745 g / cm^3
# Si number density = 25.736030 Si / 1000 Ang^3
#
#
#
# Elastic Constant Matrix: (Units=GPa)
#
#
# Indices 1 2 3 4 5 6 
#
# 1 68.6468 12.8330 17.4681 -8.3072 -5.6734 -20.0121
# 2 12.8330 136.9656 28.4634 4.2311 7.9935 -19.2450
# 3 17.4681 28.4634 131.8904 12.0785 -15.9953 -0.0128
# 4 -8.3072 4.2311 12.0785 41.5869 -0.0584 -0.8375
# 5 -5.6734 7.9935 -15.9953 -0.0584 26.8885 -3.5395
# 6 -20.0121 -19.2450 -0.0128 -0.8375 -3.5395 44.4205
#
#
#
# Elastic Compliance Matrix: (Units=1/GPa)
#
#
# Indices 1 2 3 4 5 6 
#
# 1 0.018620 -0.000415 -0.002337 0.004619 0.003804 0.008598
# 2 -0.000415 0.008449 -0.002165 -0.000254 -0.003468 0.003191
# 3 -0.002337 -0.002165 0.009293 -0.002970 0.005460 -0.001609
# 4 0.004619 -0.000254 -0.002970 0.025906 -0.000341 0.002431
# 5 0.003804 -0.003468 0.005460 -0.000341 0.042747 0.003612
# 6 0.008598 0.003191 -0.001609 0.002431 0.003612 0.028101
#
#
# Mechanical properties :
#
#
# Convention : Reuss Voigt Hill
#
# Bulk Modulus (GPa) = 37.69990 50.55909 44.12950
# Shear Modulus (GPa) = 32.93958 41.16175 37.05067
#
# Velocity S-wave (km/s) = 3.58145 4.00357 3.79838
# Velocity P-wave (km/s) = 5.63763 6.40775 6.03499
#
# Compressibility (1/GPa) = 0.02652527
#
# Stress axis : x y z
#
# Youngs Moduli (GPa) = 53.70711 118.36187 107.60806
#
# Poissons Ratio (x) = 0.04917 0.25151
# Poissons Ratio (y) = 0.02231 0.23300
# Poissons Ratio (z) = 0.12553 0.25628
#
# Static dielectric constant tensor:
#      x y z
#    x 2.099340 0.010570 -0.026390 
#    y 0.010570 2.063700 0.005140 
#    z -0.026390 0.005140 1.998110 
# 
# From -- ./inp_files/364861.got.cif
#   From: 2010.05.17/outbox.cif.g08.bks.cpg/sg2_183_cif.got.tgz:364861.got - 2010.06.03 11:33:40.
