data_PCOD9043932
_publ_section_title
;
Structure prediction by ZEFSAII (Michael W. Deem and Ramdas Pophale) SiO2 
 PCOD9043932
Probable space group: P -1
;
_chemical_formula_sum "Si O2"
_cell_formula_units_Z 15
_cell_length_a 15.961472
_cell_length_b 10.706565
_cell_length_c 8.108514
_cell_angle_alpha 97.012235
_cell_angle_beta 53.120458
_cell_angle_gamma 136.550022
_cell_volume 626.280666
_symmetry_space_group_name_H-M "P -1"
_symmetry_group_IT_number 2
_symmetry_cell_setting 'triclinic'
loop_
_space_group_symop_operation_xyz
x,y,z
-x,-y,-z
loop_
_atom_site_type_symbol
_atom_site_label
_atom_site_fract_x
_atom_site_fract_y
_atom_site_fract_z
Si Si1 0.752059 0.491316 0.656207
Si Si2 0.075182 0.707536 0.492513
Si Si3 0.845240 0.850600 0.518520
Si Si4 0.000000 0.000000 0.000000
Si Si5 0.421593 0.792067 0.480912
Si Si6 0.585303 0.817175 0.773287
Si Si7 0.958722 0.597531 0.988657
Si Si8 0.715172 0.902941 0.260355
O O1 0.959661 0.680802 0.502969
O O2 0.752367 0.621967 0.578052
O O3 0.679348 0.307367 0.594035
O O4 0.619335 0.370979 0.950693
O O5 0.013291 0.661851 0.745813
O O6 0.000000 0.500000 0.500000
O O7 0.290784 0.944582 0.269402
O O8 0.686414 0.795616 0.727508
O O9 0.000000 0.000000 0.500000
O O10 0.940215 0.977382 0.253581
O O11 0.215276 0.170695 0.837875
O O12 0.500000 0.000000 0.500000
O O13 0.578305 0.840817 0.291049
O O14 0.254171 0.586303 0.763038
O O15 0.621275 0.841720 0.538847
O O16 0.087111 0.831139 0.954025
O O17 0.000000 0.500000 0.000000
#
# Coordination Sequence:
#
# PCOD9043932 Si02
#       8
#     2   2   2   1   2   2   2   2
#     4  12  26  44  71 106 140 188 239 293 372 426
#     4  11  25  41  68 100 138 188 235 289 355 427
#     4  11  23  48  76 104 143 185 242 298 364 428
#     4  10  24  44  76 102 140 190 238 298 360 436
#     4  12  26  41  67 103 141 186 237 295 353 436
#     4  10  24  45  70 103 140 183 235 301 355 434
#     4  11  22  43  68  94 138 186 234 290 355 420
#     4  10  23  46  67 101 140 184 239 295 361 426
#
# _framework density 23.950921999999998
#
# number of rings (size 3 to 8) (size 9 to 14) (size 15 to 20)
#    0.000    1.067    2.667    2.800    5.600    1.600 
#    2.400    3.333    0.000    0.000    0.000    0.000 
#    0.000    0.000    0.000    0.000    0.000    0.000 
#
# Total GULP energy -83595.997792 kJ/mol
# GULP energy per Si atom -5573.066519 kJ/mol
# Density = 2.389641 g / cm^3
# Si number density = 23.950922 Si / 1000 Ang^3
#
#
#
# Elastic Constant Matrix: (Units=GPa)
#
#
# Indices 1 2 3 4 5 6 
#
# 1 62.9284 1.8291 -20.6958 1.3057 -0.2851 6.3029
# 2 1.8291 65.7536 5.5530 -4.9290 8.1378 -3.1061
# 3 -20.6958 5.5530 75.8502 -5.6054 -3.9219 4.2865
# 4 1.3057 -4.9290 -5.6054 28.1465 5.3842 -0.1220
# 5 -0.2851 8.1378 -3.9219 5.3842 31.9711 -2.9094
# 6 6.3029 -3.1061 4.2865 -0.1220 -2.9094 33.2482
#
#
#
# Elastic Compliance Matrix: (Units=1/GPa)
#
#
# Indices 1 2 3 4 5 6 
#
# 1 0.018092 -0.001256 0.005291 -0.000173 0.000781 -0.004161
# 2 -0.001256 0.016313 -0.001614 0.003521 -0.004812 0.001562
# 3 0.005291 -0.001614 0.015159 0.002156 0.001686 -0.002953
# 4 -0.000173 0.003521 0.002156 0.037931 -0.007057 -0.000395
# 5 0.000781 -0.004812 0.001686 -0.007057 0.034100 0.002143
# 6 -0.004161 0.001562 -0.002953 -0.000395 0.002143 0.031578
#
#
# Mechanical properties :
#
#
# Convention : Reuss Voigt Hill
#
# Bulk Modulus (GPa) = 18.38056 19.76719 19.07388
# Shear Modulus (GPa) = 30.03613 33.19621 31.61617
#
# Velocity S-wave (km/s) = 3.54513 3.72695 3.63718
# Velocity P-wave (km/s) = 4.94451 5.17604 5.06160
#
# Compressibility (1/GPa) = 0.05440529
#
# Stress axis : x y z
#
# Youngs Moduli (GPa) = 55.27409 61.30146 65.96720
#
# Poissons Ratio (x) = 0.07701 -0.34904
# Poissons Ratio (y) = 0.06944 0.10647
# Poissons Ratio (z) = -0.29246 0.09894
#
# Static dielectric constant tensor:
#      x y z
#    x 2.369840 -0.214130 -0.099830 
#    y -0.214130 1.957600 -0.064990 
#    z -0.099830 -0.064990 1.775410 
# 
# From -- ./inp_files/333355.got.cif
#   From: 2010.05.17/outbox.cif.g08.bks.cpg/sg2_167_cif.got.tgz:333355.got - 2010.06.03 11:33:40.
