data_PCOD9043428
_publ_section_title
;
Structure prediction by ZEFSAII (Michael W. Deem and Ramdas Pophale) SiO2 
 PCOD9043428
Probable space group: P -1
;
_chemical_formula_sum "Si O2"
_cell_formula_units_Z 15
_cell_length_a 20.397319
_cell_length_b 12.390621
_cell_length_c 6.531659
_cell_angle_alpha 69.613793
_cell_angle_beta 62.011636
_cell_angle_gamma 25.793575
_cell_volume 622.358448
_symmetry_space_group_name_H-M "P -1"
_symmetry_group_IT_number 2
_symmetry_cell_setting 'triclinic'
loop_
_space_group_symop_operation_xyz
x,y,z
-x,-y,-z
loop_
_atom_site_type_symbol
_atom_site_label
_atom_site_fract_x
_atom_site_fract_y
_atom_site_fract_z
Si Si1 0.315001 0.397468 0.362834
Si Si2 0.003793 0.788787 0.269088
Si Si3 0.360003 0.000576 0.075403
Si Si4 0.154578 0.485256 0.867197
Si Si5 0.165799 0.827703 0.447839
Si Si6 0.000000 0.500000 0.000000
Si Si7 0.335076 0.797038 0.004285
Si Si8 0.227623 0.085138 0.600859
O O1 0.155540 0.592304 0.330154
O O2 0.297739 0.332612 0.617327
O O3 0.298465 0.545669 0.396955
O O4 0.473216 0.175145 0.135490
O O5 0.906634 0.801974 0.405146
O O6 0.088316 0.670449 0.999858
O O7 0.874473 0.066135 0.338119
O O8 0.342102 0.902420 0.059569
O O9 0.342897 0.999307 0.340474
O O10 0.210783 0.288438 0.029607
O O11 0.003705 0.636836 0.872445
O O12 0.205447 0.882220 0.213788
O O13 0.000000 0.000000 0.500000
O O14 0.866040 0.701323 0.250574
O O15 0.500000 0.500000 0.000000
O O16 0.317436 0.865328 0.752494
#
# Coordination Sequence:
#
# PCOD9043428 Si02
#       8
#     2   2   2   2   2   1   2   2
#     4  11  26  48  68 104 153 190 233 298 359 431
#     4  10  25  44  71 107 137 186 247 291 354 429
#     4  12  26  47  73 109 141 194 238 296 362 434
#     4  11  26  42  75 104 145 190 238 298 360 427
#     4  10  23  45  71 101 146 185 237 293 355 423
#     4  10  24  44  72 104 140 188 238 296 360 408
#     4  12  25  49  72 106 145 189 238 298 361 432
#     4  11  26  44  78 105 142 186 243 301 356 428
#
# _framework density 24.101866000000001
#
# number of rings (size 3 to 8) (size 9 to 14) (size 15 to 20)
#    0.000    1.067    4.000    0.400   11.200    3.733 
#    2.400    0.000    0.000    0.000    0.000    0.000 
#    0.000    0.000    0.000    0.000    0.000    0.000 
#
# Total GULP energy -83665.068931 kJ/mol
# GULP energy per Si atom -5577.671262 kJ/mol
# Density = 2.404701 g / cm^3
# Si number density = 24.101866 Si / 1000 Ang^3
#
#
#
# Elastic Constant Matrix: (Units=GPa)
#
#
# Indices 1 2 3 4 5 6 
#
# 1 76.4218 24.4313 48.8316 -0.5953 4.4293 21.6501
# 2 24.4313 107.0683 56.3010 -0.2901 1.6968 12.7415
# 3 48.8316 56.3010 200.1893 22.2998 -24.3138 6.9015
# 4 -0.5953 -0.2901 22.2998 41.7087 7.1328 -1.7379
# 5 4.4293 1.6968 -24.3138 7.1328 47.1146 7.7564
# 6 21.6501 12.7415 6.9015 -1.7379 7.7564 28.8277
#
#
#
# Elastic Compliance Matrix: (Units=1/GPa)
#
#
# Indices 1 2 3 4 5 6 
#
# 1 0.020293 -0.000373 -0.005071 0.002944 -0.002830 -0.012922
# 2 -0.000373 0.011751 -0.003587 0.002198 -0.002016 -0.003380
# 3 -0.005071 -0.003587 0.008479 -0.005518 0.005564 0.001534
# 4 0.002944 0.002198 -0.005518 0.028403 -0.007826 0.001957
# 5 -0.002830 -0.002016 0.005564 -0.007826 0.026598 -0.005945
# 6 -0.012922 -0.003380 0.001534 0.001957 -0.005945 0.047238
#
#
# Mechanical properties :
#
#
# Convention : Reuss Voigt Hill
#
# Bulk Modulus (GPa) = 44.52366 71.42302 57.97334
# Shear Modulus (GPa) = 29.70690 40.47124 35.08907
#
# Velocity S-wave (km/s) = 3.51459 4.10222 3.81972
# Velocity P-wave (km/s) = 5.91464 7.22051 6.59995
#
# Compressibility (1/GPa) = 0.02245997
#
# Stress axis : x y z
#
# Youngs Moduli (GPa) = 49.27897 85.09672 117.94382
#
# Poissons Ratio (x) = 0.03177 0.59809
# Poissons Ratio (y) = 0.01840 0.42306
# Poissons Ratio (z) = 0.24989 0.30524
#
# Static dielectric constant tensor:
#      x y z
#    x 1.649270 0.136620 0.015970 
#    y 0.136620 1.854660 0.029640 
#    z 0.015970 0.029640 1.989040 
# 
# From -- ./inp_files/118604.got.cif
#   From: 2010.05.17/outbox.cif.g08.bks.cpg/sg2_60_cif.got.tgz:118604.got - 2010.06.03 11:33:40.
