data_PCOD9043565
_publ_section_title
;
Structure prediction by ZEFSAII (Michael W. Deem and Ramdas Pophale) SiO2 
 PCOD9043565
Probable space group: P -1
;
_chemical_formula_sum "Si O2"
_cell_formula_units_Z 16
_cell_length_a 7.017178
_cell_length_b 20.198013
_cell_length_c 10.086027
_cell_angle_alpha 55.339738
_cell_angle_beta 42.741076
_cell_angle_gamma 49.294063
_cell_volume 724.202375
_symmetry_space_group_name_H-M "P -1"
_symmetry_group_IT_number 2
_symmetry_cell_setting 'triclinic'
loop_
_space_group_symop_operation_xyz
x,y,z
-x,-y,-z
loop_
_atom_site_type_symbol
_atom_site_label
_atom_site_fract_x
_atom_site_fract_y
_atom_site_fract_z
Si Si1 0.826361 0.079619 0.604071
Si Si2 0.802444 0.339258 0.777534
Si Si3 0.829397 0.417366 0.415091
Si Si4 0.275647 0.148223 0.185257
Si Si5 0.763953 0.023694 0.265533
Si Si6 0.866963 0.853852 0.046480
Si Si7 0.142491 0.542473 0.166790
Si Si8 0.160095 0.345757 0.065075
O O1 0.463247 0.103205 0.756994
O O2 0.963176 0.149063 0.410546
O O3 0.000000 0.000000 0.500000
O O4 0.941186 0.055098 0.725635
O O5 0.863870 0.340911 0.588208
O O6 0.908813 0.404461 0.730410
O O7 0.960064 0.243302 0.870754
O O8 0.434104 0.372315 0.938606
O O9 0.500000 0.500000 0.500000
O O10 0.050419 0.461211 0.302407
O O11 0.902326 0.382981 0.267926
O O12 0.577793 0.062187 0.179268
O O13 0.292694 0.239730 0.110382
O O14 0.228274 0.147385 0.054927
O O15 0.500000 0.000000 0.500000
O O16 0.898695 0.098650 0.129358
O O17 0.500000 0.500000 0.000000
O O18 0.963709 0.610850 0.062947
#
# Coordination Sequence:
#
# PCOD9043565 Si02
#       8
#     2   2   2   2   2   2   2   2
#     4  11  25  45  72 105 142 182 236 294 354 426
#     4  12  26  45  72 106 143 191 241 293 365 424
#     4  12  26  45  73 105 144 186 241 297 354 428
#     4  11  25  45  71 101 143 186 234 294 363 423
#     4  10  23  45  72 105 137 183 236 292 356 418
#     4  12  25  46  74 102 144 188 239 293 358 433
#     4  12  24  45  75 103 140 191 236 293 361 417
#     4  12  25  47  71 105 149 184 237 303 357 424
#
# _framework density 22.093273
#
# number of rings (size 3 to 8) (size 9 to 14) (size 15 to 20)
#    0.000    0.500    6.250    1.875    0.000    5.500 
#    4.500    0.000    0.000    0.000    0.000    0.000 
#    0.000    0.000    0.000    0.000    0.000    0.000 
#
# Total GULP energy -89235.557413 kJ/mol
# GULP energy per Si atom -5577.222338 kJ/mol
# Density = 2.204299 g / cm^3
# Si number density = 22.093273 Si / 1000 Ang^3
#
#
#
# Elastic Constant Matrix: (Units=GPa)
#
#
# Indices 1 2 3 4 5 6 
#
# 1 108.3713 17.3709 29.2218 5.8135 2.2881 -13.2602
# 2 17.3709 24.4955 10.5775 -3.2646 5.9244 -9.4506
# 3 29.2218 10.5775 85.2223 -7.4854 17.1301 -1.3331
# 4 5.8135 -3.2646 -7.4854 36.3992 -2.6257 0.8483
# 5 2.2881 5.9244 17.1301 -2.6257 47.2883 -8.9610
# 6 -13.2602 -9.4506 -1.3331 0.8483 -8.9610 42.6233
#
#
#
# Elastic Compliance Matrix: (Units=1/GPa)
#
#
# Indices 1 2 3 4 5 6 
#
# 1 0.011764 -0.006593 -0.003848 -0.003180 0.001958 0.002552
# 2 -0.006593 0.051438 -0.002942 0.004633 -0.003192 0.008499
# 3 -0.003848 -0.002942 0.014666 0.003060 -0.005065 -0.002517
# 4 -0.003180 0.004633 0.003060 0.029036 -0.000007 -0.000446
# 5 0.001958 -0.003192 -0.005065 -0.000007 0.024202 0.004831
# 6 0.002552 0.008499 -0.002517 -0.000446 0.004831 0.027086
#
#
# Mechanical properties :
#
#
# Convention : Reuss Voigt Hill
#
# Bulk Modulus (GPa) = 19.56913 36.93661 28.25287
# Shear Modulus (GPa) = 24.75356 35.99009 30.37182
#
# Velocity S-wave (km/s) = 3.35089 4.04047 3.71173
# Velocity P-wave (km/s) = 4.88344 6.20661 5.58435
#
# Compressibility (1/GPa) = 0.05110090
#
# Stress axis : x y z
#
# Youngs Moduli (GPa) = 85.00854 19.44093 68.18397
#
# Poissons Ratio (x) = 0.12817 0.26239
# Poissons Ratio (y) = 0.56046 0.20061
# Poissons Ratio (z) = 0.32713 0.05720
#
# Static dielectric constant tensor:
#      x y z
#    x 1.819440 0.020120 -0.001830 
#    y 0.020120 1.806590 0.018610 
#    z -0.001830 0.018610 1.816830 
# 
# From -- ./inp_files/141213.got.cif
#   From: 2010.05.17/outbox.cif.g08.bks.cpg/sg2_71_cif.got.tgz:141213.got - 2010.06.03 11:33:40.
