data_PCOD9043983
_publ_section_title
;
Structure prediction by ZEFSAII (Michael W. Deem and Ramdas Pophale) SiO2 
 PCOD9043983
Probable space group: P -1
;
_chemical_formula_sum "Si O2"
_cell_formula_units_Z 14
_cell_length_a 5.039756
_cell_length_b 18.185379
_cell_length_c 11.370818
_cell_angle_alpha 146.329853
_cell_angle_beta 111.797026
_cell_angle_gamma 63.076096
_cell_volume 515.112960
_symmetry_space_group_name_H-M "P -1"
_symmetry_group_IT_number 2
_symmetry_cell_setting 'triclinic'
loop_
_space_group_symop_operation_xyz
x,y,z
-x,-y,-z
loop_
_atom_site_type_symbol
_atom_site_label
_atom_site_fract_x
_atom_site_fract_y
_atom_site_fract_z
Si Si1 0.287034 0.211609 0.802420
Si Si2 0.698728 0.695728 0.442263
Si Si3 0.151616 0.619598 0.209621
Si Si4 0.243313 0.646258 0.824176
Si Si5 0.467136 0.949911 0.607856
Si Si6 0.828701 0.104641 0.012384
Si Si7 0.311602 0.354003 0.358939
O O1 0.964303 0.287941 0.801069
O O2 0.456420 0.132510 0.610305
O O3 0.240733 0.097328 0.735053
O O4 0.497335 0.306633 0.003801
O O5 0.978444 0.682324 0.385014
O O6 0.454416 0.841465 0.563269
O O7 0.782350 0.681029 0.571285
O O8 0.504127 0.588889 0.240995
O O9 0.000000 0.500000 0.000000
O O10 0.079414 0.787368 0.913455
O O11 0.393793 0.498021 0.590624
O O12 0.922390 0.614505 0.748131
O O13 0.735804 0.005435 0.771867
O O14 0.566184 0.218356 0.185894
O O15 0.000000 0.000000 0.000000
#
# Coordination Sequence:
#
# PCOD9043983 Si02
#       7
#     2   2   2   2   2   2   2
#     4   9  20  44  69  98 141 184 234 302 356 442
#     4  11  25  43  73 102 142 187 237 304 359 433
#     4  11  24  45  71 105 141 188 241 295 366 432
#     4  10  23  46  68 102 141 190 246 299 373 433
#     4   9  21  43  64 103 134 186 237 288 369 426
#     4  11  24  43  72 102 144 190 243 306 365 438
#     4  11  25  44  70 103 142 193 246 304 365 439
#
# _framework density 27.178501000000001
#
# number of rings (size 3 to 8) (size 9 to 14) (size 15 to 20)
#    0.000    1.714    0.000    2.571    6.000    4.000 
#   28.286    0.000    0.000    0.000    0.000    0.000 
#    0.000    0.000    0.000    0.000    0.000    0.000 
#
# Total GULP energy -78005.017328 kJ/mol
# GULP energy per Si atom -5571.786952 kJ/mol
# Density = 2.711664 g / cm^3
# Si number density = 27.178501 Si / 1000 Ang^3
#
#
#
# Elastic Constant Matrix: (Units=GPa)
#
#
# Indices 1 2 3 4 5 6 
#
# 1 82.5189 27.6690 43.1226 -5.9534 -6.1078 -2.8002
# 2 27.6690 110.3892 1.2100 -11.4025 -27.7229 7.8029
# 3 43.1226 1.2100 202.9654 -3.4289 27.1586 -19.2163
# 4 -5.9534 -11.4025 -3.4289 54.7579 -7.5534 7.9613
# 5 -6.1078 -27.7229 27.1586 -7.5534 42.3255 -8.9026
# 6 -2.8002 7.8029 -19.2163 7.9613 -8.9026 42.6027
#
#
#
# Elastic Compliance Matrix: (Units=1/GPa)
#
#
# Indices 1 2 3 4 5 6 
#
# 1 0.015280 -0.002991 -0.003553 0.001156 0.002799 0.000318
# 2 -0.002991 0.012426 -0.000665 0.003629 0.008426 -0.001690
# 3 -0.003553 -0.000665 0.006513 -0.001084 -0.004899 0.002005
# 4 0.001156 0.003629 -0.001084 0.020447 0.006127 -0.003618
# 5 0.002799 0.008426 -0.004899 0.006127 0.034303 0.002454
# 6 0.000318 -0.001690 0.002005 -0.003618 0.002454 0.025896
#
#
# Mechanical properties :
#
#
# Convention : Reuss Voigt Hill
#
# Bulk Modulus (GPa) = 50.50413 59.98630 55.24521
# Shear Modulus (GPa) = 36.79629 49.52868 43.16249
#
# Velocity S-wave (km/s) = 3.68350 4.27353 3.98943
# Velocity P-wave (km/s) = 6.05917 6.81688 6.44916
#
# Compressibility (1/GPa) = 0.01980036
#
# Stress axis : x y z
#
# Youngs Moduli (GPa) = 65.44655 80.47471 153.54126
#
# Poissons Ratio (x) = 0.24070 0.54559
# Poissons Ratio (y) = 0.19575 0.10207
# Poissons Ratio (z) = 0.23256 0.05350
#
# Static dielectric constant tensor:
#      x y z
#    x 2.792380 0.725370 0.607570 
#    y 0.725370 2.936180 0.658450 
#    z 0.607570 0.658450 2.755540 
# 
# From -- ./inp_files/370565.got.cif
#   From: 2010.05.17/outbox.cif.g08.bks.cpg/sg2_186_cif.got.tgz:370565.got - 2010.06.03 11:33:40.
