data_PCOD9043688
_publ_section_title
;
Structure prediction by ZEFSAII (Michael W. Deem and Ramdas Pophale) SiO2 
 PCOD9043688
Probable space group: P -1
;
_chemical_formula_sum "Si O2"
_cell_formula_units_Z 16
_cell_length_a 12.594039
_cell_length_b 7.932200
_cell_length_c 11.613720
_cell_angle_alpha 63.151656
_cell_angle_beta 66.772566
_cell_angle_gamma 110.752592
_cell_volume 723.346761
_symmetry_space_group_name_H-M "P -1"
_symmetry_group_IT_number 2
_symmetry_cell_setting 'triclinic'
loop_
_space_group_symop_operation_xyz
x,y,z
-x,-y,-z
loop_
_atom_site_type_symbol
_atom_site_label
_atom_site_fract_x
_atom_site_fract_y
_atom_site_fract_z
Si Si1 0.783714 0.070190 0.261210
Si Si2 0.001210 0.196893 0.868060
Si Si3 0.862688 0.454129 0.506057
Si Si4 0.352116 0.509644 0.263035
Si Si5 0.611948 0.312273 0.064934
Si Si6 0.654480 0.908384 0.141177
Si Si7 0.693618 0.959485 0.581245
Si Si8 0.111575 0.414730 0.990819
O O1 0.681139 0.859034 0.275429
O O2 0.844150 0.319712 0.089998
O O3 0.692285 0.017985 0.430170
O O4 0.951722 0.168172 0.184563
O O5 0.081086 0.323793 0.674821
O O6 0.099002 0.406655 0.860343
O O7 0.823556 0.062621 0.968398
O O8 0.000000 0.000000 0.000000
O O9 0.744271 0.427953 0.651769
O O10 0.000000 0.500000 0.500000
O O11 0.794830 0.213522 0.530880
O O12 0.263313 0.216113 0.391072
O O13 0.513927 0.663235 0.212303
O O14 0.384890 0.595066 0.090737
O O15 0.613241 0.087020 0.111068
O O16 0.465726 0.203168 0.235857
O O17 0.752994 0.536813 0.012489
#
# Coordination Sequence:
#
# PCOD9043688 Si02
#       8
#     2   2   2   2   2   2   2   2
#     4   9  20  41  67  99 134 183 236 289 357 416
#     4  11  25  44  74 110 146 191 250 301 366 433
#     4  12  29  50  76 109 149 193 245 307 366 440
#     4  12  28  47  71 107 149 189 249 294 368 444
#     4  11  24  45  71 101 145 195 237 302 366 437
#     4  10  23  45  74 101 144 193 233 304 364 433
#     4  12  27  45  71 104 143 190 242 296 367 429
#     4   9  20  40  68  95 137 185 236 288 356 425
#
# _framework density 22.119405
#
# number of rings (size 3 to 8) (size 9 to 14) (size 15 to 20)
#    0.000    1.250    2.500    2.250    8.750    5.000 
#    0.000    0.000    0.000    0.000    0.000    0.000 
#    0.000    0.000    0.000    0.000    0.000    0.000 
#
# Total GULP energy -89151.192733 kJ/mol
# GULP energy per Si atom -5571.949546 kJ/mol
# Density = 2.206906 g / cm^3
# Si number density = 22.119405 Si / 1000 Ang^3
#
#
#
# Elastic Constant Matrix: (Units=GPa)
#
#
# Indices 1 2 3 4 5 6 
#
# 1 83.5986 47.1478 47.2762 4.3173 -7.0673 28.9264
# 2 47.1478 77.9562 47.6431 -0.8210 -0.4255 12.1097
# 3 47.2762 47.6431 136.7485 29.1266 2.9319 28.1310
# 4 4.3173 -0.8210 29.1266 29.4281 -4.0342 14.8459
# 5 -7.0673 -0.4255 2.9319 -4.0342 21.4197 -5.7091
# 6 28.9264 12.1097 28.1310 14.8459 -5.7091 36.3019
#
#
#
# Elastic Compliance Matrix: (Units=1/GPa)
#
#
# Indices 1 2 3 4 5 6 
#
# 1 0.026086 -0.010622 -0.003902 0.009154 0.006123 -0.017000
# 2 -0.010622 0.022744 -0.006337 0.006980 -0.000093 0.002918
# 3 -0.003902 -0.006337 0.014198 -0.013990 -0.006270 -0.001045
# 4 0.009154 0.006980 -0.013990 0.058803 0.010504 -0.021177
# 5 0.006123 -0.000093 -0.006270 0.010504 0.052604 0.003988
# 6 -0.017000 0.002918 -0.001045 -0.021177 0.003988 0.050217
#
#
# Mechanical properties :
#
#
# Convention : Reuss Voigt Hill
#
# Bulk Modulus (GPa) = 46.93061 64.71526 55.82293
# Shear Modulus (GPa) = 18.28320 27.84570 23.06445
#
# Velocity S-wave (km/s) = 2.87813 3.55192 3.23263
# Velocity P-wave (km/s) = 5.68400 6.79281 6.26299
#
# Compressibility (1/GPa) = 0.02130805
#
# Stress axis : x y z
#
# Youngs Moduli (GPa) = 38.33495 43.96710 70.43033
#
# Poissons Ratio (x) = 0.46700 0.27479
# Poissons Ratio (y) = 0.40718 0.44632
# Poissons Ratio (z) = 0.14957 0.27862
#
# Static dielectric constant tensor:
#      x y z
#    x 2.140740 -0.757960 0.087610 
#    y -0.757960 4.342040 -0.389000 
#    z 0.087610 -0.389000 1.842910 
# 
# From -- ./inp_files/416543.got.cif
#   From: 2010.05.17/outbox.cif.g08.bks.cpg/sg2_209_cif.got.tgz:416543.got - 2010.06.03 11:33:40.
