data_PCOD9043211
_publ_section_title
;
Structure prediction by ZEFSAII (Michael W. Deem and Ramdas Pophale) SiO2 
 PCOD9043211
Probable space group: P -1
;
_chemical_formula_sum "Si O2"
_cell_formula_units_Z 11
_cell_length_a 15.493359
_cell_length_b 8.384584
_cell_length_c 5.327302
_cell_angle_alpha 100.299637
_cell_angle_beta 80.965186
_cell_angle_gamma 143.696131
_cell_volume 403.035512
_symmetry_space_group_name_H-M "P -1"
_symmetry_group_IT_number 2
_symmetry_cell_setting 'triclinic'
loop_
_space_group_symop_operation_xyz
x,y,z
-x,-y,-z
loop_
_atom_site_type_symbol
_atom_site_label
_atom_site_fract_x
_atom_site_fract_y
_atom_site_fract_z
Si Si1 0.095532 0.666516 0.761247
Si Si2 0.744490 0.336249 0.564626
Si Si3 0.500000 0.500000 0.000000
Si Si4 0.327791 0.433348 0.486371
Si Si5 0.453114 0.118804 0.097121
Si Si6 0.048128 0.938299 0.761560
O O1 0.208649 0.685730 0.713548
O O2 0.139793 0.919819 0.811659
O O3 0.000000 0.500000 0.500000
O O4 0.000000 0.500000 0.000000
O O5 0.645135 0.344870 0.569063
O O6 0.892338 0.631772 0.682428
O O7 0.674926 0.098158 0.706675
O O8 0.616337 0.617483 0.744941
O O9 0.577112 0.794993 0.077313
O O10 0.414825 0.573688 0.751444
O O11 0.156258 0.163688 0.559378
O O12 0.500000 0.000000 0.000000
O O13 0.000000 0.000000 0.000000
#
# Coordination Sequence:
#
# PCOD9043211 Si02
#       6
#     2   2   1   2   2   2
#     4  10  23  45  69 108 150 200 252 315 394 472
#     4  11  24  48  75 111 149 203 258 318 399 463
#     4  12  28  48  78 108 162 200 258 320 384 482
#     4  12  26  49  74 114 153 200 260 322 392 467
#     4  12  26  51  74 112 150 204 261 313 395 467
#     4  11  24  46  75 115 149 194 260 324 397 461
#
# _framework density 27.292881000000001
#
# number of rings (size 3 to 8) (size 9 to 14) (size 15 to 20)
#    0.000    0.727    1.818    4.909    0.000    2.909 
#   13.091    0.000    0.000    0.000    0.000    0.000 
#    0.000    0.000    0.000    0.000    0.000    0.000 
#
# Total GULP energy -61295.868733 kJ/mol
# GULP energy per Si atom -5572.351703 kJ/mol
# Density = 2.723076 g / cm^3
# Si number density = 27.292881 Si / 1000 Ang^3
#
#
#
# Elastic Constant Matrix: (Units=GPa)
#
#
# Indices 1 2 3 4 5 6 
#
# 1 133.9021 2.7639 35.6085 9.3868 -61.9805 -26.0537
# 2 2.7639 154.1516 52.8866 -10.7834 -13.9601 -15.7610
# 3 35.6085 52.8866 142.8119 -5.1359 -59.4775 0.0021
# 4 9.3868 -10.7834 -5.1359 65.6048 -0.7267 8.5805
# 5 -61.9805 -13.9601 -59.4775 -0.7267 70.5662 13.3508
# 6 -26.0537 -15.7610 0.0021 8.5805 13.3508 58.9680
#
#
#
# Elastic Compliance Matrix: (Units=1/GPa)
#
#
# Indices 1 2 3 4 5 6 
#
# 1 0.013892 0.000586 0.001659 -0.002095 0.013003 0.003655
# 2 0.000586 0.007914 -0.003691 0.000566 -0.001524 0.002637
# 3 0.001659 -0.003691 0.013156 0.000739 0.012424 -0.003175
# 4 -0.002095 0.000566 0.000739 0.016086 -0.000367 -0.003032
# 5 0.013003 -0.001524 0.012424 -0.000367 0.036293 -0.002826
# 6 0.003655 0.002637 -0.003175 -0.003032 -0.002826 0.020360
#
#
# Mechanical properties :
#
#
# Convention : Reuss Voigt Hill
#
# Bulk Modulus (GPa) = 31.18118 68.15373 49.66745
# Shear Modulus (GPa) = 41.22596 61.66827 51.44711
#
# Velocity S-wave (km/s) = 3.89073 4.75858 4.34637
# Velocity P-wave (km/s) = 5.62434 7.43085 6.58979
#
# Compressibility (1/GPa) = 0.03207063
#
# Stress axis : x y z
#
# Youngs Moduli (GPa) = 71.98583 126.35412 76.00820
#
# Poissons Ratio (x) = -0.07410 -0.12609
# Poissons Ratio (y) = -0.04222 0.28056
# Poissons Ratio (z) = -0.11942 0.46640
#
# Static dielectric constant tensor:
#      x y z
#    x 1.041670 0.169380 -0.806520 
#    y 0.169380 2.117550 0.136740 
#    z -0.806520 0.136740 1.524990 
# 
# From -- ./inp_files/33900.got.cif
#   From: 2010.05.17/outbox.cif.g08.bks.cpg/sg2_17_cif.got.tgz:33900.got - 2010.06.03 11:33:40.
