data_PCOD9043446
_publ_section_title
;
Structure prediction by ZEFSAII (Michael W. Deem and Ramdas Pophale) SiO2 
 PCOD9043446
Probable space group: P -1
;
_chemical_formula_sum "Si O2"
_cell_formula_units_Z 16
_cell_length_a 8.977203
_cell_length_b 13.520174
_cell_length_c 13.976709
_cell_angle_alpha 150.043032
_cell_angle_beta 90.885999
_cell_angle_gamma 71.050232
_cell_volume 662.153445
_symmetry_space_group_name_H-M "P -1"
_symmetry_group_IT_number 2
_symmetry_cell_setting 'triclinic'
loop_
_space_group_symop_operation_xyz
x,y,z
-x,-y,-z
loop_
_atom_site_type_symbol
_atom_site_label
_atom_site_fract_x
_atom_site_fract_y
_atom_site_fract_z
Si Si1 0.626481 0.094285 0.795375
Si Si2 0.096949 0.612764 0.051309
Si Si3 0.565284 0.746314 0.390329
Si Si4 0.752879 0.410740 0.296456
Si Si5 0.525368 0.930413 0.831333
Si Si6 0.701367 0.336736 0.736684
Si Si7 0.824081 0.031348 0.122702
Si Si8 0.945408 0.111535 0.373768
O O1 0.565614 0.961810 0.617281
O O2 0.575885 0.072167 0.883936
O O3 0.849037 0.956935 0.674555
O O4 0.496317 0.387414 0.014676
O O5 0.160041 0.712187 0.218893
O O6 0.972492 0.856102 0.185539
O O7 0.277177 0.396370 0.809548
O O8 0.000000 0.500000 0.000000
O O9 0.633685 0.546601 0.311881
O O10 0.365432 0.834025 0.420255
O O11 0.683771 0.636360 0.558123
O O12 0.732003 0.216443 0.185036
O O13 0.977160 0.235692 0.127282
O O14 0.325262 0.994903 0.855481
O O15 0.500000 0.000000 0.000000
O O16 0.800719 0.317235 0.622238
O O17 0.870867 0.166942 0.311871
#
# Coordination Sequence:
#
# PCOD9043446 Si02
#       8
#     2   2   2   2   2   2   2   2
#     4  11  27  47  72 107 144 192 237 298 356 427
#     4  12  27  47  75 108 145 187 242 302 360 427
#     4  11  24  50  74 105 152 183 242 299 349 434
#     4  10  23  45  71 103 142 186 238 287 355 424
#     4  11  27  41  67 107 147 181 245 291 350 426
#     4  12  27  46  78 103 143 192 240 292 368 414
#     4  11  24  43  77  99 140 197 230 289 368 414
#     4  12  26  49  73 105 147 184 244 299 357 430
#
# _framework density 24.163585000000001
#
# number of rings (size 3 to 8) (size 9 to 14) (size 15 to 20)
#    0.000    0.750    2.500    3.375   10.500    3.000 
#    0.000    0.000    0.000    0.000    0.000    0.000 
#    0.000    0.000    0.000    0.000    0.000    0.000 
#
# Total GULP energy -89655.596705 kJ/mol
# GULP energy per Si atom -5603.474794 kJ/mol
# Density = 2.410859 g / cm^3
# Si number density = 24.163585 Si / 1000 Ang^3
#
#
#
# Elastic Constant Matrix: (Units=GPa)
#
#
# Indices 1 2 3 4 5 6 
#
# 1 121.8133 54.4561 11.3135 -15.2774 5.8805 11.5158
# 2 54.4561 98.3243 41.1526 -18.2302 7.8687 -2.4351
# 3 11.3135 41.1526 88.2463 -39.8164 -4.7211 -0.3349
# 4 -15.2774 -18.2302 -39.8164 43.7178 5.1040 3.3858
# 5 5.8805 7.8687 -4.7211 5.1040 34.5758 -13.3417
# 6 11.5158 -2.4351 -0.3349 3.3858 -13.3417 33.7016
#
#
#
# Elastic Compliance Matrix: (Units=1/GPa)
#
#
# Indices 1 2 3 4 5 6 
#
# 1 0.012890 -0.007806 0.004692 0.006455 -0.003396 -0.006915
# 2 -0.007806 0.017874 -0.009013 -0.003491 -0.002157 0.003366
# 3 0.004692 -0.009013 0.023940 0.019994 0.000020 -0.004017
# 4 0.006455 -0.003491 0.019994 0.043538 -0.007743 -0.009698
# 5 -0.003396 -0.002157 0.000020 -0.007743 0.037562 0.016653
# 6 -0.006915 0.003366 -0.004017 -0.009698 0.016653 0.039805
#
#
# Mechanical properties :
#
#
# Convention : Reuss Voigt Hill
#
# Bulk Modulus (GPa) = 32.83827 58.02538 45.43182
# Shear Modulus (GPa) = 23.80801 35.82983 29.81892
#
# Velocity S-wave (km/s) = 3.14233 3.85490 3.51671
# Velocity P-wave (km/s) = 5.17544 6.62415 5.94409
#
# Compressibility (1/GPa) = 0.03045227
#
# Stress axis : x y z
#
# Youngs Moduli (GPa) = 77.57852 55.94654 41.77042
#
# Poissons Ratio (x) = 0.43669 -0.19598
# Poissons Ratio (y) = 0.60554 0.37646
# Poissons Ratio (z) = -0.36399 0.50423
#
# Static dielectric constant tensor:
#      x y z
#    x 1.911210 -0.006490 0.026310 
#    y -0.006490 1.963020 -0.007350 
#    z 0.026310 -0.007350 1.909350 
# 
# From -- ./inp_files/505817.got.cif
#   From: 2010.05.17/outbox.cif.g08.bks.cpg/sg2_253_cif.got.tgz:505817.got - 2010.06.03 11:33:40.
