data_PCOD9043539
_publ_section_title
;
Structure prediction by ZEFSAII (Michael W. Deem and Ramdas Pophale) SiO2 
 PCOD9043539
Probable space group: P -1
;
_chemical_formula_sum "Si O2"
_cell_formula_units_Z 14
_cell_length_a 12.505397
_cell_length_b 14.056731
_cell_length_c 7.270654
_cell_angle_alpha 89.013814
_cell_angle_beta 86.741794
_cell_angle_gamma 155.945971
_cell_volume 512.541874
_symmetry_space_group_name_H-M "P -1"
_symmetry_group_IT_number 2
_symmetry_cell_setting 'triclinic'
loop_
_space_group_symop_operation_xyz
x,y,z
-x,-y,-z
loop_
_atom_site_type_symbol
_atom_site_label
_atom_site_fract_x
_atom_site_fract_y
_atom_site_fract_z
Si Si1 0.353872 0.859708 0.831822
Si Si2 0.471797 0.507252 0.215296
Si Si3 0.674379 0.846746 0.033835
Si Si4 0.123961 0.703089 0.425209
Si Si5 0.886202 0.120678 0.336418
Si Si6 0.833771 0.493832 0.093368
Si Si7 0.759665 0.860655 0.623641
O O1 0.344778 0.739424 0.814043
O O2 0.573332 0.076559 0.663984
O O3 0.049277 0.636760 0.917293
O O4 0.500000 0.000000 0.000000
O O5 0.475573 0.410757 0.329898
O O6 0.182181 0.316402 0.292049
O O7 0.500000 0.500000 0.000000
O O8 0.676462 0.761667 0.183137
O O9 0.825558 0.947795 0.824418
O O10 0.374900 0.611555 0.991356
O O11 0.101893 0.765144 0.581604
O O12 0.989646 0.643622 0.260539
O O13 0.000000 0.500000 0.500000
O O14 0.713643 0.915595 0.501634
O O15 0.767958 0.011639 0.143919
O O16 0.000000 0.000000 0.500000
#
# Coordination Sequence:
#
# PCOD9043539 Si02
#       7
#     2   2   2   2   2   2   2
#     4   9  21  44  71  97 133 188 251 311 370 437
#     4   9  22  43  71 109 147 188 239 300 369 454
#     4  11  24  44  73 110 150 189 243 307 381 458
#     4  11  26  48  73 105 147 200 262 318 373 444
#     4  11  25  45  74 109 149 197 248 311 380 448
#     4  10  23  45  72 101 140 194 246 309 381 449
#     4   9  21  45  72 106 149 192 238 300 375 452
#
# _framework density 27.314838999999999
#
# number of rings (size 3 to 8) (size 9 to 14) (size 15 to 20)
#    0.000    2.000    0.000    0.857    0.000   16.571 
#    0.000   13.571    0.000    0.000    0.000    0.000 
#    0.000    0.000    0.000    0.000    0.000    0.000 
#
# Total GULP energy -78264.069085 kJ/mol
# GULP energy per Si atom -5590.290649 kJ/mol
# Density = 2.725267 g / cm^3
# Si number density = 27.314839 Si / 1000 Ang^3
#
#
#
# Elastic Constant Matrix: (Units=GPa)
#
#
# Indices 1 2 3 4 5 6 
#
# 1 139.1049 45.5732 64.3761 1.8434 -17.1661 2.6788
# 2 45.5732 104.1764 82.3577 14.5010 -4.6210 -31.3879
# 3 64.3761 82.3577 204.5172 5.2662 -2.8722 -17.6488
# 4 1.8434 14.5010 5.2662 71.7155 -5.2838 7.2226
# 5 -17.1661 -4.6210 -2.8722 -5.2838 55.8416 4.3243
# 6 2.6788 -31.3879 -17.6488 7.2226 4.3243 53.1412
#
#
#
# Elastic Compliance Matrix: (Units=1/GPa)
#
#
# Indices 1 2 3 4 5 6 
#
# 1 0.009782 -0.004141 -0.001744 0.001333 0.003006 -0.003944
# 2 -0.004141 0.019623 -0.005576 -0.004615 -0.001199 0.010672
# 3 -0.001744 -0.005576 0.007597 0.000652 -0.000488 -0.000731
# 4 0.001333 -0.004615 0.000652 0.015421 0.001894 -0.004827
# 5 0.003006 -0.001199 -0.000488 0.001894 0.019106 -0.002834
# 6 -0.003944 0.010672 -0.000731 -0.004827 -0.002834 0.025964
#
#
# Mechanical properties :
#
#
# Convention : Reuss Voigt Hill
#
# Bulk Modulus (GPa) = 71.01772 92.49025 81.75398
# Shear Modulus (GPa) = 39.96547 53.17242 46.56895
#
# Velocity S-wave (km/s) = 3.82925 4.41687 4.13352
# Velocity P-wave (km/s) = 6.75330 7.74248 7.26474
#
# Compressibility (1/GPa) = 0.01408099
#
# Stress axis : x y z
#
# Youngs Moduli (GPa) = 102.23094 50.95979 131.62931
#
# Poissons Ratio (x) = 0.21102 0.22956
# Poissons Ratio (y) = 0.42332 0.73394
# Poissons Ratio (z) = 0.17829 0.28414
#
# Static dielectric constant tensor:
#      x y z
#    x 2.123760 -0.135080 0.043450 
#    y -0.135080 2.159280 -0.049760 
#    z 0.043450 -0.049760 2.168610 
# 
# From -- ./inp_files/211437.got.cif
#   From: 2010.05.17/outbox.cif.g08.bks.cpg/sg2_106_cif.got.tgz:211437.got - 2010.06.03 11:33:40.
