data_PCOD9043378
_publ_section_title
;
Structure prediction by ZEFSAII (Michael W. Deem and Ramdas Pophale) SiO2 
 PCOD9043378
Probable space group: P -1
;
_chemical_formula_sum "Si O2"
_cell_formula_units_Z 16
_cell_length_a 7.984220
_cell_length_b 9.746199
_cell_length_c 14.535452
_cell_angle_alpha 91.556035
_cell_angle_beta 145.115345
_cell_angle_gamma 97.712057
_cell_volume 621.970345
_symmetry_space_group_name_H-M "P -1"
_symmetry_group_IT_number 2
_symmetry_cell_setting 'triclinic'
loop_
_space_group_symop_operation_xyz
x,y,z
-x,-y,-z
loop_
_atom_site_type_symbol
_atom_site_label
_atom_site_fract_x
_atom_site_fract_y
_atom_site_fract_z
Si Si1 0.248844 0.806865 0.077158
Si Si2 0.573184 0.825729 0.393336
Si Si3 0.164726 0.426186 0.499035
Si Si4 0.553630 0.324497 0.120720
Si Si5 0.041305 0.109692 0.663767
Si Si6 0.212364 0.025442 0.928161
Si Si7 0.252321 0.657152 0.406088
Si Si8 0.795999 0.460348 0.048399
O O1 0.281518 0.830997 0.201343
O O2 0.611201 0.860214 0.213295
O O3 0.110993 0.642498 0.983955
O O4 0.091389 0.898697 0.942792
O O5 0.676769 0.690671 0.397016
O O6 0.503520 0.772952 0.465689
O O7 0.818607 0.978053 0.507159
O O8 0.356514 0.551922 0.521221
O O9 0.000000 0.500000 0.500000
O O10 0.886711 0.340698 0.308445
O O11 0.585349 0.351469 0.025677
O O12 0.352161 0.169466 0.049689
O O13 0.403856 0.447003 0.087047
O O14 0.935510 0.254101 0.619185
O O15 0.010966 0.057999 0.755721
O O16 0.500000 0.000000 0.000000
O O17 0.043287 0.563906 0.228613
#
# Coordination Sequence:
#
# PCOD9043378 Si02
#       8
#     2   2   2   2   2   2   2   2
#     4  11  22  38  63  94 121 159 217 269 300 355
#     4  12  26  41  59  95 134 168 201 251 323 382
#     4  11  23  40  65  94 124 161 212 261 311 369
#     4  10  17  33  60  91 115 150 208 266 298 354
#     4  11  21  41  65  90 122 168 217 256 306 367
#     4  10  18  33  59  92 113 152 208 261 303 344
#     4  11  24  41  64  89 130 172 201 250 320 385
#     4  10  18  35  62  88 121 156 207 255 313 358
#
# _framework density 25.724701
#
# number of rings (size 3 to 8) (size 9 to 14) (size 15 to 20)
#    0.000    1.250    3.750    5.625    1.750    1.500 
#    0.000    0.625    0.000    0.000    0.000    0.000 
#    0.000    0.000    0.000    0.000    0.000    0.000 
#
# Total GULP energy -89550.986127 kJ/mol
# GULP energy per Si atom -5596.936633 kJ/mol
# Density = 2.566615 g / cm^3
# Si number density = 25.724701 Si / 1000 Ang^3
#
#
#
# Elastic Constant Matrix: (Units=GPa)
#
#
# Indices 1 2 3 4 5 6 
#
# 1 82.2834 5.9800 3.1810 3.6047 -5.2258 8.1580
# 2 5.9800 130.0761 38.0643 -2.4641 -4.6183 6.0242
# 3 3.1810 38.0643 41.0047 -4.8422 -7.7731 7.9941
# 4 3.6047 -2.4641 -4.8422 48.4054 4.8814 -2.0999
# 5 -5.2258 -4.6183 -7.7731 4.8814 28.3162 -6.8257
# 6 8.1580 6.0242 7.9941 -2.0999 -6.8257 25.0536
#
#
#
# Elastic Compliance Matrix: (Units=1/GPa)
#
#
# Indices 1 2 3 4 5 6 
#
# 1 0.012712 -0.000481 0.000367 -0.001268 0.001673 -0.003791
# 2 -0.000481 0.010612 -0.010140 -0.000318 -0.000953 0.000554
# 3 0.000367 -0.010140 0.036682 0.002165 0.006306 -0.007486
# 4 -0.001268 -0.000318 0.002165 0.021307 -0.003192 0.000714
# 5 0.001673 -0.000953 0.006306 -0.003192 0.039734 0.008230
# 6 -0.003791 0.000554 -0.007486 0.000714 0.008230 0.045707
#
#
# Mechanical properties :
#
#
# Convention : Reuss Voigt Hill
#
# Bulk Modulus (GPa) = 25.31782 38.64607 31.98194
# Shear Modulus (GPa) = 24.94694 34.09763 29.52228
#
# Velocity S-wave (km/s) = 3.11748 3.64467 3.39134
# Velocity P-wave (km/s) = 4.77718 5.72425 5.27203
#
# Compressibility (1/GPa) = 0.03949788
#
# Stress axis : x y z
#
# Youngs Moduli (GPa) = 78.66882 94.23710 27.26129
#
# Poissons Ratio (x) = 0.04530 -0.01000
# Poissons Ratio (y) = 0.03782 0.27642
# Poissons Ratio (z) = -0.02884 0.95552
#
# Static dielectric constant tensor:
#      x y z
#    x 2.194120 -0.026640 -0.014740 
#    y -0.026640 2.006980 0.013370 
#    z -0.014740 0.013370 1.980210 
# 
# From -- ./inp_files/242963.got.cif
#   From: 2010.05.17/outbox.cif.g08.bks.cpg/sg2_122_cif.got.tgz:242963.got - 2010.06.03 11:33:40.
