data_PCOD9043819
_publ_section_title
;
Structure prediction by ZEFSAII (Michael W. Deem and Ramdas Pophale) SiO2 
 PCOD9043819
Probable space group: P -1
;
_chemical_formula_sum "Si O2"
_cell_formula_units_Z 10
_cell_length_a 7.095381
_cell_length_b 5.095110
_cell_length_c 16.133324
_cell_angle_alpha 84.237058
_cell_angle_beta 136.094084
_cell_angle_gamma 106.046460
_cell_volume 384.419742
_symmetry_space_group_name_H-M "P -1"
_symmetry_group_IT_number 2
_symmetry_cell_setting 'triclinic'
loop_
_space_group_symop_operation_xyz
x,y,z
-x,-y,-z
loop_
_atom_site_type_symbol
_atom_site_label
_atom_site_fract_x
_atom_site_fract_y
_atom_site_fract_z
Si Si1 0.160897 0.635239 0.749390
Si Si2 0.720646 0.569410 0.374870
Si Si3 0.869394 0.534193 0.822156
Si Si4 0.734184 0.101248 0.935809
Si Si5 0.332947 0.190415 0.484149
O O1 0.211540 0.435908 0.700685
O O2 0.986013 0.461055 0.775157
O O3 0.978475 0.827270 0.648799
O O4 0.457579 0.845471 0.865363
O O5 0.399802 0.351160 0.285802
O O6 0.686787 0.804520 0.421538
O O7 0.000000 0.500000 0.500000
O O8 0.721919 0.295404 0.848006
O O9 0.149066 0.721516 0.951131
O O10 0.000000 0.000000 0.000000
O O11 0.500000 0.500000 0.500000
O O12 0.500000 0.000000 0.500000
#
# Coordination Sequence:
#
# PCOD9043819 Si02
#       5
#     2   2   2   2   2
#     4  11  24  48  79 111 156 206 258 321 398 462
#     4  10  23  45  76 114 152 197 259 318 390 469
#     4  11  24  47  73 110 156 195 266 320 390 466
#     4  11  25  47  73 108 151 206 259 324 383 471
#     4  11  25  48  80 115 158 208 257 325 399 471
#
# _framework density 26.013235999999999
#
# number of rings (size 3 to 8) (size 9 to 14) (size 15 to 20)
#    0.000    1.200    4.000    0.600    0.000    7.200 
#    3.600    7.000    0.000    0.000    0.000    0.000 
#    0.000    0.000    0.000    0.000    0.000    0.000 
#
# Total GULP energy -55885.427007 kJ/mol
# GULP energy per Si atom -5588.542701 kJ/mol
# Density = 2.595403 g / cm^3
# Si number density = 26.013236 Si / 1000 Ang^3
#
#
#
# Elastic Constant Matrix: (Units=GPa)
#
#
# Indices 1 2 3 4 5 6 
#
# 1 237.0172 55.0906 87.6599 3.0221 -17.5928 -31.7847
# 2 55.0906 97.9409 29.1971 4.3283 7.3250 -19.7081
# 3 87.6599 29.1971 138.9154 4.7145 5.8647 0.5817
# 4 3.0221 4.3283 4.7145 18.9760 -0.4733 14.7725
# 5 -17.5928 7.3250 5.8647 -0.4733 66.9137 13.7522
# 6 -31.7847 -19.7081 0.5817 14.7725 13.7522 51.1039
#
#
#
# Elastic Compliance Matrix: (Units=1/GPa)
#
#
# Indices 1 2 3 4 5 6 
#
# 1 0.006743 -0.001852 -0.003854 -0.002693 0.001493 0.003901
# 2 -0.001852 0.013817 -0.001330 -0.008531 -0.003505 0.007601
# 3 -0.003854 -0.001330 0.009947 0.000688 -0.001135 -0.002916
# 4 -0.002693 -0.008531 0.000688 0.077878 0.006738 -0.029298
# 5 0.001493 -0.003505 -0.001135 0.006738 0.017310 -0.007016
# 6 0.003901 0.007601 -0.002916 -0.029298 -0.007016 0.035316
#
#
# Mechanical properties :
#
#
# Convention : Reuss Voigt Hill
#
# Bulk Modulus (GPa) = 60.84183 90.86319 75.85251
# Shear Modulus (GPa) = 27.69150 47.52711 37.60930
#
# Velocity S-wave (km/s) = 3.26623 4.27902 3.80646
# Velocity P-wave (km/s) = 6.13709 7.70836 6.96716
#
# Compressibility (1/GPa) = 0.01643606
#
# Stress axis : x y z
#
# Youngs Moduli (GPa) = 148.30104 72.37442 100.53486
#
# Poissons Ratio (x) = 0.13402 0.38744
# Poissons Ratio (y) = 0.27462 0.13370
# Poissons Ratio (z) = 0.57152 0.09625
#
# Static dielectric constant tensor:
#      x y z
#    x 2.021720 0.063130 -0.007250 
#    y 0.063130 1.846040 -0.387870 
#    z -0.007250 -0.387870 1.996250 
# 
# From -- ./inp_files/4795.got.cif
#   From: 2010.05.17/outbox.cif.g08.bks.cpg/sg2_3_cif.got.tgz:4795.got - 2010.06.03 11:33:40.
