data_PCOD9043797
_publ_section_title
;
Structure prediction by ZEFSAII (Michael W. Deem and Ramdas Pophale) SiO2 
 PCOD9043797
Probable space group: P -1
;
_chemical_formula_sum "Si O2"
_cell_formula_units_Z 14
_cell_length_a 8.191734
_cell_length_b 9.445691
_cell_length_c 10.715945
_cell_angle_alpha 85.007076
_cell_angle_beta 47.802637
_cell_angle_gamma 62.650600
_cell_volume 513.755866
_symmetry_space_group_name_H-M "P -1"
_symmetry_group_IT_number 2
_symmetry_cell_setting 'triclinic'
loop_
_space_group_symop_operation_xyz
x,y,z
-x,-y,-z
loop_
_atom_site_type_symbol
_atom_site_label
_atom_site_fract_x
_atom_site_fract_y
_atom_site_fract_z
Si Si1 0.180488 0.806606 0.385819
Si Si2 0.504874 0.159416 0.378650
Si Si3 0.103310 0.270268 0.099054
Si Si4 0.880788 0.061284 0.861443
Si Si5 0.408930 0.376009 0.097697
Si Si6 0.619508 0.831643 0.273235
Si Si7 0.857738 0.469055 0.433982
O O1 0.150302 0.827313 0.251388
O O2 0.450814 0.759491 0.316401
O O3 0.105403 0.685316 0.494035
O O4 0.000000 0.000000 0.500000
O O5 0.363924 0.180720 0.585229
O O6 0.389437 0.356109 0.405997
O O7 0.462814 0.036705 0.321624
O O8 0.819596 0.044397 0.241049
O O9 0.855744 0.415863 0.293312
O O10 0.169645 0.087645 0.123651
O O11 0.328949 0.297284 0.031072
O O12 0.121982 0.259564 0.939997
O O13 0.651943 0.209528 0.052332
O O14 0.500000 0.500000 0.000000
O O15 0.124615 0.469471 0.303011
#
# Coordination Sequence:
#
# PCOD9043797 Si02
#       7
#     2   2   2   2   2   2   2
#     4  12  21  44  78 104 140 206 251 297 364 464
#     4  11  27  47  71 114 152 193 243 327 361 436
#     4  10  23  45  76 103 142 205 247 289 367 458
#     4  12  24  46  80 108 147 197 256 300 374 438
#     4  10  24  44  71 108 148 189 242 314 357 443
#     4  11  25  44  76 101 155 201 248 288 394 435
#     4  10  25  47  73 110 150 191 250 306 376 438
#
# _framework density 27.250298999999998
#
# number of rings (size 3 to 8) (size 9 to 14) (size 15 to 20)
#    0.857    0.286    4.286    0.429    6.000    3.429 
#    2.571    2.857    0.000    0.000    0.000    0.000 
#    0.000    0.000    0.000    0.000    0.000    0.000 
#
# Total GULP energy -78240.913519 kJ/mol
# GULP energy per Si atom -5588.636680 kJ/mol
# Density = 2.718828 g / cm^3
# Si number density = 27.250299 Si / 1000 Ang^3
#
#
#
# Elastic Constant Matrix: (Units=GPa)
#
#
# Indices 1 2 3 4 5 6 
#
# 1 107.9282 52.4010 45.1677 -2.4416 -18.5855 22.1834
# 2 52.4010 182.7043 54.1223 16.6647 -26.6828 21.6073
# 3 45.1677 54.1223 114.9828 17.3893 0.5157 22.0464
# 4 -2.4416 16.6647 17.3893 68.8440 17.3211 -5.2160
# 5 -18.5855 -26.6828 0.5157 17.3211 50.2447 -7.1228
# 6 22.1834 21.6073 22.0464 -5.2160 -7.1228 40.4219
#
#
#
# Elastic Compliance Matrix: (Units=1/GPa)
#
#
# Indices 1 2 3 4 5 6 
#
# 1 0.012968 -0.001834 -0.003700 0.000797 0.003094 -0.003471
# 2 -0.001834 0.007657 -0.002245 -0.002484 0.004060 -0.001468
# 3 -0.003700 -0.002245 0.012406 -0.002427 -0.002459 -0.004282
# 4 0.000797 -0.002484 -0.002427 0.017687 -0.006625 0.003329
# 5 0.003094 0.004060 -0.002459 -0.006625 0.025674 0.001142
# 6 -0.003471 -0.001468 -0.004282 0.003329 0.001142 0.030395
#
#
# Mechanical properties :
#
#
# Convention : Reuss Voigt Hill
#
# Bulk Modulus (GPa) = 57.22678 78.77748 68.00213
# Shear Modulus (GPa) = 39.01039 48.83039 43.92039
#
# Velocity S-wave (km/s) = 3.78770 4.23770 4.01900
# Velocity P-wave (km/s) = 6.33837 7.27432 6.82241
#
# Compressibility (1/GPa) = 0.01747434
#
# Stress axis : x y z
#
# Youngs Moduli (GPa) = 77.11015 130.59411 80.60342
#
# Poissons Ratio (x) = 0.23947 0.29824
# Poissons Ratio (y) = 0.14139 0.18097
# Poissons Ratio (z) = 0.28532 0.29320
#
# Static dielectric constant tensor:
#      x y z
#    x 2.291850 -0.004640 0.224660 
#    y -0.004640 2.122460 0.061040 
#    z 0.224660 0.061040 2.651150 
# 
# From -- ./inp_files/389675.got.cif
#   From: 2010.05.17/outbox.cif.g08.bks.cpg/sg2_195_cif.got.tgz:389675.got - 2010.06.03 11:33:40.
