data_PCOD9043441
_publ_section_title
;
Structure prediction by ZEFSAII (Michael W. Deem and Ramdas Pophale) SiO2 
 PCOD9043441
Probable space group: P -1
;
_chemical_formula_sum "Si O2"
_cell_formula_units_Z 13
_cell_length_a 5.516622
_cell_length_b 15.848839
_cell_length_c 12.347672
_cell_angle_alpha 144.689078
_cell_angle_beta 75.080425
_cell_angle_gamma 113.350543
_cell_volume 568.459751
_symmetry_space_group_name_H-M "P -1"
_symmetry_group_IT_number 2
_symmetry_cell_setting 'triclinic'
loop_
_space_group_symop_operation_xyz
x,y,z
-x,-y,-z
loop_
_atom_site_type_symbol
_atom_site_label
_atom_site_fract_x
_atom_site_fract_y
_atom_site_fract_z
Si Si1 0.175037 0.144470 0.058617
Si Si2 0.547572 0.295624 0.487791
Si Si3 0.233811 0.700943 0.075168
Si Si4 0.000000 0.500000 0.500000
Si Si5 0.585968 0.427634 0.280349
Si Si6 0.709931 0.067588 0.862959
Si Si7 0.309725 0.583580 0.161646
O O1 0.457892 0.114284 0.983786
O O2 0.981990 0.129541 0.963416
O O3 0.290170 0.333511 0.266310
O O4 0.000000 0.000000 0.000000
O O5 0.379834 0.396758 0.564831
O O6 0.605374 0.340458 0.653223
O O7 0.810643 0.356827 0.449479
O O8 0.393087 0.115856 0.310315
O O9 0.228990 0.858173 0.185936
O O10 0.295042 0.705676 0.199458
O O11 0.425734 0.647919 0.916555
O O12 0.965850 0.555880 0.940094
O O13 0.189656 0.577744 0.668551
O O14 0.500000 0.500000 0.000000
#
# Coordination Sequence:
#
# PCOD9043441 Si02
#       7
#     2   2   2   1   2   2   2
#     4  11  25  46  71 101 144 203 241 288 355 439
#     4  12  26  43  71 107 145 186 238 304 362 423
#     4  10  23  45  71 103 135 192 243 292 357 440
#     4  12  26  42  68 108 144 182 238 298 356 422
#     4  11  24  44  73  98 148 189 245 291 360 438
#     4  11  27  44  70 105 152 182 241 303 363 420
#     4  11  22  44  77  99 135 189 245 295 357 434
#
# _framework density 22.868814
#
# number of rings (size 3 to 8) (size 9 to 14) (size 15 to 20)
#    0.000    0.923    3.077    2.769    8.615    0.615 
#    0.000    0.769    0.000    0.000    0.000    0.000 
#    0.000    0.000    0.000    0.000    0.000    0.000 
#
# Total GULP energy -72401.204554 kJ/mol
# GULP energy per Si atom -5569.323427 kJ/mol
# Density = 2.281676 g / cm^3
# Si number density = 22.868814 Si / 1000 Ang^3
#
#
#
# Elastic Constant Matrix: (Units=GPa)
#
#
# Indices 1 2 3 4 5 6 
#
# 1 84.7052 41.7550 26.7745 -5.6880 26.3995 -16.0188
# 2 41.7550 194.3893 65.2878 17.2696 18.6962 -26.2685
# 3 26.7745 65.2878 83.4504 9.7436 20.3136 -22.4836
# 4 -5.6880 17.2696 9.7436 56.1834 -4.8736 -3.0857
# 5 26.3995 18.6962 20.3136 -4.8736 35.7664 -4.7343
# 6 -16.0188 -26.2685 -22.4836 -3.0857 -4.7343 38.3303
#
#
#
# Elastic Compliance Matrix: (Units=1/GPa)
#
#
# Indices 1 2 3 4 5 6 
#
# 1 0.017203 -0.002144 -0.000290 0.001773 -0.010590 0.004385
# 2 -0.002144 0.007476 -0.004669 -0.001603 0.000293 0.001396
# 3 -0.000290 -0.004669 0.019882 -0.002344 -0.008009 0.007164
# 4 0.001773 -0.001603 -0.002344 0.019195 0.003509 0.000246
# 5 -0.010590 0.000293 -0.008009 0.003509 0.040163 -0.003680
# 6 0.004385 0.001396 0.007164 0.000246 -0.003680 0.032645
#
#
# Mechanical properties :
#
#
# Convention : Reuss Voigt Hill
#
# Bulk Modulus (GPa) = 32.94303 70.01992 51.48148
# Shear Modulus (GPa) = 31.07737 41.30452 36.19095
#
# Velocity S-wave (km/s) = 3.69038 4.25449 3.98244
# Velocity P-wave (km/s) = 5.70921 7.40397 6.61112
#
# Compressibility (1/GPa) = 0.03035544
#
# Stress axis : x y z
#
# Youngs Moduli (GPa) = 58.12877 133.76320 50.29661
#
# Poissons Ratio (x) = 0.28685 0.01456
# Poissons Ratio (y) = 0.12465 0.23483
# Poissons Ratio (z) = 0.01683 0.62452
#
# Static dielectric constant tensor:
#      x y z
#    x 2.224770 0.190860 -0.233670 
#    y 0.190860 2.101890 -0.095770 
#    z -0.233670 -0.095770 1.943080 
# 
# From -- ./inp_files/31662.got.cif
#   From: 2010.05.17/outbox.cif.g08.bks.cpg/sg2_16_cif.got.tgz:31662.got - 2010.06.03 11:33:40.
