data_PCOD9043648
_publ_section_title
;
Structure prediction by ZEFSAII (Michael W. Deem and Ramdas Pophale) SiO2 
 PCOD9043648
Probable space group: P -1
;
_chemical_formula_sum "Si O2"
_cell_formula_units_Z 14
_cell_length_a 7.362080
_cell_length_b 9.856296
_cell_length_c 9.738557
_cell_angle_alpha 113.909699
_cell_angle_beta 71.742929
_cell_angle_gamma 79.718886
_cell_volume 574.270416
_symmetry_space_group_name_H-M "P -1"
_symmetry_group_IT_number 2
_symmetry_cell_setting 'triclinic'
loop_
_space_group_symop_operation_xyz
x,y,z
-x,-y,-z
loop_
_atom_site_type_symbol
_atom_site_label
_atom_site_fract_x
_atom_site_fract_y
_atom_site_fract_z
Si Si1 0.142641 0.630556 0.098852
Si Si2 0.249948 0.348190 0.659249
Si Si3 0.520375 0.336064 0.817161
Si Si4 0.930985 0.877774 0.555492
Si Si5 0.921191 0.863659 0.012844
Si Si6 0.513252 0.067851 0.876505
Si Si7 0.924664 0.379474 0.372473
O O1 0.250360 0.669573 0.225447
O O2 0.049739 0.772575 0.074248
O O3 0.956357 0.577484 0.168190
O O4 0.815911 0.782807 0.455449
O O5 0.344045 0.506965 0.931564
O O6 0.687808 0.945155 0.151595
O O7 0.256529 0.488542 0.614413
O O8 0.451893 0.269464 0.669583
O O9 0.479696 0.250071 0.927692
O O10 0.739722 0.982598 0.735568
O O11 0.088263 0.752761 0.571281
O O12 0.000000 0.000000 0.500000
O O13 0.943370 0.735155 0.830514
O O14 0.000000 0.000000 0.000000
O O15 0.500000 0.000000 0.000000
O O16 0.000000 0.500000 0.500000
#
# Coordination Sequence:
#
# PCOD9043648 Si02
#       7
#     2   2   2   2   2   2   2
#     4  11  23  41  69 107 143 188 247 314 367 444
#     4  11  22  45  71 100 148 197 241 307 383 449
#     4  11  23  40  69 105 143 190 248 304 375 446
#     4  11  26  45  74 109 152 196 248 312 384 451
#     4  12  24  43  75 112 151 192 256 318 367 442
#     4  12  24  43  72 107 145 192 250 307 376 441
#     4  10  23  45  73 106 146 202 243 303 385 447
#
# _framework density 24.378755999999999
#
# number of rings (size 3 to 8) (size 9 to 14) (size 15 to 20)
#    0.000    0.857    4.286    3.000    2.000    0.571 
#    0.000    2.857    0.000   10.286    0.000    0.000 
#    0.000    0.000    0.000    0.000    0.000    0.000 
#
# Total GULP energy -78073.585075 kJ/mol
# GULP energy per Si atom -5576.684648 kJ/mol
# Density = 2.432327 g / cm^3
# Si number density = 24.378756 Si / 1000 Ang^3
#
#
#
# Elastic Constant Matrix: (Units=GPa)
#
#
# Indices 1 2 3 4 5 6 
#
# 1 130.1385 55.6791 35.4265 -25.1357 -2.9583 -20.1561
# 2 55.6791 172.9341 48.0915 -52.9462 -8.7843 -7.9966
# 3 35.4265 48.0915 107.7479 -28.8735 -4.0825 -1.9394
# 4 -25.1357 -52.9462 -28.8735 40.4617 7.0428 11.9836
# 5 -2.9583 -8.7843 -4.0825 7.0428 43.6156 -7.3785
# 6 -20.1561 -7.9966 -1.9394 11.9836 -7.3785 39.2817
#
#
#
# Elastic Compliance Matrix: (Units=1/GPa)
#
#
# Indices 1 2 3 4 5 6 
#
# 1 0.010027 -0.002345 -0.002097 0.000147 0.000777 0.004665
# 2 -0.002345 0.010453 -0.000517 0.012921 -0.000726 -0.003179
# 3 -0.002097 -0.000517 0.012205 0.007813 -0.000895 -0.003130
# 4 0.000147 0.012921 0.007813 0.052912 -0.007651 -0.014487
# 5 0.000777 -0.000726 -0.000895 -0.007651 0.025217 0.007277
# 6 0.004665 -0.003179 -0.003130 -0.014487 0.007277 0.032836
#
#
# Mechanical properties :
#
#
# Convention : Reuss Voigt Hill
#
# Bulk Modulus (GPa) = 43.92429 76.57942 60.25185
# Shear Modulus (GPa) = 31.02570 42.78001 36.90286
#
# Velocity S-wave (km/s) = 3.57130 4.19359 3.89489
# Velocity P-wave (km/s) = 5.92133 7.41139 6.70786
#
# Compressibility (1/GPa) = 0.02276645
#
# Stress axis : x y z
#
# Youngs Moduli (GPa) = 99.73142 95.66269 81.93632
#
# Poissons Ratio (x) = 0.22432 0.17185
# Poissons Ratio (y) = 0.23386 0.04236
# Poissons Ratio (z) = 0.20917 0.04945
#
# Static dielectric constant tensor:
#      x y z
#    x 2.038760 0.048260 0.138060 
#    y 0.048260 2.005760 0.127990 
#    z 0.138060 0.127990 2.114410 
# 
# From -- ./inp_files/384507.got.cif
#   From: 2010.05.17/outbox.cif.g08.bks.cpg/sg2_193_cif.got.tgz:384507.got - 2010.06.03 11:33:40.
