data_PCOD9043150
_publ_section_title
;
Structure prediction by ZEFSAII (Michael W. Deem and Ramdas Pophale) SiO2 
 PCOD9043150
Probable space group: P -1
;
_chemical_formula_sum "Si O2"
_cell_formula_units_Z 14
_cell_length_a 16.156096
_cell_length_b 8.344914
_cell_length_c 18.695164
_cell_angle_alpha 141.193017
_cell_angle_beta 22.496847
_cell_angle_gamma 129.358720
_cell_volume 564.404505
_symmetry_space_group_name_H-M "P -1"
_symmetry_group_IT_number 2
_symmetry_cell_setting 'triclinic'
loop_
_space_group_symop_operation_xyz
x,y,z
-x,-y,-z
loop_
_atom_site_type_symbol
_atom_site_label
_atom_site_fract_x
_atom_site_fract_y
_atom_site_fract_z
Si Si1 0.003479 0.439234 0.238032
Si Si2 0.596122 0.729248 0.030494
Si Si3 0.835284 0.164023 0.498717
Si Si4 0.924563 0.418592 0.924877
Si Si5 0.786548 0.191414 0.159398
Si Si6 0.288532 0.208904 0.198749
Si Si7 0.486686 0.471596 0.374811
O O1 0.076648 0.572986 0.157467
O O2 0.726985 0.566051 0.508998
O O3 0.168292 0.420426 0.166103
O O4 0.059027 0.121316 0.063476
O O5 0.381531 0.883323 0.307719
O O6 0.500000 0.500000 0.000000
O O7 0.652520 0.846093 0.952002
O O8 0.748631 0.473150 0.644287
O O9 0.042500 0.168359 0.387770
O O10 0.946977 0.899505 0.267051
O O11 0.070081 0.607383 0.895582
O O12 0.667490 0.531735 0.200051
O O13 0.637237 0.218504 0.216152
O O14 0.621806 0.301181 0.397653
O O15 0.500000 0.000000 0.000000
#
# Coordination Sequence:
#
# PCOD9043150 Si02
#       7
#     2   2   2   2   2   2   2
#     4  11  26  44  70 106 143 189 242 292 354 416
#     4  10  25  49  71  99 142 187 235 297 354 420
#     4  10  25  45  68 107 140 180 236 293 348 433
#     4  11  24  44  71 107 145 190 234 285 359 428
#     4  10  24  45  68 107 147 186 240 293 350 419
#     4  10  24  50  73 103 136 183 241 297 361 414
#     4  10  23  45  69 100 146 191 232 296 351 416
#
# _framework density 24.804901999999998
#
# number of rings (size 3 to 8) (size 9 to 14) (size 15 to 20)
#    0.000    1.714    0.000    2.143   12.000    4.000 
#   10.286    0.000    0.000    0.000    0.000    0.000 
#    0.000    0.000    0.000    0.000    0.000    0.000 
#
# Total GULP energy -78349.446497 kJ/mol
# GULP energy per Si atom -5596.389036 kJ/mol
# Density = 2.474844 g / cm^3
# Si number density = 24.804902 Si / 1000 Ang^3
#
#
#
# Elastic Constant Matrix: (Units=GPa)
#
#
# Indices 1 2 3 4 5 6 
#
# 1 141.0159 40.4211 65.3223 -23.0394 -34.7417 -5.6329
# 2 40.4211 149.0531 74.7579 -8.8733 -7.9288 10.8685
# 3 65.3223 74.7579 166.3636 -30.0798 -17.4665 -8.5102
# 4 -23.0394 -8.8733 -30.0798 64.2125 -6.5973 -3.6799
# 5 -34.7417 -7.9288 -17.4665 -6.5973 47.5222 7.2060
# 6 -5.6329 10.8685 -8.5102 -3.6799 7.2060 25.9381
#
#
#
# Elastic Compliance Matrix: (Units=1/GPa)
#
#
# Indices 1 2 3 4 5 6 
#
# 1 0.010901 -0.001255 -0.002296 0.003447 0.007304 0.000600
# 2 -0.001255 0.009594 -0.004431 -0.001566 -0.000269 -0.005894
# 3 -0.002296 -0.004431 0.009902 0.003581 0.000985 0.004842
# 4 0.003447 -0.001566 0.003581 0.019066 0.005659 0.003712
# 5 0.007304 -0.000269 0.000985 0.005659 0.028247 -0.005022
# 6 0.000600 -0.005894 0.004842 0.003712 -0.005022 0.044664
#
#
# Mechanical properties :
#
#
# Convention : Reuss Voigt Hill
#
# Bulk Modulus (GPa) = 69.28188 90.82611 80.05399
# Shear Modulus (GPa) = 34.92875 45.92997 40.42936
#
# Velocity S-wave (km/s) = 3.75659 4.30775 4.04157
# Velocity P-wave (km/s) = 6.84159 7.83824 7.35681
#
# Compressibility (1/GPa) = 0.01443379
#
# Stress axis : x y z
#
# Youngs Moduli (GPa) = 91.73381 104.23029 100.98792
#
# Poissons Ratio (x) = 0.13080 0.23182
# Poissons Ratio (y) = 0.11511 0.44752
# Poissons Ratio (z) = 0.21058 0.46188
#
# Static dielectric constant tensor:
#      x y z
#    x 2.021650 0.018820 0.078270 
#    y 0.018820 1.992110 0.038770 
#    z 0.078270 0.038770 2.052000 
# 
# From -- ./inp_files/599592.got.cif
#   From: 2010.05.17/outbox.cif.g08.bks.cpg/sg2_300_cif.got.tgz:599592.got - 2010.06.03 11:33:40.
