data_PCOD9043948
_publ_section_title
;
Structure prediction by ZEFSAII (Michael W. Deem and Ramdas Pophale) SiO2 
 PCOD9043948
Probable space group: P -1
;
_chemical_formula_sum "Si O2"
_cell_formula_units_Z 16
_cell_length_a 20.096475
_cell_length_b 20.102089
_cell_length_c 12.137980
_cell_angle_alpha 151.059054
_cell_angle_beta 29.541644
_cell_angle_gamma 159.936448
_cell_volume 779.284346
_symmetry_space_group_name_H-M "P -1"
_symmetry_group_IT_number 2
_symmetry_cell_setting 'triclinic'
loop_
_space_group_symop_operation_xyz
x,y,z
-x,-y,-z
loop_
_atom_site_type_symbol
_atom_site_label
_atom_site_fract_x
_atom_site_fract_y
_atom_site_fract_z
Si Si1 0.038796 0.171399 0.068005
Si Si2 0.450799 0.577671 0.772784
Si Si3 0.453577 0.008627 0.201321
Si Si4 0.051160 0.367482 0.130956
Si Si5 0.642281 0.699137 0.916599
Si Si6 0.562899 0.702979 0.271343
Si Si7 0.190264 0.758907 0.408086
Si Si8 0.387493 0.996678 0.843674
O O1 0.107651 0.337268 0.120080
O O2 0.926560 0.186511 0.337900
O O3 0.228490 0.225062 0.910420
O O4 0.865690 0.935283 0.930647
O O5 0.500000 0.500000 0.500000
O O6 0.538048 0.619587 0.831659
O O7 0.545843 0.797967 0.927046
O O8 0.208405 0.413223 0.888683
O O9 0.261457 0.791042 0.225113
O O10 0.640987 0.105696 0.149586
O O11 0.423403 0.146323 0.464019
O O12 0.500000 0.000000 0.000000
O O13 0.081060 0.551051 0.326400
O O14 0.815408 0.157990 0.155426
O O15 0.615647 0.524667 0.749240
O O16 0.536673 0.701400 0.174835
O O17 0.415982 0.928560 0.383927
#
# Coordination Sequence:
#
# PCOD9043948 Si02
#       8
#     2   2   2   2   2   2   2   2
#     4  12  22  42  68 101 136 170 225 274 340 400
#     4  11  24  44  66  96 137 175 229 285 333 392
#     4  10  23  46  67  89 137 181 220 278 329 397
#     4  11  22  42  67  99 129 175 219 281 338 400
#     4  11  23  41  64  99 133 174 219 281 334 386
#     4  11  25  42  67  98 135 179 227 270 336 402
#     4   9  23  40  64  99 132 168 219 282 329 396
#     4   9  22  43  63  93 130 171 227 270 340 391
#
# _framework density 20.531658
#
# number of rings (size 3 to 8) (size 9 to 14) (size 15 to 20)
#    0.750    0.750    3.750    0.750    1.750    4.000 
#    6.750    0.625    0.000    0.000    0.000    0.000 
#    0.000    0.000    0.000    0.000    0.000    0.000 
#
# Total GULP energy -89085.226864 kJ/mol
# GULP energy per Si atom -5567.826679 kJ/mol
# Density = 2.048493 g / cm^3
# Si number density = 20.531658 Si / 1000 Ang^3
#
#
#
# Elastic Constant Matrix: (Units=GPa)
#
#
# Indices 1 2 3 4 5 6 
#
# 1 100.2713 28.3313 71.7418 -0.2892 -3.0377 -2.5803
# 2 28.3313 87.1299 39.0206 0.7297 -2.0264 -12.2243
# 3 71.7418 39.0206 136.9331 -3.7878 0.1981 -7.8457
# 4 -0.2892 0.7297 -3.7878 23.2291 -5.9449 -10.4922
# 5 -3.0377 -2.0264 0.1981 -5.9449 25.2945 0.6181
# 6 -2.5803 -12.2243 -7.8457 -10.4922 0.6181 35.3721
#
#
#
# Elastic Compliance Matrix: (Units=1/GPa)
#
#
# Indices 1 2 3 4 5 6 
#
# 1 0.016345 -0.001844 -0.008178 -0.001441 0.001582 -0.001714
# 2 -0.001844 0.013933 -0.002711 0.001412 0.001138 0.004478
# 3 -0.008178 -0.002711 0.012559 0.002801 -0.000691 0.002095
# 4 -0.001441 0.001412 0.002801 0.054195 0.012243 0.016866
# 5 0.001582 0.001138 -0.000691 0.012243 0.042619 0.003243
# 6 -0.001714 0.004478 0.002095 0.016866 0.003243 0.035104
#
#
# Mechanical properties :
#
#
# Convention : Reuss Voigt Hill
#
# Bulk Modulus (GPa) = 57.56496 66.94685 62.25591
# Shear Modulus (GPa) = 24.27047 29.12853 26.69950
#
# Velocity S-wave (km/s) = 3.44190 3.77067 3.61003
# Velocity P-wave (km/s) = 6.62522 7.18573 6.91116
#
# Compressibility (1/GPa) = 0.01737168
#
# Stress axis : x y z
#
# Youngs Moduli (GPa) = 61.18067 71.76948 79.62675
#
# Poissons Ratio (x) = 0.13232 0.65122
# Poissons Ratio (y) = 0.11280 0.21583
# Poissons Ratio (z) = 0.50036 0.19454
#
# Static dielectric constant tensor:
#      x y z
#    x 1.845320 0.016270 0.007490 
#    y 0.016270 1.815240 0.008670 
#    z 0.007490 0.008670 1.735550 
# 
# From -- ./inp_files/472764.got.cif
#   From: 2010.05.17/outbox.cif.g08.bks.cpg/sg2_237_cif.got.tgz:472764.got - 2010.06.03 11:33:40.
