data_PCOD9043411
_publ_section_title
;
Structure prediction by ZEFSAII (Michael W. Deem and Ramdas Pophale) SiO2 
 PCOD9043411
Probable space group: P -1
;
_chemical_formula_sum "Si O2"
_cell_formula_units_Z 16
_cell_length_a 8.551318
_cell_length_b 6.720798
_cell_length_c 18.957079
_cell_angle_alpha 53.585663
_cell_angle_beta 106.259877
_cell_angle_gamma 118.884734
_cell_volume 767.655247
_symmetry_space_group_name_H-M "P -1"
_symmetry_group_IT_number 2
_symmetry_cell_setting 'triclinic'
loop_
_space_group_symop_operation_xyz
x,y,z
-x,-y,-z
loop_
_atom_site_type_symbol
_atom_site_label
_atom_site_fract_x
_atom_site_fract_y
_atom_site_fract_z
Si Si1 0.769983 0.574769 0.138142
Si Si2 0.975619 0.552574 0.903857
Si Si3 0.879560 0.504095 0.418688
Si Si4 0.452700 0.050657 0.197640
Si Si5 0.626821 0.919774 0.481163
Si Si6 0.542119 0.648788 0.377296
Si Si7 0.645313 0.001111 0.962361
Si Si8 0.049869 0.877624 0.231193
O O1 0.860126 0.449545 0.119447
O O2 0.583680 0.335939 0.188011
O O3 0.908327 0.696184 0.193338
O O4 0.735364 0.812030 0.045007
O O5 0.797377 0.301891 0.909135
O O6 0.961968 0.834249 0.831523
O O7 0.000000 0.500000 0.000000
O O8 0.717208 0.584794 0.404948
O O9 0.000000 0.500000 0.500000
O O10 0.994365 0.722780 0.330193
O O11 0.800128 0.199587 0.440628
O O12 0.525842 0.824999 0.273265
O O13 0.443469 0.100177 0.103009
O O14 0.251961 0.937263 0.224531
O O15 0.555399 0.820142 0.414349
O O16 0.624144 0.644187 0.573321
O O17 0.500000 0.000000 0.500000
O O18 0.500000 0.000000 0.000000
#
# Coordination Sequence:
#
# PCOD9043411 Si02
#       8
#     2   2   2   2   2   2   2   2
#     4  12  25  48  71  99 147 184 234 293 347 416
#     4  12  23  45  73 100 144 186 230 293 351 410
#     4  11  26  45  70 103 140 183 234 288 353 416
#     4  12  26  45  71 106 140 182 240 285 353 423
#     4   9  21  44  72  97 133 182 222 284 351 406
#     4  10  23  45  71 100 141 180 229 290 349 414
#     4  12  25  44  72 104 142 191 234 287 352 418
#     4  12  27  46  71 105 141 185 237 293 351 419
#
# _framework density 20.842690999999999
#
# number of rings (size 3 to 8) (size 9 to 14) (size 15 to 20)
#    0.000    0.750    2.500    4.500    7.000    1.500 
#    4.500    0.000    0.000    0.000    0.000    0.000 
#    0.000    0.000    0.000    0.000    0.000    0.000 
#
# Total GULP energy -89504.389021 kJ/mol
# GULP energy per Si atom -5594.024314 kJ/mol
# Density = 2.079525 g / cm^3
# Si number density = 20.842691 Si / 1000 Ang^3
#
#
#
# Elastic Constant Matrix: (Units=GPa)
#
#
# Indices 1 2 3 4 5 6 
#
# 1 107.5969 42.8689 49.1351 3.4673 3.7607 6.0768
# 2 42.8689 118.8620 40.6771 -24.7225 11.0648 16.1528
# 3 49.1351 40.6771 145.6937 -16.4802 11.1595 4.6812
# 4 3.4673 -24.7225 -16.4802 27.5793 4.7372 -8.4865
# 5 3.7607 11.0648 11.1595 4.7372 31.5778 -3.3976
# 6 6.0768 16.1528 4.6812 -8.4865 -3.3976 34.9048
#
#
#
# Elastic Compliance Matrix: (Units=1/GPa)
#
#
# Indices 1 2 3 4 5 6 
#
# 1 0.013999 -0.005869 -0.004517 -0.010740 0.003447 -0.001391
# 2 -0.005869 0.014431 0.000156 0.014039 -0.006834 -0.002929
# 3 -0.004517 0.000156 0.009433 0.007264 -0.003850 0.000841
# 4 -0.010740 0.014039 0.007264 0.059275 -0.014301 0.007418
# 5 0.003447 -0.006834 -0.003850 -0.014301 0.037508 0.003253
# 6 -0.001391 -0.002929 0.000841 0.007418 0.003253 0.032255
#
#
# Mechanical properties :
#
#
# Convention : Reuss Voigt Hill
#
# Bulk Modulus (GPa) = 57.46025 70.83499 64.14762
# Shear Modulus (GPa) = 25.88524 34.77712 30.33118
#
# Velocity S-wave (km/s) = 3.52793 4.08922 3.81890
# Velocity P-wave (km/s) = 6.65007 7.50700 7.09149
#
# Compressibility (1/GPa) = 0.01740334
#
# Stress axis : x y z
#
# Youngs Moduli (GPa) = 71.43335 69.29644 106.01034
#
# Poissons Ratio (x) = 0.40669 0.47883
# Poissons Ratio (y) = 0.41923 -0.01653
# Poissons Ratio (z) = 0.32265 -0.01080
#
# Static dielectric constant tensor:
#      x y z
#    x 1.746320 0.007450 -0.017100 
#    y 0.007450 1.743090 -0.011570 
#    z -0.017100 -0.011570 1.712300 
# 
# From -- ./inp_files/106345.got.cif
#   From: 2010.05.17/outbox.cif.g08.bks.cpg/sg2_54_cif.got.tgz:106345.got - 2010.06.03 11:33:40.
