data_PCOD9043655
_publ_section_title
;
Structure prediction by ZEFSAII (Michael W. Deem and Ramdas Pophale) SiO2 
 PCOD9043655
Probable space group: P -1
;
_chemical_formula_sum "Si O2"
_cell_formula_units_Z 12
_cell_length_a 13.851994
_cell_length_b 14.299493
_cell_length_c 10.640737
_cell_angle_alpha 152.501997
_cell_angle_beta 135.817456
_cell_angle_gamma 30.214668
_cell_volume 478.535575
_symmetry_space_group_name_H-M "P -1"
_symmetry_group_IT_number 2
_symmetry_cell_setting 'triclinic'
loop_
_space_group_symop_operation_xyz
x,y,z
-x,-y,-z
loop_
_atom_site_type_symbol
_atom_site_label
_atom_site_fract_x
_atom_site_fract_y
_atom_site_fract_z
Si Si1 0.833407 0.888228 0.533596
Si Si2 0.812567 0.569245 0.953543
Si Si3 0.442666 0.289970 0.763586
Si Si4 0.163261 0.660904 0.712736
Si Si5 0.457960 0.372404 0.413838
Si Si6 0.797369 0.200426 0.656712
O O1 0.650047 0.171987 0.774330
O O2 0.910361 0.972862 0.604433
O O3 0.743627 0.788472 0.260861
O O4 0.017301 0.639774 0.494637
O O5 0.646236 0.695816 0.845877
O O6 0.877730 0.285033 0.735523
O O7 0.000000 0.500000 0.000000
O O8 0.286699 0.458522 0.705306
O O9 0.500000 0.000000 0.500000
O O10 0.357391 0.499131 0.051475
O O11 0.309553 0.567908 0.624315
O O12 0.000000 0.000000 0.000000
O O13 0.500000 0.500000 0.500000
O O14 0.672067 0.152053 0.415338
#
# Coordination Sequence:
#
# PCOD9043655 Si02
#       6
#     2   2   2   2   2   2
#     4  12  24  44  76 107 148 196 252 310 376 450
#     4  11  24  45  69 107 152 191 256 310 370 448
#     4  12  25  47  75 110 154 196 248 315 382 448
#     4  12  24  45  79 111 145 199 255 309 375 450
#     4  10  23  45  73 108 148 200 250 305 380 449
#     4  11  23  46  73 105 146 198 246 307 377 443
#
# _framework density 25.076505999999998
#
# number of rings (size 3 to 8) (size 9 to 14) (size 15 to 20)
#    0.000    0.667    6.667    1.500    0.000    2.000 
#    0.000    0.000    0.000    0.000    0.000    0.000 
#    0.000    0.000    0.000    0.000    0.000    0.000 
#
# Total GULP energy -67058.819753 kJ/mol
# GULP energy per Si atom -5588.234979 kJ/mol
# Density = 2.501943 g / cm^3
# Si number density = 25.076506 Si / 1000 Ang^3
#
#
#
# Elastic Constant Matrix: (Units=GPa)
#
#
# Indices 1 2 3 4 5 6 
#
# 1 143.8803 42.8901 20.9904 -11.4701 3.6649 -3.4305
# 2 42.8901 198.5610 23.8366 -25.7010 26.5464 -6.7378
# 3 20.9904 23.8366 89.1859 -17.7843 21.1616 5.7363
# 4 -11.4701 -25.7010 -17.7843 46.9801 -3.1140 11.2438
# 5 3.6649 26.5464 21.1616 -3.1140 44.8028 0.3201
# 6 -3.4305 -6.7378 5.7363 11.2438 0.3201 37.6610
#
#
#
# Elastic Compliance Matrix: (Units=1/GPa)
#
#
# Indices 1 2 3 4 5 6 
#
# 1 0.007658 -0.001539 -0.001608 0.000358 0.001066 0.000551
# 2 -0.001539 0.006175 0.000050 0.002760 -0.003366 0.000162
# 3 -0.001608 0.000050 0.014453 0.005638 -0.006305 -0.003968
# 4 0.000358 0.002760 0.005638 0.026851 -0.002402 -0.008328
# 5 0.001066 -0.003366 -0.006305 -0.002402 0.027032 0.000942
# 6 0.000551 0.000162 -0.003968 -0.008328 0.000942 0.029715
#
#
# Mechanical properties :
#
#
# Convention : Reuss Voigt Hill
#
# Bulk Modulus (GPa) = 45.26202 67.45127 56.35664
# Shear Modulus (GPa) = 39.85943 48.81611 44.33777
#
# Velocity S-wave (km/s) = 3.99119 4.41691 4.20944
# Velocity P-wave (km/s) = 6.27123 7.27796 6.79327
#
# Compressibility (1/GPa) = 0.02209358
#
# Stress axis : x y z
#
# Youngs Moduli (GPa) = 130.58250 161.93587 69.18993
#
# Poissons Ratio (x) = 0.24915 0.11126
# Poissons Ratio (y) = 0.20091 -0.00348
# Poissons Ratio (z) = 0.20999 -0.00815
#
# Static dielectric constant tensor:
#      x y z
#    x 2.110120 0.022510 -0.065820 
#    y 0.022510 2.032770 0.022660 
#    z -0.065820 0.022660 2.194200 
# 
# From -- ./inp_files/255598.got.cif
#   From: 2010.05.17/outbox.cif.g08.bks.cpg/sg2_128_cif.got.tgz:255598.got - 2010.06.03 11:33:40.
