data_PCOD9043383
_publ_section_title
;
Structure prediction by ZEFSAII (Michael W. Deem and Ramdas Pophale) SiO2 
 PCOD9043383
Probable space group: P -1
;
_chemical_formula_sum "Si O2"
_cell_formula_units_Z 16
_cell_length_a 8.627740
_cell_length_b 13.158532
_cell_length_c 18.937740
_cell_angle_alpha 144.435804
_cell_angle_beta 131.603343
_cell_angle_gamma 74.220637
_cell_volume 736.104379
_symmetry_space_group_name_H-M "P -1"
_symmetry_group_IT_number 2
_symmetry_cell_setting 'triclinic'
loop_
_space_group_symop_operation_xyz
x,y,z
-x,-y,-z
loop_
_atom_site_type_symbol
_atom_site_label
_atom_site_fract_x
_atom_site_fract_y
_atom_site_fract_z
Si Si1 0.950967 0.542152 0.182696
Si Si2 0.745286 0.988077 0.407006
Si Si3 0.732702 0.008303 0.110027
Si Si4 0.701304 0.593055 0.840908
Si Si5 0.685715 0.617339 0.516990
Si Si6 0.291994 0.141584 0.202105
Si Si7 0.498955 0.138902 0.891346
Si Si8 0.262556 0.541661 0.074953
O O1 0.182362 0.779877 0.416549
O O2 0.064021 0.412694 0.118452
O O3 0.731532 0.398977 0.095090
O O4 0.823582 0.572287 0.092847
O O5 0.667713 0.942015 0.275981
O O6 0.503475 0.793150 0.270574
O O7 0.000000 0.000000 0.500000
O O8 0.664997 0.932824 0.127908
O O9 0.756764 0.827688 0.980991
O O10 0.004753 0.255469 0.326343
O O11 0.500000 0.000000 0.000000
O O12 0.449668 0.410158 0.614137
O O13 0.659310 0.536498 0.879439
O O14 0.507460 0.368000 0.352602
O O15 0.681789 0.767813 0.659643
O O16 0.367947 0.980755 0.132132
O O17 0.000000 0.000000 0.000000
O O18 0.000000 0.500000 0.000000
#
# Coordination Sequence:
#
# PCOD9043383 Si02
#       8
#     2   2   2   2   2   2   2   2
#     4  10  23  45  70  97 136 177 229 279 333 405
#     4  11  26  42  69 103 137 179 234 281 346 417
#     4  12  28  44  64 101 142 180 225 282 344 410
#     4  11  24  42  70  98 132 181 228 279 343 402
#     4  11  24  41  70  96 133 173 230 281 336 403
#     4  11  23  45  70  98 129 177 233 285 339 406
#     4  11  25  42  67  96 138 179 221 279 345 403
#     4   9  23  43  67 100 138 177 224 287 339 407
#
# _framework density 21.736049000000001
#
# number of rings (size 3 to 8) (size 9 to 14) (size 15 to 20)
#    0.000    1.250    0.000    4.500    5.250   10.000 
#    0.000    0.000    0.000    0.000    0.000    0.000 
#    0.000    0.000    0.000    0.000    0.000    0.000 
#
# Total GULP energy -89435.321393 kJ/mol
# GULP energy per Si atom -5589.707587 kJ/mol
# Density = 2.168658 g / cm^3
# Si number density = 21.736049 Si / 1000 Ang^3
#
#
#
# Elastic Constant Matrix: (Units=GPa)
#
#
# Indices 1 2 3 4 5 6 
#
# 1 86.8225 60.9581 47.8652 8.9198 23.7509 14.0238
# 2 60.9581 59.9275 59.3040 -15.5712 -18.9640 -0.1941
# 3 47.8652 59.3040 150.6615 0.3873 22.1702 7.8787
# 4 8.9198 -15.5712 0.3873 29.1637 -6.7710 9.9761
# 5 23.7509 -18.9640 22.1702 -6.7710 21.9858 5.4126
# 6 14.0238 -0.1941 7.8787 9.9761 5.4126 35.4853
#
#
#
# Elastic Compliance Matrix: (Units=1/GPa)
#
#
# Indices 1 2 3 4 5 6 
#
# 1 0.004391 0.009772 -0.007213 0.009139 0.014988 -0.004936
# 2 0.009772 -0.005860 0.002399 -0.012166 -0.022370 0.002406
# 3 -0.007213 0.002399 0.007430 0.004524 0.003924 -0.000656
# 4 0.009139 -0.012166 0.004524 0.024629 -0.015051 -0.009311
# 5 0.014988 -0.022370 0.003924 -0.015051 0.002147 -0.003013
# 6 -0.004936 0.002406 -0.000656 -0.009311 -0.003013 0.033367
#
#
# Mechanical properties :
#
#
# Convention : Reuss Voigt Hill
#
# Bulk Modulus (GPa) = 62.97705 70.40733 66.69219
# Shear Modulus (GPa) = 81.32706 25.94590 53.63648
#
# Velocity S-wave (km/s) = 6.12348 3.45872 4.97291
# Velocity P-wave (km/s) = 8.89002 6.95791 7.98264
#
# Compressibility (1/GPa) = 0.01587880
#
# Stress axis : x y z
#
# Youngs Moduli (GPa) = 227.72650 -170.65096 134.59361
#
# Poissons Ratio (x) = 1.66765 0.97077
# Poissons Ratio (y) = -2.22541 -0.32291
# Poissons Ratio (z) = 1.64250 0.40942
#
# Static dielectric constant tensor:
#      x y z
#    x 1.803100 0.015860 -0.022540 
#    y 0.015860 1.780120 0.013950 
#    z -0.022540 0.013950 1.745950 
# 
# From -- ./inp_files/135537.got.cif
#   From: 2010.05.17/outbox.cif.g08.bks.cpg/sg2_68_cif.got.tgz:135537.got - 2010.06.03 11:33:40.
