data_PCOD9043735
_publ_section_title
;
Structure prediction by ZEFSAII (Michael W. Deem and Ramdas Pophale) SiO2 
 PCOD9043735
Probable space group: P -1
;
_chemical_formula_sum "Si O2"
_cell_formula_units_Z 12
_cell_length_a 12.818504
_cell_length_b 5.050011
_cell_length_c 15.597594
_cell_angle_alpha 109.734675
_cell_angle_beta 28.097287
_cell_angle_gamma 119.246897
_cell_volume 404.070343
_symmetry_space_group_name_H-M "P -1"
_symmetry_group_IT_number 2
_symmetry_cell_setting 'triclinic'
loop_
_space_group_symop_operation_xyz
x,y,z
-x,-y,-z
loop_
_atom_site_type_symbol
_atom_site_label
_atom_site_fract_x
_atom_site_fract_y
_atom_site_fract_z
Si Si1 0.312819 0.047783 0.209200
Si Si2 0.581591 0.125728 0.629596
Si Si3 0.000000 0.500000 0.000000
Si Si4 0.201522 0.516551 0.040408
Si Si5 0.000000 0.500000 0.500000
Si Si6 0.055366 0.052539 0.244200
Si Si7 0.386127 0.455044 0.670610
O O1 0.161917 0.197806 0.278543
O O2 0.510000 0.261402 0.157816
O O3 0.105818 0.749290 0.369624
O O4 0.500000 0.000000 0.000000
O O5 0.722312 0.311892 0.630452
O O6 0.513909 0.322131 0.630548
O O7 0.785025 0.024014 0.433611
O O8 0.354354 0.773387 0.760846
O O9 0.902678 0.740757 0.147652
O O10 0.071762 0.389682 0.032224
O O11 0.205427 0.287420 0.087601
O O12 0.074900 0.729041 0.194032
O O13 0.500000 0.500000 0.500000
#
# Coordination Sequence:
#
# PCOD9043735 Si02
#       7
#     2   2   1   2   1   2   2
#     4  10  23  45  74 108 150 199 253 317 389 467
#     4  12  26  47  74 111 153 196 255 324 392 466
#     4  12  28  48  76 110 152 206 260 324 392 464
#     4  11  25  45  75 112 154 204 263 320 392 472
#     4  12  26  46  76 116 156 202 256 324 404 478
#     4  11  23  47  77 109 152 205 255 323 399 471
#     4  12  28  50  76 109 151 203 262 321 384 465
#
# _framework density 29.697801999999999
#
# number of rings (size 3 to 8) (size 9 to 14) (size 15 to 20)
#    0.000    0.667    0.000    8.000    0.000   12.000 
#    0.000    0.000    0.000    0.000    0.000    0.000 
#    0.000    0.000    0.000    0.000    0.000    0.000 
#
# Total GULP energy -66966.405188 kJ/mol
# GULP energy per Si atom -5580.533766 kJ/mol
# Density = 2.963021 g / cm^3
# Si number density = 29.697802 Si / 1000 Ang^3
#
#
#
# Elastic Constant Matrix: (Units=GPa)
#
#
# Indices 1 2 3 4 5 6 
#
# 1 265.3987 104.7125 48.4878 -24.3825 -4.0959 -38.1876
# 2 104.7125 159.8803 57.4630 -19.9391 4.8793 -22.3938
# 3 48.4878 57.4630 170.5417 1.3299 -5.2599 -25.1682
# 4 -24.3825 -19.9391 1.3299 72.4765 -12.6990 -3.5699
# 5 -4.0959 4.8793 -5.2599 -12.6990 65.3022 -1.4598
# 6 -38.1876 -22.3938 -25.1682 -3.5699 -1.4598 65.1621
#
#
#
# Elastic Compliance Matrix: (Units=1/GPa)
#
#
# Indices 1 2 3 4 5 6 
#
# 1 0.005452 -0.003074 -0.000179 0.001246 0.000848 0.002156
# 2 -0.003074 0.009362 -0.002224 0.001478 -0.000770 0.000620
# 3 -0.000179 -0.002224 0.006954 -0.000599 0.000639 0.001798
# 4 0.001246 0.001478 -0.000599 0.015241 0.002926 0.001907
# 5 0.000848 -0.000770 0.000639 0.002926 0.016067 0.000999
# 6 0.002156 0.000620 0.001798 0.001907 0.000999 0.017644
#
#
# Mechanical properties :
#
#
# Convention : Reuss Voigt Hill
#
# Bulk Modulus (GPa) = 92.49301 113.01636 102.75469
# Shear Modulus (GPa) = 58.63046 66.26533 62.44790
#
# Velocity S-wave (km/s) = 4.44806 4.72881 4.59058
# Velocity P-wave (km/s) = 7.58898 8.24340 7.92295
#
# Compressibility (1/GPa) = 0.01081163
#
# Stress axis : x y z
#
# Youngs Moduli (GPa) = 183.43512 106.81086 143.80628
#
# Poissons Ratio (x) = 0.32838 0.02580
# Poissons Ratio (y) = 0.56395 0.31986
# Poissons Ratio (z) = 0.03291 0.23757
#
# Static dielectric constant tensor:
#      x y z
#    x 2.472630 0.318090 -0.499350 
#    y 0.318090 2.637640 -0.567410 
#    z -0.499350 -0.567410 3.156000 
# 
# From -- ./inp_files/510926.got.cif
#   From: 2010.05.17/outbox.cif.g08.bks.cpg/sg2_256_cif.got.tgz:510926.got - 2010.06.03 11:33:40.
