data_PCOD9043003
_publ_section_title
;
Structure prediction by ZEFSAII (Michael W. Deem and Ramdas Pophale) SiO2 
 PCOD9043003
Probable space group: P -1
;
_chemical_formula_sum "Si O2"
_cell_formula_units_Z 12
_cell_length_a 8.788328
_cell_length_b 9.441317
_cell_length_c 9.016861
_cell_angle_alpha 88.203083
_cell_angle_beta 121.487100
_cell_angle_gamma 108.345803
_cell_volume 597.335992
_symmetry_space_group_name_H-M "P -1"
_symmetry_group_IT_number 2
_symmetry_cell_setting 'triclinic'
loop_
_space_group_symop_operation_xyz
x,y,z
-x,-y,-z
loop_
_atom_site_type_symbol
_atom_site_label
_atom_site_fract_x
_atom_site_fract_y
_atom_site_fract_z
Si Si1 0.688198 0.115129 0.008057
Si Si2 0.531255 0.589920 0.668202
Si Si3 0.090572 0.876046 0.593093
Si Si4 0.504972 0.916923 0.657158
Si Si5 0.853349 0.566453 0.351024
Si Si6 0.808849 0.470088 0.996026
O O1 0.862943 0.128004 0.207530
O O2 0.701101 0.288568 0.977341
O O3 0.500000 0.000000 0.000000
O O4 0.665437 0.028608 0.843228
O O5 0.500000 0.500000 0.500000
O O6 0.550572 0.764591 0.656182
O O7 0.351317 0.522835 0.685836
O O8 0.694007 0.551416 0.838660
O O9 0.293439 0.885297 0.621807
O O10 0.927885 0.731876 0.449264
O O11 0.000000 0.000000 0.500000
O O12 0.500000 0.000000 0.500000
O O13 0.000000 0.500000 0.500000
O O14 0.853255 0.548795 0.176063
O O15 0.000000 0.500000 0.000000
#
# Coordination Sequence:
#
# PCOD9043003 Si02
#       6
#     2   2   2   2   2   2
#     4  10  23  45  67  97 138 182 228 281 348 412
#     4  12  27  45  72 103 140 186 234 288 349 417
#     4  11  26  42  71 100 137 182 229 284 347 415
#     4  11  25  45  68 100 141 181 226 285 351 416
#     4  12  23  46  70 101 141 181 236 285 348 415
#     4  12  27  45  74 105 139 185 238 294 347 418
#
# _framework density 20.089195
#
# number of rings (size 3 to 8) (size 9 to 14) (size 15 to 20)
#    0.000    0.667    3.333    3.500   11.667    0.000 
#    0.000    1.667    0.000    0.000    0.000    0.000 
#    0.000    0.000    0.000    0.000    0.000    0.000 
#
# Total GULP energy -66978.303602 kJ/mol
# GULP energy per Si atom -5581.525300 kJ/mol
# Density = 2.004347 g / cm^3
# Si number density = 20.089195 Si / 1000 Ang^3
#
#
#
# Elastic Constant Matrix: (Units=GPa)
#
#
# Indices 1 2 3 4 5 6 
#
# 1 78.9585 21.1384 61.1433 -20.0414 5.6745 -4.6580
# 2 21.1384 195.2947 88.0490 -11.2801 0.4097 -33.2020
# 3 61.1433 88.0490 215.8097 -13.2442 -25.9914 -27.9048
# 4 -20.0414 -11.2801 -13.2442 41.3050 -11.2422 5.5890
# 5 5.6745 0.4097 -25.9914 -11.2422 44.0265 -4.1450
# 6 -4.6580 -33.2020 -27.9048 5.5890 -4.1450 39.1163
#
#
#
# Elastic Compliance Matrix: (Units=1/GPa)
#
#
# Indices 1 2 3 4 5 6 
#
# 1 0.019177 0.000605 -0.006255 0.006585 -0.004781 -0.003112
# 2 0.000605 0.006922 -0.002605 0.000499 -0.001186 0.003893
# 3 -0.006255 -0.002605 0.008774 0.000290 0.006456 0.003946
# 4 0.006585 0.000499 0.000290 0.029749 0.006715 -0.002124
# 5 -0.004781 -0.001186 0.006456 0.006715 0.029355 0.005180
# 6 -0.003112 0.003893 0.003946 -0.002124 0.005180 0.032166
#
#
# Mechanical properties :
#
#
# Convention : Reuss Voigt Hill
#
# Bulk Modulus (GPa) = 54.44735 92.30270 73.37503
# Shear Modulus (GPa) = 33.60814 46.20503 39.90659
#
# Velocity S-wave (km/s) = 4.09460 4.80103 4.46182
# Velocity P-wave (km/s) = 7.03676 8.76238 7.94655
#
# Compressibility (1/GPa) = 0.01836637
#
# Stress axis : x y z
#
# Youngs Moduli (GPa) = 52.14454 144.45864 113.97250
#
# Poissons Ratio (x) = -0.08746 0.71284
# Poissons Ratio (y) = -0.03157 0.29686
# Poissons Ratio (z) = 0.32614 0.37627
#
# Static dielectric constant tensor:
#      x y z
#    x 1.482950 0.232870 -0.137310 
#    y 0.232870 1.457000 0.119540 
#    z -0.137310 0.119540 1.623210 
# 
# From -- ./inp_files/146473.got.cif
#   From: 2010.05.17/outbox.cif.g08.bks.cpg/sg2_74_cif.got.tgz:146473.got - 2010.06.03 11:33:40.
