data_PCOD9043392
_publ_section_title
;
Structure prediction by ZEFSAII (Michael W. Deem and Ramdas Pophale) SiO2 
 PCOD9043392
Probable space group: P -1
;
_chemical_formula_sum "Si O2"
_cell_formula_units_Z 16
_cell_length_a 9.615480
_cell_length_b 17.694309
_cell_length_c 8.976593
_cell_angle_alpha 76.918836
_cell_angle_beta 100.051301
_cell_angle_gamma 34.656724
_cell_volume 641.999153
_symmetry_space_group_name_H-M "P -1"
_symmetry_group_IT_number 2
_symmetry_cell_setting 'triclinic'
loop_
_space_group_symop_operation_xyz
x,y,z
-x,-y,-z
loop_
_atom_site_type_symbol
_atom_site_label
_atom_site_fract_x
_atom_site_fract_y
_atom_site_fract_z
Si Si1 0.645761 0.780205 0.547545
Si Si2 0.286637 0.405561 0.517658
Si Si3 0.711699 0.348744 0.992509
Si Si4 0.029605 0.903681 0.134220
Si Si5 0.943910 0.358851 0.860566
Si Si6 0.356914 0.030086 0.166994
Si Si7 0.257066 0.926608 0.671180
Si Si8 0.703131 0.572561 0.007884
O O1 0.537274 0.751025 0.471053
O O2 0.413643 0.908679 0.589199
O O3 0.002785 0.583804 0.756378
O O4 0.643383 0.848341 0.390729
O O5 0.584573 0.299456 0.702155
O O6 0.111475 0.558661 0.323285
O O7 0.000000 0.500000 0.500000
O O8 0.084934 0.173236 0.181620
O O9 0.500000 0.500000 0.000000
O O10 0.710786 0.398313 0.816503
O O11 0.599207 0.318274 0.016127
O O12 0.907228 0.963715 0.256054
O O13 0.810982 0.950981 0.979755
O O14 0.000000 0.000000 0.000000
O O15 0.828147 0.467714 0.929904
O O16 0.299557 0.142753 0.030262
O O17 0.569135 0.721987 0.871411
O O18 0.000000 0.000000 0.500000
#
# Coordination Sequence:
#
# PCOD9043392 Si02
#       8
#     2   2   2   2   2   2   2   2
#     4  12  25  42  70 108 142 183 239 291 355 414
#     4  12  27  44  71 104 140 182 233 298 354 418
#     4   8  18  39  70  92 134 181 226 283 339 415
#     4  12  24  44  72 103 141 189 234 289 354 419
#     4   9  22  45  69  97 141 178 237 285 348 423
#     4  10  23  45  70  98 143 184 237 281 351 425
#     4  12  23  42  72 105 142 181 244 289 342 422
#     4  11  21  39  73 106 135 183 231 298 350 401
#
# _framework density 24.922149999999998
#
# number of rings (size 3 to 8) (size 9 to 14) (size 15 to 20)
#    0.750    0.500    3.750    1.875    3.500    2.000 
#    0.000    0.625    2.750    0.000    0.000    0.000 
#    0.000    0.000    0.000    0.000    0.000    0.000 
#
# Total GULP energy -89209.479788 kJ/mol
# GULP energy per Si atom -5575.592487 kJ/mol
# Density = 2.486543 g / cm^3
# Si number density = 24.922150 Si / 1000 Ang^3
#
#
#
# Elastic Constant Matrix: (Units=GPa)
#
#
# Indices 1 2 3 4 5 6 
#
# 1 99.3595 15.9393 46.4227 -4.9882 -41.1060 -24.3990
# 2 15.9393 91.6094 23.7146 2.8800 -11.1357 -2.4891
# 3 46.4227 23.7146 164.1729 -22.8014 -39.8539 -3.1262
# 4 -4.9882 2.8800 -22.8014 28.6109 -1.4118 -0.5126
# 5 -41.1060 -11.1357 -39.8539 -1.4118 50.0325 -7.1386
# 6 -24.3990 -2.4891 -3.1262 -0.5126 -7.1386 35.9648
#
#
#
# Elastic Compliance Matrix: (Units=1/GPa)
#
#
# Indices 1 2 3 4 5 6 
#
# 1 0.026591 -0.001173 0.000089 0.006478 0.025127 0.023046
# 2 -0.001173 0.011661 -0.001685 -0.002714 0.000194 -0.000135
# 3 0.000089 -0.001685 0.009347 0.008058 0.007713 0.002402
# 4 0.006478 -0.002714 0.008058 0.043591 0.013538 0.008216
# 5 0.025127 0.000194 0.007713 0.013538 0.051208 0.028088
# 6 0.023046 -0.000135 0.002402 0.008216 0.028088 0.049331
#
#
# Mechanical properties :
#
#
# Convention : Reuss Voigt Hill
#
# Bulk Modulus (GPa) = 23.77539 58.58832 41.18185
# Shear Modulus (GPa) = 23.66431 40.85932 32.26182
#
# Velocity S-wave (km/s) = 3.08479 4.05344 3.60182
# Velocity P-wave (km/s) = 4.71683 6.74290 5.81873
#
# Compressibility (1/GPa) = 0.04206030
#
# Stress axis : x y z
#
# Youngs Moduli (GPa) = 37.60654 85.75266 106.98938
#
# Poissons Ratio (x) = 0.10056 -0.00948
# Poissons Ratio (y) = 0.04410 0.18033
# Poissons Ratio (z) = -0.00333 0.14453
#
# Static dielectric constant tensor:
#      x y z
#    x 0.180700 -1.770390 0.905500 
#    y -1.770390 0.382900 0.914760 
#    z 0.905500 0.914760 1.652050 
# 
# From -- ./inp_files/283048.got.cif
#   From: 2010.05.17/outbox.cif.g08.bks.cpg/sg2_142_cif.got.tgz:283048.got - 2010.06.03 11:33:40.
