data_PCOD9043495
_publ_section_title
;
Structure prediction by ZEFSAII (Michael W. Deem and Ramdas Pophale) SiO2 
 PCOD9043495
Probable space group: P -1
;
_chemical_formula_sum "Si O2"
_cell_formula_units_Z 14
_cell_length_a 11.304771
_cell_length_b 12.038200
_cell_length_c 17.584942
_cell_angle_alpha 151.159484
_cell_angle_beta 150.110816
_cell_angle_gamma 38.179882
_cell_volume 571.715384
_symmetry_space_group_name_H-M "P -1"
_symmetry_group_IT_number 2
_symmetry_cell_setting 'triclinic'
loop_
_space_group_symop_operation_xyz
x,y,z
-x,-y,-z
loop_
_atom_site_type_symbol
_atom_site_label
_atom_site_fract_x
_atom_site_fract_y
_atom_site_fract_z
Si Si1 0.728157 0.297124 0.444737
Si Si2 0.786412 0.902797 0.473530
Si Si3 0.058303 0.095245 0.283924
Si Si4 0.591142 0.970742 0.786514
Si Si5 0.341511 0.505470 0.638924
Si Si6 0.506739 0.485509 0.108686
Si Si7 0.012286 0.315649 0.111219
O O1 0.615929 0.430793 0.387044
O O2 0.843220 0.460804 0.668481
O O3 0.957885 0.127546 0.442728
O O4 0.535945 0.163314 0.298979
O O5 0.802509 0.017465 0.632876
O O6 0.583220 0.018558 0.375723
O O7 0.710203 0.648815 0.299382
O O8 0.224443 0.264269 0.435573
O O9 0.849301 0.279271 0.310881
O O10 0.967805 0.886087 0.061970
O O11 0.849245 0.832268 0.832538
O O12 0.591418 0.230620 0.973021
O O13 0.526795 0.506759 0.813719
O O14 0.264386 0.585033 0.990239
#
# Coordination Sequence:
#
# PCOD9043495 Si02
#       7
#     2   2   2   2   2   2   2
#     4  11  25  43  68  98 134 177 219 263 336 392
#     4  10  23  45  71  96 131 176 218 270 333 386
#     4   9  20  41  68  99 128 169 222 273 323 384
#     4  12  25  45  66  96 142 174 210 277 328 389
#     4   9  20  43  68  94 134 172 213 272 333 384
#     4  11  24  44  71  99 130 171 226 271 325 386
#     4  12  26  41  69 104 128 173 228 266 325 394
#
# _framework density 24.487708000000001
#
# number of rings (size 3 to 8) (size 9 to 14) (size 15 to 20)
#    0.000    1.429    2.857    2.143    0.000    6.286 
#    0.000    1.429    0.000    0.000    0.000    0.000 
#    0.000    0.000    0.000    0.000    0.000    0.000 
#
# Total GULP energy -78259.662825 kJ/mol
# GULP energy per Si atom -5589.975916 kJ/mol
# Density = 2.443197 g / cm^3
# Si number density = 24.487708 Si / 1000 Ang^3
#
#
#
# Elastic Constant Matrix: (Units=GPa)
#
#
# Indices 1 2 3 4 5 6 
#
# 1 68.0841 31.3685 36.6620 5.5200 -7.1853 32.4263
# 2 31.3685 115.4334 33.4244 -22.5701 -12.7490 -0.0988
# 3 36.6620 33.4244 97.6983 -6.1248 -25.9662 19.8702
# 4 5.5200 -22.5701 -6.1248 43.6774 7.9331 -12.7477
# 5 -7.1853 -12.7490 -25.9662 7.9331 47.3724 -7.9522
# 6 32.4263 -0.0988 19.8702 -12.7477 -7.9522 48.5532
#
#
#
# Elastic Compliance Matrix: (Units=1/GPa)
#
#
# Indices 1 2 3 4 5 6 
#
# 1 0.040318 -0.013631 -0.006293 -0.021443 -0.002518 -0.030421
# 2 -0.013631 0.015645 -0.001851 0.013296 0.001181 0.013577
# 3 -0.006293 -0.001851 0.015192 0.000530 0.006653 -0.000790
# 4 -0.021443 0.013296 0.000530 0.040008 -0.002003 0.024307
# 5 -0.002518 0.001181 0.006653 -0.002003 0.025465 0.002606
# 6 -0.030421 0.013577 -0.000790 0.024307 0.002606 0.048072
#
#
# Mechanical properties :
#
#
# Convention : Reuss Voigt Hill
#
# Bulk Modulus (GPa) = 36.22456 53.79173 45.00815
# Shear Modulus (GPa) = 21.05699 39.90466 30.48082
#
# Velocity S-wave (km/s) = 2.93559 4.04118 3.53191
# Velocity P-wave (km/s) = 5.12984 6.61736 5.92050
#
# Compressibility (1/GPa) = 0.02760558
#
# Stress axis : x y z
#
# Youngs Moduli (GPa) = 24.80312 63.91894 65.82196
#
# Poissons Ratio (x) = 0.87127 0.41419
# Poissons Ratio (y) = 0.33809 0.12186
# Poissons Ratio (z) = 0.15607 0.11833
#
# Static dielectric constant tensor:
#      x y z
#    x 1.957220 0.005680 -0.038970 
#    y 0.005680 2.012330 -0.037590 
#    z -0.038970 -0.037590 1.924500 
# 
# From -- ./inp_files/505657.got.cif
#   From: 2010.05.17/outbox.cif.g08.bks.cpg/sg2_253_cif.got.tgz:505657.got - 2010.06.03 11:33:40.
