data_PCOD9043018
_publ_section_title
;
Structure prediction by ZEFSAII (Michael W. Deem and Ramdas Pophale) SiO2 
 PCOD9043018
Probable space group: P -1
;
_chemical_formula_sum "Si O2"
_cell_formula_units_Z 12
_cell_length_a 8.115192
_cell_length_b 12.449145
_cell_length_c 14.628008
_cell_angle_alpha 151.306381
_cell_angle_beta 49.140221
_cell_angle_gamma 115.039051
_cell_volume 488.283709
_symmetry_space_group_name_H-M "P -1"
_symmetry_group_IT_number 2
_symmetry_cell_setting 'triclinic'
loop_
_space_group_symop_operation_xyz
x,y,z
-x,-y,-z
loop_
_atom_site_type_symbol
_atom_site_label
_atom_site_fract_x
_atom_site_fract_y
_atom_site_fract_z
Si Si1 0.591434 0.765854 0.567328
Si Si2 0.817115 0.134483 0.748108
Si Si3 0.994073 0.556493 0.398413
Si Si4 0.268771 0.449722 0.028253
Si Si5 0.932954 0.238974 0.977993
Si Si6 0.068943 0.826926 0.747031
O O1 0.324793 0.798767 0.669619
O O2 0.713994 0.688766 0.566590
O O3 0.622816 0.017835 0.721471
O O4 0.757626 0.527581 0.267194
O O5 0.789680 0.408360 0.941009
O O6 0.889437 0.109153 0.808196
O O7 0.000000 0.000000 0.500000
O O8 0.125902 0.549605 0.250059
O O9 0.087636 0.675482 0.533675
O O10 0.040522 0.293464 0.228770
O O11 0.500000 0.500000 0.000000
O O12 0.205153 0.218499 0.862430
O O13 0.907734 0.099318 0.972997
#
# Coordination Sequence:
#
# PCOD9043018 Si02
#       6
#     2   2   2   2   2   2
#     4  11  24  43  71 100 134 182 223 279 345 398
#     4  12  22  43  65  96 144 172 222 287 326 400
#     4  10  23  45  67  99 141 171 228 288 329 402
#     4  11  24  40  68  99 133 182 225 274 343 406
#     4  11  24  43  69 102 135 178 231 278 336 406
#     4  11  23  45  72  97 138 180 224 285 340 397
#
# _framework density 24.575877999999999
#
# number of rings (size 3 to 8) (size 9 to 14) (size 15 to 20)
#    0.000    1.000    5.000    2.000    2.333    2.667 
#    0.000    8.333    0.000    0.000    0.000    0.000 
#    0.000    0.000    0.000    0.000    0.000    0.000 
#
# Total GULP energy -66846.800761 kJ/mol
# GULP energy per Si atom -5570.566730 kJ/mol
# Density = 2.451994 g / cm^3
# Si number density = 24.575878 Si / 1000 Ang^3
#
#
#
# Elastic Constant Matrix: (Units=GPa)
#
#
# Indices 1 2 3 4 5 6 
#
# 1 164.4595 44.1721 55.4314 -16.7298 40.1169 7.4815
# 2 44.1721 157.5001 40.3862 22.2658 3.4079 -11.8429
# 3 55.4314 40.3862 50.9338 -2.9944 29.1202 10.9419
# 4 -16.7298 22.2658 -2.9944 30.6200 -2.3005 4.4918
# 5 40.1169 3.4079 29.1202 -2.3005 41.0456 5.1828
# 6 7.4815 -11.8429 10.9419 4.4918 5.1828 44.6418
#
#
#
# Elastic Compliance Matrix: (Units=1/GPa)
#
#
# Indices 1 2 3 4 5 6 
#
# 1 0.010899 -0.002395 -0.006161 0.006821 -0.005575 -0.000991
# 2 -0.002395 0.013901 -0.017933 -0.013501 0.012087 0.008440
# 3 -0.006161 -0.017933 0.065874 0.015935 -0.036150 -0.017277
# 4 0.006821 -0.013501 0.015935 0.048582 -0.012605 -0.012055
# 5 -0.005575 0.012087 -0.036150 -0.012605 0.052720 0.008149
# 6 -0.000991 0.008440 -0.017277 -0.012055 0.008149 0.029307
#
#
# Mechanical properties :
#
#
# Convention : Reuss Voigt Hill
#
# Bulk Modulus (GPa) = 26.52828 72.54142 49.53485
# Shear Modulus (GPa) = 17.43205 38.78840 28.11023
#
# Velocity S-wave (km/s) = 2.66619 3.97711 3.38570
# Velocity P-wave (km/s) = 4.50510 7.11837 5.95681
#
# Compressibility (1/GPa) = 0.03769562
#
# Stress axis : x y z
#
# Youngs Moduli (GPa) = 91.74808 71.93755 15.18040
#
# Poissons Ratio (x) = 0.17229 0.09353
# Poissons Ratio (y) = 0.21973 0.27223
# Poissons Ratio (z) = 0.56530 1.29006
#
# Static dielectric constant tensor:
#      x y z
#    x 1.841490 0.307960 0.004130 
#    y 0.307960 2.014440 0.174250 
#    z 0.004130 0.174250 2.179450 
# 
# From -- ./inp_files/197130.got.cif
#   From: 2010.05.17/outbox.cif.g08.bks.cpg/sg2_99_cif.got.tgz:197130.got - 2010.06.03 11:33:40.
