data_PCOD9043140
_publ_section_title
;
Structure prediction by ZEFSAII (Michael W. Deem and Ramdas Pophale) SiO2 
 PCOD9043140
Probable space group: P -1
;
_chemical_formula_sum "Si O2"
_cell_formula_units_Z 16
_cell_length_a 12.171631
_cell_length_b 5.876023
_cell_length_c 12.403421
_cell_angle_alpha 119.054250
_cell_angle_beta 113.452777
_cell_angle_gamma 68.549617
_cell_volume 694.770565
_symmetry_space_group_name_H-M "P -1"
_symmetry_group_IT_number 2
_symmetry_cell_setting 'triclinic'
loop_
_space_group_symop_operation_xyz
x,y,z
-x,-y,-z
loop_
_atom_site_type_symbol
_atom_site_label
_atom_site_fract_x
_atom_site_fract_y
_atom_site_fract_z
Si Si1 0.582274 0.089632 0.459883
Si Si2 0.484399 0.422670 0.320491
Si Si3 0.552293 0.678552 0.965976
Si Si4 0.832409 0.467682 0.020290
Si Si5 0.047816 0.695442 0.416459
Si Si6 0.888106 0.292212 0.222187
Si Si7 0.939719 0.243885 0.798456
Si Si8 0.260716 0.463595 0.606091
O O1 0.502015 0.149648 0.332744
O O2 0.601931 0.357396 0.588199
O O3 0.500000 0.000000 0.500000
O O4 0.698032 0.851600 0.428178
O O5 0.456886 0.434152 0.185616
O O6 0.623517 0.465417 0.391279
O O7 0.500000 0.500000 0.000000
O O8 0.698344 0.636612 0.033109
O O9 0.500000 0.000000 0.000000
O O10 0.864347 0.252297 0.078809
O O11 0.939298 0.634221 0.104891
O O12 0.845267 0.332398 0.877710
O O13 0.110672 0.668567 0.317990
O O14 0.140275 0.542004 0.504897
O O15 0.930787 0.567161 0.322450
O O16 0.000000 0.000000 0.500000
O O17 0.766289 0.339596 0.256113
O O18 0.001401 0.067727 0.252084
#
# Coordination Sequence:
#
# PCOD9043140 Si02
#       8
#     2   2   2   2   2   2   2   2
#     4   9  22  42  66  96 131 174 229 284 358 422
#     4  10  24  44  67  99 135 181 235 293 359 430
#     4  12  30  49  75 108 146 195 251 303 364 436
#     4  10  25  45  69 101 136 185 239 299 358 427
#     4  11  24  39  60 103 137 172 227 283 355 429
#     4  11  23  40  68  95 132 177 230 289 356 434
#     4  10  23  45  69 100 138 183 235 294 366 429
#     4  11  23  37  68  95 133 178 222 288 358 424
#
# _framework density 23.029185999999999
#
# number of rings (size 3 to 8) (size 9 to 14) (size 15 to 20)
#    0.000    1.500    1.250    1.500   10.500    4.000 
#    0.000    0.000    0.000    0.000    0.000    0.000 
#    0.000    0.000    0.000    0.000    0.000    0.000 
#
# Total GULP energy -89239.741604 kJ/mol
# GULP energy per Si atom -5577.483850 kJ/mol
# Density = 2.297677 g / cm^3
# Si number density = 23.029186 Si / 1000 Ang^3
#
#
#
# Elastic Constant Matrix: (Units=GPa)
#
#
# Indices 1 2 3 4 5 6 
#
# 1 97.1607 19.5359 15.6388 -3.4068 -19.0407 -6.4466
# 2 19.5359 104.2769 20.8808 -11.8827 -17.4733 -8.4976
# 3 15.6388 20.8808 101.6877 -23.2283 -33.3074 13.8083
# 4 -3.4068 -11.8827 -23.2283 42.6377 0.7940 -7.1479
# 5 -19.0407 -17.4733 -33.3074 0.7940 32.9286 -9.8401
# 6 -6.4466 -8.4976 13.8083 -7.1479 -9.8401 24.6942
#
#
#
# Elastic Compliance Matrix: (Units=1/GPa)
#
#
# Indices 1 2 3 4 5 6 
#
# 1 0.012859 0.000180 0.001161 0.002844 0.011024 0.007985
# 2 0.000180 0.012497 0.000608 0.005240 0.010074 0.009539
# 3 0.001161 0.000608 0.017928 0.009836 0.019184 0.000979
# 4 0.002844 0.005240 0.009836 0.032426 0.017611 0.013449
# 5 0.011024 0.010074 0.019184 0.017611 0.069566 0.028436
# 6 0.007985 0.009539 0.000979 0.013449 0.028436 0.060539
#
#
# Mechanical properties :
#
#
# Convention : Reuss Voigt Hill
#
# Bulk Modulus (GPa) = 21.19427 46.13735 33.66581
# Shear Modulus (GPa) = 22.97328 36.52342 29.74835
#
# Velocity S-wave (km/s) = 3.16186 3.98673 3.59802
# Velocity P-wave (km/s) = 4.74900 6.42416 5.64902
#
# Compressibility (1/GPa) = 0.04718257
#
# Stress axis : x y z
#
# Youngs Moduli (GPa) = 77.76707 80.01954 55.77858
#
# Poissons Ratio (x) = -0.01444 -0.06478
# Poissons Ratio (y) = -0.01403 -0.03389
# Poissons Ratio (z) = -0.09032 -0.04861
#
# Static dielectric constant tensor:
#      x y z
#    x 1.938340 0.077310 -0.035670 
#    y 0.077310 2.001990 0.008920 
#    z -0.035670 0.008920 1.888390 
# 
# From -- ./inp_files/71412.got.cif
#   From: 2010.05.17/outbox.cif.g08.bks.cpg/sg2_36_cif.got.tgz:71412.got - 2010.06.03 11:33:40.
