data_PCOD9043470
_publ_section_title
;
Structure prediction by ZEFSAII (Michael W. Deem and Ramdas Pophale) SiO2 
 PCOD9043470
Probable space group: P -1
;
_chemical_formula_sum "Si O2"
_cell_formula_units_Z 14
_cell_length_a 18.226391
_cell_length_b 10.591223
_cell_length_c 15.738334
_cell_angle_alpha 43.585442
_cell_angle_beta 158.351598
_cell_angle_gamma 147.157222
_cell_volume 583.057300
_symmetry_space_group_name_H-M "P -1"
_symmetry_group_IT_number 2
_symmetry_cell_setting 'triclinic'
loop_
_space_group_symop_operation_xyz
x,y,z
-x,-y,-z
loop_
_atom_site_type_symbol
_atom_site_label
_atom_site_fract_x
_atom_site_fract_y
_atom_site_fract_z
Si Si1 0.507067 0.245013 0.928523
Si Si2 0.546763 0.405885 0.246677
Si Si3 0.704460 0.827922 0.525446
Si Si4 0.055845 0.686358 0.539053
Si Si5 0.968275 0.089524 0.012245
Si Si6 0.171568 0.287232 0.448612
Si Si7 0.187582 0.605596 0.989135
O O1 0.663612 0.176813 0.176797
O O2 0.530277 0.427583 0.930495
O O3 0.228053 0.128791 0.637462
O O4 0.687083 0.372945 0.976617
O O5 0.637381 0.464850 0.413910
O O6 0.805482 0.525969 0.410995
O O7 0.290584 0.127473 0.107606
O O8 0.754297 0.694915 0.577199
O O9 0.407900 0.715518 0.245122
O O10 0.783414 0.822810 0.706660
O O11 0.904576 0.102012 0.571549
O O12 0.000000 0.500000 0.500000
O O13 0.973825 0.314131 0.908365
O O14 0.000000 0.000000 0.000000
O O15 0.901075 0.235716 0.187415
#
# Coordination Sequence:
#
# PCOD9043470 Si02
#       7
#     2   2   2   2   2   2   2
#     4   9  19  44  66 102 140 180 232 286 349 414
#     4  10  23  45  71 106 142 187 236 287 359 415
#     4  11  27  44  70 108 141 188 237 301 352 422
#     4  12  26  44  73 105 149 186 238 293 359 432
#     4  12  24  46  78 102 149 187 237 302 354 427
#     4   9  22  44  68 106 140 182 242 282 356 423
#     4  11  22  45  74 103 143 188 237 288 359 423
#
# _framework density 24.011362999999999
#
# number of rings (size 3 to 8) (size 9 to 14) (size 15 to 20)
#    0.857    0.571    2.857    1.286    0.000    8.571 
#    0.000    2.857    0.000    0.000    0.000    0.000 
#    0.000    0.000    0.000    0.000    0.000    0.000 
#
# Total GULP energy -78026.180409 kJ/mol
# GULP energy per Si atom -5573.298601 kJ/mol
# Density = 2.395671 g / cm^3
# Si number density = 24.011363 Si / 1000 Ang^3
#
#
#
# Elastic Constant Matrix: (Units=GPa)
#
#
# Indices 1 2 3 4 5 6 
#
# 1 101.1887 48.6608 61.7547 -12.5666 -1.2776 -10.1933
# 2 48.6608 87.1305 30.8031 2.9713 12.6306 3.0453
# 3 61.7547 30.8031 141.9899 -22.3740 12.3197 -5.5721
# 4 -12.5666 2.9713 -22.3740 36.0141 3.1024 1.7559
# 5 -1.2776 12.6306 12.3197 3.1024 49.3207 3.5148
# 6 -10.1933 3.0453 -5.5721 1.7559 3.5148 22.4950
#
#
#
# Elastic Compliance Matrix: (Units=1/GPa)
#
#
# Indices 1 2 3 4 5 6 
#
# 1 0.019286 -0.009632 -0.005802 0.003225 0.003658 0.007783
# 2 -0.009632 0.017891 -0.000256 -0.004359 -0.004075 -0.005873
# 3 -0.005802 -0.000256 0.010662 0.004877 -0.003065 0.000145
# 4 0.003225 -0.004359 0.004877 0.032414 -0.002133 0.001063
# 5 0.003658 -0.004075 -0.003065 -0.002133 0.022448 -0.001891
# 6 0.007783 -0.005873 0.000145 0.001063 -0.001891 0.049024
#
#
# Mechanical properties :
#
#
# Convention : Reuss Voigt Hill
#
# Bulk Modulus (GPa) = 60.75620 68.08291 64.41956
# Shear Modulus (GPa) = 26.51211 34.17198 30.34205
#
# Velocity S-wave (km/s) = 3.32648 3.77657 3.55865
# Velocity P-wave (km/s) = 6.33340 6.88714 6.61606
#
# Compressibility (1/GPa) = 0.01645922
#
# Stress axis : x y z
#
# Youngs Moduli (GPa) = 51.85039 55.89282 93.79126
#
# Poissons Ratio (x) = 0.53836 0.54420
# Poissons Ratio (y) = 0.49942 0.02400
# Poissons Ratio (z) = 0.30085 0.01430
#
# Static dielectric constant tensor:
#      x y z
#    x 1.872950 -0.007600 0.004500 
#    y -0.007600 1.967910 0.001830 
#    z 0.004500 0.001830 2.003030 
# 
# From -- ./inp_files/577961.got.cif
#   From: 2010.05.17/outbox.cif.g08.bks.cpg/sg2_289_cif.got.tgz:577961.got - 2010.06.03 11:33:40.
