data_PCOD9043769
_publ_section_title
;
Structure prediction by ZEFSAII (Michael W. Deem and Ramdas Pophale) SiO2 
 PCOD9043769
Probable space group: P -1
;
_chemical_formula_sum "Si O2"
_cell_formula_units_Z 14
_cell_length_a 16.602883
_cell_length_b 9.617931
_cell_length_c 11.555248
_cell_angle_alpha 84.113017
_cell_angle_beta 21.504295
_cell_angle_gamma 80.196738
_cell_volume 658.507449
_symmetry_space_group_name_H-M "P -1"
_symmetry_group_IT_number 2
_symmetry_cell_setting 'triclinic'
loop_
_space_group_symop_operation_xyz
x,y,z
-x,-y,-z
loop_
_atom_site_type_symbol
_atom_site_label
_atom_site_fract_x
_atom_site_fract_y
_atom_site_fract_z
Si Si1 0.879020 0.717867 0.397800
Si Si2 0.341356 0.657546 0.904286
Si Si3 0.631617 0.027656 0.708517
Si Si4 0.824684 0.645206 0.213127
Si Si5 0.212728 0.985843 0.129229
Si Si6 0.798102 0.486045 0.683458
Si Si7 0.942269 0.234796 0.319858
O O1 0.819504 0.702464 0.345823
O O2 0.736927 0.635225 0.681630
O O3 0.833063 0.888515 0.455197
O O4 0.132190 0.644426 0.102686
O O5 0.571801 0.629996 0.528873
O O6 0.365938 0.561567 0.997270
O O7 0.277780 0.821720 0.017606
O O8 0.728107 0.170315 0.573620
O O9 0.443742 0.023488 0.863850
O O10 0.500000 0.000000 0.000000
O O11 0.000000 0.500000 0.000000
O O12 0.928845 0.725800 0.967426
O O13 0.114367 0.104435 0.158085
O O14 0.000000 0.000000 0.500000
O O15 0.871957 0.362248 0.497897
O O16 0.000000 0.500000 0.500000
#
# Coordination Sequence:
#
# PCOD9043769 Si02
#       7
#     2   2   2   2   2   2   2
#     4  11  24  47  72 104 144 184 242 287 354 416
#     4  11  23  46  74 100 144 185 234 298 349 412
#     4  12  24  42  76 106 139 182 234 301 349 414
#     4  12  28  48  67 103 148 193 234 284 351 434
#     4  12  22  44  73 105 141 176 237 298 352 409
#     4  10  23  45  75 105 135 188 237 293 352 412
#     4  12  26  46  72 105 146 184 237 288 358 422
#
# _framework density 21.260200000000001
#
# number of rings (size 3 to 8) (size 9 to 14) (size 15 to 20)
#    0.000    0.571    7.143    0.000    2.000    4.571 
#    2.571    0.000    0.000    0.000    0.000    0.000 
#    0.000    0.000    0.000    0.000    0.000    0.000 
#
# Total GULP energy -78139.012303 kJ/mol
# GULP energy per Si atom -5581.358022 kJ/mol
# Density = 2.121181 g / cm^3
# Si number density = 21.260200 Si / 1000 Ang^3
#
#
#
# Elastic Constant Matrix: (Units=GPa)
#
#
# Indices 1 2 3 4 5 6 
#
# 1 78.1132 19.3786 20.2540 -27.4317 -9.4074 -23.0295
# 2 19.3786 93.1661 32.1377 -19.3557 4.3255 -12.0382
# 3 20.2540 32.1377 122.8245 -23.7513 -7.5423 -21.6181
# 4 -27.4317 -19.3557 -23.7513 40.9494 -8.3860 7.2992
# 5 -9.4074 4.3255 -7.5423 -8.3860 41.1642 -10.6257
# 6 -23.0295 -12.0382 -21.6181 7.2992 -10.6257 36.9795
#
#
#
# Elastic Compliance Matrix: (Units=1/GPa)
#
#
# Indices 1 2 3 4 5 6 
#
# 1 0.026311 -0.001120 0.003994 0.019229 0.015703 0.019072
# 2 -0.001120 0.012683 -0.002331 0.003489 -0.001025 0.001085
# 3 0.003994 -0.002331 0.011738 0.008267 0.007333 0.009065
# 4 0.019229 0.003489 0.008267 0.044956 0.018408 0.014360
# 5 0.015703 -0.001025 0.007333 0.018408 0.038549 0.021175
# 6 0.019072 0.001085 0.009065 0.014360 0.021175 0.047823
#
#
# Mechanical properties :
#
#
# Convention : Reuss Voigt Hill
#
# Bulk Modulus (GPa) = 19.29862 48.62716 33.96289
# Shear Modulus (GPa) = 25.22107 38.64085 31.93096
#
# Velocity S-wave (km/s) = 3.44801 4.26786 3.87966
# Velocity P-wave (km/s) = 4.99488 6.87083 6.00654
#
# Compressibility (1/GPa) = 0.05181719
#
# Stress axis : x y z
#
# Youngs Moduli (GPa) = 38.00675 78.84341 85.19644
#
# Poissons Ratio (x) = 0.08832 -0.34027
# Poissons Ratio (y) = 0.04258 0.19860
# Poissons Ratio (z) = -0.15180 0.18379
#
# Static dielectric constant tensor:
#      x y z
#    x 2.187800 0.642020 -0.208210 
#    y 0.642020 2.409100 -0.182080 
#    z -0.208210 -0.182080 1.767910 
# 
# From -- ./inp_files/390588.got.cif
#   From: 2010.05.17/outbox.cif.g08.bks.cpg/sg2_196_cif.got.tgz:390588.got - 2010.06.03 11:33:40.
