data_PCOD9043554
_publ_section_title
;
Structure prediction by ZEFSAII (Michael W. Deem and Ramdas Pophale) SiO2 
 PCOD9043554
Probable space group: P -1
;
_chemical_formula_sum "Si O2"
_cell_formula_units_Z 14
_cell_length_a 5.231262
_cell_length_b 21.175714
_cell_length_c 6.940379
_cell_angle_alpha 129.309852
_cell_angle_beta 109.564882
_cell_angle_gamma 61.179430
_cell_volume 520.687648
_symmetry_space_group_name_H-M "P -1"
_symmetry_group_IT_number 2
_symmetry_cell_setting 'triclinic'
loop_
_space_group_symop_operation_xyz
x,y,z
-x,-y,-z
loop_
_atom_site_type_symbol
_atom_site_label
_atom_site_fract_x
_atom_site_fract_y
_atom_site_fract_z
Si Si1 0.546543 0.625957 0.871614
Si Si2 0.085986 0.382858 0.686642
Si Si3 0.617470 0.522240 0.319087
Si Si4 0.317612 0.957394 0.091890
Si Si5 0.649650 0.871516 0.627024
Si Si6 0.849017 0.105121 0.701414
Si Si7 0.983939 0.233501 0.191265
O O1 0.701075 0.556038 0.607553
O O2 0.352377 0.578331 0.840810
O O3 0.334857 0.707707 0.854577
O O4 0.756727 0.642272 0.115000
O O5 0.215497 0.450184 0.754482
O O6 0.151609 0.300684 0.396055
O O7 0.734113 0.424484 0.693176
O O8 0.938438 0.842963 0.100513
O O9 0.357032 0.046157 0.344018
O O10 0.521106 0.912658 0.879685
O O11 0.000000 0.000000 0.000000
O O12 0.963895 0.805479 0.650292
O O13 0.396157 0.846196 0.421423
O O14 0.696712 0.106953 0.871399
O O15 0.000000 0.000000 0.500000
#
# Coordination Sequence:
#
# PCOD9043554 Si02
#       7
#     2   2   2   2   2   2   2
#     4  10  23  45  72 103 142 184 225 285 351 411
#     4  11  24  46  71 104 145 185 232 289 346 410
#     4  10  24  44  75 107 139 184 239 279 337 431
#     4  11  21  43  67  92 124 163 232 286 338 415
#     4  11  23  41  65  93 128 171 222 287 348 409
#     4  12  23  43  69  92 127 182 227 284 354 401
#     4  11  25  42  65 102 138 175 234 286 347 418
#
# _framework density 26.887521
#
# number of rings (size 3 to 8) (size 9 to 14) (size 15 to 20)
#    0.000    1.143    2.857    3.000    0.000    9.714 
#    0.000    5.714    0.000    0.000    0.000    0.000 
#    0.000    0.000    0.000    0.000    0.000    0.000 
#
# Total GULP energy -78236.792837 kJ/mol
# GULP energy per Si atom -5588.342346 kJ/mol
# Density = 2.682632 g / cm^3
# Si number density = 26.887521 Si / 1000 Ang^3
#
#
#
# Elastic Constant Matrix: (Units=GPa)
#
#
# Indices 1 2 3 4 5 6 
#
# 1 78.4402 25.5194 7.1606 -11.3610 11.5586 -4.3105
# 2 25.5194 158.7248 65.3559 -36.8569 10.3246 -11.9587
# 3 7.1606 65.3559 212.6525 -23.1133 21.2976 -23.1681
# 4 -11.3610 -36.8569 -23.1133 67.1861 -7.8412 11.5194
# 5 11.5586 10.3246 21.2976 -7.8412 26.3917 -8.3028
# 6 -4.3105 -11.9587 -23.1681 11.5194 -8.3028 23.7047
#
#
#
# Elastic Compliance Matrix: (Units=1/GPa)
#
#
# Indices 1 2 3 4 5 6 
#
# 1 0.014339 -0.002060 0.000827 0.000913 -0.005914 -0.000139
# 2 -0.002060 0.008304 -0.002128 0.003495 0.000473 0.000202
# 3 0.000827 -0.002128 0.006075 0.000023 -0.003204 0.003881
# 4 0.000913 0.003495 0.000023 0.018242 0.001640 -0.006339
# 5 -0.005914 0.000473 -0.003204 0.001640 0.047054 0.011716
# 6 -0.000139 0.000202 0.003881 -0.006339 0.011716 0.053239
#
#
# Mechanical properties :
#
#
# Convention : Reuss Voigt Hill
#
# Bulk Modulus (GPa) = 45.46404 71.76549 58.61476
# Shear Modulus (GPa) = 30.99670 46.90861 38.95266
#
# Velocity S-wave (km/s) = 3.39902 4.18140 3.81034
# Velocity P-wave (km/s) = 5.68771 7.07539 6.41916
#
# Compressibility (1/GPa) = 0.02199541
#
# Stress axis : x y z
#
# Youngs Moduli (GPa) = 69.73903 120.42791 164.61140
#
# Poissons Ratio (x) = 0.24803 -0.13605
# Poissons Ratio (y) = 0.14363 0.35032
# Poissons Ratio (z) = -0.05764 0.25629
#
# Static dielectric constant tensor:
#      x y z
#    x 2.149460 -0.055890 0.057620 
#    y -0.055890 2.394650 0.089450 
#    z 0.057620 0.089450 2.236070 
# 
# From -- ./inp_files/142708.got.cif
#   From: 2010.05.17/outbox.cif.g08.bks.cpg/sg2_72_cif.got.tgz:142708.got - 2010.06.03 11:33:40.
