data_PCOD9043316
_publ_section_title
;
Structure prediction by ZEFSAII (Michael W. Deem and Ramdas Pophale) SiO2 
 PCOD9043316
Probable space group: P -1
;
_chemical_formula_sum "Si O2"
_cell_formula_units_Z 16
_cell_length_a 5.239072
_cell_length_b 11.243563
_cell_length_c 13.506997
_cell_angle_alpha 102.265496
_cell_angle_beta 125.441464
_cell_angle_gamma 82.319826
_cell_volume 633.364356
_symmetry_space_group_name_H-M "P -1"
_symmetry_group_IT_number 2
_symmetry_cell_setting 'triclinic'
loop_
_space_group_symop_operation_xyz
x,y,z
-x,-y,-z
loop_
_atom_site_type_symbol
_atom_site_label
_atom_site_fract_x
_atom_site_fract_y
_atom_site_fract_z
Si Si1 0.313696 0.395542 0.882758
Si Si2 0.885079 0.532567 0.654678
Si Si3 0.592764 0.763509 0.741687
Si Si4 0.636584 0.775221 0.310624
Si Si5 0.190068 0.936677 0.368194
Si Si6 0.943269 0.039335 0.142625
Si Si7 0.912034 0.351600 0.478759
Si Si8 0.666199 0.797093 0.980966
O O1 0.049597 0.464221 0.771172
O O2 0.472348 0.308171 0.819800
O O3 0.500000 0.500000 0.000000
O O4 0.231446 0.298291 0.930618
O O5 0.088031 0.573468 0.610684
O O6 0.764055 0.658594 0.697082
O O7 0.728684 0.419456 0.539163
O O8 0.258503 0.768686 0.615809
O O9 0.621730 0.727349 0.855883
O O10 0.738095 0.894817 0.796336
O O11 0.363570 0.853423 0.310737
O O12 0.943346 0.855581 0.361996
O O13 0.757306 0.685033 0.408595
O O14 0.500000 0.000000 0.500000
O O15 0.963590 0.019873 0.262310
O O16 0.669717 0.134511 0.066240
O O17 0.893154 0.912301 0.054423
#
# Coordination Sequence:
#
# PCOD9043316 Si02
#       8
#     2   2   2   2   2   2   2   2
#     4  11  23  49  72 106 149 197 255 313 383 451
#     4  10  24  44  68 105 141 192 244 312 375 447
#     4  12  23  40  73 105 138 195 252 302 375 452
#     4  11  27  48  75 112 157 194 258 319 379 454
#     4  12  27  48  77 113 152 205 252 317 383 453
#     4  11  26  45  70 101 149 194 246 304 377 443
#     4  10  23  45  70 103 147 189 244 309 383 448
#     4  11  26  47  70 104 149 193 250 306 377 447
#
# _framework density 25.261918000000001
#
# number of rings (size 3 to 8) (size 9 to 14) (size 15 to 20)
#    0.000    1.000    1.250    4.125    7.000    2.500 
#   11.250    0.000    0.000    0.000    0.000    0.000 
#    0.000    0.000    0.000    0.000    0.000    0.000 
#
# Total GULP energy -89323.167252 kJ/mol
# GULP energy per Si atom -5582.697953 kJ/mol
# Density = 2.520442 g / cm^3
# Si number density = 25.261918 Si / 1000 Ang^3
#
#
#
# Elastic Constant Matrix: (Units=GPa)
#
#
# Indices 1 2 3 4 5 6 
#
# 1 74.4990 29.3174 33.4830 11.2925 -14.9449 -2.7932
# 2 29.3174 81.2281 60.1440 8.3299 -4.7281 14.4305
# 3 33.4830 60.1440 198.5861 24.8318 -19.9801 13.7957
# 4 11.2925 8.3299 24.8318 62.2891 5.7441 -7.7812
# 5 -14.9449 -4.7281 -19.9801 5.7441 26.6449 11.2560
# 6 -2.7932 14.4305 13.7957 -7.7812 11.2560 30.8193
#
#
#
# Elastic Compliance Matrix: (Units=1/GPa)
#
#
# Indices 1 2 3 4 5 6 
#
# 1 0.018154 -0.005620 0.000158 -0.003607 0.010274 -0.000457
# 2 -0.005620 0.018899 -0.003998 -0.001010 0.000859 -0.008137
# 3 0.000158 -0.003998 0.008077 -0.004296 0.008928 -0.006075
# 4 -0.003607 -0.001010 -0.004296 0.021662 -0.015701 0.013273
# 5 0.010274 0.000859 0.008928 -0.015701 0.067003 -0.031903
# 6 -0.000457 -0.008137 -0.006075 0.013273 -0.031903 0.053938
#
#
# Mechanical properties :
#
#
# Convention : Reuss Voigt Hill
#
# Bulk Modulus (GPa) = 38.15374 66.68909 52.42141
# Shear Modulus (GPa) = 23.21356 39.37526 31.29441
#
# Velocity S-wave (km/s) = 3.03465 3.95230 3.52347
# Velocity P-wave (km/s) = 5.23592 6.87633 6.11141
#
# Compressibility (1/GPa) = 0.02620975
#
# Stress axis : x y z
#
# Youngs Moduli (GPa) = 55.08287 52.91266 123.80123
#
# Poissons Ratio (x) = 0.29737 -0.01951
# Poissons Ratio (y) = 0.30957 0.49498
# Poissons Ratio (z) = -0.00868 0.21155
#
# Static dielectric constant tensor:
#      x y z
#    x 2.146390 -0.010470 0.064550 
#    y -0.010470 2.306180 -0.057070 
#    z 0.064550 -0.057070 2.100330 
# 
# From -- ./inp_files/364888.got.cif
#   From: 2010.05.17/outbox.cif.g08.bks.cpg/sg2_183_cif.got.tgz:364888.got - 2010.06.03 11:33:40.
