data_PCOD9043358
_publ_section_title
;
Structure prediction by ZEFSAII (Michael W. Deem and Ramdas Pophale) SiO2 
 PCOD9043358
Probable space group: P -1
;
_chemical_formula_sum "Si O2"
_cell_formula_units_Z 16
_cell_length_a 13.510875
_cell_length_b 5.271620
_cell_length_c 13.028262
_cell_angle_alpha 125.639202
_cell_angle_beta 75.043064
_cell_angle_gamma 84.555508
_cell_volume 692.120105
_symmetry_space_group_name_H-M "P -1"
_symmetry_group_IT_number 2
_symmetry_cell_setting 'triclinic'
loop_
_space_group_symop_operation_xyz
x,y,z
-x,-y,-z
loop_
_atom_site_type_symbol
_atom_site_label
_atom_site_fract_x
_atom_site_fract_y
_atom_site_fract_z
Si Si1 0.440566 0.874325 0.076802
Si Si2 0.963968 0.169453 0.438388
Si Si3 0.623680 0.679962 0.312047
Si Si4 0.831027 0.833483 0.114735
Si Si5 0.036023 0.918493 0.132213
Si Si6 0.521023 0.731343 0.649598
Si Si7 0.751757 0.081159 0.999179
Si Si8 0.734865 0.142138 0.427695
O O1 0.445238 0.083395 0.222741
O O2 0.500000 0.500000 0.000000
O O3 0.322365 0.922862 0.076998
O O4 0.500000 0.000000 0.000000
O O5 0.836023 0.209640 0.471604
O O6 0.000000 0.500000 0.500000
O O7 0.000000 0.000000 0.500000
O O8 0.013109 0.968128 0.272206
O O9 0.557622 0.466043 0.333011
O O10 0.702519 0.442656 0.150345
O O11 0.539380 0.988156 0.349221
O O12 0.692170 0.842375 0.407316
O O13 0.922841 0.020071 0.125792
O O14 0.749094 0.871321 0.051851
O O15 0.773286 0.001429 0.271554
O O16 0.900737 0.455598 0.004873
O O17 0.125120 0.076319 0.108331
O O18 0.631969 0.461298 0.524617
#
# Coordination Sequence:
#
# PCOD9043358 Si02
#       8
#     2   2   2   2   2   2   2   2
#     4  12  26  46  68 102 147 192 245 297 354 437
#     4  11  29  52  74 110 150 190 244 298 363 452
#     4  12  25  46  73 108 144 187 248 302 358 432
#     4  10  23  45  70 111 137 187 243 307 357 439
#     4  10  24  45  75 103 144 183 243 300 370 426
#     4  12  26  47  70 106 146 197 239 304 366 430
#     4  12  24  41  78 100 147 188 245 295 372 420
#     4  11  26  48  75 107 149 194 243 306 372 433
#
# _framework density 23.117377000000001
#
# number of rings (size 3 to 8) (size 9 to 14) (size 15 to 20)
#    0.000    0.750    3.750    1.875    5.250    5.000 
#    0.000    0.000    0.000    0.000    0.000    0.000 
#    0.000    0.000    0.000    0.000    0.000    0.000 
#
# Total GULP energy -89361.733606 kJ/mol
# GULP energy per Si atom -5585.108350 kJ/mol
# Density = 2.306476 g / cm^3
# Si number density = 23.117377 Si / 1000 Ang^3
#
#
#
# Elastic Constant Matrix: (Units=GPa)
#
#
# Indices 1 2 3 4 5 6 
#
# 1 131.6790 47.4705 40.6671 2.0510 10.0947 -0.1355
# 2 47.4705 125.6064 34.0646 0.3834 3.2249 0.3952
# 3 40.6671 34.0646 139.8510 1.8064 -0.5854 -1.0356
# 4 2.0510 0.3834 1.8064 32.3819 -2.0953 6.6573
# 5 10.0947 3.2249 -0.5854 -2.0953 47.5549 -5.1673
# 6 -0.1355 0.3952 -1.0356 6.6573 -5.1673 34.9868
#
#
#
# Elastic Compliance Matrix: (Units=1/GPa)
#
#
# Indices 1 2 3 4 5 6 
#
# 1 0.009441 -0.002969 -0.002024 -0.000537 -0.001869 -0.000164
# 2 -0.002969 0.009478 -0.001449 0.000196 -0.000044 -0.000205
# 3 -0.002024 -0.001449 0.008102 -0.000349 0.000657 0.000412
# 4 -0.000537 0.000196 -0.000349 0.032226 0.000862 -0.006019
# 5 -0.001869 -0.000044 0.000657 0.000862 0.021808 0.003069
# 6 -0.000164 -0.000205 0.000412 -0.006019 0.003069 0.030195
#
#
# Mechanical properties :
#
#
# Convention : Reuss Voigt Hill
#
# Bulk Modulus (GPa) = 70.74184 71.28231 71.01207
# Shear Modulus (GPa) = 38.80565 41.31367 40.05966
#
# Velocity S-wave (km/s) = 4.10156 4.23203 4.16730
# Velocity P-wave (km/s) = 7.28684 7.40148 7.34438
#
# Compressibility (1/GPa) = 0.01413591
#
# Stress axis : x y z
#
# Youngs Moduli (GPa) = 105.91848 105.51060 123.41904
#
# Poissons Ratio (x) = 0.31326 0.24984
# Poissons Ratio (y) = 0.31447 0.17889
# Poissons Ratio (z) = 0.21441 0.15293
#
# Static dielectric constant tensor:
#      x y z
#    x 2.020350 0.076230 -0.000240 
#    y 0.076230 1.986660 -0.045880 
#    z -0.000240 -0.045880 1.878690 
# 
# From -- ./inp_files/511312.got.cif
#   From: 2010.05.17/outbox.cif.g08.bks.cpg/sg2_256_cif.got.tgz:511312.got - 2010.06.03 11:33:40.
