data_PCOD9043968
_publ_section_title
;
Structure prediction by ZEFSAII (Michael W. Deem and Ramdas Pophale) SiO2 
 PCOD9043968
Probable space group: P -1
;
_chemical_formula_sum "Si O2"
_cell_formula_units_Z 16
_cell_length_a 9.465226
_cell_length_b 15.928352
_cell_length_c 5.267968
_cell_angle_alpha 67.073003
_cell_angle_beta 90.879462
_cell_angle_gamma 88.938303
_cell_volume 731.139911
_symmetry_space_group_name_H-M "P -1"
_symmetry_group_IT_number 2
_symmetry_cell_setting 'triclinic'
loop_
_space_group_symop_operation_xyz
x,y,z
-x,-y,-z
loop_
_atom_site_type_symbol
_atom_site_label
_atom_site_fract_x
_atom_site_fract_y
_atom_site_fract_z
Si Si1 0.619632 0.315689 0.337958
Si Si2 0.183230 0.524940 0.729808
Si Si3 0.579095 0.909583 0.014687
Si Si4 0.868473 0.588766 0.631762
Si Si5 0.331653 0.796590 0.015397
Si Si6 0.319839 0.250780 0.422235
Si Si7 0.824487 0.899630 0.672095
Si Si8 0.103115 0.948272 0.866327
O O1 0.687339 0.413452 0.259008
O O2 0.637923 0.269862 0.669245
O O3 0.452359 0.311070 0.275475
O O4 0.696099 0.259076 0.177812
O O5 0.192889 0.472806 0.523458
O O6 0.038920 0.587026 0.621336
O O7 0.161078 0.454288 0.041944
O O8 0.721914 0.935060 0.848722
O O9 0.469119 0.857179 0.893324
O O10 0.616545 0.834515 0.316638
O O11 0.500000 0.000000 0.000000
O O12 0.790536 0.686434 0.499810
O O13 0.210944 0.866780 0.030679
O O14 0.229105 0.200837 0.266011
O O15 0.989499 0.901615 0.733866
O O16 0.810300 0.973519 0.361599
O O17 0.000000 0.000000 0.000000
#
# Coordination Sequence:
#
# PCOD9043968 Si02
#       8
#     2   2   2   2   2   2   2   2
#     4  11  25  43  68 101 135 174 228 277 345 409
#     4  10  23  46  68 101 133 180 219 278 352 409
#     4  11  24  43  67  95 141 183 230 281 343 405
#     4  10  24  43  72  98 137 174 225 278 342 413
#     4  11  25  42  67  97 136 178 230 283 338 406
#     4  11  25  41  66 104 134 177 229 282 338 406
#     4  11  24  42  66  93 136 176 232 283 344 398
#     4  11  26  42  62  95 132 183 234 282 346 400
#
# _framework density 21.883637
#
# number of rings (size 3 to 8) (size 9 to 14) (size 15 to 20)
#    0.000    1.250    1.250    3.000   10.500    3.000 
#    0.000    0.000    0.000    0.000    0.000    0.000 
#    0.000    0.000    0.000    0.000    0.000    0.000 
#
# Total GULP energy -89371.358848 kJ/mol
# GULP energy per Si atom -5585.709928 kJ/mol
# Density = 2.183383 g / cm^3
# Si number density = 21.883637 Si / 1000 Ang^3
#
#
#
# Elastic Constant Matrix: (Units=GPa)
#
#
# Indices 1 2 3 4 5 6 
#
# 1 70.8546 41.1406 -3.5950 -3.7628 0.9105 10.9280
# 2 41.1406 95.9820 4.9993 13.2065 10.6420 5.6626
# 3 -3.5950 4.9993 53.0998 12.7802 -6.9564 1.4812
# 4 -3.7628 13.2065 12.7802 28.2259 -0.7460 2.2024
# 5 0.9105 10.6420 -6.9564 -0.7460 26.0535 2.1130
# 6 10.9280 5.6626 1.4812 2.2024 2.1130 41.9190
#
#
#
# Elastic Compliance Matrix: (Units=1/GPa)
#
#
# Indices 1 2 3 4 5 6 
#
# 1 0.021368 -0.010496 0.001316 0.007659 0.004503 -0.004829
# 2 -0.010496 0.016953 -0.001092 -0.009131 -0.007218 0.001328
# 3 0.001316 -0.001092 0.022025 -0.009063 0.006086 -0.000805
# 4 0.007659 -0.009131 -0.009063 0.045123 0.002573 -0.002943
# 5 0.004503 -0.007218 0.006086 0.002573 0.043093 -0.002721
# 6 -0.004829 0.001328 -0.000805 -0.002943 -0.002721 0.025255
#
#
# Mechanical properties :
#
#
# Convention : Reuss Voigt Hill
#
# Bulk Modulus (GPa) = 25.12362 33.89179 29.50770
# Shear Modulus (GPa) = 24.08157 31.06578 27.57367
#
# Velocity S-wave (km/s) = 3.32088 3.77183 3.55352
# Velocity P-wave (km/s) = 5.11955 5.87281 5.50907
#
# Compressibility (1/GPa) = 0.03980319
#
# Stress axis : x y z
#
# Youngs Moduli (GPa) = 46.79920 58.98805 45.40211
#
# Poissons Ratio (x) = 0.61912 -0.05975
# Poissons Ratio (y) = 0.49119 0.04956
# Poissons Ratio (z) = -0.06158 0.06439
#
# Static dielectric constant tensor:
#      x y z
#    x 1.827450 0.012200 0.045040 
#    y 0.012200 1.831840 0.025580 
#    z 0.045040 0.025580 1.840820 
# 
# From -- ./inp_files/37437.got.cif
#   From: 2010.05.17/outbox.cif.g08.bks.cpg/sg2_19_cif.got.tgz:37437.got - 2010.06.03 11:33:40.
