data_PCOD9043436
_publ_section_title
;
Structure prediction by ZEFSAII (Michael W. Deem and Ramdas Pophale) SiO2 
 PCOD9043436
Probable space group: P -1
;
_chemical_formula_sum "Si O2"
_cell_formula_units_Z 10
_cell_length_a 14.975208
_cell_length_b 5.289541
_cell_length_c 6.864156
_cell_angle_alpha 133.975915
_cell_angle_beta 85.716372
_cell_angle_gamma 88.951492
_cell_volume 388.318125
_symmetry_space_group_name_H-M "P -1"
_symmetry_group_IT_number 2
_symmetry_cell_setting 'triclinic'
loop_
_space_group_symop_operation_xyz
x,y,z
-x,-y,-z
loop_
_atom_site_type_symbol
_atom_site_label
_atom_site_fract_x
_atom_site_fract_y
_atom_site_fract_z
Si Si1 0.647977 0.385248 0.449376
Si Si2 0.085552 0.938850 0.722581
Si Si3 0.763917 0.821702 0.925910
Si Si4 0.479096 0.411385 0.737139
Si Si5 0.112385 0.094562 0.352969
O O1 0.722868 0.518228 0.649097
O O2 0.558011 0.543751 0.662093
O O3 0.618180 0.499752 0.295270
O O4 0.688040 0.989767 0.176863
O O5 0.103351 0.525987 0.564394
O O6 0.978039 0.030915 0.794256
O O7 0.112732 0.987167 0.519343
O O8 0.143870 0.192529 0.973171
O O9 0.798507 0.048285 0.857356
O O10 0.500000 0.000000 0.500000
O O11 0.500000 0.500000 0.000000
#
# Coordination Sequence:
#
# PCOD9043436 Si02
#       5
#     2   2   2   2   2
#     4  11  26  44  69 104 136 178 235 286 360 431
#     4  10  23  45  71 102 145 197 243 291 355 421
#     4  12  23  45  66 106 142 184 238 301 355 414
#     4  11  24  47  72  98 136 183 224 285 357 436
#     4  10  23  45  71 102 145 197 243 291 355 421
#
# _framework density 25.752082999999999
#
# number of rings (size 3 to 8) (size 9 to 14) (size 15 to 20)
#    0.000    1.200    2.000    3.000    0.000    9.600 
#    7.200    6.000    0.000    0.000    0.000    0.000 
#    0.000    0.000    0.000    0.000    0.000    0.000 
#
# Total GULP energy -55768.854251 kJ/mol
# GULP energy per Si atom -5576.885425 kJ/mol
# Density = 2.569347 g / cm^3
# Si number density = 25.752083 Si / 1000 Ang^3
#
#
#
# Elastic Constant Matrix: (Units=GPa)
#
#
# Indices 1 2 3 4 5 6 
#
# 1 76.0389 8.9154 47.5910 -3.6012 16.4347 -18.5823
# 2 8.9154 83.2572 35.7639 -18.2776 13.0598 -13.1753
# 3 47.5910 35.7639 216.4276 -13.3197 38.0873 -7.8030
# 4 -3.6012 -18.2776 -13.3197 35.3600 8.8051 -5.7806
# 5 16.4347 13.0598 38.0873 8.8051 62.9796 -13.2807
# 6 -18.5823 -13.1753 -7.8030 -5.7806 -13.2807 20.4493
#
#
#
# Elastic Compliance Matrix: (Units=1/GPa)
#
#
# Indices 1 2 3 4 5 6 
#
# 1 0.020951 0.004489 -0.004120 0.006557 -0.000162 0.022107
# 2 0.004489 0.018211 -0.002341 0.012219 -0.001583 0.017346
# 3 -0.004120 -0.002341 0.006398 0.000852 -0.003441 -0.004804
# 4 0.006557 0.012219 0.000852 0.040609 -0.005830 0.021848
# 5 -0.000162 -0.001583 -0.003441 -0.005830 0.021174 0.009624
# 6 0.022107 0.017346 -0.004804 0.021848 0.009624 0.090759
#
#
# Mechanical properties :
#
#
# Convention : Reuss Voigt Hill
#
# Bulk Modulus (GPa) = 24.02779 62.25158 43.13968
# Shear Modulus (GPa) = 23.15702 42.65466 32.90584
#
# Velocity S-wave (km/s) = 3.00197 4.07425 3.57850
# Velocity P-wave (km/s) = 4.62238 6.80872 5.81915
#
# Compressibility (1/GPa) = 0.04161848
#
# Stress axis : x y z
#
# Youngs Moduli (GPa) = 47.72953 54.91092 156.29934
#
# Poissons Ratio (x) = -0.24652 0.64394
# Poissons Ratio (y) = -0.21428 0.36584
# Poissons Ratio (z) = 0.19664 0.12853
#
# Static dielectric constant tensor:
#      x y z
#    x 2.042750 -0.016120 -0.035140 
#    y -0.016120 2.057250 -0.006310 
#    z -0.035140 -0.006310 2.036610 
# 
# From -- ./inp_files/2596.got.cif
#   From: 2010.05.17/outbox.cif.g08.bks.cpg/sg2_2_cif.got.tgz:2596.got - 2010.06.03 11:33:40.
