data_PCOD9043364
_publ_section_title
;
Structure prediction by ZEFSAII (Michael W. Deem and Ramdas Pophale) SiO2 
 PCOD9043364
Probable space group: P -1
;
_chemical_formula_sum "Si O2"
_cell_formula_units_Z 14
_cell_length_a 11.692706
_cell_length_b 6.946087
_cell_length_c 8.048358
_cell_angle_alpha 81.034578
_cell_angle_beta 82.766691
_cell_angle_gamma 102.241315
_cell_volume 622.395609
_symmetry_space_group_name_H-M "P -1"
_symmetry_group_IT_number 2
_symmetry_cell_setting 'triclinic'
loop_
_space_group_symop_operation_xyz
x,y,z
-x,-y,-z
loop_
_atom_site_type_symbol
_atom_site_label
_atom_site_fract_x
_atom_site_fract_y
_atom_site_fract_z
Si Si1 0.122433 0.432809 0.483704
Si Si2 0.080999 0.058926 0.741123
Si Si3 0.354089 0.644286 0.599872
Si Si4 0.499127 0.345623 0.764280
Si Si5 0.682407 0.051644 0.161345
Si Si6 0.270177 0.556891 0.106650
Si Si7 0.939886 0.686563 0.980121
O O1 0.097706 0.194921 0.556505
O O2 0.217527 0.542424 0.590994
O O3 0.188836 0.502684 0.290782
O O4 0.000000 0.500000 0.500000
O O5 0.207656 0.029739 0.781598
O O6 0.034630 0.192497 0.870131
O O7 0.994594 0.839630 0.802004
O O8 0.416530 0.490185 0.703557
O O9 0.426148 0.691472 0.407842
O O10 0.360578 0.834091 0.690915
O O11 0.597315 0.446897 0.866655
O O12 0.418853 0.132179 0.860163
O O13 0.724788 0.221844 0.992565
O O14 0.200242 0.398826 0.007909
O O15 0.000000 0.500000 0.000000
#
# Coordination Sequence:
#
# PCOD9043364 Si02
#       7
#     2   2   2   2   2   2   2
#     4  11  24  44  66 100 138 172 224 276 330 401
#     4  11  25  42  71  96 133 183 220 269 337 407
#     4  10  23  45  70  94 134 182 212 276 335 398
#     4  10  23  46  67  98 134 171 230 267 331 398
#     4  12  23  43  71  99 130 176 226 269 338 394
#     4  11  25  42  67 101 136 172 219 286 324 384
#     4  11  23  45  68  96 136 177 224 271 336 397
#
# _framework density 22.493732999999999
#
# number of rings (size 3 to 8) (size 9 to 14) (size 15 to 20)
#    0.000    1.143    2.857    2.571    4.000    1.143 
#    2.571    0.000    0.000    0.000    0.000    0.000 
#    0.000    0.000    0.000    0.000    0.000    0.000 
#
# Total GULP energy -78373.740602 kJ/mol
# GULP energy per Si atom -5598.124329 kJ/mol
# Density = 2.244254 g / cm^3
# Si number density = 22.493733 Si / 1000 Ang^3
#
#
#
# Elastic Constant Matrix: (Units=GPa)
#
#
# Indices 1 2 3 4 5 6 
#
# 1 161.3837 57.9150 35.8479 -17.6273 4.1988 10.0126
# 2 57.9150 104.1243 24.7529 -22.6565 -1.5925 3.9930
# 3 35.8479 24.7529 94.1903 -30.8826 -0.4381 -10.7581
# 4 -17.6273 -22.6565 -30.8826 49.8520 1.2661 -5.8398
# 5 4.1988 -1.5925 -0.4381 1.2661 34.2873 0.0570
# 6 10.0126 3.9930 -10.7581 -5.8398 0.0570 47.9451
#
#
#
# Elastic Compliance Matrix: (Units=1/GPa)
#
#
# Indices 1 2 3 4 5 6 
#
# 1 0.008324 -0.004118 -0.002565 -0.000728 -0.001213 -0.002058
# 2 -0.004118 0.012906 -0.000444 0.004133 0.000945 0.000188
# 3 -0.002565 -0.000444 0.015208 0.008903 0.000151 0.005069
# 4 -0.000728 0.004133 0.008903 0.027820 -0.000641 0.005195
# 5 -0.001213 0.000945 0.000151 -0.000641 0.029383 0.000095
# 6 -0.002058 0.000188 0.005069 0.005195 0.000095 0.023041
#
#
# Mechanical properties :
#
#
# Convention : Reuss Voigt Hill
#
# Bulk Modulus (GPa) = 45.07512 66.30330 55.68921
# Shear Modulus (GPa) = 36.14509 42.49572 39.32041
#
# Velocity S-wave (km/s) = 4.01296 4.35124 4.18552
# Velocity P-wave (km/s) = 6.44626 7.40167 6.94042
#
# Compressibility (1/GPa) = 0.02218519
#
# Stress axis : x y z
#
# Youngs Moduli (GPa) = 120.13838 77.48155 65.75366
#
# Poissons Ratio (x) = 0.31906 0.16866
# Poissons Ratio (y) = 0.49472 0.02917
# Poissons Ratio (z) = 0.30816 0.03437
#
# Static dielectric constant tensor:
#      x y z
#    x 1.817330 0.032490 0.000620 
#    y 0.032490 1.804400 0.018490 
#    z 0.000620 0.018490 1.873630 
# 
# From -- ./inp_files/60898.got.cif
#   From: 2010.05.17/outbox.cif.g08.bks.cpg/sg2_31_cif.got.tgz:60898.got - 2010.06.03 11:33:40.
