data_PCOD9043297
_publ_section_title
;
Structure prediction by ZEFSAII (Michael W. Deem and Ramdas Pophale) SiO2 
 PCOD9043297
Probable space group: P -1
;
_chemical_formula_sum "Si O2"
_cell_formula_units_Z 16
_cell_length_a 9.123774
_cell_length_b 8.393698
_cell_length_c 11.895959
_cell_angle_alpha 101.043623
_cell_angle_beta 125.642266
_cell_angle_gamma 73.180655
_cell_volume 708.379179
_symmetry_space_group_name_H-M "P -1"
_symmetry_group_IT_number 2
_symmetry_cell_setting 'triclinic'
loop_
_space_group_symop_operation_xyz
x,y,z
-x,-y,-z
loop_
_atom_site_type_symbol
_atom_site_label
_atom_site_fract_x
_atom_site_fract_y
_atom_site_fract_z
Si Si1 0.793272 0.193357 0.716514
Si Si2 0.718517 0.839443 0.254727
Si Si3 0.286644 0.892783 0.094123
Si Si4 0.127495 0.893961 0.783700
Si Si5 0.428419 0.329249 0.450618
Si Si6 0.912909 0.678237 0.535824
Si Si7 0.819132 0.724175 0.864777
Si Si8 0.912530 0.587179 0.134123
O O1 0.751644 0.216364 0.833233
O O2 0.607734 0.204092 0.564711
O O3 0.910557 0.328929 0.755022
O O4 0.928617 0.015412 0.736046
O O5 0.503560 0.884312 0.190860
O O6 0.832772 0.802730 0.415487
O O7 0.773410 0.670953 0.180433
O O8 0.768828 0.990515 0.227890
O O9 0.178545 0.083522 0.093443
O O10 0.233862 0.847128 0.940623
O O11 0.078821 0.741510 0.676919
O O12 0.500000 0.500000 0.500000
O O13 0.255228 0.334184 0.457285
O O14 0.357946 0.286026 0.291383
O O15 0.000000 0.500000 0.500000
O O16 0.994292 0.606970 0.864358
O O17 0.822923 0.650673 0.982272
#
# Coordination Sequence:
#
# PCOD9043297 Si02
#       8
#     2   2   2   2   2   2   2   2
#     4  11  23  44  68 103 137 183 241 287 346 417
#     4  11  24  48  70 108 144 184 231 287 356 426
#     4  12  24  44  72 109 140 178 241 296 350 408
#     4  11  26  46  72  99 144 188 228 288 357 420
#     4  12  26  45  70 105 139 183 237 295 345 409
#     4  12  28  48  69 102 144 188 230 286 357 428
#     4  11  23  41  74 100 138 181 235 285 348 409
#     4  10  23  45  70 102 139 190 233 282 350 422
#
# _framework density 22.586772
#
# number of rings (size 3 to 8) (size 9 to 14) (size 15 to 20)
#    0.000    0.750    5.000    2.625    5.250    2.000 
#    0.000    0.625    0.000    0.000    0.000    0.000 
#    0.000    0.000    0.000    0.000    0.000    0.000 
#
# Total GULP energy -89599.336861 kJ/mol
# GULP energy per Si atom -5599.958554 kJ/mol
# Density = 2.253536 g / cm^3
# Si number density = 22.586772 Si / 1000 Ang^3
#
#
#
# Elastic Constant Matrix: (Units=GPa)
#
#
# Indices 1 2 3 4 5 6 
#
# 1 44.6577 0.7023 -41.8486 0.0459 2.8704 -3.6502
# 2 0.7023 47.2378 6.5839 14.9886 2.9058 -5.6196
# 3 -41.8486 6.5839 103.2204 2.8175 2.6339 -0.4208
# 4 0.0459 14.9886 2.8175 43.3512 -3.1625 -4.0026
# 5 2.8704 2.9058 2.6339 -3.1625 31.1399 -5.4714
# 6 -3.6502 -5.6196 -0.4208 -4.0026 -5.4714 23.6670
#
#
#
# Elastic Compliance Matrix: (Units=1/GPa)
#
#
# Indices 1 2 3 4 5 6 
#
# 1 0.037537 -0.001840 0.015459 -0.000250 -0.003794 0.004708
# 2 -0.001840 0.024650 -0.002024 -0.008209 -0.002152 0.003647
# 3 0.015459 -0.002024 0.016162 -0.000394 -0.002366 0.001577
# 4 -0.000250 -0.008209 -0.000394 0.026551 0.004125 0.003449
# 5 -0.003794 -0.002152 -0.002366 0.004125 0.034611 0.007561
# 6 0.004708 0.003647 0.001577 0.003449 0.007561 0.046204
#
#
# Mechanical properties :
#
#
# Convention : Reuss Voigt Hill
#
# Bulk Modulus (GPa) = 9.84849 13.99899 11.92374
# Shear Modulus (GPa) = 25.46187 34.94353 30.20270
#
# Velocity S-wave (km/s) = 3.36116 3.93756 3.66072
# Velocity P-wave (km/s) = 4.40828 5.18496 4.81232
#
# Compressibility (1/GPa) = 0.10153844
#
# Stress axis : x y z
#
# Youngs Moduli (GPa) = 26.64057 40.56773 61.87314
#
# Poissons Ratio (x) = 0.07463 -0.95648
# Poissons Ratio (y) = 0.04901 0.12525
# Poissons Ratio (z) = -0.41183 0.08212
#
# Static dielectric constant tensor:
#      x y z
#    x 1.812540 0.011770 -0.027160 
#    y 0.011770 1.880370 -0.008230 
#    z -0.027160 -0.008230 1.832330 
# 
# From -- ./inp_files/382766.got.cif
#   From: 2010.05.17/outbox.cif.g08.bks.cpg/sg2_192_cif.got.tgz:382766.got - 2010.06.03 11:33:40.
