data_PCOD9043866
_publ_section_title
;
Structure prediction by ZEFSAII (Michael W. Deem and Ramdas Pophale) SiO2 
 PCOD9043866
Probable space group: P -1
;
_chemical_formula_sum "Si O2"
_cell_formula_units_Z 12
_cell_length_a 9.833770
_cell_length_b 12.518192
_cell_length_c 7.383328
_cell_angle_alpha 46.654659
_cell_angle_beta 66.168594
_cell_angle_gamma 40.498290
_cell_volume 415.662613
_symmetry_space_group_name_H-M "P -1"
_symmetry_group_IT_number 2
_symmetry_cell_setting 'triclinic'
loop_
_space_group_symop_operation_xyz
x,y,z
-x,-y,-z
loop_
_atom_site_type_symbol
_atom_site_label
_atom_site_fract_x
_atom_site_fract_y
_atom_site_fract_z
Si Si1 0.973641 0.580383 0.622371
Si Si2 0.075217 0.676322 0.864405
Si Si3 0.458448 0.642323 0.142436
Si Si4 0.957920 0.191689 0.868538
Si Si5 0.542286 0.794411 0.228825
Si Si6 0.620869 0.055215 0.463409
O O1 0.221894 0.399752 0.758384
O O2 0.000000 0.500000 0.500000
O O3 0.871451 0.529378 0.862208
O O4 0.860832 0.839842 0.664906
O O5 0.018475 0.796090 0.945450
O O6 0.292049 0.581966 0.765182
O O7 0.492328 0.195630 0.550633
O O8 0.300472 0.615706 0.258071
O O9 0.414350 0.774858 0.189678
O O10 0.393981 0.792091 0.833856
O O11 0.089086 0.211458 0.650043
O O12 0.000000 0.000000 0.000000
O O13 0.500000 0.000000 0.000000
O O14 0.500000 0.000000 0.500000
#
# Coordination Sequence:
#
# PCOD9043866 Si02
#       6
#     2   2   2   2   2   2
#     4  10  23  45  79 108 155 201 268 324 388 469
#     4  11  25  49  79 118 159 208 272 332 400 471
#     4  12  28  47  79 118 164 207 266 334 403 474
#     4  11  26  49  80 116 164 215 264 325 407 484
#     4  12  24  47  74 115 156 204 263 326 398 470
#     4  12  25  46  80 116 159 207 268 332 396 476
#
# _framework density 28.869565999999999
#
# number of rings (size 3 to 8) (size 9 to 14) (size 15 to 20)
#    0.000    0.667    3.333    3.500    2.333    8.000 
#    0.000    1.667    0.000    0.000    0.000    0.000 
#    0.000    0.000    0.000    0.000    0.000    0.000 
#
# Total GULP energy -67249.976516 kJ/mol
# GULP energy per Si atom -5604.164710 kJ/mol
# Density = 2.880386 g / cm^3
# Si number density = 28.869566 Si / 1000 Ang^3
#
#
#
# Elastic Constant Matrix: (Units=GPa)
#
#
# Indices 1 2 3 4 5 6 
#
# 1 162.8001 27.6974 52.6104 20.9496 32.2828 14.1266
# 2 27.6974 121.7600 43.5136 3.1683 12.7131 0.3271
# 3 52.6104 43.5136 146.0680 19.6091 6.0437 18.6503
# 4 20.9496 3.1683 19.6091 70.3008 9.9583 12.4623
# 5 32.2828 12.7131 6.0437 9.9583 55.6797 8.4494
# 6 14.1266 0.3271 18.6503 12.4623 8.4494 81.7257
#
#
#
# Elastic Compliance Matrix: (Units=1/GPa)
#
#
# Indices 1 2 3 4 5 6 
#
# 1 0.007949 -0.000516 -0.002367 -0.001073 -0.004004 -0.000254
# 2 -0.000516 0.009480 -0.002744 0.000609 -0.001794 0.000770
# 3 -0.002367 -0.002744 0.008860 -0.001593 0.001553 -0.001519
# 4 -0.001073 0.000609 -0.001593 0.015515 -0.001872 -0.001626
# 5 -0.004004 -0.001794 0.001553 -0.001872 0.021092 -0.001550
# 6 -0.000254 0.000770 -0.001519 -0.001626 -0.001550 0.013032
#
#
# Mechanical properties :
#
#
# Convention : Reuss Voigt Hill
#
# Bulk Modulus (GPa) = 66.51235 75.36343 70.93789
# Shear Modulus (GPa) = 54.23310 61.99502 58.11406
#
# Velocity S-wave (km/s) = 4.33893 4.63905 4.49150
# Velocity P-wave (km/s) = 6.94195 7.40647 7.17797
#
# Compressibility (1/GPa) = 0.01503480
#
# Stress axis : x y z
#
# Youngs Moduli (GPa) = 125.79633 105.48221 112.86772
#
# Poissons Ratio (x) = 0.05439 0.26720
# Poissons Ratio (y) = 0.06486 0.30975
# Poissons Ratio (z) = 0.29781 0.28948
#
# Static dielectric constant tensor:
#      x y z
#    x 3.826330 -0.993970 0.443380 
#    y -0.993970 3.127940 -0.398440 
#    z 0.443380 -0.398440 2.285470 
# 
# From -- ./inp_files/150266.got.cif
#   From: 2010.05.17/outbox.cif.g08.bks.cpg/sg2_76_cif.got.tgz:150266.got - 2010.06.03 11:33:40.
