data_PCOD9043785
_publ_section_title
;
Structure prediction by ZEFSAII (Michael W. Deem and Ramdas Pophale) SiO2 
 PCOD9043785
Probable space group: P -1
;
_chemical_formula_sum "Si O2"
_cell_formula_units_Z 16
_cell_length_a 4.982114
_cell_length_b 14.378892
_cell_length_c 15.515482
_cell_angle_alpha 143.531828
_cell_angle_beta 99.589352
_cell_angle_gamma 96.925006
_cell_volume 586.766730
_symmetry_space_group_name_H-M "P -1"
_symmetry_group_IT_number 2
_symmetry_cell_setting 'triclinic'
loop_
_space_group_symop_operation_xyz
x,y,z
-x,-y,-z
loop_
_atom_site_type_symbol
_atom_site_label
_atom_site_fract_x
_atom_site_fract_y
_atom_site_fract_z
Si Si1 0.664823 0.259038 0.784351
Si Si2 0.348522 0.241222 0.599810
Si Si3 0.513710 0.233649 0.041478
Si Si4 0.072618 0.955184 0.247167
Si Si5 0.833464 0.222625 0.199815
Si Si6 0.635253 0.800725 0.701401
Si Si7 0.205629 0.523960 0.900548
Si Si8 0.353558 0.510246 0.342894
O O1 0.425554 0.151427 0.618898
O O2 0.823939 0.162725 0.775381
O O3 0.903546 0.413466 0.853703
O O4 0.560408 0.353567 0.923326
O O5 0.284601 0.387246 0.752878
O O6 0.612766 0.348740 0.624677
O O7 0.082932 0.103331 0.424941
O O8 0.612313 0.129366 0.038069
O O9 0.790087 0.342814 0.073209
O O10 0.433538 0.366200 0.194058
O O11 0.233386 0.134735 0.889929
O O12 0.317958 0.053968 0.259445
O O13 0.647446 0.242941 0.284839
O O14 0.062789 0.147461 0.188013
O O15 0.049691 0.407061 0.303605
O O16 0.590625 0.630737 0.516766
#
# Coordination Sequence:
#
# PCOD9043785 Si02
#       8
#     2   2   2   2   2   2   2   2
#     4  11  24  44  77 106 145 193 251 304 379 440
#     4  10  23  49  72 108 148 193 248 301 383 444
#     4  11  26  44  72 105 149 192 251 306 381 439
#     4  11  28  49  65 111 153 197 242 312 374 452
#     4  12  24  47  78 107 146 197 257 308 376 444
#     4  11  27  47  74 110 150 195 253 311 376 446
#     4  10  25  43  76 108 139 186 252 313 357 453
#     4  10  23  45  75 112 144 190 253 315 368 443
#
# _framework density 27.268073000000001
#
# number of rings (size 3 to 8) (size 9 to 14) (size 15 to 20)
#    0.000    1.250    1.250    2.250   12.250    2.500 
#    9.000    0.000    0.000    0.000    0.000    0.000 
#    0.000    0.000    0.000    0.000    0.000    0.000 
#
# Total GULP energy -89614.185967 kJ/mol
# GULP energy per Si atom -5600.886623 kJ/mol
# Density = 2.720601 g / cm^3
# Si number density = 27.268073 Si / 1000 Ang^3
#
#
#
# Elastic Constant Matrix: (Units=GPa)
#
#
# Indices 1 2 3 4 5 6 
#
# 1 104.6421 55.1464 43.1867 -15.4201 -1.1748 4.4809
# 2 55.1464 209.2800 59.9507 -34.5006 -0.4409 -4.3260
# 3 43.1867 59.9507 174.1243 -27.5063 -0.1357 -4.2598
# 4 -15.4201 -34.5006 -27.5063 40.0509 -4.9938 -1.7167
# 5 -1.1748 -0.4409 -0.1357 -4.9938 36.8959 -11.2669
# 6 4.4809 -4.3260 -4.2598 -1.7167 -11.2669 53.5269
#
#
#
# Elastic Compliance Matrix: (Units=1/GPa)
#
#
# Indices 1 2 3 4 5 6 
#
# 1 0.011855 -0.002405 -0.001971 0.001096 0.000096 -0.001288
# 2 -0.002405 0.006371 -0.000930 0.004068 0.000836 0.000949
# 3 -0.001971 -0.000930 0.007121 0.003457 0.000699 0.000915
# 4 0.001096 0.004068 0.003457 0.032035 0.005239 0.002642
# 5 0.000096 0.000836 0.000699 0.005239 0.029832 0.006563
# 6 -0.001288 0.000949 0.000915 0.002642 0.006563 0.020406
#
#
# Mechanical properties :
#
#
# Convention : Reuss Voigt Hill
#
# Bulk Modulus (GPa) = 67.86825 89.40156 78.63491
# Shear Modulus (GPa) = 40.60341 48.07892 44.34116
#
# Velocity S-wave (km/s) = 3.86300 4.20360 4.03689
# Velocity P-wave (km/s) = 6.69629 7.51117 7.11541
#
# Compressibility (1/GPa) = 0.01473443
#
# Stress axis : x y z
#
# Youngs Moduli (GPa) = 84.35366 156.97337 140.42768
#
# Poissons Ratio (x) = 0.37754 0.27671
# Poissons Ratio (y) = 0.20288 0.13066
# Poissons Ratio (z) = 0.16622 0.14605
#
# Static dielectric constant tensor:
#      x y z
#    x 2.121150 -0.022880 0.063680 
#    y -0.022880 2.151750 0.038990 
#    z 0.063680 0.038990 2.223320 
# 
# From -- ./inp_files/484517.got.cif
#   From: 2010.05.17/outbox.cif.g08.bks.cpg/sg2_243_cif.got.tgz:484517.got - 2010.06.03 11:33:40.
